MODEL 1
REMARK VINA RESULT:    -3.217      0.000      0.000
REMARK INTER + INTRA:          -6.835
REMARK INTER:                  -5.473
REMARK INTRA:                  -1.361
REMARK UNBOUND:                -1.361
REMARK SMILES CCCCCCCCCCCCCC(=O)[O-]
REMARK SMILES IDX 8 1 9 2 10 3 11 4 12 5 13 6 14 7 15 8 16 9 7 10 6 11 5 12
REMARK SMILES IDX 4 13 3 14 2 15 1 16
REMARK H PARENT
REMARK Flexibility Score: inf
ROOT
ATOM      1  C   UNL     1      14.130  38.950   9.138  1.00  0.00     0.000 C 
ENDROOT
BRANCH   1   2
ATOM      2  C   UNL     1      14.430  37.911  10.230  1.00  0.00     0.000 C 
BRANCH   2   3
ATOM      3  C   UNL     1      15.760  38.177  10.953  1.00  0.00     0.000 C 
BRANCH   3   4
ATOM      4  C   UNL     1      16.016  37.119  12.036  1.00  0.00     0.000 C 
BRANCH   4   5
ATOM      5  C   UNL     1      15.952  37.698  13.458  1.00  0.00     0.006 C 
BRANCH   5   6
ATOM      6  C   UNL     1      14.560  37.562  14.089  1.00  0.00     0.053 C 
BRANCH   6   7
ATOM      7  C   UNL     1      13.792  38.838  13.942  1.00  0.00     0.041 C 
ATOM      8  O   UNL     1      12.558  38.809  13.692  1.00  0.00    -0.550 OA
ATOM      9  O   UNL     1      14.450  40.059  14.030  1.00  0.00    -0.550 OA
ENDBRANCH   6   7
ENDBRANCH   5   6
ENDBRANCH   4   5
ENDBRANCH   3   4
ENDBRANCH   2   3
ENDBRANCH   1   2
BRANCH   1  10
ATOM     10  C   UNL     1      13.806  38.301   7.780  1.00  0.00     0.000 C 
BRANCH  10  11
ATOM     11  C   UNL     1      14.673  38.861   6.639  1.00  0.00    -0.000 C 
BRANCH  11  12
ATOM     12  C   UNL     1      16.153  39.005   7.036  1.00  0.00    -0.000 C 
BRANCH  12  13
ATOM     13  C   UNL     1      16.594  40.475   7.135  1.00  0.00    -0.000 C 
BRANCH  13  14
ATOM     14  C   UNL     1      17.124  40.838   8.533  1.00  0.00    -0.000 C 
BRANCH  14  15
ATOM     15  C   UNL     1      16.239  41.870   9.249  1.00  0.00    -0.003 C 
ATOM     16  C   UNL     1      15.120  42.405   8.358  1.00  0.00     0.004 C 
ENDBRANCH  14  15
ENDBRANCH  13  14
ENDBRANCH  12  13
ENDBRANCH  11  12
ENDBRANCH  10  11
ENDBRANCH   1  10
TORSDOF 12
ENDMDL
MODEL 2
REMARK VINA RESULT:    -3.172      2.377      2.968
REMARK INTER + INTRA:          -6.759
REMARK INTER:                  -5.690
REMARK INTRA:                  -1.069
REMARK UNBOUND:                -1.361
REMARK SMILES CCCCCCCCCCCCCC(=O)[O-]
REMARK SMILES IDX 8 1 9 2 10 3 11 4 12 5 13 6 14 7 15 8 16 9 7 10 6 11 5 12
REMARK SMILES IDX 4 13 3 14 2 15 1 16
REMARK H PARENT
REMARK Flexibility Score: inf
ROOT
ATOM      1  C   UNL     1      13.792  38.378   7.736  1.00  0.00     0.000 C 
ENDROOT
BRANCH   1   2
ATOM      2  C   UNL     1      14.214  38.812   9.149  1.00  0.00     0.000 C 
BRANCH   2   3
ATOM      3  C   UNL     1      14.115  37.672  10.174  1.00  0.00     0.000 C 
BRANCH   3   4
ATOM      4  C   UNL     1      14.745  38.082  11.514  1.00  0.00     0.000 C 
BRANCH   4   5
ATOM      5  C   UNL     1      16.244  37.753  11.589  1.00  0.00     0.006 C 
BRANCH   5   6
ATOM      6  C   UNL     1      16.641  37.102  12.920  1.00  0.00     0.053 C 
BRANCH   6   7
ATOM      7  C   UNL     1      16.719  35.614  12.772  1.00  0.00     0.041 C 
ATOM      8  O   UNL     1      16.950  34.889  13.775  1.00  0.00    -0.550 OA
ATOM      9  O   UNL     1      16.588  35.033  11.517  1.00  0.00    -0.550 OA
ENDBRANCH   6   7
ENDBRANCH   5   6
ENDBRANCH   4   5
ENDBRANCH   3   4
ENDBRANCH   2   3
ENDBRANCH   1   2
BRANCH   1  10
ATOM     10  C   UNL     1      14.843  38.738   6.670  1.00  0.00     0.000 C 
BRANCH  10  11
ATOM     11  C   UNL     1      15.937  39.671   7.214  1.00  0.00    -0.000 C 
BRANCH  11  12
ATOM     12  C   UNL     1      15.625  41.158   6.966  1.00  0.00    -0.000 C 
BRANCH  12  13
ATOM     13  C   UNL     1      16.570  42.094   7.740  1.00  0.00    -0.000 C 
BRANCH  13  14
ATOM     14  C   UNL     1      15.830  42.941   8.791  1.00  0.00    -0.000 C 
BRANCH  14  15
ATOM     15  C   UNL     1      16.408  42.763  10.203  1.00  0.00    -0.003 C 
ATOM     16  C   UNL     1      16.782  41.314  10.509  1.00  0.00     0.004 C 
ENDBRANCH  14  15
ENDBRANCH  13  14
ENDBRANCH  12  13
ENDBRANCH  11  12
ENDBRANCH  10  11
ENDBRANCH   1  10
TORSDOF 12
ENDMDL
MODEL 3
REMARK VINA RESULT:    -3.065      2.257      2.576
REMARK INTER + INTRA:          -6.576
REMARK INTER:                  -5.539
REMARK INTRA:                  -1.037
REMARK UNBOUND:                -1.361
REMARK SMILES CCCCCCCCCCCCCC(=O)[O-]
REMARK SMILES IDX 8 1 9 2 10 3 11 4 12 5 13 6 14 7 15 8 16 9 7 10 6 11 5 12
REMARK SMILES IDX 4 13 3 14 2 15 1 16
REMARK H PARENT
REMARK Flexibility Score: inf
ROOT
ATOM      1  C   UNL     1      14.162  39.036   9.105  1.00  0.00     0.000 C 
ENDROOT
BRANCH   1   2
ATOM      2  C   UNL     1      14.439  38.016  10.221  1.00  0.00     0.000 C 
BRANCH   2   3
ATOM      3  C   UNL     1      15.530  38.486  11.196  1.00  0.00     0.000 C 
BRANCH   3   4
ATOM      4  C   UNL     1      14.958  38.671  12.610  1.00  0.00     0.000 C 
BRANCH   4   5
ATOM      5  C   UNL     1      15.268  37.483  13.535  1.00  0.00     0.006 C 
BRANCH   5   6
ATOM      6  C   UNL     1      16.722  37.006  13.419  1.00  0.00     0.053 C 
BRANCH   6   7
ATOM      7  C   UNL     1      16.768  35.549  13.081  1.00  0.00     0.041 C 
ATOM      8  O   UNL     1      16.913  34.692  13.993  1.00  0.00    -0.550 OA
ATOM      9  O   UNL     1      16.703  35.140  11.755  1.00  0.00    -0.550 OA
ENDBRANCH   6   7
ENDBRANCH   5   6
ENDBRANCH   4   5
ENDBRANCH   3   4
ENDBRANCH   2   3
ENDBRANCH   1   2
BRANCH   1  10
ATOM     10  C   UNL     1      13.909  38.366   7.742  1.00  0.00     0.000 C 
BRANCH  10  11
ATOM     11  C   UNL     1      14.904  38.829   6.665  1.00  0.00    -0.000 C 
BRANCH  11  12
ATOM     12  C   UNL     1      16.342  38.955   7.201  1.00  0.00    -0.000 C 
BRANCH  12  13
ATOM     13  C   UNL     1      16.952  40.340   6.926  1.00  0.00    -0.000 C 
BRANCH  13  14
ATOM     14  C   UNL     1      16.014  41.489   7.335  1.00  0.00    -0.000 C 
BRANCH  14  15
ATOM     15  C   UNL     1      16.452  42.171   8.640  1.00  0.00    -0.003 C 
ATOM     16  C   UNL     1      15.464  43.237   9.110  1.00  0.00     0.004 C 
ENDBRANCH  14  15
ENDBRANCH  13  14
ENDBRANCH  12  13
ENDBRANCH  11  12
ENDBRANCH  10  11
ENDBRANCH   1  10
TORSDOF 12
ENDMDL
MODEL 4
REMARK VINA RESULT:    -2.992      2.977      5.984
REMARK INTER + INTRA:          -6.453
REMARK INTER:                  -5.057
REMARK INTRA:                  -1.395
REMARK UNBOUND:                -1.361
REMARK SMILES CCCCCCCCCCCCCC(=O)[O-]
REMARK SMILES IDX 8 1 9 2 10 3 11 4 12 5 13 6 14 7 15 8 16 9 7 10 6 11 5 12
REMARK SMILES IDX 4 13 3 14 2 15 1 16
REMARK H PARENT
REMARK Flexibility Score: inf
ROOT
ATOM      1  C   UNL     1      16.958  43.162  10.011  1.00  0.00     0.000 C 
ENDROOT
BRANCH   1   2
ATOM      2  C   UNL     1      15.634  43.422   9.273  1.00  0.00     0.000 C 
BRANCH   2   3
ATOM      3  C   UNL     1      15.256  42.283   8.314  1.00  0.00     0.000 C 
BRANCH   3   4
ATOM      4  C   UNL     1      16.489  41.444   7.947  1.00  0.00     0.000 C 
BRANCH   4   5
ATOM      5  C   UNL     1      16.348  39.970   8.356  1.00  0.00     0.006 C 
BRANCH   5   6
ATOM      6  C   UNL     1      14.887  39.554   8.576  1.00  0.00     0.053 C 
BRANCH   6   7
ATOM      7  C   UNL     1      14.416  38.686   7.452  1.00  0.00     0.041 C 
ATOM      8  O   UNL     1      13.323  38.066   7.546  1.00  0.00    -0.550 OA
ATOM      9  O   UNL     1      15.206  38.522   6.322  1.00  0.00    -0.550 OA
ENDBRANCH   6   7
ENDBRANCH   5   6
ENDBRANCH   4   5
ENDBRANCH   3   4
ENDBRANCH   2   3
ENDBRANCH   1   2
BRANCH   1  10
ATOM     10  C   UNL     1      16.745  42.778  11.487  1.00  0.00     0.000 C 
BRANCH  10  11
ATOM     11  C   UNL     1      17.030  41.290  11.755  1.00  0.00    -0.000 C 
BRANCH  11  12
ATOM     12  C   UNL     1      16.708  40.877  13.202  1.00  0.00    -0.000 C 
BRANCH  12  13
ATOM     13  C   UNL     1      16.270  39.407  13.310  1.00  0.00    -0.000 C 
BRANCH  13  14
ATOM     14  C   UNL     1      15.807  38.830  11.960  1.00  0.00    -0.000 C 
BRANCH  14  15
ATOM     15  C   UNL     1      14.457  38.104  12.061  1.00  0.00    -0.003 C 
ATOM     16  C   UNL     1      13.598  38.615  13.217  1.00  0.00     0.004 C 
ENDBRANCH  14  15
ENDBRANCH  13  14
ENDBRANCH  12  13
ENDBRANCH  11  12
ENDBRANCH  10  11
ENDBRANCH   1  10
TORSDOF 12
ENDMDL
MODEL 5
REMARK VINA RESULT:    -2.964      2.475      5.650
REMARK INTER + INTRA:          -6.404
REMARK INTER:                  -5.052
REMARK INTRA:                  -1.351
REMARK UNBOUND:                -1.361
REMARK SMILES CCCCCCCCCCCCCC(=O)[O-]
REMARK SMILES IDX 8 1 9 2 10 3 11 4 12 5 13 6 14 7 15 8 16 9 7 10 6 11 5 12
REMARK SMILES IDX 4 13 3 14 2 15 1 16
REMARK H PARENT
REMARK Flexibility Score: inf
ROOT
ATOM      1  C   UNL     1      14.038  38.374   8.026  1.00  0.00     0.000 C 
ENDROOT
BRANCH   1   2
ATOM      2  C   UNL     1      14.774  39.074   6.872  1.00  0.00     0.000 C 
BRANCH   2   3
ATOM      3  C   UNL     1      16.272  38.734   6.830  1.00  0.00     0.000 C 
BRANCH   3   4
ATOM      4  C   UNL     1      17.124  40.011   6.847  1.00  0.00     0.000 C 
BRANCH   4   5
ATOM      5  C   UNL     1      16.327  41.251   7.281  1.00  0.00     0.006 C 
BRANCH   5   6
ATOM      6  C   UNL     1      16.730  41.756   8.673  1.00  0.00     0.053 C 
BRANCH   6   7
ATOM      7  C   UNL     1      16.281  43.171   8.865  1.00  0.00     0.041 C 
ATOM      8  O   UNL     1      15.130  43.414   9.314  1.00  0.00    -0.550 OA
ATOM      9  O   UNL     1      17.115  44.221   8.502  1.00  0.00    -0.550 OA
ENDBRANCH   6   7
ENDBRANCH   5   6
ENDBRANCH   4   5
ENDBRANCH   3   4
ENDBRANCH   2   3
ENDBRANCH   1   2
BRANCH   1  10
ATOM     10  C   UNL     1      14.297  39.047   9.386  1.00  0.00     0.000 C 
BRANCH  10  11
ATOM     11  C   UNL     1      15.258  38.234  10.271  1.00  0.00    -0.000 C 
BRANCH  11  12
ATOM     12  C   UNL     1      16.141  39.127  11.162  1.00  0.00    -0.000 C 
BRANCH  12  13
ATOM     13  C   UNL     1      16.449  38.478  12.521  1.00  0.00    -0.000 C 
BRANCH  13  14
ATOM     14  C   UNL     1      15.400  37.426  12.924  1.00  0.00    -0.000 C 
BRANCH  14  15
ATOM     15  C   UNL     1      14.460  37.926  14.031  1.00  0.00    -0.003 C 
ATOM     16  C   UNL     1      13.216  38.620  13.479  1.00  0.00     0.004 C 
ENDBRANCH  14  15
ENDBRANCH  13  14
ENDBRANCH  12  13
ENDBRANCH  11  12
ENDBRANCH  10  11
ENDBRANCH   1  10
TORSDOF 12
ENDMDL
MODEL 6
REMARK VINA RESULT:    -2.803      2.369      6.101
REMARK INTER + INTRA:          -6.131
REMARK INTER:                  -4.966
REMARK INTRA:                  -1.166
REMARK UNBOUND:                -1.361
REMARK SMILES CCCCCCCCCCCCCC(=O)[O-]
REMARK SMILES IDX 8 1 9 2 10 3 11 4 12 5 13 6 14 7 15 8 16 9 7 10 6 11 5 12
REMARK SMILES IDX 4 13 3 14 2 15 1 16
REMARK H PARENT
REMARK Flexibility Score: inf
ROOT
ATOM      1  C   UNL     1      14.140  37.678  10.713  1.00  0.00     0.000 C 
ENDROOT
BRANCH   1   2
ATOM      2  C   UNL     1      14.763  38.460   9.546  1.00  0.00     0.000 C 
BRANCH   2   3
ATOM      3  C   UNL     1      13.948  38.339   8.249  1.00  0.00     0.000 C 
BRANCH   3   4
ATOM      4  C   UNL     1      14.691  38.990   7.072  1.00  0.00     0.000 C 
BRANCH   4   5
ATOM      5  C   UNL     1      16.086  39.502   7.462  1.00  0.00     0.006 C 
BRANCH   5   6
ATOM      6  C   UNL     1      16.262  41.003   7.194  1.00  0.00     0.053 C 
BRANCH   6   7
ATOM      7  C   UNL     1      15.855  41.800   8.393  1.00  0.00     0.041 C 
ATOM      8  O   UNL     1      14.966  42.686   8.293  1.00  0.00    -0.550 OA
ATOM      9  O   UNL     1      16.494  41.599   9.610  1.00  0.00    -0.550 OA
ENDBRANCH   6   7
ENDBRANCH   5   6
ENDBRANCH   4   5
ENDBRANCH   3   4
ENDBRANCH   2   3
ENDBRANCH   1   2
BRANCH   1  10
ATOM     10  C   UNL     1      13.889  38.561  11.949  1.00  0.00     0.000 C 
BRANCH  10  11
ATOM     11  C   UNL     1      14.599  38.031  13.205  1.00  0.00    -0.000 C 
BRANCH  11  12
ATOM     12  C   UNL     1      15.983  38.670  13.417  1.00  0.00    -0.000 C 
BRANCH  12  13
ATOM     13  C   UNL     1      17.098  37.622  13.572  1.00  0.00    -0.000 C 
BRANCH  13  14
ATOM     14  C   UNL     1      16.554  36.238  13.970  1.00  0.00    -0.000 C 
BRANCH  14  15
ATOM     15  C   UNL     1      17.125  35.109  13.099  1.00  0.00    -0.003 C 
ATOM     16  C   UNL     1      16.757  35.259  11.624  1.00  0.00     0.004 C 
ENDBRANCH  14  15
ENDBRANCH  13  14
ENDBRANCH  12  13
ENDBRANCH  11  12
ENDBRANCH  10  11
ENDBRANCH   1  10
TORSDOF 12
ENDMDL
MODEL 7
REMARK VINA RESULT:    -2.753      1.765      3.647
REMARK INTER + INTRA:          -6.046
REMARK INTER:                  -4.742
REMARK INTRA:                  -1.304
REMARK UNBOUND:                -1.361
REMARK SMILES CCCCCCCCCCCCCC(=O)[O-]
REMARK SMILES IDX 8 1 9 2 10 3 11 4 12 5 13 6 14 7 15 8 16 9 7 10 6 11 5 12
REMARK SMILES IDX 4 13 3 14 2 15 1 16
REMARK H PARENT
REMARK Flexibility Score: inf
ROOT
ATOM      1  C   UNL     1      17.006  42.819  10.383  1.00  0.00     0.000 C 
ENDROOT
BRANCH   1   2
ATOM      2  C   UNL     1      16.676  42.286  11.787  1.00  0.00     0.000 C 
BRANCH   2   3
ATOM      3  C   UNL     1      17.125  40.831  11.990  1.00  0.00     0.000 C 
BRANCH   3   4
ATOM      4  C   UNL     1      16.656  39.946  10.825  1.00  0.00     0.000 C 
BRANCH   4   5
ATOM      5  C   UNL     1      16.813  38.446  11.120  1.00  0.00     0.006 C 
BRANCH   5   6
ATOM      6  C   UNL     1      15.986  37.990  12.328  1.00  0.00     0.053 C 
BRANCH   6   7
ATOM      7  C   UNL     1      14.523  38.082  12.025  1.00  0.00     0.041 C 
ATOM      8  O   UNL     1      13.715  38.463  12.913  1.00  0.00    -0.550 OA
ATOM      9  O   UNL     1      14.046  37.699  10.778  1.00  0.00    -0.550 OA
ENDBRANCH   6   7
ENDBRANCH   5   6
ENDBRANCH   4   5
ENDBRANCH   3   4
ENDBRANCH   2   3
ENDBRANCH   1   2
BRANCH   1  10
ATOM     10  C   UNL     1      15.774  43.405   9.669  1.00  0.00     0.000 C 
BRANCH  10  11
ATOM     11  C   UNL     1      15.551  42.789   8.278  1.00  0.00    -0.000 C 
BRANCH  11  12
ATOM     12  C   UNL     1      16.830  42.160   7.697  1.00  0.00    -0.000 C 
BRANCH  12  13
ATOM     13  C   UNL     1      16.646  40.675   7.343  1.00  0.00    -0.000 C 
BRANCH  13  14
ATOM     14  C   UNL     1      15.183  40.215   7.472  1.00  0.00    -0.000 C 
BRANCH  14  15
ATOM     15  C   UNL     1      14.944  38.828   6.857  1.00  0.00    -0.003 C 
ATOM     16  C   UNL     1      13.667  38.166   7.371  1.00  0.00     0.004 C 
ENDBRANCH  14  15
ENDBRANCH  13  14
ENDBRANCH  12  13
ENDBRANCH  11  12
ENDBRANCH  10  11
ENDBRANCH   1  10
TORSDOF 12
ENDMDL
MODEL 8
REMARK VINA RESULT:    -2.588      3.208      6.351
REMARK INTER + INTRA:          -5.764
REMARK INTER:                  -4.513
REMARK INTRA:                  -1.251
REMARK UNBOUND:                -1.361
REMARK SMILES CCCCCCCCCCCCCC(=O)[O-]
REMARK SMILES IDX 8 1 9 2 10 3 11 4 12 5 13 6 14 7 15 8 16 9 7 10 6 11 5 12
REMARK SMILES IDX 4 13 3 14 2 15 1 16
REMARK H PARENT
REMARK Flexibility Score: inf
ROOT
ATOM      1  C   UNL     1      16.857  41.741  11.090  1.00  0.00     0.000 C 
ENDROOT
BRANCH   1   2
ATOM      2  C   UNL     1      16.839  42.965  10.159  1.00  0.00     0.000 C 
BRANCH   2   3
ATOM      3  C   UNL     1      15.477  43.171   9.477  1.00  0.00     0.000 C 
BRANCH   3   4
ATOM      4  C   UNL     1      15.434  42.466   8.114  1.00  0.00     0.000 C 
BRANCH   4   5
ATOM      5  C   UNL     1      15.197  40.953   8.236  1.00  0.00     0.006 C 
BRANCH   5   6
ATOM      6  C   UNL     1      16.369  40.124   7.696  1.00  0.00     0.053 C 
BRANCH   6   7
ATOM      7  C   UNL     1      15.866  38.997   6.850  1.00  0.00     0.041 C 
ATOM      8  O   UNL     1      16.676  38.281   6.202  1.00  0.00    -0.550 OA
ATOM      9  O   UNL     1      14.501  38.768   6.736  1.00  0.00    -0.550 OA
ENDBRANCH   6   7
ENDBRANCH   5   6
ENDBRANCH   4   5
ENDBRANCH   3   4
ENDBRANCH   2   3
ENDBRANCH   1   2
BRANCH   1  10
ATOM     10  C   UNL     1      16.791  42.130  12.577  1.00  0.00     0.000 C 
BRANCH  10  11
ATOM     11  C   UNL     1      16.010  41.107  13.419  1.00  0.00    -0.000 C 
BRANCH  11  12
ATOM     12  C   UNL     1      16.890  39.939  13.898  1.00  0.00    -0.000 C 
BRANCH  12  13
ATOM     13  C   UNL     1      16.544  38.616  13.195  1.00  0.00    -0.000 C 
BRANCH  13  14
ATOM     14  C   UNL     1      15.228  38.697  12.400  1.00  0.00    -0.000 C 
BRANCH  14  15
ATOM     15  C   UNL     1      15.409  38.321  10.922  1.00  0.00    -0.003 C 
ATOM     16  C   UNL     1      14.087  37.986  10.233  1.00  0.00     0.004 C 
ENDBRANCH  14  15
ENDBRANCH  13  14
ENDBRANCH  12  13
ENDBRANCH  11  12
ENDBRANCH  10  11
ENDBRANCH   1  10
TORSDOF 12
ENDMDL
MODEL 9
REMARK VINA RESULT:    -2.447      1.907      4.627
REMARK INTER + INTRA:          -5.526
REMARK INTER:                  -4.312
REMARK INTRA:                  -1.213
REMARK UNBOUND:                -1.361
REMARK SMILES CCCCCCCCCCCCCC(=O)[O-]
REMARK SMILES IDX 8 1 9 2 10 3 11 4 12 5 13 6 14 7 15 8 16 9 7 10 6 11 5 12
REMARK SMILES IDX 4 13 3 14 2 15 1 16
REMARK H PARENT
REMARK Flexibility Score: inf
ROOT
ATOM      1  C   UNL     1      15.746  41.419   7.521  1.00  0.00     0.000 C 
ENDROOT
BRANCH   1   2
ATOM      2  C   UNL     1      17.084  42.174   7.465  1.00  0.00     0.000 C 
BRANCH   2   3
ATOM      3  C   UNL     1      17.125  43.379   8.419  1.00  0.00     0.000 C 
BRANCH   3   4
ATOM      4  C   UNL     1      16.256  43.125   9.660  1.00  0.00     0.000 C 
BRANCH   4   5
ATOM      5  C   UNL     1      17.088  42.891  10.930  1.00  0.00     0.006 C 
BRANCH   5   6
ATOM      6  C   UNL     1      16.776  41.548  11.603  1.00  0.00     0.053 C 
BRANCH   6   7
ATOM      7  C   UNL     1      16.276  41.766  12.997  1.00  0.00     0.041 C 
ATOM      8  O   UNL     1      16.320  40.830  13.839  1.00  0.00    -0.550 OA
ATOM      9  O   UNL     1      15.714  42.986  13.351  1.00  0.00    -0.550 OA
ENDBRANCH   6   7
ENDBRANCH   5   6
ENDBRANCH   4   5
ENDBRANCH   3   4
ENDBRANCH   2   3
ENDBRANCH   1   2
BRANCH   1  10
ATOM     10  C   UNL     1      15.866  39.968   7.022  1.00  0.00     0.000 C 
BRANCH  10  11
ATOM     11  C   UNL     1      16.681  39.083   7.980  1.00  0.00    -0.000 C 
BRANCH  11  12
ATOM     12  C   UNL     1      16.078  39.030   9.396  1.00  0.00    -0.000 C 
BRANCH  12  13
ATOM     13  C   UNL     1      14.564  38.765   9.380  1.00  0.00    -0.000 C 
BRANCH  13  14
ATOM     14  C   UNL     1      14.146  37.671  10.379  1.00  0.00    -0.000 C 
BRANCH  14  15
ATOM     15  C   UNL     1      14.884  37.787  11.721  1.00  0.00    -0.003 C 
ATOM     16  C   UNL     1      14.020  38.407  12.818  1.00  0.00     0.004 C 
ENDBRANCH  14  15
ENDBRANCH  13  14
ENDBRANCH  12  13
ENDBRANCH  11  12
ENDBRANCH  10  11
ENDBRANCH   1  10
TORSDOF 12
ENDMDL
