MODEL 1
REMARK VINA RESULT:    -4.174      0.000      0.000
REMARK INTER + INTRA:          -5.297
REMARK INTER:                  -5.028
REMARK INTRA:                  -0.269
REMARK UNBOUND:                -0.269
REMARK SMILES O=c1c(O)c(-c2ccc(O)cc2O)oc2cc(O)cc(O)c12
REMARK SMILES IDX 5 1 3 2 2 3 1 4 22 5 20 6 19 7 17 8 16 9 15 10 14 11 6 12
REMARK SMILES IDX 8 13 7 14 9 15 11 16 12 17 10 18 13 20 4 22 21 24 18 26
REMARK H PARENT 10 19 13 21 4 23 21 25 18 27
REMARK Flexibility Score: inf
ROOT
ATOM      1  C   UNL     1     -20.074 -17.311  12.875  1.00  0.00     0.184 A 
ATOM      2  C   UNL     1     -20.866 -16.858  13.941  1.00  0.00     0.208 A 
ATOM      3  C   UNL     1     -20.365 -16.953  15.249  1.00  0.00     0.238 A 
ATOM      4  O   UNL     1     -21.109 -16.613  16.206  1.00  0.00    -0.285 OA
ATOM      5  C   UNL     1     -19.057 -17.450  15.468  1.00  0.00     0.111 A 
ATOM      6  C   UNL     1     -18.430 -17.551  16.747  1.00  0.00     0.134 A 
ATOM      7  C   UNL     1     -17.172 -18.157  16.854  1.00  0.00     0.093 A 
ATOM      8  C   UNL     1     -16.491 -18.608  15.724  1.00  0.00     0.123 A 
ATOM      9  C   UNL     1     -17.070 -18.465  14.463  1.00  0.00     0.094 A 
ATOM     10  C   UNL     1     -18.340 -17.900  14.327  1.00  0.00     0.146 A 
ATOM     11  O   UNL     1     -18.864 -17.802  13.111  1.00  0.00    -0.451 OA
ENDROOT
BRANCH   1  12
ATOM     12  C   UNL     1     -20.545 -17.247  11.476  1.00  0.00     0.063 A 
ATOM     13  C   UNL     1     -21.387 -15.909   9.629  1.00  0.00     0.047 A 
ATOM     14  C   UNL     1     -20.943 -16.007  10.950  1.00  0.00     0.020 A 
ATOM     15  C   UNL     1     -21.427 -17.042   8.814  1.00  0.00     0.119 A 
ATOM     16  C   UNL     1     -21.008 -18.280   9.322  1.00  0.00     0.093 A 
ATOM     17  C   UNL     1     -20.555 -18.386  10.645  1.00  0.00     0.130 A 
BRANCH  15  18
ATOM     18  O   UNL     1     -21.877 -16.930   7.500  1.00  0.00    -0.508 OA
ATOM     19  H   UNL     1     -21.786 -16.064   6.981  1.00  0.00     0.293 HD
ENDBRANCH  15  18
BRANCH  17  20
ATOM     20  O   UNL     1     -20.096 -19.613  11.125  1.00  0.00    -0.507 OA
ATOM     21  H   UNL     1     -20.077 -20.439  10.539  1.00  0.00     0.293 HD
ENDBRANCH  17  20
ENDBRANCH   1  12
BRANCH   2  22
ATOM     22  O   UNL     1     -22.125 -16.305  13.691  1.00  0.00    -0.502 OA
ATOM     23  H   UNL     1     -22.498 -16.206  12.754  1.00  0.00     0.293 HD
ENDBRANCH   2  22
BRANCH   6  24
ATOM     24  O   UNL     1     -18.982 -17.053  17.931  1.00  0.00    -0.507 OA
ATOM     25  H   UNL     1     -18.903 -16.100  18.250  1.00  0.00     0.293 HD
ENDBRANCH   6  24
BRANCH   8  26
ATOM     26  O   UNL     1     -15.233 -19.191  15.865  1.00  0.00    -0.508 OA
ATOM     27  H   UNL     1     -15.004 -20.071  15.420  1.00  0.00     0.293 HD
ENDBRANCH   8  26
TORSDOF 6
ENDMDL
MODEL 2
REMARK VINA RESULT:    -4.125      1.444      7.232
REMARK INTER + INTRA:          -5.238
REMARK INTER:                  -4.804
REMARK INTRA:                  -0.434
REMARK UNBOUND:                -0.269
REMARK SMILES O=c1c(O)c(-c2ccc(O)cc2O)oc2cc(O)cc(O)c12
REMARK SMILES IDX 5 1 3 2 2 3 1 4 22 5 20 6 19 7 17 8 16 9 15 10 14 11 6 12
REMARK SMILES IDX 8 13 7 14 9 15 11 16 12 17 10 18 13 20 4 22 21 24 18 26
REMARK H PARENT 10 19 13 21 4 23 21 25 18 27
REMARK Flexibility Score: inf
ROOT
ATOM      1  C   UNL     1     -20.352 -17.460  11.740  1.00  0.00     0.184 A 
ATOM      2  C   UNL     1     -20.577 -18.647  11.025  1.00  0.00     0.208 A 
ATOM      3  C   UNL     1     -21.085 -18.569   9.719  1.00  0.00     0.238 A 
ATOM      4  O   UNL     1     -21.353 -19.637   9.111  1.00  0.00    -0.285 OA
ATOM      5  C   UNL     1     -21.311 -17.302   9.126  1.00  0.00     0.111 A 
ATOM      6  C   UNL     1     -21.784 -17.102   7.794  1.00  0.00     0.134 A 
ATOM      7  C   UNL     1     -22.071 -15.805   7.350  1.00  0.00     0.093 A 
ATOM      8  C   UNL     1     -21.844 -14.697   8.165  1.00  0.00     0.123 A 
ATOM      9  C   UNL     1     -21.331 -14.876   9.450  1.00  0.00     0.094 A 
ATOM     10  C   UNL     1     -21.071 -16.160   9.936  1.00  0.00     0.146 A 
ATOM     11  O   UNL     1     -20.603 -16.287  11.172  1.00  0.00    -0.451 OA
ENDROOT
BRANCH   1  12
ATOM     12  C   UNL     1     -19.826 -17.473  13.121  1.00  0.00     0.063 A 
ATOM     13  C   UNL     1     -17.916 -17.663  14.612  1.00  0.00     0.047 A 
ATOM     14  C   UNL     1     -18.448 -17.652  13.321  1.00  0.00     0.020 A 
ATOM     15  C   UNL     1     -18.750 -17.483  15.718  1.00  0.00     0.119 A 
ATOM     16  C   UNL     1     -20.123 -17.279  15.528  1.00  0.00     0.093 A 
ATOM     17  C   UNL     1     -20.665 -17.260  14.234  1.00  0.00     0.130 A 
BRANCH  15  18
ATOM     18  O   UNL     1     -18.205 -17.501  17.001  1.00  0.00    -0.508 OA
ATOM     19  H   UNL     1     -18.369 -16.746  17.656  1.00  0.00     0.293 HD
ENDBRANCH  15  18
BRANCH  17  20
ATOM     20  O   UNL     1     -22.025 -17.009  14.055  1.00  0.00    -0.507 OA
ATOM     21  H   UNL     1     -22.476 -16.202  14.469  1.00  0.00     0.293 HD
ENDBRANCH  17  20
ENDBRANCH   1  12
BRANCH   2  22
ATOM     22  O   UNL     1     -20.278 -19.881  11.608  1.00  0.00    -0.502 OA
ATOM     23  H   UNL     1     -19.335 -20.143  11.872  1.00  0.00     0.293 HD
ENDBRANCH   2  22
BRANCH   6  24
ATOM     24  O   UNL     1     -21.962 -18.130   6.863  1.00  0.00    -0.507 OA
ATOM     25  H   UNL     1     -22.368 -19.031   7.066  1.00  0.00     0.293 HD
ENDBRANCH   6  24
BRANCH   8  26
ATOM     26  O   UNL     1     -22.125 -13.420   7.685  1.00  0.00    -0.508 OA
ATOM     27  H   UNL     1     -21.390 -12.742   7.519  1.00  0.00     0.293 HD
ENDBRANCH   8  26
TORSDOF 6
ENDMDL
MODEL 3
REMARK VINA RESULT:    -4.017      2.672      7.675
REMARK INTER + INTRA:          -5.108
REMARK INTER:                  -4.705
REMARK INTRA:                  -0.403
REMARK UNBOUND:                -0.269
REMARK SMILES O=c1c(O)c(-c2ccc(O)cc2O)oc2cc(O)cc(O)c12
REMARK SMILES IDX 5 1 3 2 2 3 1 4 22 5 20 6 19 7 17 8 16 9 15 10 14 11 6 12
REMARK SMILES IDX 8 13 7 14 9 15 11 16 12 17 10 18 13 20 4 22 21 24 18 26
REMARK H PARENT 10 19 13 21 4 23 21 25 18 27
REMARK Flexibility Score: inf
ROOT
ATOM      1  C   UNL     1     -21.183 -17.795  10.288  1.00  0.00     0.184 A 
ATOM      2  C   UNL     1     -21.383 -18.679   9.216  1.00  0.00     0.208 A 
ATOM      3  C   UNL     1     -21.688 -18.155   7.950  1.00  0.00     0.238 A 
ATOM      4  O   UNL     1     -21.939 -18.953   7.011  1.00  0.00    -0.285 OA
ATOM      5  C   UNL     1     -21.734 -16.751   7.761  1.00  0.00     0.111 A 
ATOM      6  C   UNL     1     -21.992 -16.108   6.513  1.00  0.00     0.134 A 
ATOM      7  C   UNL     1     -22.118 -14.714   6.466  1.00  0.00     0.093 A 
ATOM      8  C   UNL     1     -21.935 -13.936   7.608  1.00  0.00     0.123 A 
ATOM      9  C   UNL     1     -21.630 -14.549   8.824  1.00  0.00     0.094 A 
ATOM     10  C   UNL     1     -21.535 -15.940   8.910  1.00  0.00     0.146 A 
ATOM     11  O   UNL     1     -21.263 -16.485  10.090  1.00  0.00    -0.451 OA
ENDROOT
BRANCH   1  12
ATOM     12  C   UNL     1     -20.867 -18.281  11.647  1.00  0.00     0.063 A 
ATOM     13  C   UNL     1     -21.658 -18.993  13.833  1.00  0.00     0.047 A 
ATOM     14  C   UNL     1     -21.920 -18.526  12.543  1.00  0.00     0.020 A 
ATOM     15  C   UNL     1     -20.343 -19.234  14.240  1.00  0.00     0.119 A 
ATOM     16  C   UNL     1     -19.287 -19.016  13.345  1.00  0.00     0.093 A 
ATOM     17  C   UNL     1     -19.542 -18.553  12.046  1.00  0.00     0.130 A 
BRANCH  15  18
ATOM     18  O   UNL     1     -20.097 -19.695  15.532  1.00  0.00    -0.508 OA
ATOM     19  H   UNL     1     -19.440 -19.226  16.145  1.00  0.00     0.293 HD
ENDBRANCH  15  18
BRANCH  17  20
ATOM     20  O   UNL     1     -18.487 -18.386  11.149  1.00  0.00    -0.507 OA
ATOM     21  H   UNL     1     -18.648 -18.178  10.171  1.00  0.00     0.293 HD
ENDBRANCH  17  20
ENDBRANCH   1  12
BRANCH   2  22
ATOM     22  O   UNL     1     -21.261 -20.056   9.414  1.00  0.00    -0.502 OA
ATOM     23  H   UNL     1     -21.966 -20.601   9.898  1.00  0.00     0.293 HD
ENDBRANCH   2  22
BRANCH   6  24
ATOM     24  O   UNL     1     -22.104 -16.782   5.292  1.00  0.00    -0.507 OA
ATOM     25  H   UNL     1     -22.972 -16.981   4.820  1.00  0.00     0.293 HD
ENDBRANCH   6  24
BRANCH   8  26
ATOM     26  O   UNL     1     -22.052 -12.550   7.523  1.00  0.00    -0.508 OA
ATOM     27  H   UNL     1     -22.931 -12.080   7.703  1.00  0.00     0.293 HD
ENDBRANCH   8  26
TORSDOF 6
ENDMDL
MODEL 4
REMARK VINA RESULT:    -3.307      1.923      2.186
REMARK INTER + INTRA:          -4.253
REMARK INTER:                  -4.536
REMARK INTRA:                   0.284
REMARK UNBOUND:                -0.269
REMARK SMILES O=c1c(O)c(-c2ccc(O)cc2O)oc2cc(O)cc(O)c12
REMARK SMILES IDX 5 1 3 2 2 3 1 4 22 5 20 6 19 7 17 8 16 9 15 10 14 11 6 12
REMARK SMILES IDX 8 13 7 14 9 15 11 16 12 17 10 18 13 20 4 22 21 24 18 26
REMARK H PARENT 10 19 13 21 4 23 21 25 18 27
REMARK Flexibility Score: inf
ROOT
ATOM      1  C   UNL     1     -19.225 -18.416  13.308  1.00  0.00     0.184 A 
ATOM      2  C   UNL     1     -20.302 -17.735  13.897  1.00  0.00     0.208 A 
ATOM      3  C   UNL     1     -20.204 -17.340  15.240  1.00  0.00     0.238 A 
ATOM      4  O   UNL     1     -21.201 -16.796  15.783  1.00  0.00    -0.285 OA
ATOM      5  C   UNL     1     -19.009 -17.583  15.960  1.00  0.00     0.111 A 
ATOM      6  C   UNL     1     -18.782 -17.188  17.314  1.00  0.00     0.134 A 
ATOM      7  C   UNL     1     -17.601 -17.576  17.958  1.00  0.00     0.093 A 
ATOM      8  C   UNL     1     -16.611 -18.288  17.281  1.00  0.00     0.123 A 
ATOM      9  C   UNL     1     -16.798 -18.633  15.942  1.00  0.00     0.094 A 
ATOM     10  C   UNL     1     -17.983 -18.294  15.283  1.00  0.00     0.146 A 
ATOM     11  O   UNL     1     -18.129 -18.659  14.015  1.00  0.00    -0.451 OA
ENDROOT
BRANCH   1  12
ATOM     12  C   UNL     1     -19.267 -18.866  11.901  1.00  0.00     0.063 A 
ATOM     13  C   UNL     1     -20.592 -19.513   9.968  1.00  0.00     0.047 A 
ATOM     14  C   UNL     1     -20.515 -19.093  11.298  1.00  0.00     0.020 A 
ATOM     15  C   UNL     1     -19.426 -19.698   9.220  1.00  0.00     0.119 A 
ATOM     16  C   UNL     1     -18.177 -19.451   9.806  1.00  0.00     0.093 A 
ATOM     17  C   UNL     1     -18.092 -19.023  11.139  1.00  0.00     0.130 A 
BRANCH  15  18
ATOM     18  O   UNL     1     -19.518 -20.122   7.896  1.00  0.00    -0.508 OA
ATOM     19  H   UNL     1     -19.425 -19.472   7.124  1.00  0.00     0.293 HD
ENDBRANCH  15  18
BRANCH  17  20
ATOM     20  O   UNL     1     -16.846 -18.734  11.696  1.00  0.00    -0.507 OA
ATOM     21  H   UNL     1     -16.719 -17.965  12.344  1.00  0.00     0.293 HD
ENDBRANCH  17  20
ENDBRANCH   1  12
BRANCH   2  22
ATOM     22  O   UNL     1     -21.442 -17.445  13.143  1.00  0.00    -0.502 OA
ATOM     23  H   UNL     1     -22.073 -18.165  12.812  1.00  0.00     0.293 HD
ENDBRANCH   2  22
BRANCH   6  24
ATOM     24  O   UNL     1     -19.664 -16.399  18.059  1.00  0.00    -0.507 OA
ATOM     25  H   UNL     1     -19.883 -16.539  19.033  1.00  0.00     0.293 HD
ENDBRANCH   6  24
BRANCH   8  26
ATOM     26  O   UNL     1     -15.440 -18.643  17.948  1.00  0.00    -0.508 OA
ATOM     27  H   UNL     1     -15.274 -18.369  18.909  1.00  0.00     0.293 HD
ENDBRANCH   8  26
TORSDOF 6
ENDMDL
MODEL 5
REMARK VINA RESULT:    -2.347      1.665      2.081
REMARK INTER + INTRA:          -3.096
REMARK INTER:                  -3.679
REMARK INTRA:                   0.583
REMARK UNBOUND:                -0.269
REMARK SMILES O=c1c(O)c(-c2ccc(O)cc2O)oc2cc(O)cc(O)c12
REMARK SMILES IDX 5 1 3 2 2 3 1 4 22 5 20 6 19 7 17 8 16 9 15 10 14 11 6 12
REMARK SMILES IDX 8 13 7 14 9 15 11 16 12 17 10 18 13 20 4 22 21 24 18 26
REMARK H PARENT 10 19 13 21 4 23 21 25 18 27
REMARK Flexibility Score: inf
ROOT
ATOM      1  C   UNL     1     -19.618 -18.357  11.355  1.00  0.00     0.184 A 
ATOM      2  C   UNL     1     -20.425 -17.490  12.107  1.00  0.00     0.208 A 
ATOM      3  C   UNL     1     -20.132 -17.295  13.466  1.00  0.00     0.238 A 
ATOM      4  O   UNL     1     -20.903 -16.575  14.152  1.00  0.00    -0.285 OA
ATOM      5  C   UNL     1     -19.004 -17.930  14.041  1.00  0.00     0.111 A 
ATOM      6  C   UNL     1     -18.587 -17.771  15.398  1.00  0.00     0.134 A 
ATOM      7  C   UNL     1     -17.516 -18.531  15.885  1.00  0.00     0.093 A 
ATOM      8  C   UNL     1     -16.807 -19.395  15.051  1.00  0.00     0.123 A 
ATOM      9  C   UNL     1     -17.172 -19.518  13.709  1.00  0.00     0.094 A 
ATOM     10  C   UNL     1     -18.259 -18.802  13.203  1.00  0.00     0.146 A 
ATOM     11  O   UNL     1     -18.585 -18.964  11.927  1.00  0.00    -0.451 OA
ENDROOT
BRANCH   1  12
ATOM     12  C   UNL     1     -19.876 -18.611   9.922  1.00  0.00     0.063 A 
ATOM     13  C   UNL     1     -21.309 -18.296   7.984  1.00  0.00     0.047 A 
ATOM     14  C   UNL     1     -21.038 -18.081   9.337  1.00  0.00     0.020 A 
ATOM     15  C   UNL     1     -20.421 -19.031   7.196  1.00  0.00     0.119 A 
ATOM     16  C   UNL     1     -19.247 -19.544   7.765  1.00  0.00     0.093 A 
ATOM     17  C   UNL     1     -18.963 -19.327   9.121  1.00  0.00     0.130 A 
BRANCH  15  18
ATOM     18  O   UNL     1     -20.708 -19.241   5.849  1.00  0.00    -0.508 OA
ATOM     19  H   UNL     1     -20.851 -18.468   5.210  1.00  0.00     0.293 HD
ENDBRANCH  15  18
BRANCH  17  20
ATOM     20  O   UNL     1     -17.769 -19.801   9.665  1.00  0.00    -0.507 OA
ATOM     21  H   UNL     1     -17.376 -20.693   9.388  1.00  0.00     0.293 HD
ENDBRANCH  17  20
ENDBRANCH   1  12
BRANCH   2  22
ATOM     22  O   UNL     1     -21.490 -16.821  11.498  1.00  0.00    -0.502 OA
ATOM     23  H   UNL     1     -21.446 -15.838  11.256  1.00  0.00     0.293 HD
ENDBRANCH   2  22
BRANCH   6  24
ATOM     24  O   UNL     1     -19.167 -16.870  16.296  1.00  0.00    -0.507 OA
ATOM     25  H   UNL     1     -20.095 -16.486  16.211  1.00  0.00     0.293 HD
ENDBRANCH   6  24
BRANCH   8  26
ATOM     26  O   UNL     1     -15.736 -20.123  15.565  1.00  0.00    -0.508 OA
ATOM     27  H   UNL     1     -15.429 -20.009  16.523  1.00  0.00     0.293 HD
ENDBRANCH   8  26
TORSDOF 6
ENDMDL
MODEL 6
REMARK VINA RESULT:    -1.823     19.531     21.181
REMARK INTER + INTRA:          -2.466
REMARK INTER:                  -2.497
REMARK INTRA:                   0.031
REMARK UNBOUND:                -0.269
REMARK SMILES O=c1c(O)c(-c2ccc(O)cc2O)oc2cc(O)cc(O)c12
REMARK SMILES IDX 5 1 3 2 2 3 1 4 22 5 20 6 19 7 17 8 16 9 15 10 14 11 6 12
REMARK SMILES IDX 8 13 7 14 9 15 11 16 12 17 10 18 13 20 4 22 21 24 18 26
REMARK H PARENT 10 19 13 21 4 23 21 25 18 27
REMARK Flexibility Score: inf
ROOT
ATOM      1  C   UNL     1      -6.045  -3.512   8.847  1.00  0.00     0.184 A 
ATOM      2  C   UNL     1      -5.889  -3.697   7.465  1.00  0.00     0.208 A 
ATOM      3  C   UNL     1      -6.776  -3.054   6.587  1.00  0.00     0.238 A 
ATOM      4  O   UNL     1      -6.677  -3.283   5.354  1.00  0.00    -0.285 OA
ATOM      5  C   UNL     1      -7.775  -2.192   7.103  1.00  0.00     0.111 A 
ATOM      6  C   UNL     1      -8.703  -1.456   6.305  1.00  0.00     0.134 A 
ATOM      7  C   UNL     1      -9.716  -0.716   6.928  1.00  0.00     0.093 A 
ATOM      8  C   UNL     1      -9.798  -0.634   8.317  1.00  0.00     0.123 A 
ATOM      9  C   UNL     1      -8.864  -1.306   9.107  1.00  0.00     0.094 A 
ATOM     10  C   UNL     1      -7.865  -2.083   8.516  1.00  0.00     0.146 A 
ATOM     11  O   UNL     1      -7.010  -2.723   9.305  1.00  0.00    -0.451 OA
ENDROOT
BRANCH   1  12
ATOM     12  C   UNL     1      -5.150  -4.165   9.824  1.00  0.00     0.063 A 
ATOM     13  C   UNL     1      -4.893  -5.620  11.755  1.00  0.00     0.047 A 
ATOM     14  C   UNL     1      -5.711  -4.982  10.819  1.00  0.00     0.020 A 
ATOM     15  C   UNL     1      -3.506  -5.461  11.701  1.00  0.00     0.119 A 
ATOM     16  C   UNL     1      -2.935  -4.667  10.698  1.00  0.00     0.093 A 
ATOM     17  C   UNL     1      -3.749  -4.028   9.751  1.00  0.00     0.130 A 
BRANCH  15  18
ATOM     18  O   UNL     1      -2.703  -6.100  12.645  1.00  0.00    -0.508 OA
ATOM     19  H   UNL     1      -3.077  -6.413  13.533  1.00  0.00     0.293 HD
ENDBRANCH  15  18
BRANCH  17  20
ATOM     20  O   UNL     1      -3.166  -3.279   8.727  1.00  0.00    -0.507 OA
ATOM     21  H   UNL     1      -3.295  -3.521   7.752  1.00  0.00     0.293 HD
ENDBRANCH  17  20
ENDBRANCH   1  12
BRANCH   2  22
ATOM     22  O   UNL     1      -4.850  -4.496   6.980  1.00  0.00    -0.502 OA
ATOM     23  H   UNL     1      -4.011  -4.105   6.567  1.00  0.00     0.293 HD
ENDBRANCH   2  22
BRANCH   6  24
ATOM     24  O   UNL     1      -8.659  -1.394   4.909  1.00  0.00    -0.507 OA
ATOM     25  H   UNL     1      -7.945  -1.814   4.333  1.00  0.00     0.293 HD
ENDBRANCH   6  24
BRANCH   8  26
ATOM     26  O   UNL     1     -10.808   0.125   8.904  1.00  0.00    -0.508 OA
ATOM     27  H   UNL     1     -11.557   0.526   8.353  1.00  0.00     0.293 HD
ENDBRANCH   8  26
TORSDOF 6
ENDMDL
MODEL 7
REMARK VINA RESULT:    -1.201     20.552     20.944
REMARK INTER + INTRA:          -1.715
REMARK INTER:                  -2.315
REMARK INTRA:                   0.600
REMARK UNBOUND:                -0.269
REMARK SMILES O=c1c(O)c(-c2ccc(O)cc2O)oc2cc(O)cc(O)c12
REMARK SMILES IDX 5 1 3 2 2 3 1 4 22 5 20 6 19 7 17 8 16 9 15 10 14 11 6 12
REMARK SMILES IDX 8 13 7 14 9 15 11 16 12 17 10 18 13 20 4 22 21 24 18 26
REMARK H PARENT 10 19 13 21 4 23 21 25 18 27
REMARK Flexibility Score: inf
ROOT
ATOM      1  C   UNL     1      -6.999  -1.785   7.716  1.00  0.00     0.184 A 
ATOM      2  C   UNL     1      -6.888  -1.016   8.884  1.00  0.00     0.208 A 
ATOM      3  C   UNL     1      -5.962  -1.401   9.868  1.00  0.00     0.238 A 
ATOM      4  O   UNL     1      -5.919  -0.750  10.944  1.00  0.00    -0.285 OA
ATOM      5  C   UNL     1      -5.122  -2.519   9.644  1.00  0.00     0.111 A 
ATOM      6  C   UNL     1      -4.119  -2.975  10.552  1.00  0.00     0.134 A 
ATOM      7  C   UNL     1      -3.420  -4.157  10.273  1.00  0.00     0.093 A 
ATOM      8  C   UNL     1      -3.642  -4.863   9.092  1.00  0.00     0.123 A 
ATOM      9  C   UNL     1      -4.582  -4.398   8.172  1.00  0.00     0.094 A 
ATOM     10  C   UNL     1      -5.322  -3.244   8.439  1.00  0.00     0.146 A 
ATOM     11  O   UNL     1      -6.221  -2.847   7.546  1.00  0.00    -0.451 OA
ENDROOT
BRANCH   1  12
ATOM     12  C   UNL     1      -7.958  -1.439   6.647  1.00  0.00     0.063 A 
ATOM     13  C   UNL     1      -9.588   0.124   5.747  1.00  0.00     0.047 A 
ATOM     14  C   UNL     1      -8.678  -0.237   6.744  1.00  0.00     0.020 A 
ATOM     15  C   UNL     1      -9.780  -0.701   4.637  1.00  0.00     0.119 A 
ATOM     16  C   UNL     1      -9.048  -1.890   4.519  1.00  0.00     0.093 A 
ATOM     17  C   UNL     1      -8.128  -2.257   5.512  1.00  0.00     0.130 A 
BRANCH  15  18
ATOM     18  O   UNL     1     -10.695  -0.329   3.653  1.00  0.00    -0.508 OA
ATOM     19  H   UNL     1     -11.614  -0.752   3.598  1.00  0.00     0.293 HD
ENDBRANCH  15  18
BRANCH  17  20
ATOM     20  O   UNL     1      -7.370  -3.419   5.360  1.00  0.00    -0.507 OA
ATOM     21  H   UNL     1      -7.377  -3.949   4.496  1.00  0.00     0.293 HD
ENDBRANCH  17  20
ENDBRANCH   1  12
BRANCH   2  22
ATOM     22  O   UNL     1      -7.678   0.125   9.048  1.00  0.00    -0.502 OA
ATOM     23  H   UNL     1      -8.686   0.078   9.147  1.00  0.00     0.293 HD
ENDBRANCH   2  22
BRANCH   6  24
ATOM     24  O   UNL     1      -3.752  -2.299  11.719  1.00  0.00    -0.507 OA
ATOM     25  H   UNL     1      -3.074  -2.628  12.389  1.00  0.00     0.293 HD
ENDBRANCH   6  24
BRANCH   8  26
ATOM     26  O   UNL     1      -2.916  -6.026   8.839  1.00  0.00    -0.508 OA
ATOM     27  H   UNL     1      -2.087  -6.017   8.257  1.00  0.00     0.293 HD
ENDBRANCH   8  26
TORSDOF 6
ENDMDL
