MODEL 1
REMARK VINA RESULT:     0.990      0.000      0.000
REMARK INTER + INTRA:           0.404
REMARK INTER:                   2.494
REMARK INTRA:                  -2.090
REMARK UNBOUND:                -2.090
REMARK SMILES CCCCCCCCCCCCCCCCCCCCCCCCCCCC(=O)[O-]
REMARK SMILES IDX 15 1 16 2 17 3 18 4 19 5 20 6 21 7 22 8 23 9 24 10 25 11
REMARK SMILES IDX 26 12 27 13 28 14 29 15 30 16 14 17 13 18 12 19 11 20 10 21
REMARK SMILES IDX 9 22 8 23 7 24 6 25 5 26 4 27 3 28 2 29 1 30
REMARK H PARENT
REMARK Flexibility Score: inf
ROOT
ATOM      1  C   UNL     1      40.683  41.784  19.560  1.00  0.00     0.000 C 
ENDROOT
BRANCH   1   2
ATOM      2  C   UNL     1      41.125  43.257  19.453  1.00  0.00     0.000 C 
BRANCH   2   3
ATOM      3  C   UNL     1      41.066  44.062  20.769  1.00  0.00     0.000 C 
BRANCH   3   4
ATOM      4  C   UNL     1      41.125  45.590  20.597  1.00  0.00     0.000 C 
BRANCH   4   5
ATOM      5  C   UNL     1      40.732  46.348  21.877  1.00  0.00     0.000 C 
BRANCH   5   6
ATOM      6  C   UNL     1      40.743  45.453  23.128  1.00  0.00     0.000 C 
BRANCH   6   7
ATOM      7  C   UNL     1      39.370  45.273  23.805  1.00  0.00     0.000 C 
BRANCH   7   8
ATOM      8  C   UNL     1      38.287  46.186  23.207  1.00  0.00     0.000 C 
BRANCH   8   9
ATOM      9  C   UNL     1      36.902  45.956  23.831  1.00  0.00     0.000 C 
BRANCH   9  10
ATOM     10  C   UNL     1      35.897  47.061  23.459  1.00  0.00     0.000 C 
BRANCH  10  11
ATOM     11  C   UNL     1      34.463  46.526  23.312  1.00  0.00     0.000 C 
BRANCH  11  12
ATOM     12  C   UNL     1      34.021  45.680  24.518  1.00  0.00     0.006 C 
BRANCH  12  13
ATOM     13  C   UNL     1      32.901  46.353  25.324  1.00  0.00     0.053 C 
BRANCH  13  14
ATOM     14  C   UNL     1      33.425  47.425  26.231  1.00  0.00     0.041 C 
ATOM     15  O   UNL     1      33.764  48.545  25.764  1.00  0.00    -0.550 OA
ATOM     16  O   UNL     1      33.516  47.191  27.597  1.00  0.00    -0.550 OA
ENDBRANCH  13  14
ENDBRANCH  12  13
ENDBRANCH  11  12
ENDBRANCH  10  11
ENDBRANCH   9  10
ENDBRANCH   8   9
ENDBRANCH   7   8
ENDBRANCH   6   7
ENDBRANCH   5   6
ENDBRANCH   4   5
ENDBRANCH   3   4
ENDBRANCH   2   3
ENDBRANCH   1   2
BRANCH   1  17
ATOM     17  C   UNL     1      41.122  40.892  18.382  1.00  0.00     0.000 C 
BRANCH  17  18
ATOM     18  C   UNL     1      40.040  40.672  17.305  1.00  0.00     0.000 C 
BRANCH  18  19
ATOM     19  C   UNL     1      39.443  39.250  17.256  1.00  0.00     0.000 C 
BRANCH  19  20
ATOM     20  C   UNL     1      40.469  38.101  17.278  1.00  0.00     0.000 C 
BRANCH  20  21
ATOM     21  C   UNL     1      40.502  37.300  15.964  1.00  0.00     0.000 C 
BRANCH  21  22
ATOM     22  C   UNL     1      40.241  35.800  16.183  1.00  0.00    -0.000 C 
BRANCH  22  23
ATOM     23  C   UNL     1      40.468  35.356  17.640  1.00  0.00    -0.000 C 
BRANCH  23  24
ATOM     24  C   UNL     1      39.141  35.106  18.380  1.00  0.00    -0.000 C 
BRANCH  24  25
ATOM     25  C   UNL     1      39.203  35.427  19.884  1.00  0.00    -0.000 C 
BRANCH  25  26
ATOM     26  C   UNL     1      37.811  35.679  20.483  1.00  0.00    -0.000 C 
BRANCH  26  27
ATOM     27  C   UNL     1      37.337  37.109  20.184  1.00  0.00    -0.000 C 
BRANCH  27  28
ATOM     28  C   UNL     1      38.014  38.153  21.099  1.00  0.00    -0.000 C 
BRANCH  28  29
ATOM     29  C   UNL     1      37.879  39.598  20.586  1.00  0.00    -0.003 C 
ATOM     30  C   UNL     1      36.767  39.765  19.556  1.00  0.00     0.004 C 
ENDBRANCH  28  29
ENDBRANCH  27  28
ENDBRANCH  26  27
ENDBRANCH  25  26
ENDBRANCH  24  25
ENDBRANCH  23  24
ENDBRANCH  22  23
ENDBRANCH  21  22
ENDBRANCH  20  21
ENDBRANCH  19  20
ENDBRANCH  18  19
ENDBRANCH  17  18
ENDBRANCH   1  17
TORSDOF 26
ENDMDL
