MODEL 1
REMARK VINA RESULT: 15904.915      0.000      0.000
REMARK INTER + INTRA:       15904.874
REMARK INTER:               15904.915
REMARK INTRA:                  -0.041
REMARK UNBOUND:                -0.041
REMARK SMILES C[C@H]1O[C@@H](OC[C@H]2O[C@@H](Oc3c(-c4ccc(O)c(O)c4)oc4cc(O)cc(O)c4c3=O)[C@H](O)[C@@H](O)[C@@H]2O)[C@@H](O)[C@@H](O)[C@@H]1O
REMARK SMILES IDX 7 1 36 2 34 3 32 4 9 5 8 6 6 7 5 8 4 9 1 10 2 11 42 12 3 13
REMARK SMILES IDX 40 14 38 15 43 16 41 18 39 20 37 22 35 24 10 26 11 27 12 28
REMARK SMILES IDX 30 29 21 30 29 31 31 32 22 33 27 34 23 35 26 36 24 37 13 38
REMARK SMILES IDX 20 39 14 40 18 41 15 42 16 43 19 44 17 46 28 48 25 50 33 52
REMARK H PARENT 43 17 41 19 39 21 37 23 35 25 19 45 17 47 28 49 25 51 33 53
REMARK Flexibility Score: inf
ROOT
ATOM      1  C   UNL     1     -30.277  -1.576  11.332  1.00  0.00     0.180 C 
ATOM      2  C   UNL     1     -33.064  -1.603  12.199  1.00  0.00     0.177 C 
ATOM      3  C   UNL     1     -34.235  -0.391  10.909  1.00  0.00     0.180 C 
ATOM      4  C   UNL     1     -32.475   0.853   9.955  1.00  0.00     0.214 C 
ATOM      5  C   UNL     1     -31.486   2.375   7.883  1.00  0.00     0.339 C 
ATOM      6  O   UNL     1     -30.738   0.248   9.320  1.00  0.00    -0.332 OA
ENDROOT
BRANCH   1   7
ATOM      7  C   UNL     1     -28.214  -4.374  13.417  1.00  0.00     0.198 C 
BRANCH   7   8
ATOM      8  O   UNL     1     -26.726  -6.517  14.487  1.00  0.00    -0.347 OA
BRANCH   8   9
ATOM      9  C   UNL     1     -24.330  -6.666  14.230  1.00  0.00     0.281 C 
ATOM     10  C   UNL     1     -17.114  -1.663  13.817  1.00  0.00     0.041 C 
ATOM     11  C   UNL     1     -20.892  -5.391  13.149  1.00  0.00     0.150 C 
ATOM     12  C   UNL     1     -23.507  -7.668  11.114  1.00  0.00     0.174 C 
ATOM     13  O   UNL     1     -22.611  -5.342  13.941  1.00  0.00    -0.344 OA
ATOM     14  C   UNL     1     -24.237 -10.081  10.452  1.00  0.00     0.179 C 
ATOM     15  C   UNL     1     -22.856  -7.834  13.035  1.00  0.00     0.202 C 
BRANCH  12  16
ATOM     16  O   UNL     1     -22.516  -8.441  10.466  1.00  0.00    -0.388 OA
ATOM     17  H   UNL     1     -23.302  -9.259  11.009  1.00  0.00     0.211 HD
ENDBRANCH  12  16
BRANCH  14  18
ATOM     18  O   UNL     1     -25.852  -9.986  10.017  1.00  0.00    -0.387 OA
ATOM     19  H   UNL     1     -25.782 -10.418   9.020  1.00  0.00     0.211 HD
ENDBRANCH  14  18
BRANCH  15  20
ATOM     20  O   UNL     1     -21.257  -8.755  14.908  1.00  0.00    -0.385 OA
ATOM     21  H   UNL     1     -21.983  -8.325  15.495  1.00  0.00     0.211 HD
ENDBRANCH  15  20
ENDBRANCH   8   9
ENDBRANCH   7   8
ENDBRANCH   1   7
BRANCH   2  22
ATOM     22  O   UNL     1     -34.892  -1.280  13.453  1.00  0.00    -0.387 OA
ATOM     23  H   UNL     1     -35.373  -1.108  14.955  1.00  0.00     0.211 HD
ENDBRANCH   2  22
BRANCH   3  24
ATOM     24  O   UNL     1     -35.583  -0.065   9.595  1.00  0.00    -0.387 OA
ATOM     25  H   UNL     1     -36.456   0.122   8.512  1.00  0.00     0.211 HD
ENDBRANCH   3  24
BRANCH   5  26
ATOM     26  O   UNL     1     -31.390   4.233   5.052  1.00  0.00    -0.454 OA
BRANCH  26  27
ATOM     27  C   UNL     1     -30.685   5.158   2.408  1.00  0.00     0.214 A 
ATOM     28  C   UNL     1     -28.449   5.826  -0.261  1.00  0.00     0.180 A 
ATOM     29  C   UNL     1     -32.176   3.837   0.793  1.00  0.00     0.239 A 
ATOM     30  O   UNL     1     -29.891   3.445  -1.209  1.00  0.00    -0.452 OA
ATOM     31  C   UNL     1     -32.407   1.086  -0.397  1.00  0.00     0.111 A 
ATOM     32  O   UNL     1     -31.722   2.364   0.262  1.00  0.00    -0.285 OA
ATOM     33  C   UNL     1     -31.345   0.563  -1.097  1.00  0.00     0.146 A 
ATOM     34  C   UNL     1     -33.889  -0.895  -1.624  1.00  0.00     0.134 A 
ATOM     35  C   UNL     1     -33.278  -2.992  -1.492  1.00  0.00     0.094 A 
ATOM     36  C   UNL     1     -34.436  -2.959  -3.148  1.00  0.00     0.093 A 
ATOM     37  C   UNL     1     -35.127  -6.102  -3.159  1.00  0.00     0.123 A 
BRANCH  28  38
ATOM     38  C   UNL     1     -24.290   9.538  -1.527  1.00  0.00     0.025 A 
ATOM     39  C   UNL     1     -21.337  10.038  -2.066  1.00  0.00     0.062 A 
ATOM     40  C   UNL     1     -22.943   9.535  -1.540  1.00  0.00     0.016 A 
ATOM     41  C   UNL     1     -18.717   9.145  -3.451  1.00  0.00     0.158 A 
ATOM     42  C   UNL     1     -22.520   8.075  -2.279  1.00  0.00     0.051 A 
ATOM     43  C   UNL     1     -20.793   8.276  -3.331  1.00  0.00     0.157 A 
BRANCH  41  44
ATOM     44  O   UNL     1     -16.860   9.146  -5.126  1.00  0.00    -0.504 OA
ATOM     45  H   UNL     1     -16.199   8.784  -7.437  1.00  0.00     0.293 HD
ENDBRANCH  41  44
BRANCH  43  46
ATOM     46  O   UNL     1     -20.977   6.456  -3.744  1.00  0.00    -0.504 OA
ATOM     47  H   UNL     1     -19.908   6.633  -4.014  1.00  0.00     0.293 HD
ENDBRANCH  43  46
ENDBRANCH  28  38
BRANCH  34  48
ATOM     48  O   UNL     1     -32.912  -1.745  -3.144  1.00  0.00    -0.507 OA
ATOM     49  H   UNL     1     -30.982  -1.696  -3.203  1.00  0.00     0.293 HD
ENDBRANCH  34  48
BRANCH  37  50
ATOM     50  O   UNL     1     -37.063 -10.077  -4.850  1.00  0.00    -0.508 OA
ATOM     51  H   UNL     1     -38.725 -11.979  -6.399  1.00  0.00     0.293 HD
ENDBRANCH  37  50
ENDBRANCH  26  27
ENDBRANCH   5  26
BRANCH   4  52
ATOM     52  O   UNL     1     -32.803  -0.736  10.100  1.00  0.00    -0.384 OA
ATOM     53  H   UNL     1     -32.396  -1.558   9.601  1.00  0.00     0.211 HD
ENDBRANCH   4  52
TORSDOF 16
ENDMDL
