MODEL 1
REMARK VINA RESULT:    -7.245      0.000      0.000
REMARK INTER + INTRA:          -9.035
REMARK INTER:                  -8.727
REMARK INTRA:                  -0.308
REMARK UNBOUND:                -0.308
REMARK SMILES O=c1c(O)c(-c2ccc(O)c(O)c2)oc2cc(O)cc(O)c12
REMARK SMILES IDX 5 1 3 2 2 3 1 4 22 5 20 6 19 7 17 8 16 9 15 10 14 11 6 12
REMARK SMILES IDX 7 13 8 14 9 15 13 16 11 17 10 18 12 20 4 22 21 24 18 26
REMARK H PARENT 10 19 12 21 4 23 21 25 18 27
REMARK Flexibility Score: inf
ROOT
ATOM      1  C   UNL     1     -19.339  11.992 -35.054  1.00  0.00     0.180 A 
ATOM      2  C   UNL     1     -19.917  12.742 -34.016  1.00  0.00     0.208 A 
ATOM      3  C   UNL     1     -19.096  13.218 -32.982  1.00  0.00     0.238 A 
ATOM      4  O   UNL     1     -19.632  13.824 -32.017  1.00  0.00    -0.285 OA
ATOM      5  C   UNL     1     -17.700  12.987 -33.025  1.00  0.00     0.111 A 
ATOM      6  C   UNL     1     -16.767  13.461 -32.054  1.00  0.00     0.134 A 
ATOM      7  C   UNL     1     -15.422  13.080 -32.145  1.00  0.00     0.093 A 
ATOM      8  C   UNL     1     -14.965  12.296 -33.206  1.00  0.00     0.123 A 
ATOM      9  C   UNL     1     -15.857  11.874 -34.188  1.00  0.00     0.094 A 
ATOM     10  C   UNL     1     -17.212  12.205 -34.106  1.00  0.00     0.146 A 
ATOM     11  O   UNL     1     -18.031  11.764 -35.052  1.00  0.00    -0.452 OA
ENDROOT
BRANCH   1  12
ATOM     12  C   UNL     1     -20.140  11.444 -36.173  1.00  0.00     0.025 A 
ATOM     13  C   UNL     1     -20.108  12.083 -37.423  1.00  0.00     0.016 A 
ATOM     14  C   UNL     1     -20.839  11.572 -38.497  1.00  0.00     0.051 A 
ATOM     15  C   UNL     1     -21.601  10.405 -38.343  1.00  0.00     0.157 A 
ATOM     16  C   UNL     1     -20.890  10.262 -36.027  1.00  0.00     0.062 A 
ATOM     17  C   UNL     1     -21.624   9.748 -37.106  1.00  0.00     0.158 A 
BRANCH  15  18
ATOM     18  O   UNL     1     -22.334   9.894 -39.412  1.00  0.00    -0.504 OA
ATOM     19  H   UNL     1     -23.291   9.582 -39.298  1.00  0.00     0.293 HD
ENDBRANCH  15  18
BRANCH  17  20
ATOM     20  O   UNL     1     -22.371   8.582 -36.959  1.00  0.00    -0.504 OA
ATOM     21  H   UNL     1     -21.927   7.676 -36.858  1.00  0.00     0.293 HD
ENDBRANCH  17  20
ENDBRANCH   1  12
BRANCH   2  22
ATOM     22  O   UNL     1     -21.286  13.024 -34.031  1.00  0.00    -0.502 OA
ATOM     23  H   UNL     1     -21.800  13.181 -34.890  1.00  0.00     0.293 HD
ENDBRANCH   2  22
BRANCH   6  24
ATOM     24  O   UNL     1     -17.099  14.322 -31.003  1.00  0.00    -0.507 OA
ATOM     25  H   UNL     1     -17.981  14.325 -30.516  1.00  0.00     0.293 HD
ENDBRANCH   6  24
BRANCH   8  26
ATOM     26  O   UNL     1     -13.623  11.936 -33.298  1.00  0.00    -0.508 OA
ATOM     27  H   UNL     1     -13.078  12.128 -34.131  1.00  0.00     0.293 HD
ENDBRANCH   8  26
TORSDOF 6
ENDMDL
MODEL 2
REMARK VINA RESULT:    -7.110      1.727      6.732
REMARK INTER + INTRA:          -8.872
REMARK INTER:                  -8.624
REMARK INTRA:                  -0.248
REMARK UNBOUND:                -0.308
REMARK SMILES O=c1c(O)c(-c2ccc(O)c(O)c2)oc2cc(O)cc(O)c12
REMARK SMILES IDX 5 1 3 2 2 3 1 4 22 5 20 6 19 7 17 8 16 9 15 10 14 11 6 12
REMARK SMILES IDX 7 13 8 14 9 15 13 16 11 17 10 18 12 20 4 22 21 24 18 26
REMARK H PARENT 10 19 12 21 4 23 21 25 18 27
REMARK Flexibility Score: inf
ROOT
ATOM      1  C   UNL     1     -19.286  12.718 -34.399  1.00  0.00     0.180 A 
ATOM      2  C   UNL     1     -20.584  12.364 -33.994  1.00  0.00     0.208 A 
ATOM      3  C   UNL     1     -21.572  12.168 -34.971  1.00  0.00     0.238 A 
ATOM      4  O   UNL     1     -22.750  11.926 -34.597  1.00  0.00    -0.285 OA
ATOM      5  C   UNL     1     -21.238  12.271 -36.343  1.00  0.00     0.111 A 
ATOM      6  C   UNL     1     -22.149  12.048 -37.420  1.00  0.00     0.134 A 
ATOM      7  C   UNL     1     -21.731  12.282 -38.736  1.00  0.00     0.093 A 
ATOM      8  C   UNL     1     -20.420  12.670 -39.019  1.00  0.00     0.123 A 
ATOM      9  C   UNL     1     -19.509  12.837 -37.980  1.00  0.00     0.094 A 
ATOM     10  C   UNL     1     -19.904  12.647 -36.653  1.00  0.00     0.146 A 
ATOM     11  O   UNL     1     -19.009  12.838 -35.692  1.00  0.00    -0.452 OA
ENDROOT
BRANCH   1  12
ATOM     12  C   UNL     1     -18.193  12.956 -33.427  1.00  0.00     0.025 A 
ATOM     13  C   UNL     1     -18.201  14.127 -32.653  1.00  0.00     0.016 A 
ATOM     14  C   UNL     1     -17.192  14.362 -31.716  1.00  0.00     0.051 A 
ATOM     15  C   UNL     1     -16.170  13.421 -31.527  1.00  0.00     0.157 A 
ATOM     16  C   UNL     1     -17.177  12.005 -33.220  1.00  0.00     0.062 A 
ATOM     17  C   UNL     1     -16.164  12.240 -32.279  1.00  0.00     0.158 A 
BRANCH  15  18
ATOM     18  O   UNL     1     -15.160  13.653 -30.594  1.00  0.00    -0.504 OA
ATOM     19  H   UNL     1     -14.538  12.913 -30.291  1.00  0.00     0.293 HD
ENDBRANCH  15  18
BRANCH  17  20
ATOM     20  O   UNL     1     -15.155  11.300 -32.080  1.00  0.00    -0.504 OA
ATOM     21  H   UNL     1     -14.196  11.579 -31.908  1.00  0.00     0.293 HD
ENDBRANCH  17  20
ENDBRANCH   1  12
BRANCH   2  22
ATOM     22  O   UNL     1     -20.875  12.193 -32.637  1.00  0.00    -0.502 OA
ATOM     23  H   UNL     1     -21.514  12.801 -32.137  1.00  0.00     0.293 HD
ENDBRANCH   2  22
BRANCH   6  24
ATOM     24  O   UNL     1     -23.454  11.575 -37.257  1.00  0.00    -0.507 OA
ATOM     25  H   UNL     1     -23.838  11.224 -36.393  1.00  0.00     0.293 HD
ENDBRANCH   6  24
BRANCH   8  26
ATOM     26  O   UNL     1     -20.009  12.884 -40.333  1.00  0.00    -0.508 OA
ATOM     27  H   UNL     1     -20.141  13.778 -40.791  1.00  0.00     0.293 HD
ENDBRANCH   8  26
TORSDOF 6
ENDMDL
MODEL 3
REMARK VINA RESULT:    -6.971      1.666      6.964
REMARK INTER + INTRA:          -8.705
REMARK INTER:                  -8.556
REMARK INTRA:                  -0.149
REMARK UNBOUND:                -0.308
REMARK SMILES O=c1c(O)c(-c2ccc(O)c(O)c2)oc2cc(O)cc(O)c12
REMARK SMILES IDX 5 1 3 2 2 3 1 4 22 5 20 6 19 7 17 8 16 9 15 10 14 11 6 12
REMARK SMILES IDX 7 13 8 14 9 15 13 16 11 17 10 18 12 20 4 22 21 24 18 26
REMARK H PARENT 10 19 12 21 4 23 21 25 18 27
REMARK Flexibility Score: inf
ROOT
ATOM      1  C   UNL     1     -18.657  12.699 -35.300  1.00  0.00     0.180 A 
ATOM      2  C   UNL     1     -18.780  13.683 -36.296  1.00  0.00     0.208 A 
ATOM      3  C   UNL     1     -19.592  13.424 -37.411  1.00  0.00     0.238 A 
ATOM      4  O   UNL     1     -19.637  14.278 -38.335  1.00  0.00    -0.285 OA
ATOM      5  C   UNL     1     -20.316  12.209 -37.491  1.00  0.00     0.111 A 
ATOM      6  C   UNL     1     -21.203  11.860 -38.553  1.00  0.00     0.134 A 
ATOM      7  C   UNL     1     -21.783  10.586 -38.578  1.00  0.00     0.093 A 
ATOM      8  C   UNL     1     -21.558   9.671 -37.546  1.00  0.00     0.123 A 
ATOM      9  C   UNL     1     -20.737  10.022 -36.478  1.00  0.00     0.094 A 
ATOM     10  C   UNL     1     -20.114  11.272 -36.443  1.00  0.00     0.146 A 
ATOM     11  O   UNL     1     -19.323  11.556 -35.417  1.00  0.00    -0.452 OA
ENDROOT
BRANCH   1  12
ATOM     12  C   UNL     1     -17.808  12.893 -34.101  1.00  0.00     0.025 A 
ATOM     13  C   UNL     1     -18.144  13.889 -33.171  1.00  0.00     0.016 A 
ATOM     14  C   UNL     1     -17.370  14.074 -32.023  1.00  0.00     0.051 A 
ATOM     15  C   UNL     1     -16.259  13.256 -31.780  1.00  0.00     0.157 A 
ATOM     16  C   UNL     1     -16.703  12.060 -33.843  1.00  0.00     0.062 A 
ATOM     17  C   UNL     1     -15.927  12.245 -32.690  1.00  0.00     0.158 A 
BRANCH  15  18
ATOM     18  O   UNL     1     -15.484  13.440 -30.637  1.00  0.00    -0.504 OA
ATOM     19  H   UNL     1     -15.549  14.285 -30.081  1.00  0.00     0.293 HD
ENDBRANCH  15  18
BRANCH  17  20
ATOM     20  O   UNL     1     -14.830  11.424 -32.440  1.00  0.00    -0.504 OA
ATOM     21  H   UNL     1     -13.983  11.784 -32.015  1.00  0.00     0.293 HD
ENDBRANCH  17  20
ENDBRANCH   1  12
BRANCH   2  22
ATOM     22  O   UNL     1     -18.117  14.906 -36.162  1.00  0.00    -0.502 OA
ATOM     23  H   UNL     1     -18.442  15.753 -36.615  1.00  0.00     0.293 HD
ENDBRANCH   2  22
BRANCH   6  24
ATOM     24  O   UNL     1     -21.568  12.729 -39.587  1.00  0.00    -0.507 OA
ATOM     25  H   UNL     1     -21.879  13.679 -39.461  1.00  0.00     0.293 HD
ENDBRANCH   6  24
BRANCH   8  26
ATOM     26  O   UNL     1     -22.153   8.412 -37.570  1.00  0.00    -0.508 OA
ATOM     27  H   UNL     1     -22.702   8.070 -36.790  1.00  0.00     0.293 HD
ENDBRANCH   8  26
TORSDOF 6
ENDMDL
MODEL 4
REMARK VINA RESULT:    -6.886      8.405     10.424
REMARK INTER + INTRA:          -8.603
REMARK INTER:                  -8.298
REMARK INTRA:                  -0.305
REMARK UNBOUND:                -0.308
REMARK SMILES O=c1c(O)c(-c2ccc(O)c(O)c2)oc2cc(O)cc(O)c12
REMARK SMILES IDX 5 1 3 2 2 3 1 4 22 5 20 6 19 7 17 8 16 9 15 10 14 11 6 12
REMARK SMILES IDX 7 13 8 14 9 15 13 16 11 17 10 18 12 20 4 22 21 24 18 26
REMARK H PARENT 10 19 12 21 4 23 21 25 18 27
REMARK Flexibility Score: inf
ROOT
ATOM      1  C   UNL     1     -24.411  17.197 -39.520  1.00  0.00     0.180 A 
ATOM      2  C   UNL     1     -25.453  17.431 -38.608  1.00  0.00     0.208 A 
ATOM      3  C   UNL     1     -26.194  16.340 -38.127  1.00  0.00     0.238 A 
ATOM      4  O   UNL     1     -27.175  16.565 -37.369  1.00  0.00    -0.285 OA
ATOM      5  C   UNL     1     -25.848  15.024 -38.518  1.00  0.00     0.111 A 
ATOM      6  C   UNL     1     -26.501  13.841 -38.056  1.00  0.00     0.134 A 
ATOM      7  C   UNL     1     -26.140  12.599 -38.595  1.00  0.00     0.093 A 
ATOM      8  C   UNL     1     -25.107  12.490 -39.529  1.00  0.00     0.123 A 
ATOM      9  C   UNL     1     -24.428  13.632 -39.944  1.00  0.00     0.094 A 
ATOM     10  C   UNL     1     -24.789  14.890 -39.454  1.00  0.00     0.146 A 
ATOM     11  O   UNL     1     -24.128  15.954 -39.894  1.00  0.00    -0.452 OA
ENDROOT
BRANCH   1  12
ATOM     12  C   UNL     1     -23.593  18.296 -40.084  1.00  0.00     0.025 A 
ATOM     13  C   UNL     1     -22.297  18.515 -39.591  1.00  0.00     0.016 A 
ATOM     14  C   UNL     1     -21.501  19.533 -40.122  1.00  0.00     0.051 A 
ATOM     15  C   UNL     1     -21.983  20.336 -41.165  1.00  0.00     0.157 A 
ATOM     16  C   UNL     1     -24.066  19.091 -41.145  1.00  0.00     0.062 A 
ATOM     17  C   UNL     1     -23.266  20.112 -41.679  1.00  0.00     0.158 A 
BRANCH  15  18
ATOM     18  O   UNL     1     -21.193  21.354 -41.696  1.00  0.00    -0.504 OA
ATOM     19  H   UNL     1     -21.603  22.187 -42.101  1.00  0.00     0.293 HD
ENDBRANCH  15  18
BRANCH  17  20
ATOM     20  O   UNL     1     -23.738  20.902 -42.725  1.00  0.00    -0.504 OA
ATOM     21  H   UNL     1     -23.106  21.397 -43.344  1.00  0.00     0.293 HD
ENDBRANCH  17  20
ENDBRANCH   1  12
BRANCH   2  22
ATOM     22  O   UNL     1     -25.731  18.731 -38.176  1.00  0.00    -0.502 OA
ATOM     23  H   UNL     1     -26.426  18.931 -37.466  1.00  0.00     0.293 HD
ENDBRANCH   2  22
BRANCH   6  24
ATOM     24  O   UNL     1     -27.484  13.825 -37.062  1.00  0.00    -0.507 OA
ATOM     25  H   UNL     1     -28.170  14.549 -36.917  1.00  0.00     0.293 HD
ENDBRANCH   6  24
BRANCH   8  26
ATOM     26  O   UNL     1     -24.744  11.249 -40.045  1.00  0.00    -0.508 OA
ATOM     27  H   UNL     1     -24.056  10.664 -39.586  1.00  0.00     0.293 HD
ENDBRANCH   8  26
TORSDOF 6
ENDMDL
MODEL 5
REMARK VINA RESULT:    -6.757      8.283     10.078
REMARK INTER + INTRA:          -8.448
REMARK INTER:                  -8.166
REMARK INTRA:                  -0.282
REMARK UNBOUND:                -0.308
REMARK SMILES O=c1c(O)c(-c2ccc(O)c(O)c2)oc2cc(O)cc(O)c12
REMARK SMILES IDX 5 1 3 2 2 3 1 4 22 5 20 6 19 7 17 8 16 9 15 10 14 11 6 12
REMARK SMILES IDX 7 13 8 14 9 15 13 16 11 17 10 18 12 20 4 22 21 24 18 26
REMARK H PARENT 10 19 12 21 4 23 21 25 18 27
REMARK Flexibility Score: inf
ROOT
ATOM      1  C   UNL     1     -24.735  17.754 -38.398  1.00  0.00     0.180 A 
ATOM      2  C   UNL     1     -24.017  18.351 -37.349  1.00  0.00     0.208 A 
ATOM      3  C   UNL     1     -23.301  19.532 -37.600  1.00  0.00     0.238 A 
ATOM      4  O   UNL     1     -22.598  20.020 -36.676  1.00  0.00    -0.285 OA
ATOM      5  C   UNL     1     -23.358  20.133 -38.882  1.00  0.00     0.111 A 
ATOM      6  C   UNL     1     -22.708  21.354 -39.235  1.00  0.00     0.134 A 
ATOM      7  C   UNL     1     -22.749  21.797 -40.563  1.00  0.00     0.093 A 
ATOM      8  C   UNL     1     -23.467  21.098 -41.536  1.00  0.00     0.123 A 
ATOM      9  C   UNL     1     -24.149  19.935 -41.188  1.00  0.00     0.094 A 
ATOM     10  C   UNL     1     -24.097  19.447 -39.880  1.00  0.00     0.146 A 
ATOM     11  O   UNL     1     -24.745  18.323 -39.598  1.00  0.00    -0.452 OA
ENDROOT
BRANCH   1  12
ATOM     12  C   UNL     1     -25.503  16.500 -38.215  1.00  0.00     0.025 A 
ATOM     13  C   UNL     1     -26.766  16.547 -37.604  1.00  0.00     0.016 A 
ATOM     14  C   UNL     1     -27.516  15.380 -37.440  1.00  0.00     0.051 A 
ATOM     15  C   UNL     1     -27.023  14.152 -37.900  1.00  0.00     0.157 A 
ATOM     16  C   UNL     1     -25.020  15.268 -38.695  1.00  0.00     0.062 A 
ATOM     17  C   UNL     1     -25.774  14.097 -38.531  1.00  0.00     0.158 A 
BRANCH  15  18
ATOM     18  O   UNL     1     -27.767  12.986 -37.737  1.00  0.00    -0.504 OA
ATOM     19  H   UNL     1     -28.396  12.652 -38.458  1.00  0.00     0.293 HD
ENDBRANCH  15  18
BRANCH  17  20
ATOM     20  O   UNL     1     -25.291  12.877 -39.000  1.00  0.00    -0.504 OA
ATOM     21  H   UNL     1     -24.303  12.653 -38.977  1.00  0.00     0.293 HD
ENDBRANCH  17  20
ENDBRANCH   1  12
BRANCH   2  22
ATOM     22  O   UNL     1     -24.035  17.783 -36.072  1.00  0.00    -0.502 OA
ATOM     23  H   UNL     1     -24.619  16.989 -35.838  1.00  0.00     0.293 HD
ENDBRANCH   2  22
BRANCH   6  24
ATOM     24  O   UNL     1     -22.037  22.177 -38.326  1.00  0.00    -0.507 OA
ATOM     25  H   UNL     1     -21.059  22.106 -38.095  1.00  0.00     0.293 HD
ENDBRANCH   6  24
BRANCH   8  26
ATOM     26  O   UNL     1     -23.516  21.556 -42.850  1.00  0.00    -0.508 OA
ATOM     27  H   UNL     1     -23.417  20.924 -43.636  1.00  0.00     0.293 HD
ENDBRANCH   8  26
TORSDOF 6
ENDMDL
MODEL 6
REMARK VINA RESULT:    -6.744      1.387      3.054
REMARK INTER + INTRA:          -8.432
REMARK INTER:                  -8.137
REMARK INTRA:                  -0.295
REMARK UNBOUND:                -0.308
REMARK SMILES O=c1c(O)c(-c2ccc(O)c(O)c2)oc2cc(O)cc(O)c12
REMARK SMILES IDX 5 1 3 2 2 3 1 4 22 5 20 6 19 7 17 8 16 9 15 10 14 11 6 12
REMARK SMILES IDX 7 13 8 14 9 15 13 16 11 17 10 18 12 20 4 22 21 24 18 26
REMARK H PARENT 10 19 12 21 4 23 21 25 18 27
REMARK Flexibility Score: inf
ROOT
ATOM      1  C   UNL     1     -19.252  11.778 -35.816  1.00  0.00     0.180 A 
ATOM      2  C   UNL     1     -17.873  11.539 -35.688  1.00  0.00     0.208 A 
ATOM      3  C   UNL     1     -17.194  12.054 -34.573  1.00  0.00     0.238 A 
ATOM      4  O   UNL     1     -15.946  11.902 -34.503  1.00  0.00    -0.285 OA
ATOM      5  C   UNL     1     -17.911  12.752 -33.570  1.00  0.00     0.111 A 
ATOM      6  C   UNL     1     -17.333  13.278 -32.375  1.00  0.00     0.134 A 
ATOM      7  C   UNL     1     -18.121  14.042 -31.506  1.00  0.00     0.093 A 
ATOM      8  C   UNL     1     -19.480  14.246 -31.755  1.00  0.00     0.123 A 
ATOM      9  C   UNL     1     -20.065  13.691 -32.890  1.00  0.00     0.094 A 
ATOM     10  C   UNL     1     -19.298  12.955 -33.796  1.00  0.00     0.146 A 
ATOM     11  O   UNL     1     -19.892  12.462 -34.876  1.00  0.00    -0.452 OA
ENDROOT
BRANCH   1  12
ATOM     12  C   UNL     1     -20.035  11.279 -36.971  1.00  0.00     0.025 A 
ATOM     13  C   UNL     1     -19.989  11.977 -38.188  1.00  0.00     0.016 A 
ATOM     14  C   UNL     1     -20.703  11.514 -39.296  1.00  0.00     0.051 A 
ATOM     15  C   UNL     1     -21.459  10.337 -39.208  1.00  0.00     0.157 A 
ATOM     16  C   UNL     1     -20.778  10.087 -36.892  1.00  0.00     0.062 A 
ATOM     17  C   UNL     1     -21.494   9.621 -38.004  1.00  0.00     0.158 A 
BRANCH  15  18
ATOM     18  O   UNL     1     -22.174   9.872 -40.310  1.00  0.00    -0.504 OA
ATOM     19  H   UNL     1     -23.176  10.005 -40.387  1.00  0.00     0.293 HD
ENDBRANCH  15  18
BRANCH  17  20
ATOM     20  O   UNL     1     -22.235   8.444 -37.923  1.00  0.00    -0.504 OA
ATOM     21  H   UNL     1     -23.140   8.417 -37.469  1.00  0.00     0.293 HD
ENDBRANCH  17  20
ENDBRANCH   1  12
BRANCH   2  22
ATOM     22  O   UNL     1     -17.198  10.783 -36.651  1.00  0.00    -0.502 OA
ATOM     23  H   UNL     1     -16.333  11.095 -37.079  1.00  0.00     0.293 HD
ENDBRANCH   2  22
BRANCH   6  24
ATOM     24  O   UNL     1     -16.008  13.060 -31.984  1.00  0.00    -0.507 OA
ATOM     25  H   UNL     1     -15.685  12.265 -31.456  1.00  0.00     0.293 HD
ENDBRANCH   6  24
BRANCH   8  26
ATOM     26  O   UNL     1     -20.260  14.993 -30.876  1.00  0.00    -0.508 OA
ATOM     27  H   UNL     1     -19.922  15.251 -29.956  1.00  0.00     0.293 HD
ENDBRANCH   8  26
TORSDOF 6
ENDMDL
MODEL 7
REMARK VINA RESULT:    -6.667      6.345      8.807
REMARK INTER + INTRA:          -8.339
REMARK INTER:                  -8.020
REMARK INTRA:                  -0.319
REMARK UNBOUND:                -0.308
REMARK SMILES O=c1c(O)c(-c2ccc(O)c(O)c2)oc2cc(O)cc(O)c12
REMARK SMILES IDX 5 1 3 2 2 3 1 4 22 5 20 6 19 7 17 8 16 9 15 10 14 11 6 12
REMARK SMILES IDX 7 13 8 14 9 15 13 16 11 17 10 18 12 20 4 22 21 24 18 26
REMARK H PARENT 10 19 12 21 4 23 21 25 18 27
REMARK Flexibility Score: inf
ROOT
ATOM      1  C   UNL     1     -24.035  15.117 -38.862  1.00  0.00     0.180 A 
ATOM      2  C   UNL     1     -24.253  15.524 -37.535  1.00  0.00     0.208 A 
ATOM      3  C   UNL     1     -24.527  16.876 -37.274  1.00  0.00     0.238 A 
ATOM      4  O   UNL     1     -24.646  17.247 -36.076  1.00  0.00    -0.285 OA
ATOM      5  C   UNL     1     -24.636  17.794 -38.347  1.00  0.00     0.111 A 
ATOM      6  C   UNL     1     -24.954  19.178 -38.202  1.00  0.00     0.134 A 
ATOM      7  C   UNL     1     -24.930  20.013 -39.326  1.00  0.00     0.093 A 
ATOM      8  C   UNL     1     -24.662  19.502 -40.598  1.00  0.00     0.123 A 
ATOM      9  C   UNL     1     -24.405  18.144 -40.757  1.00  0.00     0.094 A 
ATOM     10  C   UNL     1     -24.384  17.291 -39.650  1.00  0.00     0.146 A 
ATOM     11  O   UNL     1     -24.113  16.007 -39.845  1.00  0.00    -0.452 OA
ENDROOT
BRANCH   1  12
ATOM     12  C   UNL     1     -23.728  13.712 -39.216  1.00  0.00     0.025 A 
ATOM     13  C   UNL     1     -24.747  12.888 -39.719  1.00  0.00     0.016 A 
ATOM     14  C   UNL     1     -24.474  11.566 -40.079  1.00  0.00     0.051 A 
ATOM     15  C   UNL     1     -23.175  11.054 -39.957  1.00  0.00     0.157 A 
ATOM     16  C   UNL     1     -22.421  13.200 -39.114  1.00  0.00     0.062 A 
ATOM     17  C   UNL     1     -22.147  11.874 -39.477  1.00  0.00     0.158 A 
BRANCH  15  18
ATOM     18  O   UNL     1     -22.900   9.735 -40.313  1.00  0.00    -0.504 OA
ATOM     19  H   UNL     1     -23.287   9.321 -41.153  1.00  0.00     0.293 HD
ENDBRANCH  15  18
BRANCH  17  20
ATOM     20  O   UNL     1     -20.854  11.366 -39.369  1.00  0.00    -0.504 OA
ATOM     21  H   UNL     1     -20.177  11.473 -40.116  1.00  0.00     0.293 HD
ENDBRANCH  17  20
ENDBRANCH   1  12
BRANCH   2  22
ATOM     22  O   UNL     1     -24.217  14.588 -36.497  1.00  0.00    -0.502 OA
ATOM     23  H   UNL     1     -24.867  13.813 -36.441  1.00  0.00     0.293 HD
ENDBRANCH   2  22
BRANCH   6  24
ATOM     24  O   UNL     1     -25.323  19.775 -36.992  1.00  0.00    -0.507 OA
ATOM     25  H   UNL     1     -25.882  19.336 -36.278  1.00  0.00     0.293 HD
ENDBRANCH   6  24
BRANCH   8  26
ATOM     26  O   UNL     1     -24.657  20.337 -41.713  1.00  0.00    -0.508 OA
ATOM     27  H   UNL     1     -23.941  21.041 -41.846  1.00  0.00     0.293 HD
ENDBRANCH   8  26
TORSDOF 6
ENDMDL
MODEL 8
REMARK VINA RESULT:    -6.604      2.166      2.740
REMARK INTER + INTRA:          -8.264
REMARK INTER:                  -7.950
REMARK INTRA:                  -0.313
REMARK UNBOUND:                -0.308
REMARK SMILES O=c1c(O)c(-c2ccc(O)c(O)c2)oc2cc(O)cc(O)c12
REMARK SMILES IDX 5 1 3 2 2 3 1 4 22 5 20 6 19 7 17 8 16 9 15 10 14 11 6 12
REMARK SMILES IDX 7 13 8 14 9 15 13 16 11 17 10 18 12 20 4 22 21 24 18 26
REMARK H PARENT 10 19 12 21 4 23 21 25 18 27
REMARK Flexibility Score: inf
ROOT
ATOM      1  C   UNL     1     -18.531  12.600 -35.484  1.00  0.00     0.180 A 
ATOM      2  C   UNL     1     -18.206  13.742 -36.235  1.00  0.00     0.208 A 
ATOM      3  C   UNL     1     -17.315  14.682 -35.695  1.00  0.00     0.238 A 
ATOM      4  O   UNL     1     -17.088  15.739 -36.340  1.00  0.00    -0.285 OA
ATOM      5  C   UNL     1     -16.715  14.442 -34.434  1.00  0.00     0.111 A 
ATOM      6  C   UNL     1     -15.764  15.305 -33.810  1.00  0.00     0.134 A 
ATOM      7  C   UNL     1     -15.318  15.017 -32.514  1.00  0.00     0.093 A 
ATOM      8  C   UNL     1     -15.740  13.866 -31.845  1.00  0.00     0.123 A 
ATOM      9  C   UNL     1     -16.625  12.991 -32.467  1.00  0.00     0.094 A 
ATOM     10  C   UNL     1     -17.118  13.268 -33.745  1.00  0.00     0.146 A 
ATOM     11  O   UNL     1     -17.977  12.417 -34.291  1.00  0.00    -0.452 OA
ENDROOT
BRANCH   1  12
ATOM     12  C   UNL     1     -19.473  11.571 -35.981  1.00  0.00     0.025 A 
ATOM     13  C   UNL     1     -18.970  10.373 -36.512  1.00  0.00     0.016 A 
ATOM     14  C   UNL     1     -19.840   9.380 -36.967  1.00  0.00     0.051 A 
ATOM     15  C   UNL     1     -21.227   9.562 -36.881  1.00  0.00     0.157 A 
ATOM     16  C   UNL     1     -20.866  11.742 -35.878  1.00  0.00     0.062 A 
ATOM     17  C   UNL     1     -21.740  10.744 -36.333  1.00  0.00     0.158 A 
BRANCH  15  18
ATOM     18  O   UNL     1     -22.099   8.575 -37.336  1.00  0.00    -0.504 OA
ATOM     19  H   UNL     1     -22.612   8.678 -38.204  1.00  0.00     0.293 HD
ENDBRANCH  15  18
BRANCH  17  20
ATOM     20  O   UNL     1     -23.119  10.918 -36.237  1.00  0.00    -0.504 OA
ATOM     21  H   UNL     1     -23.523  11.681 -35.706  1.00  0.00     0.293 HD
ENDBRANCH  17  20
ENDBRANCH   1  12
BRANCH   2  22
ATOM     22  O   UNL     1     -18.751  13.924 -37.510  1.00  0.00    -0.502 OA
ATOM     23  H   UNL     1     -19.237  13.184 -38.004  1.00  0.00     0.293 HD
ENDBRANCH   2  22
BRANCH   6  24
ATOM     24  O   UNL     1     -15.209  16.433 -34.422  1.00  0.00    -0.507 OA
ATOM     25  H   UNL     1     -15.559  17.373 -34.327  1.00  0.00     0.293 HD
ENDBRANCH   6  24
BRANCH   8  26
ATOM     26  O   UNL     1     -15.278  13.579 -30.563  1.00  0.00    -0.508 OA
ATOM     27  H   UNL     1     -14.829  12.697 -30.345  1.00  0.00     0.293 HD
ENDBRANCH   8  26
TORSDOF 6
ENDMDL
MODEL 9
REMARK VINA RESULT:    -6.569      1.917      7.159
REMARK INTER + INTRA:          -8.221
REMARK INTER:                  -8.036
REMARK INTRA:                  -0.185
REMARK UNBOUND:                -0.308
REMARK SMILES O=c1c(O)c(-c2ccc(O)c(O)c2)oc2cc(O)cc(O)c12
REMARK SMILES IDX 5 1 3 2 2 3 1 4 22 5 20 6 19 7 17 8 16 9 15 10 14 11 6 12
REMARK SMILES IDX 7 13 8 14 9 15 13 16 11 17 10 18 12 20 4 22 21 24 18 26
REMARK H PARENT 10 19 12 21 4 23 21 25 18 27
REMARK Flexibility Score: inf
ROOT
ATOM      1  C   UNL     1     -17.784  12.488 -34.479  1.00  0.00     0.180 A 
ATOM      2  C   UNL     1     -17.517  11.609 -35.542  1.00  0.00     0.208 A 
ATOM      3  C   UNL     1     -18.578  10.889 -36.114  1.00  0.00     0.238 A 
ATOM      4  O   UNL     1     -18.320  10.048 -37.014  1.00  0.00    -0.285 OA
ATOM      5  C   UNL     1     -19.901  11.098 -35.653  1.00  0.00     0.111 A 
ATOM      6  C   UNL     1     -21.058  10.456 -36.190  1.00  0.00     0.134 A 
ATOM      7  C   UNL     1     -22.304  10.662 -35.583  1.00  0.00     0.093 A 
ATOM      8  C   UNL     1     -22.445  11.534 -34.501  1.00  0.00     0.123 A 
ATOM      9  C   UNL     1     -21.331  12.206 -34.007  1.00  0.00     0.094 A 
ATOM     10  C   UNL     1     -20.068  11.994 -34.565  1.00  0.00     0.146 A 
ATOM     11  O   UNL     1     -19.030  12.640 -34.048  1.00  0.00    -0.452 OA
ENDROOT
BRANCH   1  12
ATOM     12  C   UNL     1     -16.716  13.272 -33.816  1.00  0.00     0.025 A 
ATOM     13  C   UNL     1     -16.074  14.300 -34.524  1.00  0.00     0.016 A 
ATOM     14  C   UNL     1     -15.078  15.065 -33.911  1.00  0.00     0.051 A 
ATOM     15  C   UNL     1     -14.723  14.825 -32.577  1.00  0.00     0.157 A 
ATOM     16  C   UNL     1     -16.370  13.047 -32.470  1.00  0.00     0.062 A 
ATOM     17  C   UNL     1     -15.372  13.816 -31.855  1.00  0.00     0.158 A 
BRANCH  15  18
ATOM     18  O   UNL     1     -13.729  15.585 -31.963  1.00  0.00    -0.504 OA
ATOM     19  H   UNL     1     -13.841  15.944 -31.022  1.00  0.00     0.293 HD
ENDBRANCH  15  18
BRANCH  17  20
ATOM     20  O   UNL     1     -15.027  13.588 -30.525  1.00  0.00    -0.504 OA
ATOM     21  H   UNL     1     -14.315  14.139 -30.059  1.00  0.00     0.293 HD
ENDBRANCH  17  20
ENDBRANCH   1  12
BRANCH   2  22
ATOM     22  O   UNL     1     -16.215  11.474 -36.033  1.00  0.00    -0.502 OA
ATOM     23  H   UNL     1     -15.800  12.147 -36.668  1.00  0.00     0.293 HD
ENDBRANCH   2  22
BRANCH   6  24
ATOM     24  O   UNL     1     -21.045   9.635 -37.321  1.00  0.00    -0.507 OA
ATOM     25  H   UNL     1     -20.705   8.687 -37.343  1.00  0.00     0.293 HD
ENDBRANCH   6  24
BRANCH   8  26
ATOM     26  O   UNL     1     -23.691  11.745 -33.916  1.00  0.00    -0.508 OA
ATOM     27  H   UNL     1     -24.543  11.738 -34.465  1.00  0.00     0.293 HD
ENDBRANCH   8  26
TORSDOF 6
ENDMDL
