MODEL 1
REMARK VINA RESULT:    -3.979      0.000      0.000
REMARK INTER + INTRA:          -8.329
REMARK INTER:                  -6.771
REMARK INTRA:                  -1.559
REMARK UNBOUND:                -1.559
REMARK SMILES CCCCCCCCCCCCCC(=O)[O-]
REMARK SMILES IDX 8 1 9 2 10 3 11 4 12 5 13 6 14 7 15 8 16 9 7 10 6 11 5 12
REMARK SMILES IDX 4 13 3 14 2 15 1 16
REMARK H PARENT
REMARK Flexibility Score: inf
ROOT
ATOM      1  C   UNL     1     302.235 325.059 647.385  1.00  0.00     0.000 C 
ENDROOT
BRANCH   1   2
ATOM      2  C   UNL     1     303.586 324.766 646.710  1.00  0.00     0.000 C 
BRANCH   2   3
ATOM      3  C   UNL     1     303.744 323.288 646.322  1.00  0.00     0.000 C 
BRANCH   3   4
ATOM      4  C   UNL     1     304.831 322.574 647.145  1.00  0.00     0.000 C 
BRANCH   4   5
ATOM      5  C   UNL     1     304.281 321.954 648.438  1.00  0.00     0.006 C 
BRANCH   5   6
ATOM      6  C   UNL     1     304.806 322.652 649.698  1.00  0.00     0.053 C 
BRANCH   6   7
ATOM      7  C   UNL     1     305.555 321.685 650.558  1.00  0.00     0.041 C 
ATOM      8  O   UNL     1     306.594 322.052 651.168  1.00  0.00    -0.550 OA
ATOM      9  O   UNL     1     305.135 320.364 650.648  1.00  0.00    -0.550 OA
ENDBRANCH   6   7
ENDBRANCH   5   6
ENDBRANCH   4   5
ENDBRANCH   3   4
ENDBRANCH   2   3
ENDBRANCH   1   2
BRANCH   1  10
ATOM     10  C   UNL     1     301.317 323.827 647.425  1.00  0.00     0.000 C 
BRANCH  10  11
ATOM     11  C   UNL     1     299.882 324.176 647.859  1.00  0.00    -0.000 C 
BRANCH  11  12
ATOM     12  C   UNL     1     299.219 325.212 646.937  1.00  0.00    -0.000 C 
BRANCH  12  13
ATOM     13  C   UNL     1     298.919 324.649 645.538  1.00  0.00    -0.000 C 
BRANCH  13  14
ATOM     14  C   UNL     1     299.290 325.631 644.414  1.00  0.00    -0.000 C 
BRANCH  14  15
ATOM     15  C   UNL     1     300.764 325.527 643.999  1.00  0.00    -0.003 C 
ATOM     16  C   UNL     1     301.158 324.076 643.734  1.00  0.00     0.004 C 
ENDBRANCH  14  15
ENDBRANCH  13  14
ENDBRANCH  12  13
ENDBRANCH  11  12
ENDBRANCH  10  11
ENDBRANCH   1  10
TORSDOF 12
ENDMDL
MODEL 2
REMARK VINA RESULT:    -3.931      1.011      1.761
REMARK INTER + INTRA:          -8.247
REMARK INTER:                  -6.754
REMARK INTRA:                  -1.493
REMARK UNBOUND:                -1.559
REMARK SMILES CCCCCCCCCCCCCC(=O)[O-]
REMARK SMILES IDX 8 1 9 2 10 3 11 4 12 5 13 6 14 7 15 8 16 9 7 10 6 11 5 12
REMARK SMILES IDX 4 13 3 14 2 15 1 16
REMARK H PARENT
REMARK Flexibility Score: inf
ROOT
ATOM      1  C   UNL     1     301.099 323.587 647.520  1.00  0.00     0.000 C 
ENDROOT
BRANCH   1   2
ATOM      2  C   UNL     1     302.132 324.636 647.967  1.00  0.00     0.000 C 
BRANCH   2   3
ATOM      3  C   UNL     1     303.566 324.083 647.980  1.00  0.00     0.000 C 
BRANCH   3   4
ATOM      4  C   UNL     1     303.634 322.606 647.553  1.00  0.00     0.000 C 
BRANCH   4   5
ATOM      5  C   UNL     1     304.410 321.737 648.554  1.00  0.00     0.006 C 
BRANCH   5   6
ATOM      6  C   UNL     1     304.869 322.525 649.788  1.00  0.00     0.053 C 
BRANCH   6   7
ATOM      7  C   UNL     1     305.576 321.624 650.749  1.00  0.00     0.041 C 
ATOM      8  O   UNL     1     306.497 322.076 651.481  1.00  0.00    -0.550 OA
ATOM      9  O   UNL     1     305.252 320.275 650.805  1.00  0.00    -0.550 OA
ENDBRANCH   6   7
ENDBRANCH   5   6
ENDBRANCH   4   5
ENDBRANCH   3   4
ENDBRANCH   2   3
ENDBRANCH   1   2
BRANCH   1  10
ATOM     10  C   UNL     1     299.660 324.127 647.549  1.00  0.00     0.000 C 
BRANCH  10  11
ATOM     11  C   UNL     1     299.026 324.187 646.148  1.00  0.00    -0.000 C 
BRANCH  11  12
ATOM     12  C   UNL     1     299.600 325.323 645.287  1.00  0.00    -0.000 C 
BRANCH  12  13
ATOM     13  C   UNL     1     300.361 324.802 644.055  1.00  0.00    -0.000 C 
BRANCH  13  14
ATOM     14  C   UNL     1     301.881 325.006 644.170  1.00  0.00    -0.000 C 
BRANCH  14  15
ATOM     15  C   UNL     1     302.662 323.685 644.111  1.00  0.00    -0.003 C 
ATOM     16  C   UNL     1     304.167 323.935 644.172  1.00  0.00     0.004 C 
ENDBRANCH  14  15
ENDBRANCH  13  14
ENDBRANCH  12  13
ENDBRANCH  11  12
ENDBRANCH  10  11
ENDBRANCH   1  10
TORSDOF 12
ENDMDL
MODEL 3
REMARK VINA RESULT:    -3.758      3.624      6.986
REMARK INTER + INTRA:          -7.953
REMARK INTER:                  -6.565
REMARK INTRA:                  -1.388
REMARK UNBOUND:                -1.559
REMARK SMILES CCCCCCCCCCCCCC(=O)[O-]
REMARK SMILES IDX 8 1 9 2 10 3 11 4 12 5 13 6 14 7 15 8 16 9 7 10 6 11 5 12
REMARK SMILES IDX 4 13 3 14 2 15 1 16
REMARK H PARENT
REMARK Flexibility Score: inf
ROOT
ATOM      1  C   UNL     1     303.042 324.900 646.766  1.00  0.00     0.000 C 
ENDROOT
BRANCH   1   2
ATOM      2  C   UNL     1     301.928 324.709 647.809  1.00  0.00     0.000 C 
BRANCH   2   3
ATOM      3  C   UNL     1     300.909 323.636 647.394  1.00  0.00     0.000 C 
BRANCH   3   4
ATOM      4  C   UNL     1     299.457 324.137 647.478  1.00  0.00     0.000 C 
BRANCH   4   5
ATOM      5  C   UNL     1     298.941 324.679 646.136  1.00  0.00     0.006 C 
BRANCH   5   6
ATOM      6  C   UNL     1     298.875 326.211 646.104  1.00  0.00     0.053 C 
BRANCH   6   7
ATOM      7  C   UNL     1     300.026 326.768 645.328  1.00  0.00     0.041 C 
ATOM      8  O   UNL     1     300.617 326.056 644.472  1.00  0.00    -0.550 OA
ATOM      9  O   UNL     1     300.478 328.056 645.582  1.00  0.00    -0.550 OA
ENDBRANCH   6   7
ENDBRANCH   5   6
ENDBRANCH   4   5
ENDBRANCH   3   4
ENDBRANCH   2   3
ENDBRANCH   1   2
BRANCH   1  10
ATOM     10  C   UNL     1     303.429 323.587 646.069  1.00  0.00     0.000 C 
BRANCH  10  11
ATOM     11  C   UNL     1     304.430 322.755 646.891  1.00  0.00    -0.000 C 
BRANCH  11  12
ATOM     12  C   UNL     1     305.614 323.590 647.402  1.00  0.00    -0.000 C 
BRANCH  12  13
ATOM     13  C   UNL     1     305.782 323.504 648.928  1.00  0.00    -0.000 C 
BRANCH  13  14
ATOM     14  C   UNL     1     304.719 322.610 649.590  1.00  0.00    -0.000 C 
BRANCH  14  15
ATOM     15  C   UNL     1     305.334 321.503 650.458  1.00  0.00    -0.003 C 
ATOM     16  C   UNL     1     305.116 320.129 649.829  1.00  0.00     0.004 C 
ENDBRANCH  14  15
ENDBRANCH  13  14
ENDBRANCH  12  13
ENDBRANCH  11  12
ENDBRANCH  10  11
ENDBRANCH   1  10
TORSDOF 12
ENDMDL
MODEL 4
REMARK VINA RESULT:    -3.728      1.942      3.829
REMARK INTER + INTRA:          -7.902
REMARK INTER:                  -5.931
REMARK INTRA:                  -1.971
REMARK UNBOUND:                -1.559
REMARK SMILES CCCCCCCCCCCCCC(=O)[O-]
REMARK SMILES IDX 8 1 9 2 10 3 11 4 12 5 13 6 14 7 15 8 16 9 7 10 6 11 5 12
REMARK SMILES IDX 4 13 3 14 2 15 1 16
REMARK H PARENT
REMARK Flexibility Score: inf
ROOT
ATOM      1  C   UNL     1     299.309 324.348 645.271  1.00  0.00     0.000 C 
ENDROOT
BRANCH   1   2
ATOM      2  C   UNL     1     299.022 325.481 646.271  1.00  0.00     0.000 C 
BRANCH   2   3
ATOM      3  C   UNL     1     299.665 325.231 647.645  1.00  0.00     0.000 C 
BRANCH   3   4
ATOM      4  C   UNL     1     300.537 323.964 647.667  1.00  0.00     0.000 C 
BRANCH   4   5
ATOM      5  C   UNL     1     302.018 324.271 647.931  1.00  0.00     0.006 C 
BRANCH   5   6
ATOM      6  C   UNL     1     302.954 323.197 647.364  1.00  0.00     0.053 C 
BRANCH   6   7
ATOM      7  C   UNL     1     303.923 322.743 648.408  1.00  0.00     0.041 C 
ATOM      8  O   UNL     1     304.139 323.455 649.425  1.00  0.00    -0.550 OA
ATOM      9  O   UNL     1     304.626 321.557 648.237  1.00  0.00    -0.550 OA
ENDBRANCH   6   7
ENDBRANCH   5   6
ENDBRANCH   4   5
ENDBRANCH   3   4
ENDBRANCH   2   3
ENDBRANCH   1   2
BRANCH   1  10
ATOM     10  C   UNL     1     300.146 324.818 644.071  1.00  0.00     0.000 C 
BRANCH  10  11
ATOM     11  C   UNL     1     301.616 324.370 644.167  1.00  0.00    -0.000 C 
BRANCH  11  12
ATOM     12  C   UNL     1     302.584 325.551 644.338  1.00  0.00    -0.000 C 
BRANCH  12  13
ATOM     13  C   UNL     1     301.910 326.909 644.076  1.00  0.00    -0.000 C 
BRANCH  13  14
ATOM     14  C   UNL     1     301.708 327.725 645.364  1.00  0.00    -0.000 C 
BRANCH  14  15
ATOM     15  C   UNL     1     300.646 328.824 645.208  1.00  0.00    -0.003 C 
ATOM     16  C   UNL     1     299.658 328.477 644.097  1.00  0.00     0.004 C 
ENDBRANCH  14  15
ENDBRANCH  13  14
ENDBRANCH  12  13
ENDBRANCH  11  12
ENDBRANCH  10  11
ENDBRANCH   1  10
TORSDOF 12
ENDMDL
MODEL 5
REMARK VINA RESULT:    -3.720      1.299      2.524
REMARK INTER + INTRA:          -7.889
REMARK INTER:                  -6.554
REMARK INTRA:                  -1.335
REMARK UNBOUND:                -1.559
REMARK SMILES CCCCCCCCCCCCCC(=O)[O-]
REMARK SMILES IDX 8 1 9 2 10 3 11 4 12 5 13 6 14 7 15 8 16 9 7 10 6 11 5 12
REMARK SMILES IDX 4 13 3 14 2 15 1 16
REMARK H PARENT
REMARK Flexibility Score: inf
ROOT
ATOM      1  C   UNL     1     303.056 325.141 646.456  1.00  0.00     0.000 C 
ENDROOT
BRANCH   1   2
ATOM      2  C   UNL     1     302.991 323.725 647.054  1.00  0.00     0.000 C 
BRANCH   2   3
ATOM      3  C   UNL     1     303.356 323.698 648.546  1.00  0.00     0.000 C 
BRANCH   3   4
ATOM      4  C   UNL     1     304.398 322.616 648.879  1.00  0.00     0.000 C 
BRANCH   4   5
ATOM      5  C   UNL     1     305.795 322.956 648.340  1.00  0.00     0.006 C 
BRANCH   5   6
ATOM      6  C   UNL     1     306.865 322.970 649.440  1.00  0.00     0.053 C 
BRANCH   6   7
ATOM      7  C   UNL     1     306.766 321.737 650.280  1.00  0.00     0.041 C 
ATOM      8  O   UNL     1     307.025 320.609 649.782  1.00  0.00    -0.550 OA
ATOM      9  O   UNL     1     306.342 321.826 651.599  1.00  0.00    -0.550 OA
ENDBRANCH   6   7
ENDBRANCH   5   6
ENDBRANCH   4   5
ENDBRANCH   3   4
ENDBRANCH   2   3
ENDBRANCH   1   2
BRANCH   1  10
ATOM     10  C   UNL     1     302.776 325.157 644.945  1.00  0.00     0.000 C 
BRANCH  10  11
ATOM     11  C   UNL     1     301.658 324.178 644.542  1.00  0.00    -0.000 C 
BRANCH  11  12
ATOM     12  C   UNL     1     300.345 324.893 644.189  1.00  0.00    -0.000 C 
BRANCH  12  13
ATOM     13  C   UNL     1     299.250 324.672 645.248  1.00  0.00    -0.000 C 
BRANCH  13  14
ATOM     14  C   UNL     1     299.325 325.692 646.396  1.00  0.00    -0.000 C 
BRANCH  14  15
ATOM     15  C   UNL     1     299.633 325.037 647.751  1.00  0.00    -0.003 C 
ATOM     16  C   UNL     1     299.325 323.542 647.719  1.00  0.00     0.004 C 
ENDBRANCH  14  15
ENDBRANCH  13  14
ENDBRANCH  12  13
ENDBRANCH  11  12
ENDBRANCH  10  11
ENDBRANCH   1  10
TORSDOF 12
ENDMDL
MODEL 6
REMARK VINA RESULT:    -3.714      1.316      1.800
REMARK INTER + INTRA:          -7.877
REMARK INTER:                  -6.859
REMARK INTRA:                  -1.018
REMARK UNBOUND:                -1.559
REMARK SMILES CCCCCCCCCCCCCC(=O)[O-]
REMARK SMILES IDX 8 1 9 2 10 3 11 4 12 5 13 6 14 7 15 8 16 9 7 10 6 11 5 12
REMARK SMILES IDX 4 13 3 14 2 15 1 16
REMARK H PARENT
REMARK Flexibility Score: inf
ROOT
ATOM      1  C   UNL     1     301.729 324.695 647.883  1.00  0.00     0.000 C 
ENDROOT
BRANCH   1   2
ATOM      2  C   UNL     1     302.031 323.234 647.510  1.00  0.00     0.000 C 
BRANCH   2   3
ATOM      3  C   UNL     1     303.499 322.853 647.755  1.00  0.00     0.000 C 
BRANCH   3   4
ATOM      4  C   UNL     1     304.086 323.537 649.002  1.00  0.00     0.000 C 
BRANCH   4   5
ATOM      5  C   UNL     1     305.454 322.965 649.401  1.00  0.00     0.006 C 
BRANCH   5   6
ATOM      6  C   UNL     1     305.380 322.068 650.643  1.00  0.00     0.053 C 
BRANCH   6   7
ATOM      7  C   UNL     1     305.748 320.661 650.295  1.00  0.00     0.041 C 
ATOM      8  O   UNL     1     306.327 319.930 651.141  1.00  0.00    -0.550 OA
ATOM      9  O   UNL     1     305.495 320.171 649.020  1.00  0.00    -0.550 OA
ENDBRANCH   6   7
ENDBRANCH   5   6
ENDBRANCH   4   5
ENDBRANCH   3   4
ENDBRANCH   2   3
ENDBRANCH   1   2
BRANCH   1  10
ATOM     10  C   UNL     1     300.269 325.086 647.606  1.00  0.00     0.000 C 
BRANCH  10  11
ATOM     11  C   UNL     1     299.491 323.976 646.876  1.00  0.00    -0.000 C 
BRANCH  11  12
ATOM     12  C   UNL     1     298.876 324.457 645.552  1.00  0.00    -0.000 C 
BRANCH  12  13
ATOM     13  C   UNL     1     299.931 325.017 644.581  1.00  0.00    -0.000 C 
BRANCH  13  14
ATOM     14  C   UNL     1     299.442 326.272 643.838  1.00  0.00    -0.000 C 
BRANCH  14  15
ATOM     15  C   UNL     1     300.524 327.357 643.734  1.00  0.00    -0.003 C 
ATOM     16  C   UNL     1     301.428 327.349 644.965  1.00  0.00     0.004 C 
ENDBRANCH  14  15
ENDBRANCH  13  14
ENDBRANCH  12  13
ENDBRANCH  11  12
ENDBRANCH  10  11
ENDBRANCH   1  10
TORSDOF 12
ENDMDL
MODEL 7
REMARK VINA RESULT:    -3.650      1.367      3.046
REMARK INTER + INTRA:          -7.769
REMARK INTER:                  -6.186
REMARK INTRA:                  -1.583
REMARK UNBOUND:                -1.559
REMARK SMILES CCCCCCCCCCCCCC(=O)[O-]
REMARK SMILES IDX 8 1 9 2 10 3 11 4 12 5 13 6 14 7 15 8 16 9 7 10 6 11 5 12
REMARK SMILES IDX 4 13 3 14 2 15 1 16
REMARK H PARENT
REMARK Flexibility Score: inf
ROOT
ATOM      1  C   UNL     1     298.922 324.531 646.196  1.00  0.00     0.000 C 
ENDROOT
BRANCH   1   2
ATOM      2  C   UNL     1     299.602 324.138 647.519  1.00  0.00     0.000 C 
BRANCH   2   3
ATOM      3  C   UNL     1     301.026 323.597 647.312  1.00  0.00     0.000 C 
BRANCH   3   4
ATOM      4  C   UNL     1     302.107 324.642 647.637  1.00  0.00     0.000 C 
BRANCH   4   5
ATOM      5  C   UNL     1     303.356 324.019 648.279  1.00  0.00     0.006 C 
BRANCH   5   6
ATOM      6  C   UNL     1     303.504 322.527 647.955  1.00  0.00     0.053 C 
BRANCH   6   7
ATOM      7  C   UNL     1     304.661 321.942 648.701  1.00  0.00     0.041 C 
ATOM      8  O   UNL     1     304.930 322.339 649.866  1.00  0.00    -0.550 OA
ATOM      9  O   UNL     1     305.474 320.994 648.093  1.00  0.00    -0.550 OA
ENDBRANCH   6   7
ENDBRANCH   5   6
ENDBRANCH   4   5
ENDBRANCH   3   4
ENDBRANCH   2   3
ENDBRANCH   1   2
BRANCH   1  10
ATOM     10  C   UNL     1     298.875 326.053 645.986  1.00  0.00     0.000 C 
BRANCH  10  11
ATOM     11  C   UNL     1     299.946 326.545 644.997  1.00  0.00    -0.000 C 
BRANCH  11  12
ATOM     12  C   UNL     1     299.654 326.122 643.549  1.00  0.00    -0.000 C 
BRANCH  12  13
ATOM     13  C   UNL     1     300.840 325.393 642.896  1.00  0.00    -0.000 C 
BRANCH  13  14
ATOM     14  C   UNL     1     301.922 324.997 643.915  1.00  0.00    -0.000 C 
BRANCH  14  15
ATOM     15  C   UNL     1     302.465 323.579 643.682  1.00  0.00    -0.003 C 
ATOM     16  C   UNL     1     303.759 323.353 644.459  1.00  0.00     0.004 C 
ENDBRANCH  14  15
ENDBRANCH  13  14
ENDBRANCH  12  13
ENDBRANCH  11  12
ENDBRANCH  10  11
ENDBRANCH   1  10
TORSDOF 12
ENDMDL
MODEL 8
REMARK VINA RESULT:    -3.622      3.060      6.833
REMARK INTER + INTRA:          -7.722
REMARK INTER:                  -6.641
REMARK INTRA:                  -1.081
REMARK UNBOUND:                -1.559
REMARK SMILES CCCCCCCCCCCCCC(=O)[O-]
REMARK SMILES IDX 8 1 9 2 10 3 11 4 12 5 13 6 14 7 15 8 16 9 7 10 6 11 5 12
REMARK SMILES IDX 4 13 3 14 2 15 1 16
REMARK H PARENT
REMARK Flexibility Score: inf
ROOT
ATOM      1  C   UNL     1     300.800 323.495 647.555  1.00  0.00     0.000 C 
ENDROOT
BRANCH   1   2
ATOM      2  C   UNL     1     299.685 324.488 647.924  1.00  0.00     0.000 C 
BRANCH   2   3
ATOM      3  C   UNL     1     299.281 325.386 646.745  1.00  0.00     0.000 C 
BRANCH   3   4
ATOM      4  C   UNL     1     299.094 324.596 645.438  1.00  0.00     0.000 C 
BRANCH   4   5
ATOM      5  C   UNL     1     299.961 325.138 644.291  1.00  0.00     0.006 C 
BRANCH   5   6
ATOM      6  C   UNL     1     301.204 324.277 644.033  1.00  0.00     0.053 C 
BRANCH   6   7
ATOM      7  C   UNL     1     302.445 325.029 644.396  1.00  0.00     0.041 C 
ATOM      8  O   UNL     1     302.378 326.042 645.142  1.00  0.00    -0.550 OA
ATOM      9  O   UNL     1     303.672 324.642 643.871  1.00  0.00    -0.550 OA
ENDBRANCH   6   7
ENDBRANCH   5   6
ENDBRANCH   4   5
ENDBRANCH   3   4
ENDBRANCH   2   3
ENDBRANCH   1   2
BRANCH   1  10
ATOM     10  C   UNL     1     302.192 323.981 647.990  1.00  0.00     0.000 C 
BRANCH  10  11
ATOM     11  C   UNL     1     303.321 323.068 647.482  1.00  0.00    -0.000 C 
BRANCH  11  12
ATOM     12  C   UNL     1     304.040 322.326 648.620  1.00  0.00    -0.000 C 
BRANCH  12  13
ATOM     13  C   UNL     1     305.522 322.059 648.306  1.00  0.00    -0.000 C 
BRANCH  13  14
ATOM     14  C   UNL     1     306.426 322.224 649.539  1.00  0.00    -0.000 C 
BRANCH  14  15
ATOM     15  C   UNL     1     305.705 321.884 650.852  1.00  0.00    -0.003 C 
ATOM     16  C   UNL     1     305.925 320.423 651.236  1.00  0.00     0.004 C 
ENDBRANCH  14  15
ENDBRANCH  13  14
ENDBRANCH  12  13
ENDBRANCH  11  12
ENDBRANCH  10  11
ENDBRANCH   1  10
TORSDOF 12
ENDMDL
MODEL 9
REMARK VINA RESULT:    -3.592      1.505      2.027
REMARK INTER + INTRA:          -7.671
REMARK INTER:                  -6.172
REMARK INTRA:                  -1.499
REMARK UNBOUND:                -1.559
REMARK SMILES CCCCCCCCCCCCCC(=O)[O-]
REMARK SMILES IDX 8 1 9 2 10 3 11 4 12 5 13 6 14 7 15 8 16 9 7 10 6 11 5 12
REMARK SMILES IDX 4 13 3 14 2 15 1 16
REMARK H PARENT
REMARK Flexibility Score: inf
ROOT
ATOM      1  C   UNL     1     303.371 324.822 646.446  1.00  0.00     0.000 C 
ENDROOT
BRANCH   1   2
ATOM      2  C   UNL     1     304.324 323.657 646.764  1.00  0.00     0.000 C 
BRANCH   2   3
ATOM      3  C   UNL     1     305.353 324.015 647.847  1.00  0.00     0.000 C 
BRANCH   3   4
ATOM      4  C   UNL     1     305.239 323.116 649.091  1.00  0.00     0.000 C 
BRANCH   4   5
ATOM      5  C   UNL     1     304.321 321.906 648.862  1.00  0.00     0.006 C 
BRANCH   5   6
ATOM      6  C   UNL     1     304.990 320.578 649.235  1.00  0.00     0.053 C 
BRANCH   6   7
ATOM      7  C   UNL     1     306.207 320.352 648.396  1.00  0.00     0.041 C 
ATOM      8  O   UNL     1     306.105 320.255 647.144  1.00  0.00    -0.550 OA
ATOM      9  O   UNL     1     307.450 320.200 648.999  1.00  0.00    -0.550 OA
ENDBRANCH   6   7
ENDBRANCH   5   6
ENDBRANCH   4   5
ENDBRANCH   3   4
ENDBRANCH   2   3
ENDBRANCH   1   2
BRANCH   1  10
ATOM     10  C   UNL     1     302.200 324.913 647.437  1.00  0.00     0.000 C 
BRANCH  10  11
ATOM     11  C   UNL     1     301.403 323.599 647.530  1.00  0.00    -0.000 C 
BRANCH  11  12
ATOM     12  C   UNL     1     299.884 323.827 647.537  1.00  0.00    -0.000 C 
BRANCH  12  13
ATOM     13  C   UNL     1     299.478 325.117 646.804  1.00  0.00    -0.000 C 
BRANCH  13  14
ATOM     14  C   UNL     1     298.876 324.843 645.415  1.00  0.00    -0.000 C 
BRANCH  14  15
ATOM     15  C   UNL     1     299.778 325.332 644.272  1.00  0.00    -0.003 C 
ATOM     16  C   UNL     1     300.770 324.249 643.855  1.00  0.00     0.004 C 
ENDBRANCH  14  15
ENDBRANCH  13  14
ENDBRANCH  12  13
ENDBRANCH  11  12
ENDBRANCH  10  11
ENDBRANCH   1  10
TORSDOF 12
ENDMDL
