MODEL 1
REMARK VINA RESULT:    -4.084      0.000      0.000
REMARK INTER + INTRA:         -10.567
REMARK INTER:                  -7.905
REMARK INTRA:                  -2.662
REMARK UNBOUND:                -2.662
REMARK SMILES CCCCCCCCCCCCCCCCCC(=O)[O-]
REMARK SMILES IDX 10 1 11 2 12 3 13 4 14 5 15 6 16 7 17 8 18 9 19 10 20 11
REMARK SMILES IDX 9 12 8 13 7 14 6 15 5 16 4 17 3 18 2 19 1 20
REMARK H PARENT
REMARK Flexibility Score: inf
ROOT
ATOM      1  C   UNL     1      46.347   8.177  19.847  1.00  0.00     0.000 C 
ENDROOT
BRANCH   1   2
ATOM      2  C   UNL     1      46.776   6.895  20.594  1.00  0.00     0.000 C 
BRANCH   2   3
ATOM      3  C   UNL     1      47.772   7.188  21.730  1.00  0.00     0.000 C 
BRANCH   3   4
ATOM      4  C   UNL     1      47.092   7.771  22.979  1.00  0.00     0.000 C 
BRANCH   4   5
ATOM      5  C   UNL     1      47.344   9.278  23.140  1.00  0.00     0.000 C 
BRANCH   5   6
ATOM      6  C   UNL     1      46.032  10.029  23.404  1.00  0.00     0.000 C 
BRANCH   6   7
ATOM      7  C   UNL     1      44.851   9.054  23.512  1.00  0.00     0.006 C 
BRANCH   7   8
ATOM      8  C   UNL     1      43.525   9.775  23.784  1.00  0.00     0.053 C 
BRANCH   8   9
ATOM      9  C   UNL     1      43.025   9.518  25.173  1.00  0.00     0.041 C 
ATOM     10  O   UNL     1      41.798   9.624  25.434  1.00  0.00    -0.550 OA
ATOM     11  O   UNL     1      43.917   9.186  26.184  1.00  0.00    -0.550 OA
ENDBRANCH   8   9
ENDBRANCH   7   8
ENDBRANCH   6   7
ENDBRANCH   5   6
ENDBRANCH   4   5
ENDBRANCH   3   4
ENDBRANCH   2   3
ENDBRANCH   1   2
BRANCH   1  12
ATOM     12  C   UNL     1      44.833   8.461  19.915  1.00  0.00     0.000 C 
BRANCH  12  13
ATOM     13  C   UNL     1      44.444   9.947  19.848  1.00  0.00    -0.000 C 
BRANCH  13  14
ATOM     14  C   UNL     1      45.515  10.814  19.163  1.00  0.00    -0.000 C 
BRANCH  14  15
ATOM     15  C   UNL     1      45.242  11.011  17.664  1.00  0.00    -0.000 C 
BRANCH  15  16
ATOM     16  C   UNL     1      46.413  10.554  16.781  1.00  0.00    -0.000 C 
BRANCH  16  17
ATOM     17  C   UNL     1      46.000   9.380  15.885  1.00  0.00    -0.000 C 
BRANCH  17  18
ATOM     18  C   UNL     1      46.819   8.122  16.213  1.00  0.00    -0.000 C 
BRANCH  18  19
ATOM     19  C   UNL     1      45.933   6.896  16.486  1.00  0.00    -0.003 C 
ATOM     20  C   UNL     1      44.441   7.226  16.446  1.00  0.00     0.004 C 
ENDBRANCH  18  19
ENDBRANCH  17  18
ENDBRANCH  16  17
ENDBRANCH  15  16
ENDBRANCH  14  15
ENDBRANCH  13  14
ENDBRANCH  12  13
ENDBRANCH   1  12
TORSDOF 16
ENDMDL
MODEL 2
REMARK VINA RESULT:    -4.071      1.465      2.665
REMARK INTER + INTRA:         -10.541
REMARK INTER:                  -8.930
REMARK INTRA:                  -1.611
REMARK UNBOUND:                -2.662
REMARK SMILES CCCCCCCCCCCCCCCCCC(=O)[O-]
REMARK SMILES IDX 10 1 11 2 12 3 13 4 14 5 15 6 16 7 17 8 18 9 19 10 20 11
REMARK SMILES IDX 9 12 8 13 7 14 6 15 5 16 4 17 3 18 2 19 1 20
REMARK H PARENT
REMARK Flexibility Score: inf
ROOT
ATOM      1  C   UNL     1      45.940   8.506  18.546  1.00  0.00     0.000 C 
ENDROOT
BRANCH   1   2
ATOM      2  C   UNL     1      45.978   8.345  20.082  1.00  0.00     0.000 C 
BRANCH   2   3
ATOM      3  C   UNL     1      46.755   7.091  20.518  1.00  0.00     0.000 C 
BRANCH   3   4
ATOM      4  C   UNL     1      47.589   7.321  21.789  1.00  0.00     0.000 C 
BRANCH   4   5
ATOM      5  C   UNL     1      46.760   7.906  22.942  1.00  0.00     0.000 C 
BRANCH   5   6
ATOM      6  C   UNL     1      47.187   9.347  23.250  1.00  0.00     0.000 C 
BRANCH   6   7
ATOM      7  C   UNL     1      46.063  10.114  23.963  1.00  0.00     0.006 C 
BRANCH   7   8
ATOM      8  C   UNL     1      44.744   9.332  23.976  1.00  0.00     0.053 C 
BRANCH   8   9
ATOM      9  C   UNL     1      44.168   9.232  25.356  1.00  0.00     0.041 C 
ATOM     10  O   UNL     1      44.879   8.819  26.310  1.00  0.00    -0.550 OA
ATOM     11  O   UNL     1      42.840   9.570  25.583  1.00  0.00    -0.550 OA
ENDBRANCH   8   9
ENDBRANCH   7   8
ENDBRANCH   6   7
ENDBRANCH   5   6
ENDBRANCH   4   5
ENDBRANCH   3   4
ENDBRANCH   2   3
ENDBRANCH   1   2
BRANCH   1  12
ATOM     12  C   UNL     1      44.586   8.131  17.913  1.00  0.00     0.000 C 
BRANCH  12  13
ATOM     13  C   UNL     1      44.312   8.759  16.536  1.00  0.00    -0.000 C 
BRANCH  13  14
ATOM     14  C   UNL     1      45.602   9.102  15.770  1.00  0.00    -0.000 C 
BRANCH  14  15
ATOM     15  C   UNL     1      45.663   8.430  14.390  1.00  0.00    -0.000 C 
BRANCH  15  16
ATOM     16  C   UNL     1      44.628   7.307  14.228  1.00  0.00    -0.000 C 
BRANCH  16  17
ATOM     17  C   UNL     1      45.214   5.955  14.647  1.00  0.00    -0.000 C 
BRANCH  17  18
ATOM     18  C   UNL     1      46.664   5.808  14.161  1.00  0.00    -0.000 C 
BRANCH  18  19
ATOM     19  C   UNL     1      47.585   5.194  15.227  1.00  0.00    -0.003 C 
ATOM     20  C   UNL     1      47.355   5.786  16.617  1.00  0.00     0.004 C 
ENDBRANCH  18  19
ENDBRANCH  17  18
ENDBRANCH  16  17
ENDBRANCH  15  16
ENDBRANCH  14  15
ENDBRANCH  13  14
ENDBRANCH  12  13
ENDBRANCH   1  12
TORSDOF 16
ENDMDL
MODEL 3
REMARK VINA RESULT:    -4.001      1.634      3.275
REMARK INTER + INTRA:         -10.405
REMARK INTER:                  -8.219
REMARK INTRA:                  -2.186
REMARK UNBOUND:                -2.662
REMARK SMILES CCCCCCCCCCCCCCCCCC(=O)[O-]
REMARK SMILES IDX 10 1 11 2 12 3 13 4 14 5 15 6 16 7 17 8 18 9 19 10 20 11
REMARK SMILES IDX 9 12 8 13 7 14 6 15 5 16 4 17 3 18 2 19 1 20
REMARK H PARENT
REMARK Flexibility Score: inf
ROOT
ATOM      1  C   UNL     1      46.786   6.258  17.497  1.00  0.00     0.000 C 
ENDROOT
BRANCH   1   2
ATOM      2  C   UNL     1      46.652   7.580  18.284  1.00  0.00     0.000 C 
BRANCH   2   3
ATOM      3  C   UNL     1      46.470   7.343  19.794  1.00  0.00     0.000 C 
BRANCH   3   4
ATOM      4  C   UNL     1      46.040   8.614  20.546  1.00  0.00     0.000 C 
BRANCH   4   5
ATOM      5  C   UNL     1      44.542   8.622  20.884  1.00  0.00     0.000 C 
BRANCH   5   6
ATOM      6  C   UNL     1      44.290   9.292  22.241  1.00  0.00     0.000 C 
BRANCH   6   7
ATOM      7  C   UNL     1      45.560   9.286  23.104  1.00  0.00     0.006 C 
BRANCH   7   8
ATOM      8  C   UNL     1      45.388   8.459  24.384  1.00  0.00     0.053 C 
BRANCH   8   9
ATOM      9  C   UNL     1      44.989   9.313  25.549  1.00  0.00     0.041 C 
ATOM     10  O   UNL     1      44.679   8.780  26.647  1.00  0.00    -0.550 OA
ATOM     11  O   UNL     1      44.936  10.694  25.415  1.00  0.00    -0.550 OA
ENDBRANCH   8   9
ENDBRANCH   7   8
ENDBRANCH   6   7
ENDBRANCH   5   6
ENDBRANCH   4   5
ENDBRANCH   3   4
ENDBRANCH   2   3
ENDBRANCH   1   2
BRANCH   1  12
ATOM     12  C   UNL     1      46.395   6.374  16.011  1.00  0.00     0.000 C 
BRANCH  12  13
ATOM     13  C   UNL     1      44.909   6.669  15.747  1.00  0.00    -0.000 C 
BRANCH  13  14
ATOM     14  C   UNL     1      44.692   7.623  14.559  1.00  0.00    -0.000 C 
BRANCH  14  15
ATOM     15  C   UNL     1      45.992   8.306  14.107  1.00  0.00    -0.000 C 
BRANCH  15  16
ATOM     16  C   UNL     1      46.025   9.804  14.442  1.00  0.00    -0.000 C 
BRANCH  16  17
ATOM     17  C   UNL     1      46.936  10.078  15.644  1.00  0.00    -0.000 C 
BRANCH  17  18
ATOM     18  C   UNL     1      46.158  10.761  16.780  1.00  0.00    -0.000 C 
BRANCH  18  19
ATOM     19  C   UNL     1      44.646  10.809  16.514  1.00  0.00    -0.003 C 
ATOM     20  C   UNL     1      43.855   9.882  17.438  1.00  0.00     0.004 C 
ENDBRANCH  18  19
ENDBRANCH  17  18
ENDBRANCH  16  17
ENDBRANCH  15  16
ENDBRANCH  14  15
ENDBRANCH  13  14
ENDBRANCH  12  13
ENDBRANCH   1  12
TORSDOF 16
ENDMDL
MODEL 4
REMARK VINA RESULT:    -3.945      3.845      7.459
REMARK INTER + INTRA:         -10.298
REMARK INTER:                  -7.829
REMARK INTRA:                  -2.469
REMARK UNBOUND:                -2.662
REMARK SMILES CCCCCCCCCCCCCCCCCC(=O)[O-]
REMARK SMILES IDX 10 1 11 2 12 3 13 4 14 5 15 6 16 7 17 8 18 9 19 10 20 11
REMARK SMILES IDX 9 12 8 13 7 14 6 15 5 16 4 17 3 18 2 19 1 20
REMARK H PARENT
REMARK Flexibility Score: inf
ROOT
ATOM      1  C   UNL     1      44.734   8.493  20.991  1.00  0.00     0.000 C 
ENDROOT
BRANCH   1   2
ATOM      2  C   UNL     1      44.255   9.846  20.422  1.00  0.00     0.000 C 
BRANCH   2   3
ATOM      3  C   UNL     1      45.379  10.605  19.696  1.00  0.00     0.000 C 
BRANCH   3   4
ATOM      4  C   UNL     1      45.087  10.814  18.202  1.00  0.00     0.000 C 
BRANCH   4   5
ATOM      5  C   UNL     1      45.832   9.811  17.308  1.00  0.00     0.000 C 
BRANCH   5   6
ATOM      6  C   UNL     1      44.846   8.947  16.511  1.00  0.00     0.000 C 
BRANCH   6   7
ATOM      7  C   UNL     1      44.947   7.471  16.924  1.00  0.00     0.006 C 
BRANCH   7   8
ATOM      8  C   UNL     1      46.402   6.996  17.027  1.00  0.00     0.053 C 
BRANCH   8   9
ATOM      9  C   UNL     1      46.768   6.076  15.903  1.00  0.00     0.041 C 
ATOM     10  O   UNL     1      46.134   6.120  14.816  1.00  0.00    -0.550 OA
ATOM     11  O   UNL     1      47.794   5.153  16.064  1.00  0.00    -0.550 OA
ENDBRANCH   8   9
ENDBRANCH   7   8
ENDBRANCH   6   7
ENDBRANCH   5   6
ENDBRANCH   4   5
ENDBRANCH   3   4
ENDBRANCH   2   3
ENDBRANCH   1   2
BRANCH   1  12
ATOM     12  C   UNL     1      46.098   8.032  20.439  1.00  0.00     0.000 C 
BRANCH  12  13
ATOM     13  C   UNL     1      47.094   7.528  21.497  1.00  0.00    -0.000 C 
BRANCH  13  14
ATOM     14  C   UNL     1      46.804   8.084  22.902  1.00  0.00    -0.000 C 
BRANCH  14  15
ATOM     15  C   UNL     1      47.610   9.356  23.210  1.00  0.00    -0.000 C 
BRANCH  15  16
ATOM     16  C   UNL     1      46.752  10.629  23.168  1.00  0.00    -0.000 C 
BRANCH  16  17
ATOM     17  C   UNL     1      45.926  10.777  24.450  1.00  0.00    -0.000 C 
BRANCH  17  18
ATOM     18  C   UNL     1      44.428  10.581  24.167  1.00  0.00    -0.000 C 
BRANCH  18  19
ATOM     19  C   UNL     1      43.778   9.559  25.112  1.00  0.00    -0.003 C 
ATOM     20  C   UNL     1      44.788   8.895  26.048  1.00  0.00     0.004 C 
ENDBRANCH  18  19
ENDBRANCH  17  18
ENDBRANCH  16  17
ENDBRANCH  15  16
ENDBRANCH  14  15
ENDBRANCH  13  14
ENDBRANCH  12  13
ENDBRANCH   1  12
TORSDOF 16
ENDMDL
MODEL 5
REMARK VINA RESULT:    -3.930      3.811      7.338
REMARK INTER + INTRA:         -10.269
REMARK INTER:                  -8.255
REMARK INTRA:                  -2.014
REMARK UNBOUND:                -2.662
REMARK SMILES CCCCCCCCCCCCCCCCCC(=O)[O-]
REMARK SMILES IDX 10 1 11 2 12 3 13 4 14 5 15 6 16 7 17 8 18 9 19 10 20 11
REMARK SMILES IDX 9 12 8 13 7 14 6 15 5 16 4 17 3 18 2 19 1 20
REMARK H PARENT
REMARK Flexibility Score: inf
ROOT
ATOM      1  C   UNL     1      46.403   7.004  18.319  1.00  0.00     0.000 C 
ENDROOT
BRANCH   1   2
ATOM      2  C   UNL     1      47.277   6.991  17.045  1.00  0.00     0.000 C 
BRANCH   2   3
ATOM      3  C   UNL     1      47.241   5.629  16.329  1.00  0.00     0.000 C 
BRANCH   3   4
ATOM      4  C   UNL     1      47.124   5.765  14.802  1.00  0.00     0.000 C 
BRANCH   4   5
ATOM      5  C   UNL     1      45.849   5.113  14.247  1.00  0.00     0.000 C 
BRANCH   5   6
ATOM      6  C   UNL     1      44.595   5.827  14.766  1.00  0.00     0.000 C 
BRANCH   6   7
ATOM      7  C   UNL     1      44.537   7.276  14.259  1.00  0.00     0.006 C 
BRANCH   7   8
ATOM      8  C   UNL     1      44.382   8.286  15.403  1.00  0.00     0.053 C 
BRANCH   8   9
ATOM      9  C   UNL     1      45.349   9.423  15.277  1.00  0.00     0.041 C 
ATOM     10  O   UNL     1      45.237  10.435  16.019  1.00  0.00    -0.550 OA
ATOM     11  O   UNL     1      46.360   9.377  14.325  1.00  0.00    -0.550 OA
ENDBRANCH   8   9
ENDBRANCH   7   8
ENDBRANCH   6   7
ENDBRANCH   5   6
ENDBRANCH   4   5
ENDBRANCH   3   4
ENDBRANCH   2   3
ENDBRANCH   1   2
BRANCH   1  12
ATOM     12  C   UNL     1      45.979   8.416  18.770  1.00  0.00     0.000 C 
BRANCH  12  13
ATOM     13  C   UNL     1      44.584   8.505  19.411  1.00  0.00    -0.000 C 
BRANCH  13  14
ATOM     14  C   UNL     1      44.288   9.893  20.006  1.00  0.00    -0.000 C 
BRANCH  14  15
ATOM     15  C   UNL     1      44.313   9.893  21.542  1.00  0.00    -0.000 C 
BRANCH  15  16
ATOM     16  C   UNL     1      44.485   8.486  22.135  1.00  0.00    -0.000 C 
BRANCH  16  17
ATOM     17  C   UNL     1      45.273   8.537  23.448  1.00  0.00    -0.000 C 
BRANCH  17  18
ATOM     18  C   UNL     1      46.775   8.724  23.184  1.00  0.00    -0.000 C 
BRANCH  18  19
ATOM     19  C   UNL     1      47.275   7.879  22.001  1.00  0.00    -0.003 C 
ATOM     20  C   UNL     1      48.016   6.618  22.448  1.00  0.00     0.004 C 
ENDBRANCH  18  19
ENDBRANCH  17  18
ENDBRANCH  16  17
ENDBRANCH  15  16
ENDBRANCH  14  15
ENDBRANCH  13  14
ENDBRANCH  12  13
ENDBRANCH   1  12
TORSDOF 16
ENDMDL
MODEL 6
REMARK VINA RESULT:    -3.904      3.512      7.229
REMARK INTER + INTRA:         -10.218
REMARK INTER:                  -7.960
REMARK INTRA:                  -2.258
REMARK UNBOUND:                -2.662
REMARK SMILES CCCCCCCCCCCCCCCCCC(=O)[O-]
REMARK SMILES IDX 10 1 11 2 12 3 13 4 14 5 15 6 16 7 17 8 18 9 19 10 20 11
REMARK SMILES IDX 9 12 8 13 7 14 6 15 5 16 4 17 3 18 2 19 1 20
REMARK H PARENT
REMARK Flexibility Score: inf
ROOT
ATOM      1  C   UNL     1      46.755   6.949  20.700  1.00  0.00     0.000 C 
ENDROOT
BRANCH   1   2
ATOM      2  C   UNL     1      46.323   8.076  19.738  1.00  0.00     0.000 C 
BRANCH   2   3
ATOM      3  C   UNL     1      44.825   8.407  19.863  1.00  0.00     0.000 C 
BRANCH   3   4
ATOM      4  C   UNL     1      44.421   9.647  19.049  1.00  0.00     0.000 C 
BRANCH   4   5
ATOM      5  C   UNL     1      44.017   9.302  17.608  1.00  0.00     0.000 C 
BRANCH   5   6
ATOM      6  C   UNL     1      44.911  10.031  16.597  1.00  0.00     0.000 C 
BRANCH   6   7
ATOM      7  C   UNL     1      45.511   9.047  15.582  1.00  0.00     0.006 C 
BRANCH   7   8
ATOM      8  C   UNL     1      46.728   8.303  16.145  1.00  0.00     0.053 C 
BRANCH   8   9
ATOM      9  C   UNL     1      46.486   6.827  16.236  1.00  0.00     0.041 C 
ATOM     10  O   UNL     1      47.247   6.102  16.929  1.00  0.00    -0.550 OA
ATOM     11  O   UNL     1      45.435   6.249  15.536  1.00  0.00    -0.550 OA
ENDBRANCH   8   9
ENDBRANCH   7   8
ENDBRANCH   6   7
ENDBRANCH   5   6
ENDBRANCH   4   5
ENDBRANCH   3   4
ENDBRANCH   2   3
ENDBRANCH   1   2
BRANCH   1  12
ATOM     12  C   UNL     1      47.610   7.434  21.887  1.00  0.00     0.000 C 
BRANCH  12  13
ATOM     13  C   UNL     1      46.836   8.177  22.989  1.00  0.00    -0.000 C 
BRANCH  13  14
ATOM     14  C   UNL     1      47.311   9.629  23.175  1.00  0.00    -0.000 C 
BRANCH  14  15
ATOM     15  C   UNL     1      46.409  10.641  22.452  1.00  0.00    -0.000 C 
BRANCH  15  16
ATOM     16  C   UNL     1      45.236  11.121  23.320  1.00  0.00    -0.000 C 
BRANCH  16  17
ATOM     17  C   UNL     1      43.928  10.443  22.899  1.00  0.00    -0.000 C 
BRANCH  17  18
ATOM     18  C   UNL     1      43.483   9.406  23.943  1.00  0.00    -0.000 C 
BRANCH  18  19
ATOM     19  C   UNL     1      43.695   9.893  25.385  1.00  0.00    -0.003 C 
ATOM     20  C   UNL     1      44.580   8.950  26.201  1.00  0.00     0.004 C 
ENDBRANCH  18  19
ENDBRANCH  17  18
ENDBRANCH  16  17
ENDBRANCH  15  16
ENDBRANCH  14  15
ENDBRANCH  13  14
ENDBRANCH  12  13
ENDBRANCH   1  12
TORSDOF 16
ENDMDL
MODEL 7
REMARK VINA RESULT:    -3.879      4.364      8.154
REMARK INTER + INTRA:         -10.169
REMARK INTER:                  -9.056
REMARK INTRA:                  -1.112
REMARK UNBOUND:                -2.662
REMARK SMILES CCCCCCCCCCCCCCCCCC(=O)[O-]
REMARK SMILES IDX 10 1 11 2 12 3 13 4 14 5 15 6 16 7 17 8 18 9 19 10 20 11
REMARK SMILES IDX 9 12 8 13 7 14 6 15 5 16 4 17 3 18 2 19 1 20
REMARK H PARENT
REMARK Flexibility Score: inf
ROOT
ATOM      1  C   UNL     1      46.757   6.604  19.861  1.00  0.00     0.000 C 
ENDROOT
BRANCH   1   2
ATOM      2  C   UNL     1      46.647   7.152  18.421  1.00  0.00     0.000 C 
BRANCH   2   3
ATOM      3  C   UNL     1      45.887   8.488  18.361  1.00  0.00     0.000 C 
BRANCH   3   4
ATOM      4  C   UNL     1      44.447   8.329  17.847  1.00  0.00     0.000 C 
BRANCH   4   5
ATOM      5  C   UNL     1      44.384   8.083  16.333  1.00  0.00     0.000 C 
BRANCH   5   6
ATOM      6  C   UNL     1      43.947   6.644  16.027  1.00  0.00     0.000 C 
BRANCH   6   7
ATOM      7  C   UNL     1      43.997   6.362  14.518  1.00  0.00     0.006 C 
BRANCH   7   8
ATOM      8  C   UNL     1      44.934   5.197  14.176  1.00  0.00     0.053 C 
BRANCH   8   9
ATOM      9  C   UNL     1      46.372   5.617  14.188  1.00  0.00     0.041 C 
ATOM     10  O   UNL     1      47.270   4.791  14.500  1.00  0.00    -0.550 OA
ATOM     11  O   UNL     1      46.719   6.925  13.878  1.00  0.00    -0.550 OA
ENDBRANCH   8   9
ENDBRANCH   7   8
ENDBRANCH   6   7
ENDBRANCH   5   6
ENDBRANCH   4   5
ENDBRANCH   3   4
ENDBRANCH   2   3
ENDBRANCH   1   2
BRANCH   1  12
ATOM     12  C   UNL     1      46.761   7.699  20.946  1.00  0.00     0.000 C 
BRANCH  12  13
ATOM     13  C   UNL     1      47.687   7.429  22.143  1.00  0.00    -0.000 C 
BRANCH  13  14
ATOM     14  C   UNL     1      47.911   8.675  23.018  1.00  0.00    -0.000 C 
BRANCH  14  15
ATOM     15  C   UNL     1      46.865   9.771  22.759  1.00  0.00    -0.000 C 
BRANCH  15  16
ATOM     16  C   UNL     1      46.010  10.082  23.997  1.00  0.00    -0.000 C 
BRANCH  16  17
ATOM     17  C   UNL     1      45.079   8.911  24.329  1.00  0.00    -0.000 C 
BRANCH  17  18
ATOM     18  C   UNL     1      43.643   9.199  23.863  1.00  0.00    -0.000 C 
BRANCH  18  19
ATOM     19  C   UNL     1      42.909  10.181  24.789  1.00  0.00    -0.003 C 
ATOM     20  C   UNL     1      41.501   9.708  25.152  1.00  0.00     0.004 C 
ENDBRANCH  18  19
ENDBRANCH  17  18
ENDBRANCH  16  17
ENDBRANCH  15  16
ENDBRANCH  14  15
ENDBRANCH  13  14
ENDBRANCH  12  13
ENDBRANCH   1  12
TORSDOF 16
ENDMDL
MODEL 8
REMARK VINA RESULT:    -3.867      3.796      7.312
REMARK INTER + INTRA:         -10.147
REMARK INTER:                  -8.265
REMARK INTRA:                  -1.882
REMARK UNBOUND:                -2.662
REMARK SMILES CCCCCCCCCCCCCCCCCC(=O)[O-]
REMARK SMILES IDX 10 1 11 2 12 3 13 4 14 5 15 6 16 7 17 8 18 9 19 10 20 11
REMARK SMILES IDX 9 12 8 13 7 14 6 15 5 16 4 17 3 18 2 19 1 20
REMARK H PARENT
REMARK Flexibility Score: inf
ROOT
ATOM      1  C   UNL     1      44.536   8.935  18.669  1.00  0.00     0.000 C 
ENDROOT
BRANCH   1   2
ATOM      2  C   UNL     1      45.978   9.414  18.396  1.00  0.00     0.000 C 
BRANCH   2   3
ATOM      3  C   UNL     1      46.035  10.506  17.313  1.00  0.00     0.000 C 
BRANCH   3   4
ATOM      4  C   UNL     1      45.236  10.134  16.053  1.00  0.00     0.000 C 
BRANCH   4   5
ATOM      5  C   UNL     1      46.127   9.983  14.811  1.00  0.00     0.000 C 
BRANCH   5   6
ATOM      6  C   UNL     1      46.047   8.558  14.248  1.00  0.00     0.000 C 
BRANCH   6   7
ATOM      7  C   UNL     1      45.067   7.698  15.060  1.00  0.00     0.006 C 
BRANCH   7   8
ATOM      8  C   UNL     1      45.488   6.224  15.105  1.00  0.00     0.053 C 
BRANCH   8   9
ATOM      9  C   UNL     1      46.857   6.053  15.690  1.00  0.00     0.041 C 
ATOM     10  O   UNL     1      47.121   6.516  16.831  1.00  0.00    -0.550 OA
ATOM     11  O   UNL     1      47.849   5.405  14.965  1.00  0.00    -0.550 OA
ENDBRANCH   8   9
ENDBRANCH   7   8
ENDBRANCH   6   7
ENDBRANCH   5   6
ENDBRANCH   4   5
ENDBRANCH   3   4
ENDBRANCH   2   3
ENDBRANCH   1   2
BRANCH   1  12
ATOM     12  C   UNL     1      44.133   8.985  20.156  1.00  0.00     0.000 C 
BRANCH  12  13
ATOM     13  C   UNL     1      44.240  10.370  20.816  1.00  0.00    -0.000 C 
BRANCH  13  14
ATOM     14  C   UNL     1      44.598  10.292  22.311  1.00  0.00    -0.000 C 
BRANCH  14  15
ATOM     15  C   UNL     1      44.611   8.849  22.838  1.00  0.00    -0.000 C 
BRANCH  15  16
ATOM     16  C   UNL     1      45.901   8.505  23.599  1.00  0.00    -0.000 C 
BRANCH  16  17
ATOM     17  C   UNL     1      47.124   9.127  22.915  1.00  0.00    -0.000 C 
BRANCH  17  18
ATOM     18  C   UNL     1      48.271   8.111  22.808  1.00  0.00    -0.000 C 
BRANCH  18  19
ATOM     19  C   UNL     1      47.821   6.775  22.197  1.00  0.00    -0.003 C 
ATOM     20  C   UNL     1      47.120   6.948  20.850  1.00  0.00     0.004 C 
ENDBRANCH  18  19
ENDBRANCH  17  18
ENDBRANCH  16  17
ENDBRANCH  15  16
ENDBRANCH  14  15
ENDBRANCH  13  14
ENDBRANCH  12  13
ENDBRANCH   1  12
TORSDOF 16
ENDMDL
MODEL 9
REMARK VINA RESULT:    -3.863      2.570      4.348
REMARK INTER + INTRA:         -10.139
REMARK INTER:                  -7.877
REMARK INTRA:                  -2.262
REMARK UNBOUND:                -2.662
REMARK SMILES CCCCCCCCCCCCCCCCCC(=O)[O-]
REMARK SMILES IDX 10 1 11 2 12 3 13 4 14 5 15 6 16 7 17 8 18 9 19 10 20 11
REMARK SMILES IDX 9 12 8 13 7 14 6 15 5 16 4 17 3 18 2 19 1 20
REMARK H PARENT
REMARK Flexibility Score: inf
ROOT
ATOM      1  C   UNL     1      45.621  10.319  18.260  1.00  0.00     0.000 C 
ENDROOT
BRANCH   1   2
ATOM      2  C   UNL     1      44.083  10.351  18.125  1.00  0.00     0.000 C 
BRANCH   2   3
ATOM      3  C   UNL     1      43.386  10.635  19.467  1.00  0.00     0.000 C 
BRANCH   3   4
ATOM      4  C   UNL     1      44.380  10.841  20.620  1.00  0.00     0.000 C 
BRANCH   4   5
ATOM      5  C   UNL     1      43.900  10.209  21.935  1.00  0.00     0.000 C 
BRANCH   5   6
ATOM      6  C   UNL     1      44.733   8.970  22.287  1.00  0.00     0.000 C 
BRANCH   6   7
ATOM      7  C   UNL     1      46.149   9.075  21.701  1.00  0.00     0.006 C 
BRANCH   7   8
ATOM      8  C   UNL     1      46.777   7.698  21.450  1.00  0.00     0.053 C 
BRANCH   8   9
ATOM      9  C   UNL     1      47.913   7.423  22.388  1.00  0.00     0.041 C 
ATOM     10  O   UNL     1      48.256   6.238  22.636  1.00  0.00    -0.550 OA
ATOM     11  O   UNL     1      48.575   8.475  23.007  1.00  0.00    -0.550 OA
ENDBRANCH   8   9
ENDBRANCH   7   8
ENDBRANCH   6   7
ENDBRANCH   5   6
ENDBRANCH   4   5
ENDBRANCH   3   4
ENDBRANCH   2   3
ENDBRANCH   1   2
BRANCH   1  12
ATOM     12  C   UNL     1      46.368  10.455  16.919  1.00  0.00     0.000 C 
BRANCH  12  13
ATOM     13  C   UNL     1      45.481  10.375  15.665  1.00  0.00    -0.000 C 
BRANCH  13  14
ATOM     14  C   UNL     1      46.195   9.719  14.470  1.00  0.00    -0.000 C 
BRANCH  14  15
ATOM     15  C   UNL     1      45.623   8.334  14.129  1.00  0.00    -0.000 C 
BRANCH  15  16
ATOM     16  C   UNL     1      44.459   7.930  15.047  1.00  0.00    -0.000 C 
BRANCH  16  17
ATOM     17  C   UNL     1      44.799   6.663  15.839  1.00  0.00    -0.000 C 
BRANCH  17  18
ATOM     18  C   UNL     1      46.204   6.151  15.485  1.00  0.00    -0.000 C 
BRANCH  18  19
ATOM     19  C   UNL     1      47.172   6.212  16.676  1.00  0.00    -0.003 C 
ATOM     20  C   UNL     1      46.528   6.803  17.931  1.00  0.00     0.004 C 
ENDBRANCH  18  19
ENDBRANCH  17  18
ENDBRANCH  16  17
ENDBRANCH  15  16
ENDBRANCH  14  15
ENDBRANCH  13  14
ENDBRANCH  12  13
ENDBRANCH   1  12
TORSDOF 16
ENDMDL
