MODEL 1
REMARK VINA RESULT:    -3.664      0.000      0.000
REMARK INTER + INTRA:          -4.737
REMARK INTER:                  -4.414
REMARK INTRA:                  -0.323
REMARK UNBOUND:                -0.323
REMARK SMILES O=c1c(O)c(-c2ccc(O)c(O)c2)oc2cc(O)cc(O)c12
REMARK SMILES IDX 5 1 3 2 2 3 1 4 22 5 20 6 19 7 17 8 16 9 15 10 14 11 6 12
REMARK SMILES IDX 7 13 8 14 9 15 13 16 11 17 10 18 12 20 4 22 21 24 18 26
REMARK H PARENT 10 19 12 21 4 23 21 25 18 27
REMARK Flexibility Score: inf
ROOT
ATOM      1  C   UNL     1     134.400 131.012  98.530  1.00  0.00     0.180 A 
ATOM      2  C   UNL     1     133.501 130.015  98.948  1.00  0.00     0.208 A 
ATOM      3  C   UNL     1     133.243 128.931  98.094  1.00  0.00     0.238 A 
ATOM      4  O   UNL     1     132.480 128.014  98.496  1.00  0.00    -0.285 OA
ATOM      5  C   UNL     1     133.873 128.865  96.828  1.00  0.00     0.111 A 
ATOM      6  C   UNL     1     133.653 127.833  95.866  1.00  0.00     0.134 A 
ATOM      7  C   UNL     1     134.429 127.800  94.701  1.00  0.00     0.093 A 
ATOM      8  C   UNL     1     135.369 128.798  94.432  1.00  0.00     0.123 A 
ATOM      9  C   UNL     1     135.548 129.841  95.336  1.00  0.00     0.094 A 
ATOM     10  C   UNL     1     134.815 129.882  96.525  1.00  0.00     0.146 A 
ATOM     11  O   UNL     1     135.025 130.889  97.365  1.00  0.00    -0.452 OA
ENDROOT
BRANCH   1  12
ATOM     12  C   UNL     1     134.703 132.198  99.363  1.00  0.00     0.025 A 
ATOM     13  C   UNL     1     135.749 132.135 100.298  1.00  0.00     0.016 A 
ATOM     14  C   UNL     1     136.067 133.249 101.081  1.00  0.00     0.051 A 
ATOM     15  C   UNL     1     135.353 134.444 100.929  1.00  0.00     0.157 A 
ATOM     16  C   UNL     1     134.003 133.407  99.201  1.00  0.00     0.062 A 
ATOM     17  C   UNL     1     134.323 134.525  99.985  1.00  0.00     0.158 A 
BRANCH  15  18
ATOM     18  O   UNL     1     135.665 135.557 101.709  1.00  0.00    -0.504 OA
ATOM     19  H   UNL     1     135.363 135.628 102.674  1.00  0.00     0.293 HD
ENDBRANCH  15  18
BRANCH  17  20
ATOM     20  O   UNL     1     133.623 135.721  99.826  1.00  0.00    -0.504 OA
ATOM     21  H   UNL     1     133.679 136.463 100.514  1.00  0.00     0.293 HD
ENDBRANCH  17  20
ENDBRANCH   1  12
BRANCH   2  22
ATOM     22  O   UNL     1     132.908 130.088 100.211  1.00  0.00    -0.502 OA
ATOM     23  H   UNL     1     132.385 130.898 100.521  1.00  0.00     0.293 HD
ENDBRANCH   2  22
BRANCH   6  24
ATOM     24  O   UNL     1     132.676 126.842  95.995  1.00  0.00    -0.507 OA
ATOM     25  H   UNL     1     132.400 126.209  95.260  1.00  0.00     0.293 HD
ENDBRANCH   6  24
BRANCH   8  26
ATOM     26  O   UNL     1     136.125 128.765  93.262  1.00  0.00    -0.508 OA
ATOM     27  H   UNL     1     135.825 128.236  92.452  1.00  0.00     0.293 HD
ENDBRANCH   8  26
TORSDOF 6
ENDMDL
MODEL 2
REMARK VINA RESULT:    -3.394      1.831      6.817
REMARK INTER + INTRA:          -4.412
REMARK INTER:                  -4.097
REMARK INTRA:                  -0.315
REMARK UNBOUND:                -0.323
REMARK SMILES O=c1c(O)c(-c2ccc(O)c(O)c2)oc2cc(O)cc(O)c12
REMARK SMILES IDX 5 1 3 2 2 3 1 4 22 5 20 6 19 7 17 8 16 9 15 10 14 11 6 12
REMARK SMILES IDX 7 13 8 14 9 15 13 16 11 17 10 18 12 20 4 22 21 24 18 26
REMARK H PARENT 10 19 12 21 4 23 21 25 18 27
REMARK Flexibility Score: inf
ROOT
ATOM      1  C   UNL     1     133.896 130.212  96.916  1.00  0.00     0.180 A 
ATOM      2  C   UNL     1     132.547 130.600  96.851  1.00  0.00     0.208 A 
ATOM      3  C   UNL     1     132.106 131.666  97.652  1.00  0.00     0.238 A 
ATOM      4  O   UNL     1     130.910 132.044  97.549  1.00  0.00    -0.285 OA
ATOM      5  C   UNL     1     133.015 132.319  98.519  1.00  0.00     0.111 A 
ATOM      6  C   UNL     1     132.668 133.383  99.404  1.00  0.00     0.134 A 
ATOM      7  C   UNL     1     133.676 134.041 100.120  1.00  0.00     0.093 A 
ATOM      8  C   UNL     1     135.008 133.630 100.034  1.00  0.00     0.123 A 
ATOM      9  C   UNL     1     135.348 132.553  99.218  1.00  0.00     0.094 A 
ATOM     10  C   UNL     1     134.370 131.901  98.463  1.00  0.00     0.146 A 
ATOM     11  O   UNL     1     134.739 130.886  97.690  1.00  0.00    -0.452 OA
ENDROOT
BRANCH   1  12
ATOM     12  C   UNL     1     134.429 129.082  96.122  1.00  0.00     0.025 A 
ATOM     13  C   UNL     1     134.287 127.770  96.605  1.00  0.00     0.016 A 
ATOM     14  C   UNL     1     134.764 126.686  95.862  1.00  0.00     0.051 A 
ATOM     15  C   UNL     1     135.375 126.897  94.620  1.00  0.00     0.157 A 
ATOM     16  C   UNL     1     135.025 129.285  94.864  1.00  0.00     0.062 A 
ATOM     17  C   UNL     1     135.502 128.198  94.118  1.00  0.00     0.158 A 
BRANCH  15  18
ATOM     18  O   UNL     1     135.854 125.820  93.877  1.00  0.00    -0.504 OA
ATOM     19  H   UNL     1     135.489 125.609  92.955  1.00  0.00     0.293 HD
ENDBRANCH  15  18
BRANCH  17  20
ATOM     20  O   UNL     1     136.098 128.404  92.875  1.00  0.00    -0.504 OA
ATOM     21  H   UNL     1     136.702 129.199  92.701  1.00  0.00     0.293 HD
ENDBRANCH  17  20
ENDBRANCH   1  12
BRANCH   2  22
ATOM     22  O   UNL     1     131.672 129.957  95.972  1.00  0.00    -0.502 OA
ATOM     23  H   UNL     1     130.928 129.347  96.292  1.00  0.00     0.293 HD
ENDBRANCH   2  22
BRANCH   6  24
ATOM     24  O   UNL     1     131.358 133.811  99.634  1.00  0.00    -0.507 OA
ATOM     25  H   UNL     1     131.103 134.724  99.979  1.00  0.00     0.293 HD
ENDBRANCH   6  24
BRANCH   8  26
ATOM     26  O   UNL     1     136.001 134.280 100.763  1.00  0.00    -0.508 OA
ATOM     27  H   UNL     1     135.803 134.720 101.653  1.00  0.00     0.293 HD
ENDBRANCH   8  26
TORSDOF 6
ENDMDL
MODEL 3
REMARK VINA RESULT:    -3.368      3.748      4.697
REMARK INTER + INTRA:          -4.381
REMARK INTER:                  -4.058
REMARK INTRA:                  -0.323
REMARK UNBOUND:                -0.323
REMARK SMILES O=c1c(O)c(-c2ccc(O)c(O)c2)oc2cc(O)cc(O)c12
REMARK SMILES IDX 5 1 3 2 2 3 1 4 22 5 20 6 19 7 17 8 16 9 15 10 14 11 6 12
REMARK SMILES IDX 7 13 8 14 9 15 13 16 11 17 10 18 12 20 4 22 21 24 18 26
REMARK H PARENT 10 19 12 21 4 23 21 25 18 27
REMARK Flexibility Score: inf
ROOT
ATOM      1  C   UNL     1     133.642 128.148  97.732  1.00  0.00     0.180 A 
ATOM      2  C   UNL     1     134.149 126.921  97.269  1.00  0.00     0.208 A 
ATOM      3  C   UNL     1     134.797 126.878  96.024  1.00  0.00     0.238 A 
ATOM      4  O   UNL     1     135.297 125.790  95.640  1.00  0.00    -0.285 OA
ATOM      5  C   UNL     1     134.914 128.059  95.250  1.00  0.00     0.111 A 
ATOM      6  C   UNL     1     135.514 128.122  93.956  1.00  0.00     0.134 A 
ATOM      7  C   UNL     1     135.692 129.367  93.339  1.00  0.00     0.093 A 
ATOM      8  C   UNL     1     135.232 130.541  93.940  1.00  0.00     0.123 A 
ATOM      9  C   UNL     1     134.591 130.482  95.175  1.00  0.00     0.094 A 
ATOM     10  C   UNL     1     134.432 129.260  95.832  1.00  0.00     0.146 A 
ATOM     11  O   UNL     1     133.826 129.249  97.014  1.00  0.00    -0.452 OA
ENDROOT
BRANCH   1  12
ATOM     12  C   UNL     1     132.926 128.267  99.022  1.00  0.00     0.025 A 
ATOM     13  C   UNL     1     131.540 128.043  99.065  1.00  0.00     0.016 A 
ATOM     14  C   UNL     1     130.846 128.130 100.276  1.00  0.00     0.051 A 
ATOM     15  C   UNL     1     131.531 128.426 101.461  1.00  0.00     0.157 A 
ATOM     16  C   UNL     1     133.611 128.543 100.219  1.00  0.00     0.062 A 
ATOM     17  C   UNL     1     132.916 128.628 101.434  1.00  0.00     0.158 A 
BRANCH  15  18
ATOM     18  O   UNL     1     130.843 128.515 102.670  1.00  0.00    -0.504 OA
ATOM     19  H   UNL     1     131.330 128.491 103.559  1.00  0.00     0.293 HD
ENDBRANCH  15  18
BRANCH  17  20
ATOM     20  O   UNL     1     133.596 128.909 102.618  1.00  0.00    -0.504 OA
ATOM     21  H   UNL     1     134.267 129.667 102.678  1.00  0.00     0.293 HD
ENDBRANCH  17  20
ENDBRANCH   1  12
BRANCH   2  22
ATOM     22  O   UNL     1     134.044 125.774  98.059  1.00  0.00    -0.502 OA
ATOM     23  H   UNL     1     134.300 124.854  97.721  1.00  0.00     0.293 HD
ENDBRANCH   2  22
BRANCH   6  24
ATOM     24  O   UNL     1     135.924 127.001  93.230  1.00  0.00    -0.507 OA
ATOM     25  H   UNL     1     135.355 126.186  93.062  1.00  0.00     0.293 HD
ENDBRANCH   6  24
BRANCH   8  26
ATOM     26  O   UNL     1     135.398 131.774  93.310  1.00  0.00    -0.508 OA
ATOM     27  H   UNL     1     135.229 131.890  92.318  1.00  0.00     0.293 HD
ENDBRANCH   8  26
TORSDOF 6
ENDMDL
MODEL 4
REMARK VINA RESULT:    -3.347      2.765      4.567
REMARK INTER + INTRA:          -4.355
REMARK INTER:                  -4.118
REMARK INTRA:                  -0.237
REMARK UNBOUND:                -0.323
REMARK SMILES O=c1c(O)c(-c2ccc(O)c(O)c2)oc2cc(O)cc(O)c12
REMARK SMILES IDX 5 1 3 2 2 3 1 4 22 5 20 6 19 7 17 8 16 9 15 10 14 11 6 12
REMARK SMILES IDX 7 13 8 14 9 15 13 16 11 17 10 18 12 20 4 22 21 24 18 26
REMARK H PARENT 10 19 12 21 4 23 21 25 18 27
REMARK Flexibility Score: inf
ROOT
ATOM      1  C   UNL     1     133.539 129.548  98.391  1.00  0.00     0.180 A 
ATOM      2  C   UNL     1     133.520 130.882  97.949  1.00  0.00     0.208 A 
ATOM      3  C   UNL     1     134.027 131.184  96.675  1.00  0.00     0.238 A 
ATOM      4  O   UNL     1     133.958 132.371  96.262  1.00  0.00    -0.285 OA
ATOM      5  C   UNL     1     134.561 130.151  95.866  1.00  0.00     0.111 A 
ATOM      6  C   UNL     1     135.137 130.350  94.575  1.00  0.00     0.134 A 
ATOM      7  C   UNL     1     135.515 129.239  93.810  1.00  0.00     0.093 A 
ATOM      8  C   UNL     1     135.398 127.942  94.316  1.00  0.00     0.123 A 
ATOM      9  C   UNL     1     134.891 127.743  95.598  1.00  0.00     0.094 A 
ATOM     10  C   UNL     1     134.472 128.828  96.371  1.00  0.00     0.146 A 
ATOM     11  O   UNL     1     133.985 128.593  97.584  1.00  0.00    -0.452 OA
ENDROOT
BRANCH   1  12
ATOM     12  C   UNL     1     133.046 129.156  99.731  1.00  0.00     0.025 A 
ATOM     13  C   UNL     1     131.664 129.125  99.976  1.00  0.00     0.016 A 
ATOM     14  C   UNL     1     131.175 128.738 101.228  1.00  0.00     0.051 A 
ATOM     15  C   UNL     1     132.061 128.363 102.245  1.00  0.00     0.157 A 
ATOM     16  C   UNL     1     133.930 128.758 100.750  1.00  0.00     0.062 A 
ATOM     17  C   UNL     1     133.440 128.368 102.005  1.00  0.00     0.158 A 
BRANCH  15  18
ATOM     18  O   UNL     1     131.579 127.978 103.495  1.00  0.00    -0.504 OA
ATOM     19  H   UNL     1     131.467 128.647 104.249  1.00  0.00     0.293 HD
ENDBRANCH  15  18
BRANCH  17  20
ATOM     20  O   UNL     1     134.319 127.980 103.015  1.00  0.00    -0.504 OA
ATOM     21  H   UNL     1     134.683 127.036 103.069  1.00  0.00     0.293 HD
ENDBRANCH  17  20
ENDBRANCH   1  12
BRANCH   2  22
ATOM     22  O   UNL     1     132.968 131.882  98.754  1.00  0.00    -0.502 OA
ATOM     23  H   UNL     1     132.279 132.540  98.409  1.00  0.00     0.293 HD
ENDBRANCH   2  22
BRANCH   6  24
ATOM     24  O   UNL     1     135.384 131.606  94.015  1.00  0.00    -0.507 OA
ATOM     25  H   UNL     1     135.016 132.475  94.370  1.00  0.00     0.293 HD
ENDBRANCH   6  24
BRANCH   8  26
ATOM     26  O   UNL     1     135.791 126.844  93.555  1.00  0.00    -0.508 OA
ATOM     27  H   UNL     1     135.845 126.891  92.544  1.00  0.00     0.293 HD
ENDBRANCH   8  26
TORSDOF 6
ENDMDL
MODEL 5
REMARK VINA RESULT:    -3.337      3.670      4.993
REMARK INTER + INTRA:          -4.343
REMARK INTER:                  -4.012
REMARK INTRA:                  -0.331
REMARK UNBOUND:                -0.323
REMARK SMILES O=c1c(O)c(-c2ccc(O)c(O)c2)oc2cc(O)cc(O)c12
REMARK SMILES IDX 5 1 3 2 2 3 1 4 22 5 20 6 19 7 17 8 16 9 15 10 14 11 6 12
REMARK SMILES IDX 7 13 8 14 9 15 13 16 11 17 10 18 12 20 4 22 21 24 18 26
REMARK H PARENT 10 19 12 21 4 23 21 25 18 27
REMARK Flexibility Score: inf
ROOT
ATOM      1  C   UNL     1     133.635 127.744  97.899  1.00  0.00     0.180 A 
ATOM      2  C   UNL     1     133.648 128.778  96.947  1.00  0.00     0.208 A 
ATOM      3  C   UNL     1     134.223 128.538  95.688  1.00  0.00     0.238 A 
ATOM      4  O   UNL     1     134.182 129.449  94.822  1.00  0.00    -0.285 OA
ATOM      5  C   UNL     1     134.792 127.272  95.404  1.00  0.00     0.111 A 
ATOM      6  C   UNL     1     135.437 126.932  94.177  1.00  0.00     0.134 A 
ATOM      7  C   UNL     1     135.848 125.611  93.957  1.00  0.00     0.093 A 
ATOM      8  C   UNL     1     135.696 124.635  94.945  1.00  0.00     0.123 A 
ATOM      9  C   UNL     1     135.122 124.972  96.168  1.00  0.00     0.094 A 
ATOM     10  C   UNL     1     134.669 126.273  96.403  1.00  0.00     0.146 A 
ATOM     11  O   UNL     1     134.118 126.549  97.580  1.00  0.00    -0.452 OA
ENDROOT
BRANCH   1  12
ATOM     12  C   UNL     1     133.070 127.929  99.255  1.00  0.00     0.025 A 
ATOM     13  C   UNL     1     131.753 127.519  99.516  1.00  0.00     0.016 A 
ATOM     14  C   UNL     1     131.205 127.666 100.794  1.00  0.00     0.051 A 
ATOM     15  C   UNL     1     131.972 128.210 101.831  1.00  0.00     0.157 A 
ATOM     16  C   UNL     1     133.843 128.456 100.306  1.00  0.00     0.062 A 
ATOM     17  C   UNL     1     133.295 128.601 101.588  1.00  0.00     0.158 A 
BRANCH  15  18
ATOM     18  O   UNL     1     131.431 128.359 103.107  1.00  0.00    -0.504 OA
ATOM     19  H   UNL     1     130.761 127.695 103.479  1.00  0.00     0.293 HD
ENDBRANCH  15  18
BRANCH  17  20
ATOM     20  O   UNL     1     134.060 129.129 102.626  1.00  0.00    -0.504 OA
ATOM     21  H   UNL     1     134.023 130.113 102.867  1.00  0.00     0.293 HD
ENDBRANCH  17  20
ENDBRANCH   1  12
BRANCH   2  22
ATOM     22  O   UNL     1     133.060 130.011  97.240  1.00  0.00    -0.502 OA
ATOM     23  H   UNL     1     133.080 130.791  96.594  1.00  0.00     0.293 HD
ENDBRANCH   2  22
BRANCH   6  24
ATOM     24  O   UNL     1     135.720 127.851  93.163  1.00  0.00    -0.507 OA
ATOM     25  H   UNL     1     136.113 128.768  93.312  1.00  0.00     0.293 HD
ENDBRANCH   6  24
BRANCH   8  26
ATOM     26  O   UNL     1     136.123 123.328  94.723  1.00  0.00    -0.508 OA
ATOM     27  H   UNL     1     136.310 122.694  95.491  1.00  0.00     0.293 HD
ENDBRANCH   8  26
TORSDOF 6
ENDMDL
MODEL 6
REMARK VINA RESULT:    -3.263      1.949      6.950
REMARK INTER + INTRA:          -4.254
REMARK INTER:                  -4.023
REMARK INTRA:                  -0.231
REMARK UNBOUND:                -0.323
REMARK SMILES O=c1c(O)c(-c2ccc(O)c(O)c2)oc2cc(O)cc(O)c12
REMARK SMILES IDX 5 1 3 2 2 3 1 4 22 5 20 6 19 7 17 8 16 9 15 10 14 11 6 12
REMARK SMILES IDX 7 13 8 14 9 15 13 16 11 17 10 18 12 20 4 22 21 24 18 26
REMARK H PARENT 10 19 12 21 4 23 21 25 18 27
REMARK Flexibility Score: inf
ROOT
ATOM      1  C   UNL     1     134.141 129.109  96.619  1.00  0.00     0.180 A 
ATOM      2  C   UNL     1     132.864 129.076  97.207  1.00  0.00     0.208 A 
ATOM      3  C   UNL     1     132.474 130.132  98.048  1.00  0.00     0.238 A 
ATOM      4  O   UNL     1     131.311 130.125  98.527  1.00  0.00    -0.285 OA
ATOM      5  C   UNL     1     133.372 131.197  98.303  1.00  0.00     0.111 A 
ATOM      6  C   UNL     1     133.097 132.298  99.170  1.00  0.00     0.134 A 
ATOM      7  C   UNL     1     134.006 133.360  99.245  1.00  0.00     0.093 A 
ATOM      8  C   UNL     1     135.210 133.331  98.536  1.00  0.00     0.123 A 
ATOM      9  C   UNL     1     135.513 132.234  97.734  1.00  0.00     0.094 A 
ATOM     10  C   UNL     1     134.610 131.176  97.609  1.00  0.00     0.146 A 
ATOM     11  O   UNL     1     134.934 130.154  96.825  1.00  0.00    -0.452 OA
ENDROOT
BRANCH   1  12
ATOM     12  C   UNL     1     134.631 128.021  95.743  1.00  0.00     0.025 A 
ATOM     13  C   UNL     1     134.869 128.284  94.384  1.00  0.00     0.016 A 
ATOM     14  C   UNL     1     135.352 127.277  93.542  1.00  0.00     0.051 A 
ATOM     15  C   UNL     1     135.618 126.000  94.051  1.00  0.00     0.157 A 
ATOM     16  C   UNL     1     134.921 126.743  96.253  1.00  0.00     0.062 A 
ATOM     17  C   UNL     1     135.407 125.734  95.410  1.00  0.00     0.158 A 
BRANCH  15  18
ATOM     18  O   UNL     1     136.098 124.993  93.216  1.00  0.00    -0.504 OA
ATOM     19  H   UNL     1     135.966 125.030  92.211  1.00  0.00     0.293 HD
ENDBRANCH  15  18
BRANCH  17  20
ATOM     20  O   UNL     1     135.687 124.466  95.916  1.00  0.00    -0.504 OA
ATOM     21  H   UNL     1     135.008 123.952  96.466  1.00  0.00     0.293 HD
ENDBRANCH  17  20
ENDBRANCH   1  12
BRANCH   2  22
ATOM     22  O   UNL     1     131.986 128.028  96.924  1.00  0.00    -0.502 OA
ATOM     23  H   UNL     1     131.007 128.179  96.711  1.00  0.00     0.293 HD
ENDBRANCH   2  22
BRANCH   6  24
ATOM     24  O   UNL     1     131.970 132.381  99.991  1.00  0.00    -0.507 OA
ATOM     25  H   UNL     1     131.160 132.951  99.799  1.00  0.00     0.293 HD
ENDBRANCH   6  24
BRANCH   8  26
ATOM     26  O   UNL     1     136.116 134.385  98.630  1.00  0.00    -0.508 OA
ATOM     27  H   UNL     1     136.138 134.995  99.439  1.00  0.00     0.293 HD
ENDBRANCH   8  26
TORSDOF 6
ENDMDL
MODEL 7
REMARK VINA RESULT:    -3.190      1.835      3.624
REMARK INTER + INTRA:          -4.166
REMARK INTER:                  -3.874
REMARK INTRA:                  -0.292
REMARK UNBOUND:                -0.323
REMARK SMILES O=c1c(O)c(-c2ccc(O)c(O)c2)oc2cc(O)cc(O)c12
REMARK SMILES IDX 5 1 3 2 2 3 1 4 22 5 20 6 19 7 17 8 16 9 15 10 14 11 6 12
REMARK SMILES IDX 7 13 8 14 9 15 13 16 11 17 10 18 12 20 4 22 21 24 18 26
REMARK H PARENT 10 19 12 21 4 23 21 25 18 27
REMARK Flexibility Score: inf
ROOT
ATOM      1  C   UNL     1     134.453 130.323  96.696  1.00  0.00     0.180 A 
ATOM      2  C   UNL     1     134.942 130.657  95.421  1.00  0.00     0.208 A 
ATOM      3  C   UNL     1     135.259 129.625  94.523  1.00  0.00     0.238 A 
ATOM      4  O   UNL     1     135.643 129.929  93.364  1.00  0.00    -0.285 OA
ATOM      5  C   UNL     1     135.101 128.274  94.917  1.00  0.00     0.111 A 
ATOM      6  C   UNL     1     135.430 127.149  94.103  1.00  0.00     0.134 A 
ATOM      7  C   UNL     1     135.109 125.859  94.546  1.00  0.00     0.093 A 
ATOM      8  C   UNL     1     134.532 125.651  95.801  1.00  0.00     0.123 A 
ATOM      9  C   UNL     1     134.262 126.739  96.627  1.00  0.00     0.094 A 
ATOM     10  C   UNL     1     134.536 128.040  96.198  1.00  0.00     0.146 A 
ATOM     11  O   UNL     1     134.253 129.050  97.013  1.00  0.00    -0.452 OA
ENDROOT
BRANCH   1  12
ATOM     12  C   UNL     1     134.121 131.354  97.705  1.00  0.00     0.025 A 
ATOM     13  C   UNL     1     132.886 132.019  97.633  1.00  0.00     0.016 A 
ATOM     14  C   UNL     1     132.542 132.981  98.587  1.00  0.00     0.051 A 
ATOM     15  C   UNL     1     133.422 133.281  99.634  1.00  0.00     0.157 A 
ATOM     16  C   UNL     1     134.992 131.645  98.771  1.00  0.00     0.062 A 
ATOM     17  C   UNL     1     134.647 132.609  99.730  1.00  0.00     0.158 A 
BRANCH  15  18
ATOM     18  O   UNL     1     133.085 134.241 100.587  1.00  0.00    -0.504 OA
ATOM     19  H   UNL     1     132.606 133.990 101.445  1.00  0.00     0.293 HD
ENDBRANCH  15  18
BRANCH  17  20
ATOM     20  O   UNL     1     135.514 132.900 100.781  1.00  0.00    -0.504 OA
ATOM     21  H   UNL     1     136.209 133.634 100.709  1.00  0.00     0.293 HD
ENDBRANCH  17  20
ENDBRANCH   1  12
BRANCH   2  22
ATOM     22  O   UNL     1     135.069 131.996  95.044  1.00  0.00    -0.502 OA
ATOM     23  H   UNL     1     135.967 132.430  94.869  1.00  0.00     0.293 HD
ENDBRANCH   2  22
BRANCH   6  24
ATOM     24  O   UNL     1     136.090 127.240  92.875  1.00  0.00    -0.507 OA
ATOM     25  H   UNL     1     135.679 127.599  92.027  1.00  0.00     0.293 HD
ENDBRANCH   6  24
BRANCH   8  26
ATOM     26  O   UNL     1     134.232 124.364  96.240  1.00  0.00    -0.508 OA
ATOM     27  H   UNL     1     133.287 123.998  96.205  1.00  0.00     0.293 HD
ENDBRANCH   8  26
TORSDOF 6
ENDMDL
MODEL 8
REMARK VINA RESULT:    -3.171     14.318     15.939
REMARK INTER + INTRA:          -4.143
REMARK INTER:                  -3.831
REMARK INTRA:                  -0.312
REMARK UNBOUND:                -0.323
REMARK SMILES O=c1c(O)c(-c2ccc(O)c(O)c2)oc2cc(O)cc(O)c12
REMARK SMILES IDX 5 1 3 2 2 3 1 4 22 5 20 6 19 7 17 8 16 9 15 10 14 11 6 12
REMARK SMILES IDX 7 13 8 14 9 15 13 16 11 17 10 18 12 20 4 22 21 24 18 26
REMARK H PARENT 10 19 12 21 4 23 21 25 18 27
REMARK Flexibility Score: inf
ROOT
ATOM      1  C   UNL     1     125.267 125.709 109.638  1.00  0.00     0.180 A 
ATOM      2  C   UNL     1     124.188 125.959 110.505  1.00  0.00     0.208 A 
ATOM      3  C   UNL     1     122.886 125.989 109.981  1.00  0.00     0.238 A 
ATOM      4  O   UNL     1     121.921 126.157 110.770  1.00  0.00    -0.285 OA
ATOM      5  C   UNL     1     122.680 125.787 108.594  1.00  0.00     0.111 A 
ATOM      6  C   UNL     1     121.408 125.837 107.949  1.00  0.00     0.134 A 
ATOM      7  C   UNL     1     121.307 125.492 106.595  1.00  0.00     0.093 A 
ATOM      8  C   UNL     1     122.442 125.164 105.849  1.00  0.00     0.123 A 
ATOM      9  C   UNL     1     123.695 125.171 106.456  1.00  0.00     0.094 A 
ATOM     10  C   UNL     1     123.823 125.474 107.813  1.00  0.00     0.146 A 
ATOM     11  O   UNL     1     125.035 125.459 108.355  1.00  0.00    -0.452 OA
ENDROOT
BRANCH   1  12
ATOM     12  C   UNL     1     126.669 125.687 110.112  1.00  0.00     0.025 A 
ATOM     13  C   UNL     1     127.199 124.500 110.643  1.00  0.00     0.016 A 
ATOM     14  C   UNL     1     128.527 124.450 111.078  1.00  0.00     0.051 A 
ATOM     15  C   UNL     1     129.346 125.581 110.974  1.00  0.00     0.157 A 
ATOM     16  C   UNL     1     127.502 126.814 109.991  1.00  0.00     0.062 A 
ATOM     17  C   UNL     1     128.835 126.764 110.426  1.00  0.00     0.158 A 
BRANCH  15  18
ATOM     18  O   UNL     1     130.670 125.537 111.408  1.00  0.00    -0.504 OA
ATOM     19  H   UNL     1     131.016 126.172 112.119  1.00  0.00     0.293 HD
ENDBRANCH  15  18
BRANCH  17  20
ATOM     20  O   UNL     1     129.656 127.884 110.310  1.00  0.00    -0.504 OA
ATOM     21  H   UNL     1     130.536 127.847 109.808  1.00  0.00     0.293 HD
ENDBRANCH  17  20
ENDBRANCH   1  12
BRANCH   2  22
ATOM     22  O   UNL     1     124.412 126.132 111.873  1.00  0.00    -0.502 OA
ATOM     23  H   UNL     1     124.314 127.030 112.332  1.00  0.00     0.293 HD
ENDBRANCH   2  22
BRANCH   6  24
ATOM     24  O   UNL     1     120.228 126.240 108.580  1.00  0.00    -0.507 OA
ATOM     25  H   UNL     1     120.187 126.752 109.448  1.00  0.00     0.293 HD
ENDBRANCH   6  24
BRANCH   8  26
ATOM     26  O   UNL     1     122.334 124.839 104.498  1.00  0.00    -0.508 OA
ATOM     27  H   UNL     1     121.612 124.214 104.159  1.00  0.00     0.293 HD
ENDBRANCH   8  26
TORSDOF 6
ENDMDL
MODEL 9
REMARK VINA RESULT:    -3.127     12.960     15.059
REMARK INTER + INTRA:          -4.090
REMARK INTER:                  -3.756
REMARK INTRA:                  -0.334
REMARK UNBOUND:                -0.323
REMARK SMILES O=c1c(O)c(-c2ccc(O)c(O)c2)oc2cc(O)cc(O)c12
REMARK SMILES IDX 5 1 3 2 2 3 1 4 22 5 20 6 19 7 17 8 16 9 15 10 14 11 6 12
REMARK SMILES IDX 7 13 8 14 9 15 13 16 11 17 10 18 12 20 4 22 21 24 18 26
REMARK H PARENT 10 19 12 21 4 23 21 25 18 27
REMARK Flexibility Score: inf
ROOT
ATOM      1  C   UNL     1     126.277 125.963 109.320  1.00  0.00     0.180 A 
ATOM      2  C   UNL     1     127.320 125.790 110.246  1.00  0.00     0.208 A 
ATOM      3  C   UNL     1     128.643 125.734 109.778  1.00  0.00     0.238 A 
ATOM      4  O   UNL     1     129.577 125.634 110.616  1.00  0.00    -0.285 OA
ATOM      5  C   UNL     1     128.904 125.833 108.390  1.00  0.00     0.111 A 
ATOM      6  C   UNL     1     130.202 125.748 107.801  1.00  0.00     0.134 A 
ATOM      7  C   UNL     1     130.355 125.991 106.431  1.00  0.00     0.093 A 
ATOM      8  C   UNL     1     129.250 126.251 105.617  1.00  0.00     0.123 A 
ATOM      9  C   UNL     1     127.973 126.277 106.172  1.00  0.00     0.094 A 
ATOM     10  C   UNL     1     127.792 126.075 107.542  1.00  0.00     0.146 A 
ATOM     11  O   UNL     1     126.558 126.119 108.032  1.00  0.00    -0.452 OA
ENDROOT
BRANCH   1  12
ATOM     12  C   UNL     1     124.856 126.006 109.735  1.00  0.00     0.025 A 
ATOM     13  C   UNL     1     124.243 127.248 109.969  1.00  0.00     0.016 A 
ATOM     14  C   UNL     1     122.897 127.314 110.342  1.00  0.00     0.051 A 
ATOM     15  C   UNL     1     122.143 126.141 110.470  1.00  0.00     0.157 A 
ATOM     16  C   UNL     1     124.088 124.833 109.844  1.00  0.00     0.062 A 
ATOM     17  C   UNL     1     122.737 124.899 110.216  1.00  0.00     0.158 A 
BRANCH  15  18
ATOM     18  O   UNL     1     120.801 126.202 110.842  1.00  0.00    -0.504 OA
ATOM     19  H   UNL     1     120.397 127.047 111.231  1.00  0.00     0.293 HD
ENDBRANCH  15  18
BRANCH  17  20
ATOM     20  O   UNL     1     121.979 123.735 110.330  1.00  0.00    -0.504 OA
ATOM     21  H   UNL     1     122.232 122.998 110.979  1.00  0.00     0.293 HD
ENDBRANCH  17  20
ENDBRANCH   1  12
BRANCH   2  22
ATOM     22  O   UNL     1     127.042 125.717 111.613  1.00  0.00    -0.502 OA
ATOM     23  H   UNL     1     127.079 124.847 112.131  1.00  0.00     0.293 HD
ENDBRANCH   2  22
BRANCH   6  24
ATOM     24  O   UNL     1     131.357 125.405 108.507  1.00  0.00    -0.507 OA
ATOM     25  H   UNL     1     131.393 124.735 109.261  1.00  0.00     0.293 HD
ENDBRANCH   6  24
BRANCH   8  26
ATOM     26  O   UNL     1     129.410 126.475 104.251  1.00  0.00    -0.508 OA
ATOM     27  H   UNL     1     129.374 127.409 103.859  1.00  0.00     0.293 HD
ENDBRANCH   8  26
TORSDOF 6
ENDMDL
