MODEL 1
REMARK VINA RESULT:    -5.107      0.000      0.000
REMARK INTER + INTRA:         -11.387
REMARK INTER:                  -9.288
REMARK INTRA:                  -2.099
REMARK UNBOUND:                -2.099
REMARK SMILES CCCCCCCCCCCCCCCC(=O)[O-]
REMARK SMILES IDX 9 1 10 2 11 3 12 4 13 5 14 6 15 7 16 8 17 9 18 10 8 11 7 12
REMARK SMILES IDX 6 13 5 14 4 15 3 16 2 17 1 18
REMARK H PARENT
REMARK Flexibility Score: inf
ROOT
ATOM      1  C   UNL     1       4.657   7.396   9.850  1.00  0.00     0.000 C 
ENDROOT
BRANCH   1   2
ATOM      2  C   UNL     1       4.324   6.906  11.270  1.00  0.00     0.000 C 
BRANCH   2   3
ATOM      3  C   UNL     1       4.245   8.052  12.295  1.00  0.00     0.000 C 
BRANCH   3   4
ATOM      4  C   UNL     1       4.926   7.775  13.651  1.00  0.00     0.000 C 
BRANCH   4   5
ATOM      5  C   UNL     1       5.593   6.394  13.779  1.00  0.00     0.000 C 
BRANCH   5   6
ATOM      6  C   UNL     1       5.937   6.030  15.233  1.00  0.00     0.006 C 
BRANCH   6   7
ATOM      7  C   UNL     1       5.076   6.802  16.242  1.00  0.00     0.053 C 
BRANCH   7   8
ATOM      8  C   UNL     1       3.895   5.999  16.694  1.00  0.00     0.041 C 
ATOM      9  O   UNL     1       2.790   6.561  16.911  1.00  0.00    -0.550 OA
ATOM     10  O   UNL     1       4.024   4.631  16.903  1.00  0.00    -0.550 OA
ENDBRANCH   7   8
ENDBRANCH   6   7
ENDBRANCH   5   6
ENDBRANCH   4   5
ENDBRANCH   3   4
ENDBRANCH   2   3
ENDBRANCH   1   2
BRANCH   1  11
ATOM     11  C   UNL     1       4.468   8.915   9.681  1.00  0.00     0.000 C 
BRANCH  11  12
ATOM     12  C   UNL     1       5.717   9.688   9.206  1.00  0.00    -0.000 C 
BRANCH  12  13
ATOM     13  C   UNL     1       6.747  10.007  10.304  1.00  0.00    -0.000 C 
BRANCH  13  14
ATOM     14  C   UNL     1       7.938   9.033  10.374  1.00  0.00    -0.000 C 
BRANCH  14  15
ATOM     15  C   UNL     1       8.143   8.404  11.770  1.00  0.00    -0.000 C 
BRANCH  15  16
ATOM     16  C   UNL     1       8.319   6.877  11.705  1.00  0.00    -0.000 C 
BRANCH  16  17
ATOM     17  C   UNL     1       8.199   6.329  10.274  1.00  0.00    -0.003 C 
ATOM     18  C   UNL     1       9.447   5.571   9.823  1.00  0.00     0.004 C 
ENDBRANCH  16  17
ENDBRANCH  15  16
ENDBRANCH  14  15
ENDBRANCH  13  14
ENDBRANCH  12  13
ENDBRANCH  11  12
ENDBRANCH   1  11
TORSDOF 14
ENDMDL
MODEL 2
REMARK VINA RESULT:    -5.078      3.097      5.340
REMARK INTER + INTRA:         -11.333
REMARK INTER:                  -9.305
REMARK INTRA:                  -2.028
REMARK UNBOUND:                -2.099
REMARK SMILES CCCCCCCCCCCCCCCC(=O)[O-]
REMARK SMILES IDX 9 1 10 2 11 3 12 4 13 5 14 6 15 7 16 8 17 9 18 10 8 11 7 12
REMARK SMILES IDX 6 13 5 14 4 15 3 16 2 17 1 18
REMARK H PARENT
REMARK Flexibility Score: inf
ROOT
ATOM      1  C   UNL     1       4.357   7.292  10.062  1.00  0.00     0.000 C 
ENDROOT
BRANCH   1   2
ATOM      2  C   UNL     1       4.133   8.496   9.132  1.00  0.00     0.000 C 
BRANCH   2   3
ATOM      3  C   UNL     1       5.217   9.579   9.285  1.00  0.00     0.000 C 
BRANCH   3   4
ATOM      4  C   UNL     1       6.068   9.486  10.568  1.00  0.00     0.000 C 
BRANCH   4   5
ATOM      5  C   UNL     1       7.590   9.438  10.344  1.00  0.00     0.000 C 
BRANCH   5   6
ATOM      6  C   UNL     1       8.264   8.266  11.075  1.00  0.00     0.006 C 
BRANCH   6   7
ATOM      7  C   UNL     1       7.955   6.916  10.414  1.00  0.00     0.053 C 
BRANCH   7   8
ATOM      8  C   UNL     1       9.116   5.973  10.507  1.00  0.00     0.041 C 
ATOM      9  O   UNL     1       9.412   5.437  11.606  1.00  0.00    -0.550 OA
ATOM     10  O   UNL     1       9.887   5.708   9.382  1.00  0.00    -0.550 OA
ENDBRANCH   7   8
ENDBRANCH   6   7
ENDBRANCH   5   6
ENDBRANCH   4   5
ENDBRANCH   3   4
ENDBRANCH   2   3
ENDBRANCH   1   2
BRANCH   1  11
ATOM     11  C   UNL     1       3.082   6.870  10.815  1.00  0.00     0.000 C 
BRANCH  11  12
ATOM     12  C   UNL     1       2.299   8.019  11.485  1.00  0.00    -0.000 C 
BRANCH  12  13
ATOM     13  C   UNL     1       2.483   8.136  13.009  1.00  0.00    -0.000 C 
BRANCH  13  14
ATOM     14  C   UNL     1       3.922   8.446  13.463  1.00  0.00    -0.000 C 
BRANCH  14  15
ATOM     15  C   UNL     1       4.582   7.297  14.258  1.00  0.00    -0.000 C 
BRANCH  15  16
ATOM     16  C   UNL     1       5.745   6.647  13.490  1.00  0.00    -0.000 C 
BRANCH  16  17
ATOM     17  C   UNL     1       7.118   7.009  14.079  1.00  0.00    -0.003 C 
ATOM     18  C   UNL     1       7.858   5.799  14.647  1.00  0.00     0.004 C 
ENDBRANCH  16  17
ENDBRANCH  15  16
ENDBRANCH  14  15
ENDBRANCH  13  14
ENDBRANCH  12  13
ENDBRANCH  11  12
ENDBRANCH   1  11
TORSDOF 14
ENDMDL
MODEL 3
REMARK VINA RESULT:    -5.059      2.892      5.822
REMARK INTER + INTRA:         -11.298
REMARK INTER:                  -9.574
REMARK INTRA:                  -1.725
REMARK UNBOUND:                -2.099
REMARK SMILES CCCCCCCCCCCCCCCC(=O)[O-]
REMARK SMILES IDX 9 1 10 2 11 3 12 4 13 5 14 6 15 7 16 8 17 9 18 10 8 11 7 12
REMARK SMILES IDX 6 13 5 14 4 15 3 16 2 17 1 18
REMARK H PARENT
REMARK Flexibility Score: inf
ROOT
ATOM      1  C   UNL     1       4.700   7.423   9.850  1.00  0.00     0.000 C 
ENDROOT
BRANCH   1   2
ATOM      2  C   UNL     1       4.231   8.876   9.660  1.00  0.00     0.000 C 
BRANCH   2   3
ATOM      3  C   UNL     1       5.341   9.904   9.951  1.00  0.00     0.000 C 
BRANCH   3   4
ATOM      4  C   UNL     1       6.777   9.428   9.651  1.00  0.00     0.000 C 
BRANCH   4   5
ATOM      5  C   UNL     1       7.788   9.639  10.792  1.00  0.00     0.000 C 
BRANCH   5   6
ATOM      6  C   UNL     1       8.234   8.320  11.445  1.00  0.00     0.006 C 
BRANCH   6   7
ATOM      7  C   UNL     1       8.009   7.113  10.524  1.00  0.00     0.053 C 
BRANCH   7   8
ATOM      8  C   UNL     1       9.083   6.081  10.688  1.00  0.00     0.041 C 
ATOM      9  O   UNL     1       9.319   5.584  11.820  1.00  0.00    -0.550 OA
ATOM     10  O   UNL     1       9.844   5.690   9.593  1.00  0.00    -0.550 OA
ENDBRANCH   7   8
ENDBRANCH   6   7
ENDBRANCH   5   6
ENDBRANCH   4   5
ENDBRANCH   3   4
ENDBRANCH   2   3
ENDBRANCH   1   2
BRANCH   1  11
ATOM     11  C   UNL     1       4.043   6.735  11.061  1.00  0.00     0.000 C 
BRANCH  11  12
ATOM     12  C   UNL     1       3.901   7.613  12.323  1.00  0.00    -0.000 C 
BRANCH  12  13
ATOM     13  C   UNL     1       5.154   7.688  13.214  1.00  0.00    -0.000 C 
BRANCH  13  14
ATOM     14  C   UNL     1       5.807   6.328  13.524  1.00  0.00    -0.000 C 
BRANCH  14  15
ATOM     15  C   UNL     1       5.814   5.973  15.028  1.00  0.00    -0.000 C 
BRANCH  15  16
ATOM     16  C   UNL     1       4.800   6.805  15.831  1.00  0.00    -0.000 C 
BRANCH  16  17
ATOM     17  C   UNL     1       4.480   6.184  17.200  1.00  0.00    -0.003 C 
ATOM     18  C   UNL     1       3.885   4.780  17.090  1.00  0.00     0.004 C 
ENDBRANCH  16  17
ENDBRANCH  15  16
ENDBRANCH  14  15
ENDBRANCH  13  14
ENDBRANCH  12  13
ENDBRANCH  11  12
ENDBRANCH   1  11
TORSDOF 14
ENDMDL
MODEL 4
REMARK VINA RESULT:    -5.055      1.507      1.994
REMARK INTER + INTRA:         -11.291
REMARK INTER:                  -9.138
REMARK INTRA:                  -2.153
REMARK UNBOUND:                -2.099
REMARK SMILES CCCCCCCCCCCCCCCC(=O)[O-]
REMARK SMILES IDX 9 1 10 2 11 3 12 4 13 5 14 6 15 7 16 8 17 9 18 10 8 11 7 12
REMARK SMILES IDX 6 13 5 14 4 15 3 16 2 17 1 18
REMARK H PARENT
REMARK Flexibility Score: inf
ROOT
ATOM      1  C   UNL     1       4.442   7.126  10.589  1.00  0.00     0.000 C 
ENDROOT
BRANCH   1   2
ATOM      2  C   UNL     1       2.966   6.729  10.756  1.00  0.00     0.000 C 
BRANCH   2   3
ATOM      3  C   UNL     1       2.135   7.808  11.474  1.00  0.00     0.000 C 
BRANCH   3   4
ATOM      4  C   UNL     1       2.922   8.710  12.447  1.00  0.00     0.000 C 
BRANCH   4   5
ATOM      5  C   UNL     1       3.102   8.144  13.867  1.00  0.00     0.000 C 
BRANCH   5   6
ATOM      6  C   UNL     1       4.565   8.171  14.339  1.00  0.00     0.006 C 
BRANCH   6   7
ATOM      7  C   UNL     1       5.263   6.819  14.140  1.00  0.00     0.053 C 
BRANCH   7   8
ATOM      8  C   UNL     1       6.138   6.469  15.304  1.00  0.00     0.041 C 
ATOM      9  O   UNL     1       5.651   6.380  16.461  1.00  0.00    -0.550 OA
ATOM     10  O   UNL     1       7.500   6.269  15.114  1.00  0.00    -0.550 OA
ENDBRANCH   7   8
ENDBRANCH   6   7
ENDBRANCH   5   6
ENDBRANCH   4   5
ENDBRANCH   3   4
ENDBRANCH   2   3
ENDBRANCH   1   2
BRANCH   1  11
ATOM     11  C   UNL     1       4.709   7.908   9.290  1.00  0.00     0.000 C 
BRANCH  11  12
ATOM     12  C   UNL     1       5.252   9.340   9.480  1.00  0.00    -0.000 C 
BRANCH  12  13
ATOM     13  C   UNL     1       6.125   9.550  10.731  1.00  0.00    -0.000 C 
BRANCH  13  14
ATOM     14  C   UNL     1       7.604   9.156  10.558  1.00  0.00    -0.000 C 
BRANCH  14  15
ATOM     15  C   UNL     1       8.222   8.502  11.814  1.00  0.00    -0.000 C 
BRANCH  15  16
ATOM     16  C   UNL     1       8.144   6.967  11.774  1.00  0.00    -0.000 C 
BRANCH  16  17
ATOM     17  C   UNL     1       8.115   6.414  10.340  1.00  0.00    -0.003 C 
ATOM     18  C   UNL     1       9.367   5.610   9.989  1.00  0.00     0.004 C 
ENDBRANCH  16  17
ENDBRANCH  15  16
ENDBRANCH  14  15
ENDBRANCH  13  14
ENDBRANCH  12  13
ENDBRANCH  11  12
ENDBRANCH   1  11
TORSDOF 14
ENDMDL
MODEL 5
REMARK VINA RESULT:    -4.861      2.799      4.908
REMARK INTER + INTRA:         -10.938
REMARK INTER:                  -8.706
REMARK INTRA:                  -2.233
REMARK UNBOUND:                -2.099
REMARK SMILES CCCCCCCCCCCCCCCC(=O)[O-]
REMARK SMILES IDX 9 1 10 2 11 3 12 4 13 5 14 6 15 7 16 8 17 9 18 10 8 11 7 12
REMARK SMILES IDX 6 13 5 14 4 15 3 16 2 17 1 18
REMARK H PARENT
REMARK Flexibility Score: inf
ROOT
ATOM      1  C   UNL     1       5.172   7.017  16.489  1.00  0.00     0.000 C 
ENDROOT
BRANCH   1   2
ATOM      2  C   UNL     1       3.847   7.769  16.703  1.00  0.00     0.000 C 
BRANCH   2   3
ATOM      3  C   UNL     1       3.128   8.101  15.382  1.00  0.00     0.000 C 
BRANCH   3   4
ATOM      4  C   UNL     1       3.726   9.277  14.582  1.00  0.00     0.000 C 
BRANCH   4   5
ATOM      5  C   UNL     1       4.032   8.976  13.104  1.00  0.00     0.000 C 
BRANCH   5   6
ATOM      6  C   UNL     1       3.512   7.600  12.655  1.00  0.00     0.006 C 
BRANCH   6   7
ATOM      7  C   UNL     1       4.384   6.984  11.552  1.00  0.00     0.053 C 
BRANCH   7   8
ATOM      8  C   UNL     1       3.992   7.480  10.193  1.00  0.00     0.041 C 
ATOM      9  O   UNL     1       2.799   7.804   9.955  1.00  0.00    -0.550 OA
ATOM     10  O   UNL     1       4.941   7.557   9.181  1.00  0.00    -0.550 OA
ENDBRANCH   7   8
ENDBRANCH   6   7
ENDBRANCH   5   6
ENDBRANCH   4   5
ENDBRANCH   3   4
ENDBRANCH   2   3
ENDBRANCH   1   2
BRANCH   1  11
ATOM     11  C   UNL     1       5.009   5.746  15.636  1.00  0.00     0.000 C 
BRANCH  11  12
ATOM     12  C   UNL     1       6.072   5.548  14.535  1.00  0.00    -0.000 C 
BRANCH  12  13
ATOM     13  C   UNL     1       7.002   6.753  14.297  1.00  0.00    -0.000 C 
BRANCH  13  14
ATOM     14  C   UNL     1       7.837   6.677  13.005  1.00  0.00    -0.000 C 
BRANCH  14  15
ATOM     15  C   UNL     1       7.843   7.991  12.193  1.00  0.00    -0.000 C 
BRANCH  15  16
ATOM     16  C   UNL     1       8.100   7.753  10.696  1.00  0.00    -0.000 C 
BRANCH  16  17
ATOM     17  C   UNL     1       8.105   6.261  10.327  1.00  0.00    -0.003 C 
ATOM     18  C   UNL     1       9.505   5.734  10.010  1.00  0.00     0.004 C 
ENDBRANCH  16  17
ENDBRANCH  15  16
ENDBRANCH  14  15
ENDBRANCH  13  14
ENDBRANCH  12  13
ENDBRANCH  11  12
ENDBRANCH   1  11
TORSDOF 14
ENDMDL
MODEL 6
REMARK VINA RESULT:    -4.859      1.504      3.196
REMARK INTER + INTRA:         -10.935
REMARK INTER:                  -9.677
REMARK INTRA:                  -1.259
REMARK UNBOUND:                -2.099
REMARK SMILES CCCCCCCCCCCCCCCC(=O)[O-]
REMARK SMILES IDX 9 1 10 2 11 3 12 4 13 5 14 6 15 7 16 8 17 9 18 10 8 11 7 12
REMARK SMILES IDX 6 13 5 14 4 15 3 16 2 17 1 18
REMARK H PARENT
REMARK Flexibility Score: inf
ROOT
ATOM      1  C   UNL     1       4.215   7.504  13.967  1.00  0.00     0.000 C 
ENDROOT
BRANCH   1   2
ATOM      2  C   UNL     1       5.686   7.073  14.100  1.00  0.00     0.000 C 
BRANCH   2   3
ATOM      3  C   UNL     1       5.910   6.057  15.236  1.00  0.00     0.000 C 
BRANCH   3   4
ATOM      4  C   UNL     1       5.061   6.285  16.504  1.00  0.00     0.000 C 
BRANCH   4   5
ATOM      5  C   UNL     1       4.157   5.107  16.908  1.00  0.00     0.000 C 
BRANCH   5   6
ATOM      6  C   UNL     1       2.673   5.498  17.001  1.00  0.00     0.006 C 
BRANCH   6   7
ATOM      7  C   UNL     1       2.186   5.580  18.454  1.00  0.00     0.053 C 
BRANCH   7   8
ATOM      8  C   UNL     1       2.476   6.918  19.063  1.00  0.00     0.041 C 
ATOM      9  O   UNL     1       2.798   7.007  20.276  1.00  0.00    -0.550 OA
ATOM     10  O   UNL     1       2.363   8.070  18.295  1.00  0.00    -0.550 OA
ENDBRANCH   7   8
ENDBRANCH   6   7
ENDBRANCH   5   6
ENDBRANCH   4   5
ENDBRANCH   3   4
ENDBRANCH   2   3
ENDBRANCH   1   2
BRANCH   1  11
ATOM     11  C   UNL     1       3.837   7.906  12.529  1.00  0.00     0.000 C 
BRANCH  11  12
ATOM     12  C   UNL     1       4.043   6.811  11.461  1.00  0.00    -0.000 C 
BRANCH  12  13
ATOM     13  C   UNL     1       4.443   7.325  10.065  1.00  0.00    -0.000 C 
BRANCH  13  14
ATOM     14  C   UNL     1       5.957   7.314   9.784  1.00  0.00    -0.000 C 
BRANCH  14  15
ATOM     15  C   UNL     1       6.743   8.375  10.585  1.00  0.00    -0.000 C 
BRANCH  15  16
ATOM     16  C   UNL     1       8.210   7.970  10.810  1.00  0.00    -0.000 C 
BRANCH  16  17
ATOM     17  C   UNL     1       8.358   6.506  11.254  1.00  0.00    -0.003 C 
ATOM     18  C   UNL     1       9.263   5.694  10.327  1.00  0.00     0.004 C 
ENDBRANCH  16  17
ENDBRANCH  15  16
ENDBRANCH  14  15
ENDBRANCH  13  14
ENDBRANCH  12  13
ENDBRANCH  11  12
ENDBRANCH   1  11
TORSDOF 14
ENDMDL
MODEL 7
REMARK VINA RESULT:    -4.844      1.247      3.411
REMARK INTER + INTRA:         -10.907
REMARK INTER:                  -9.287
REMARK INTRA:                  -1.620
REMARK UNBOUND:                -2.099
REMARK SMILES CCCCCCCCCCCCCCCC(=O)[O-]
REMARK SMILES IDX 9 1 10 2 11 3 12 4 13 5 14 6 15 7 16 8 17 9 18 10 8 11 7 12
REMARK SMILES IDX 6 13 5 14 4 15 3 16 2 17 1 18
REMARK H PARENT
REMARK Flexibility Score: inf
ROOT
ATOM      1  C   UNL     1       8.207   6.484  11.912  1.00  0.00     0.000 C 
ENDROOT
BRANCH   1   2
ATOM      2  C   UNL     1       7.552   7.145  13.137  1.00  0.00     0.000 C 
BRANCH   2   3
ATOM      3  C   UNL     1       7.432   6.191  14.339  1.00  0.00     0.000 C 
BRANCH   3   4
ATOM      4  C   UNL     1       5.992   5.900  14.811  1.00  0.00     0.000 C 
BRANCH   4   5
ATOM      5  C   UNL     1       5.014   7.082  14.698  1.00  0.00     0.000 C 
BRANCH   5   6
ATOM      6  C   UNL     1       3.830   6.972  15.675  1.00  0.00     0.006 C 
BRANCH   6   7
ATOM      7  C   UNL     1       4.152   6.071  16.875  1.00  0.00     0.053 C 
BRANCH   7   8
ATOM      8  C   UNL     1       3.153   6.239  17.979  1.00  0.00     0.041 C 
ATOM      9  O   UNL     1       2.450   5.264  18.352  1.00  0.00    -0.550 OA
ATOM     10  O   UNL     1       2.980   7.481  18.576  1.00  0.00    -0.550 OA
ENDBRANCH   7   8
ENDBRANCH   6   7
ENDBRANCH   5   6
ENDBRANCH   4   5
ENDBRANCH   3   4
ENDBRANCH   2   3
ENDBRANCH   1   2
BRANCH   1  11
ATOM     11  C   UNL     1       8.493   7.480  10.774  1.00  0.00     0.000 C 
BRANCH  11  12
ATOM     12  C   UNL     1       8.092   8.943  11.059  1.00  0.00    -0.000 C 
BRANCH  12  13
ATOM     13  C   UNL     1       7.225   9.608   9.974  1.00  0.00    -0.000 C 
BRANCH  13  14
ATOM     14  C   UNL     1       5.741   9.779  10.349  1.00  0.00    -0.000 C 
BRANCH  14  15
ATOM     15  C   UNL     1       4.781   8.940   9.477  1.00  0.00    -0.000 C 
BRANCH  15  16
ATOM     16  C   UNL     1       5.030   7.429   9.618  1.00  0.00    -0.000 C 
BRANCH  16  17
ATOM     17  C   UNL     1       4.515   6.867  10.953  1.00  0.00    -0.003 C 
ATOM     18  C   UNL     1       2.998   6.994  11.103  1.00  0.00     0.004 C 
ENDBRANCH  16  17
ENDBRANCH  15  16
ENDBRANCH  14  15
ENDBRANCH  13  14
ENDBRANCH  12  13
ENDBRANCH  11  12
ENDBRANCH   1  11
TORSDOF 14
ENDMDL
MODEL 8
REMARK VINA RESULT:    -4.816      2.794      6.571
REMARK INTER + INTRA:         -10.857
REMARK INTER:                  -9.147
REMARK INTRA:                  -1.710
REMARK UNBOUND:                -2.099
REMARK SMILES CCCCCCCCCCCCCCCC(=O)[O-]
REMARK SMILES IDX 9 1 10 2 11 3 12 4 13 5 14 6 15 7 16 8 17 9 18 10 8 11 7 12
REMARK SMILES IDX 6 13 5 14 4 15 3 16 2 17 1 18
REMARK H PARENT
REMARK Flexibility Score: inf
ROOT
ATOM      1  C   UNL     1       7.264   6.015  14.234  1.00  0.00     0.000 C 
ENDROOT
BRANCH   1   2
ATOM      2  C   UNL     1       7.693   7.057  13.186  1.00  0.00     0.000 C 
BRANCH   2   3
ATOM      3  C   UNL     1       8.318   6.419  11.932  1.00  0.00     0.000 C 
BRANCH   3   4
ATOM      4  C   UNL     1       8.400   7.337  10.695  1.00  0.00     0.000 C 
BRANCH   4   5
ATOM      5  C   UNL     1       8.041   8.812  10.948  1.00  0.00     0.000 C 
BRANCH   5   6
ATOM      6  C   UNL     1       6.899   9.312  10.048  1.00  0.00     0.006 C 
BRANCH   6   7
ATOM      7  C   UNL     1       5.523   9.122  10.700  1.00  0.00     0.053 C 
BRANCH   7   8
ATOM      8  C   UNL     1       4.751   8.010  10.057  1.00  0.00     0.041 C 
ATOM      9  O   UNL     1       4.936   6.818  10.416  1.00  0.00    -0.550 OA
ATOM     10  O   UNL     1       3.849   8.290   9.038  1.00  0.00    -0.550 OA
ENDBRANCH   7   8
ENDBRANCH   6   7
ENDBRANCH   5   6
ENDBRANCH   4   5
ENDBRANCH   3   4
ENDBRANCH   2   3
ENDBRANCH   1   2
BRANCH   1  11
ATOM     11  C   UNL     1       5.837   6.251  14.764  1.00  0.00     0.000 C 
BRANCH  11  12
ATOM     12  C   UNL     1       4.971   7.214  13.924  1.00  0.00    -0.000 C 
BRANCH  12  13
ATOM     13  C   UNL     1       3.948   8.042  14.724  1.00  0.00    -0.000 C 
BRANCH  13  14
ATOM     14  C   UNL     1       4.354   8.334  16.181  1.00  0.00    -0.000 C 
BRANCH  14  15
ATOM     15  C   UNL     1       3.379   7.748  17.225  1.00  0.00    -0.000 C 
BRANCH  15  16
ATOM     16  C   UNL     1       2.354   6.789  16.597  1.00  0.00    -0.000 C 
BRANCH  16  17
ATOM     17  C   UNL     1       2.392   5.387  17.227  1.00  0.00    -0.003 C 
ATOM     18  C   UNL     1       3.815   4.885  17.472  1.00  0.00     0.004 C 
ENDBRANCH  16  17
ENDBRANCH  15  16
ENDBRANCH  14  15
ENDBRANCH  13  14
ENDBRANCH  12  13
ENDBRANCH  11  12
ENDBRANCH   1  11
TORSDOF 14
ENDMDL
MODEL 9
REMARK VINA RESULT:    -4.706      1.758      4.045
REMARK INTER + INTRA:         -10.658
REMARK INTER:                  -8.991
REMARK INTRA:                  -1.667
REMARK UNBOUND:                -2.099
REMARK SMILES CCCCCCCCCCCCCCCC(=O)[O-]
REMARK SMILES IDX 9 1 10 2 11 3 12 4 13 5 14 6 15 7 16 8 17 9 18 10 8 11 7 12
REMARK SMILES IDX 6 13 5 14 4 15 3 16 2 17 1 18
REMARK H PARENT
REMARK Flexibility Score: inf
ROOT
ATOM      1  C   UNL     1       7.408   6.712  12.560  1.00  0.00     0.000 C 
ENDROOT
BRANCH   1   2
ATOM      2  C   UNL     1       7.089   7.093  14.016  1.00  0.00     0.000 C 
BRANCH   2   3
ATOM      3  C   UNL     1       6.318   5.992  14.767  1.00  0.00     0.000 C 
BRANCH   3   4
ATOM      4  C   UNL     1       5.151   6.485  15.648  1.00  0.00     0.000 C 
BRANCH   4   5
ATOM      5  C   UNL     1       4.458   5.397  16.486  1.00  0.00     0.000 C 
BRANCH   5   6
ATOM      6  C   UNL     1       2.987   5.727  16.793  1.00  0.00     0.006 C 
BRANCH   6   7
ATOM      7  C   UNL     1       2.679   5.653  18.294  1.00  0.00     0.053 C 
BRANCH   7   8
ATOM      8  C   UNL     1       2.799   6.994  18.953  1.00  0.00     0.041 C 
ATOM      9  O   UNL     1       3.014   8.023  18.261  1.00  0.00    -0.550 OA
ATOM     10  O   UNL     1       2.700   7.101  20.334  1.00  0.00    -0.550 OA
ENDBRANCH   7   8
ENDBRANCH   6   7
ENDBRANCH   5   6
ENDBRANCH   4   5
ENDBRANCH   3   4
ENDBRANCH   2   3
ENDBRANCH   1   2
BRANCH   1  11
ATOM     11  C   UNL     1       7.956   7.893  11.738  1.00  0.00     0.000 C 
BRANCH  11  12
ATOM     12  C   UNL     1       7.228   8.166  10.405  1.00  0.00    -0.000 C 
BRANCH  12  13
ATOM     13  C   UNL     1       6.243   7.069   9.960  1.00  0.00    -0.000 C 
BRANCH  13  14
ATOM     14  C   UNL     1       4.759   7.480  10.005  1.00  0.00    -0.000 C 
BRANCH  14  15
ATOM     15  C   UNL     1       3.937   6.717  11.067  1.00  0.00    -0.000 C 
BRANCH  15  16
ATOM     16  C   UNL     1       3.782   7.515  12.372  1.00  0.00    -0.000 C 
BRANCH  16  17
ATOM     17  C   UNL     1       4.199   8.986  12.218  1.00  0.00    -0.003 C 
ATOM     18  C   UNL     1       3.448   9.919  13.169  1.00  0.00     0.004 C 
ENDBRANCH  16  17
ENDBRANCH  15  16
ENDBRANCH  14  15
ENDBRANCH  13  14
ENDBRANCH  12  13
ENDBRANCH  11  12
ENDBRANCH   1  11
TORSDOF 14
ENDMDL
