MODEL 1
REMARK VINA RESULT:    -7.109      0.000      0.000
REMARK INTER + INTRA:          -8.649
REMARK INTER:                  -8.356
REMARK INTRA:                  -0.293
REMARK UNBOUND:                -0.293
REMARK SMILES O=c1c(O)c(-c2ccc(O)cc2)oc2cc(O)cc(O)c12
REMARK SMILES IDX 5 1 3 2 2 3 1 4 21 5 19 6 18 7 16 8 15 9 14 10 13 11 6 12
REMARK SMILES IDX 7 13 8 14 9 15 12 16 11 17 10 18 4 20 20 22 17 24
REMARK H PARENT 10 19 4 21 20 23 17 25
REMARK Flexibility Score: inf
ROOT
ATOM      1  C   UNL     1      -0.878  -7.876  13.744  1.00  0.00     0.180 A 
ATOM      2  C   UNL     1       0.035  -7.480  12.752  1.00  0.00     0.208 A 
ATOM      3  C   UNL     1       1.333  -7.102  13.131  1.00  0.00     0.238 A 
ATOM      4  O   UNL     1       2.162  -6.801  12.233  1.00  0.00    -0.285 OA
ATOM      5  C   UNL     1       1.697  -7.108  14.500  1.00  0.00     0.111 A 
ATOM      6  C   UNL     1       2.971  -6.705  15.001  1.00  0.00     0.134 A 
ATOM      7  C   UNL     1       3.263  -6.876  16.360  1.00  0.00     0.093 A 
ATOM      8  C   UNL     1       2.305  -7.373  17.247  1.00  0.00     0.123 A 
ATOM      9  C   UNL     1       1.038  -7.714  16.776  1.00  0.00     0.094 A 
ATOM     10  C   UNL     1       0.729  -7.589  15.419  1.00  0.00     0.146 A 
ATOM     11  O   UNL     1      -0.487  -7.935  15.012  1.00  0.00    -0.452 OA
ENDROOT
BRANCH   1  12
ATOM     12  C   UNL     1      -2.271  -8.265  13.425  1.00  0.00     0.021 A 
ATOM     13  C   UNL     1      -3.317  -7.324  13.448  1.00  0.00     0.016 A 
ATOM     14  C   UNL     1      -4.629  -7.719  13.165  1.00  0.00     0.047 A 
ATOM     15  C   UNL     1      -4.912  -9.059  12.871  1.00  0.00     0.115 A 
ATOM     16  C   UNL     1      -2.569  -9.609  13.149  1.00  0.00     0.016 A 
ATOM     17  C   UNL     1      -3.880 -10.001  12.866  1.00  0.00     0.047 A 
BRANCH  15  18
ATOM     18  O   UNL     1      -6.215  -9.463  12.587  1.00  0.00    -0.508 OA
ATOM     19  H   UNL     1      -6.537  -9.580  11.634  1.00  0.00     0.293 HD
ENDBRANCH  15  18
ENDBRANCH   1  12
BRANCH   2  20
ATOM     20  O   UNL     1      -0.337  -7.503  11.405  1.00  0.00    -0.502 OA
ATOM     21  H   UNL     1      -0.312  -8.347  10.847  1.00  0.00     0.293 HD
ENDBRANCH   2  20
BRANCH   6  22
ATOM     22  O   UNL     1       3.965  -6.112  14.219  1.00  0.00    -0.507 OA
ATOM     23  H   UNL     1       3.842  -5.811  13.264  1.00  0.00     0.293 HD
ENDBRANCH   6  22
BRANCH   8  24
ATOM     24  O   UNL     1       2.599  -7.526  18.599  1.00  0.00    -0.508 OA
ATOM     25  H   UNL     1       1.932  -7.274  19.319  1.00  0.00     0.293 HD
ENDBRANCH   8  24
TORSDOF 5
ENDMDL
MODEL 2
REMARK VINA RESULT:    -6.928      1.766      2.129
REMARK INTER + INTRA:          -8.436
REMARK INTER:                  -8.252
REMARK INTRA:                  -0.184
REMARK UNBOUND:                -0.293
REMARK SMILES O=c1c(O)c(-c2ccc(O)cc2)oc2cc(O)cc(O)c12
REMARK SMILES IDX 5 1 3 2 2 3 1 4 21 5 19 6 18 7 16 8 15 9 14 10 13 11 6 12
REMARK SMILES IDX 7 13 8 14 9 15 12 16 11 17 10 18 4 20 20 22 17 24
REMARK H PARENT 10 19 4 21 20 23 17 25
REMARK Flexibility Score: inf
ROOT
ATOM      1  C   UNL     1       0.029  -7.785  14.660  1.00  0.00     0.180 A 
ATOM      2  C   UNL     1       0.874  -6.680  14.458  1.00  0.00     0.208 A 
ATOM      3  C   UNL     1       2.121  -6.649  15.101  1.00  0.00     0.238 A 
ATOM      4  O   UNL     1       2.896  -5.684  14.872  1.00  0.00    -0.285 OA
ATOM      5  C   UNL     1       2.502  -7.716  15.951  1.00  0.00     0.111 A 
ATOM      6  C   UNL     1       3.725  -7.770  16.685  1.00  0.00     0.134 A 
ATOM      7  C   UNL     1       4.054  -8.934  17.393  1.00  0.00     0.093 A 
ATOM      8  C   UNL     1       3.175 -10.017  17.447  1.00  0.00     0.123 A 
ATOM      9  C   UNL     1       1.952  -9.950  16.781  1.00  0.00     0.094 A 
ATOM     10  C   UNL     1       1.611  -8.817  16.038  1.00  0.00     0.146 A 
ATOM     11  O   UNL     1       0.441  -8.799  15.411  1.00  0.00    -0.452 OA
ENDROOT
BRANCH   1  12
ATOM     12  C   UNL     1      -1.312  -7.877  14.037  1.00  0.00     0.021 A 
ATOM     13  C   UNL     1      -2.351  -7.001  14.402  1.00  0.00     0.016 A 
ATOM     14  C   UNL     1      -3.615  -7.122  13.816  1.00  0.00     0.047 A 
ATOM     15  C   UNL     1      -3.860  -8.128  12.871  1.00  0.00     0.115 A 
ATOM     16  C   UNL     1      -1.573  -8.894  13.105  1.00  0.00     0.016 A 
ATOM     17  C   UNL     1      -2.837  -9.012  12.521  1.00  0.00     0.047 A 
BRANCH  15  18
ATOM     18  O   UNL     1      -5.116  -8.257  12.281  1.00  0.00    -0.508 OA
ATOM     19  H   UNL     1      -5.647  -9.117  12.349  1.00  0.00     0.293 HD
ENDBRANCH  15  18
ENDBRANCH   1  12
BRANCH   2  20
ATOM     20  O   UNL     1       0.489  -5.648  13.597  1.00  0.00    -0.502 OA
ATOM     21  H   UNL     1       1.040  -5.376  12.792  1.00  0.00     0.293 HD
ENDBRANCH   2  20
BRANCH   6  22
ATOM     22  O   UNL     1       4.630  -6.710  16.774  1.00  0.00    -0.507 OA
ATOM     23  H   UNL     1       5.494  -6.733  17.294  1.00  0.00     0.293 HD
ENDBRANCH   6  22
BRANCH   8  24
ATOM     24  O   UNL     1       3.503 -11.164  18.165  1.00  0.00    -0.508 OA
ATOM     25  H   UNL     1       3.378 -11.215  19.169  1.00  0.00     0.293 HD
ENDBRANCH   8  24
TORSDOF 5
ENDMDL
MODEL 3
REMARK VINA RESULT:    -6.850      3.597      7.791
REMARK INTER + INTRA:          -8.345
REMARK INTER:                  -8.090
REMARK INTRA:                  -0.255
REMARK UNBOUND:                -0.293
REMARK SMILES O=c1c(O)c(-c2ccc(O)cc2)oc2cc(O)cc(O)c12
REMARK SMILES IDX 5 1 3 2 2 3 1 4 21 5 19 6 18 7 16 8 15 9 14 10 13 11 6 12
REMARK SMILES IDX 7 13 8 14 9 15 12 16 11 17 10 18 4 20 20 22 17 24
REMARK H PARENT 10 19 4 21 20 23 17 25
REMARK Flexibility Score: inf
ROOT
ATOM      1  C   UNL     1      -4.102  -9.983  13.664  1.00  0.00     0.180 A 
ATOM      2  C   UNL     1      -4.949  -9.092  12.982  1.00  0.00     0.208 A 
ATOM      3  C   UNL     1      -6.296  -9.006  13.364  1.00  0.00     0.238 A 
ATOM      4  O   UNL     1      -7.036  -8.167  12.786  1.00  0.00    -0.285 OA
ATOM      5  C   UNL     1      -6.785  -9.822  14.413  1.00  0.00     0.111 A 
ATOM      6  C   UNL     1      -8.142  -9.847  14.856  1.00  0.00     0.134 A 
ATOM      7  C   UNL     1      -8.485 -10.598  15.988  1.00  0.00     0.093 A 
ATOM      8  C   UNL     1      -7.533 -11.377  16.651  1.00  0.00     0.123 A 
ATOM      9  C   UNL     1      -6.219 -11.405  16.190  1.00  0.00     0.094 A 
ATOM     10  C   UNL     1      -5.839 -10.639  15.086  1.00  0.00     0.146 A 
ATOM     11  O   UNL     1      -4.573 -10.687  14.686  1.00  0.00    -0.452 OA
ENDROOT
BRANCH   1  12
ATOM     12  C   UNL     1      -2.675 -10.149  13.302  1.00  0.00     0.021 A 
ATOM     13  C   UNL     1      -1.703  -9.216  13.709  1.00  0.00     0.016 A 
ATOM     14  C   UNL     1      -0.365  -9.382  13.335  1.00  0.00     0.047 A 
ATOM     15  C   UNL     1       0.014 -10.471  12.539  1.00  0.00     0.115 A 
ATOM     16  C   UNL     1      -2.288 -11.226  12.487  1.00  0.00     0.016 A 
ATOM     17  C   UNL     1      -0.951 -11.389  12.116  1.00  0.00     0.047 A 
BRANCH  15  18
ATOM     18  O   UNL     1       1.344 -10.645  12.162  1.00  0.00    -0.508 OA
ATOM     19  H   UNL     1       1.601 -10.835  11.200  1.00  0.00     0.293 HD
ENDBRANCH  15  18
ENDBRANCH   1  12
BRANCH   2  20
ATOM     20  O   UNL     1      -4.441  -8.279  11.965  1.00  0.00    -0.502 OA
ATOM     21  H   UNL     1      -3.982  -8.656  11.145  1.00  0.00     0.293 HD
ENDBRANCH   2  20
BRANCH   6  22
ATOM     22  O   UNL     1      -9.185  -9.180  14.211  1.00  0.00    -0.507 OA
ATOM     23  H   UNL     1      -9.529  -8.266  14.466  1.00  0.00     0.293 HD
ENDBRANCH   6  22
BRANCH   8  24
ATOM     24  O   UNL     1      -7.887 -12.132  17.767  1.00  0.00    -0.508 OA
ATOM     25  H   UNL     1      -7.719 -13.131  17.806  1.00  0.00     0.293 HD
ENDBRANCH   8  24
TORSDOF 5
ENDMDL
MODEL 4
REMARK VINA RESULT:    -6.829      1.701      6.684
REMARK INTER + INTRA:          -8.320
REMARK INTER:                  -8.066
REMARK INTRA:                  -0.254
REMARK UNBOUND:                -0.293
REMARK SMILES O=c1c(O)c(-c2ccc(O)cc2)oc2cc(O)cc(O)c12
REMARK SMILES IDX 5 1 3 2 2 3 1 4 21 5 19 6 18 7 16 8 15 9 14 10 13 11 6 12
REMARK SMILES IDX 7 13 8 14 9 15 12 16 11 17 10 18 4 20 20 22 17 24
REMARK H PARENT 10 19 4 21 20 23 17 25
REMARK Flexibility Score: inf
ROOT
ATOM      1  C   UNL     1      -0.440  -8.034  14.726  1.00  0.00     0.180 A 
ATOM      2  C   UNL     1      -1.176  -7.046  14.049  1.00  0.00     0.208 A 
ATOM      3  C   UNL     1      -2.407  -7.391  13.469  1.00  0.00     0.238 A 
ATOM      4  O   UNL     1      -3.087  -6.490  12.912  1.00  0.00    -0.285 OA
ATOM      5  C   UNL     1      -2.880  -8.723  13.561  1.00  0.00     0.111 A 
ATOM      6  C   UNL     1      -4.094  -9.193  12.975  1.00  0.00     0.134 A 
ATOM      7  C   UNL     1      -4.527 -10.499  13.240  1.00  0.00     0.093 A 
ATOM      8  C   UNL     1      -3.757 -11.371  14.013  1.00  0.00     0.123 A 
ATOM      9  C   UNL     1      -2.541 -10.939  14.539  1.00  0.00     0.094 A 
ATOM     10  C   UNL     1      -2.100  -9.631  14.323  1.00  0.00     0.146 A 
ATOM     11  O   UNL     1      -0.941  -9.257  14.851  1.00  0.00    -0.452 OA
ENDROOT
BRANCH   1  12
ATOM     12  C   UNL     1       0.878  -7.753  15.341  1.00  0.00     0.021 A 
ATOM     13  C   UNL     1       1.006  -7.521  16.723  1.00  0.00     0.016 A 
ATOM     14  C   UNL     1       2.259  -7.235  17.278  1.00  0.00     0.047 A 
ATOM     15  C   UNL     1       3.392  -7.162  16.457  1.00  0.00     0.115 A 
ATOM     16  C   UNL     1       2.016  -7.658  14.525  1.00  0.00     0.016 A 
ATOM     17  C   UNL     1       3.266  -7.373  15.081  1.00  0.00     0.047 A 
BRANCH  15  18
ATOM     18  O   UNL     1       4.644  -6.879  16.999  1.00  0.00    -0.508 OA
ATOM     19  H   UNL     1       4.807  -6.909  17.998  1.00  0.00     0.293 HD
ENDBRANCH  15  18
ENDBRANCH   1  12
BRANCH   2  20
ATOM     20  O   UNL     1      -0.702  -5.733  13.990  1.00  0.00    -0.502 OA
ATOM     21  H   UNL     1      -1.321  -4.933  13.931  1.00  0.00     0.293 HD
ENDBRANCH   2  20
BRANCH   6  22
ATOM     22  O   UNL     1      -4.890  -8.435  12.114  1.00  0.00    -0.507 OA
ATOM     23  H   UNL     1      -5.003  -8.615  11.127  1.00  0.00     0.293 HD
ENDBRANCH   6  22
BRANCH   8  24
ATOM     24  O   UNL     1      -4.187 -12.673  14.258  1.00  0.00    -0.508 OA
ATOM     25  H   UNL     1      -3.805 -13.224  15.018  1.00  0.00     0.293 HD
ENDBRANCH   8  24
TORSDOF 5
ENDMDL
MODEL 5
REMARK VINA RESULT:    -6.711      2.396      3.497
REMARK INTER + INTRA:          -8.181
REMARK INTER:                  -8.441
REMARK INTRA:                   0.260
REMARK UNBOUND:                -0.293
REMARK SMILES O=c1c(O)c(-c2ccc(O)cc2)oc2cc(O)cc(O)c12
REMARK SMILES IDX 5 1 3 2 2 3 1 4 21 5 19 6 18 7 16 8 15 9 14 10 13 11 6 12
REMARK SMILES IDX 7 13 8 14 9 15 12 16 11 17 10 18 4 20 20 22 17 24
REMARK H PARENT 10 19 4 21 20 23 17 25
REMARK Flexibility Score: inf
ROOT
ATOM      1  C   UNL     1      -2.082  -7.827  13.058  1.00  0.00     0.180 A 
ATOM      2  C   UNL     1      -1.435  -6.735  13.662  1.00  0.00     0.208 A 
ATOM      3  C   UNL     1      -0.045  -6.604  13.523  1.00  0.00     0.238 A 
ATOM      4  O   UNL     1       0.520  -5.595  14.020  1.00  0.00    -0.285 OA
ATOM      5  C   UNL     1       0.685  -7.574  12.793  1.00  0.00     0.111 A 
ATOM      6  C   UNL     1       2.102  -7.563  12.622  1.00  0.00     0.134 A 
ATOM      7  C   UNL     1       2.701  -8.501  11.772  1.00  0.00     0.093 A 
ATOM      8  C   UNL     1       1.943  -9.490  11.140  1.00  0.00     0.123 A 
ATOM      9  C   UNL     1       0.567  -9.545  11.349  1.00  0.00     0.094 A 
ATOM     10  C   UNL     1      -0.065  -8.601  12.162  1.00  0.00     0.146 A 
ATOM     11  O   UNL     1      -1.380  -8.684  12.326  1.00  0.00    -0.452 OA
ENDROOT
BRANCH   1  12
ATOM     12  C   UNL     1      -3.542  -8.047  13.182  1.00  0.00     0.021 A 
ATOM     13  C   UNL     1      -4.442  -6.968  13.240  1.00  0.00     0.016 A 
ATOM     14  C   UNL     1      -5.815  -7.200  13.381  1.00  0.00     0.047 A 
ATOM     15  C   UNL     1      -6.301  -8.510  13.480  1.00  0.00     0.115 A 
ATOM     16  C   UNL     1      -4.036  -9.356  13.303  1.00  0.00     0.016 A 
ATOM     17  C   UNL     1      -5.408  -9.585  13.443  1.00  0.00     0.047 A 
BRANCH  15  18
ATOM     18  O   UNL     1      -7.666  -8.753  13.620  1.00  0.00    -0.508 OA
ATOM     19  H   UNL     1      -8.134  -8.646  14.512  1.00  0.00     0.293 HD
ENDBRANCH  15  18
ENDBRANCH   1  12
BRANCH   2  20
ATOM     20  O   UNL     1      -2.177  -5.777  14.359  1.00  0.00    -0.502 OA
ATOM     21  H   UNL     1      -1.770  -5.192  15.079  1.00  0.00     0.293 HD
ENDBRANCH   2  20
BRANCH   6  22
ATOM     22  O   UNL     1       2.960  -6.678  13.278  1.00  0.00    -0.507 OA
ATOM     23  H   UNL     1       3.422  -6.868  14.155  1.00  0.00     0.293 HD
ENDBRANCH   6  22
BRANCH   8  24
ATOM     24  O   UNL     1       2.550 -10.428  10.309  1.00  0.00    -0.508 OA
ATOM     25  H   UNL     1       3.464 -10.812  10.520  1.00  0.00     0.293 HD
ENDBRANCH   8  24
TORSDOF 5
ENDMDL
MODEL 6
REMARK VINA RESULT:    -6.693      2.444      6.523
REMARK INTER + INTRA:          -8.159
REMARK INTER:                  -8.026
REMARK INTRA:                  -0.133
REMARK UNBOUND:                -0.293
REMARK SMILES O=c1c(O)c(-c2ccc(O)cc2)oc2cc(O)cc(O)c12
REMARK SMILES IDX 5 1 3 2 2 3 1 4 21 5 19 6 18 7 16 8 15 9 14 10 13 11 6 12
REMARK SMILES IDX 7 13 8 14 9 15 12 16 11 17 10 18 4 20 20 22 17 24
REMARK H PARENT 10 19 4 21 20 23 17 25
REMARK Flexibility Score: inf
ROOT
ATOM      1  C   UNL     1      -0.167  -7.751  12.980  1.00  0.00     0.180 A 
ATOM      2  C   UNL     1      -0.308  -6.702  13.905  1.00  0.00     0.208 A 
ATOM      3  C   UNL     1      -1.594  -6.342  14.338  1.00  0.00     0.238 A 
ATOM      4  O   UNL     1      -1.709  -5.439  15.207  1.00  0.00    -0.285 OA
ATOM      5  C   UNL     1      -2.725  -7.025  13.828  1.00  0.00     0.111 A 
ATOM      6  C   UNL     1      -4.077  -6.717  14.165  1.00  0.00     0.134 A 
ATOM      7  C   UNL     1      -5.110  -7.542  13.702  1.00  0.00     0.093 A 
ATOM      8  C   UNL     1      -4.844  -8.625  12.859  1.00  0.00     0.123 A 
ATOM      9  C   UNL     1      -3.532  -8.897  12.477  1.00  0.00     0.094 A 
ATOM     10  C   UNL     1      -2.478  -8.114  12.952  1.00  0.00     0.146 A 
ATOM     11  O   UNL     1      -1.242  -8.415  12.571  1.00  0.00    -0.452 OA
ENDROOT
BRANCH   1  12
ATOM     12  C   UNL     1       1.154  -8.171  12.458  1.00  0.00     0.021 A 
ATOM     13  C   UNL     1       1.962  -7.289  11.716  1.00  0.00     0.016 A 
ATOM     14  C   UNL     1       3.196  -7.716  11.213  1.00  0.00     0.047 A 
ATOM     15  C   UNL     1       3.629  -9.030  11.433  1.00  0.00     0.115 A 
ATOM     16  C   UNL     1       1.587  -9.492  12.655  1.00  0.00     0.016 A 
ATOM     17  C   UNL     1       2.821  -9.915  12.152  1.00  0.00     0.047 A 
BRANCH  15  18
ATOM     18  O   UNL     1       4.856  -9.465  10.937  1.00  0.00    -0.508 OA
ATOM     19  H   UNL     1       4.915 -10.173  10.216  1.00  0.00     0.293 HD
ENDBRANCH  15  18
ENDBRANCH   1  12
BRANCH   2  20
ATOM     20  O   UNL     1       0.823  -6.056  14.412  1.00  0.00    -0.502 OA
ATOM     21  H   UNL     1       1.107  -5.134  14.105  1.00  0.00     0.293 HD
ENDBRANCH   2  20
BRANCH   6  22
ATOM     22  O   UNL     1      -4.459  -5.607  14.923  1.00  0.00    -0.507 OA
ATOM     23  H   UNL     1      -4.696  -5.634  15.904  1.00  0.00     0.293 HD
ENDBRANCH   6  22
BRANCH   8  24
ATOM     24  O   UNL     1      -5.878  -9.431  12.391  1.00  0.00    -0.508 OA
ATOM     25  H   UNL     1      -6.652  -9.701  12.986  1.00  0.00     0.293 HD
ENDBRANCH   8  24
TORSDOF 5
ENDMDL
MODEL 7
REMARK VINA RESULT:    -6.691      2.807      6.889
REMARK INTER + INTRA:          -8.157
REMARK INTER:                  -7.870
REMARK INTRA:                  -0.287
REMARK UNBOUND:                -0.293
REMARK SMILES O=c1c(O)c(-c2ccc(O)cc2)oc2cc(O)cc(O)c12
REMARK SMILES IDX 5 1 3 2 2 3 1 4 21 5 19 6 18 7 16 8 15 9 14 10 13 11 6 12
REMARK SMILES IDX 7 13 8 14 9 15 12 16 11 17 10 18 4 20 20 22 17 24
REMARK H PARENT 10 19 4 21 20 23 17 25
REMARK Flexibility Score: inf
ROOT
ATOM      1  C   UNL     1      -1.120  -9.443  12.785  1.00  0.00     0.180 A 
ATOM      2  C   UNL     1      -2.060  -8.443  12.479  1.00  0.00     0.208 A 
ATOM      3  C   UNL     1      -3.419  -8.685  12.730  1.00  0.00     0.238 A 
ATOM      4  O   UNL     1      -4.249  -7.766  12.505  1.00  0.00    -0.285 OA
ATOM      5  C   UNL     1      -3.825  -9.930  13.270  1.00  0.00     0.111 A 
ATOM      6  C   UNL     1      -5.180 -10.299  13.527  1.00  0.00     0.134 A 
ATOM      7  C   UNL     1      -5.454 -11.505  14.184  1.00  0.00     0.093 A 
ATOM      8  C   UNL     1      -4.427 -12.386  14.532  1.00  0.00     0.123 A 
ATOM      9  C   UNL     1      -3.106 -12.061  14.231  1.00  0.00     0.094 A 
ATOM     10  C   UNL     1      -2.798 -10.848  13.610  1.00  0.00     0.146 A 
ATOM     11  O   UNL     1      -1.524 -10.574  13.351  1.00  0.00    -0.452 OA
ENDROOT
BRANCH   1  12
ATOM     12  C   UNL     1       0.328  -9.272  12.525  1.00  0.00     0.021 A 
ATOM     13  C   UNL     1       1.175  -8.666  13.471  1.00  0.00     0.016 A 
ATOM     14  C   UNL     1       2.536  -8.495  13.193  1.00  0.00     0.047 A 
ATOM     15  C   UNL     1       3.061  -8.912  11.963  1.00  0.00     0.115 A 
ATOM     16  C   UNL     1       0.860  -9.668  11.287  1.00  0.00     0.016 A 
ATOM     17  C   UNL     1       2.220  -9.496  11.013  1.00  0.00     0.047 A 
BRANCH  15  18
ATOM     18  O   UNL     1       4.415  -8.746  11.676  1.00  0.00    -0.508 OA
ATOM     19  H   UNL     1       5.065  -8.401  12.372  1.00  0.00     0.293 HD
ENDBRANCH  15  18
ENDBRANCH   1  12
BRANCH   2  20
ATOM     20  O   UNL     1      -1.636  -7.214  11.967  1.00  0.00    -0.502 OA
ATOM     21  H   UNL     1      -0.784  -7.112  11.429  1.00  0.00     0.293 HD
ENDBRANCH   2  20
BRANCH   6  22
ATOM     22  O   UNL     1      -6.283  -9.536  13.138  1.00  0.00    -0.507 OA
ATOM     23  H   UNL     1      -6.230  -8.614  12.730  1.00  0.00     0.293 HD
ENDBRANCH   6  22
BRANCH   8  24
ATOM     24  O   UNL     1      -4.710 -13.591  15.171  1.00  0.00    -0.508 OA
ATOM     25  H   UNL     1      -5.557 -14.111  14.971  1.00  0.00     0.293 HD
ENDBRANCH   8  24
TORSDOF 5
ENDMDL
MODEL 8
REMARK VINA RESULT:    -6.658      8.016     10.075
REMARK INTER + INTRA:          -8.118
REMARK INTER:                  -7.824
REMARK INTRA:                  -0.294
REMARK UNBOUND:                -0.293
REMARK SMILES O=c1c(O)c(-c2ccc(O)cc2)oc2cc(O)cc(O)c12
REMARK SMILES IDX 5 1 3 2 2 3 1 4 21 5 19 6 18 7 16 8 15 9 14 10 13 11 6 12
REMARK SMILES IDX 7 13 8 14 9 15 12 16 11 17 10 18 4 20 20 22 17 24
REMARK H PARENT 10 19 4 21 20 23 17 25
REMARK Flexibility Score: inf
ROOT
ATOM      1  C   UNL     1      -9.093  -6.259  13.018  1.00  0.00     0.180 A 
ATOM      2  C   UNL     1      -7.963  -7.061  12.783  1.00  0.00     0.208 A 
ATOM      3  C   UNL     1      -7.755  -8.197  13.580  1.00  0.00     0.238 A 
ATOM      4  O   UNL     1      -6.771  -8.940  13.328  1.00  0.00    -0.285 OA
ATOM      5  C   UNL     1      -8.671  -8.509  14.615  1.00  0.00     0.111 A 
ATOM      6  C   UNL     1      -8.536  -9.612  15.510  1.00  0.00     0.134 A 
ATOM      7  C   UNL     1      -9.570  -9.900  16.411  1.00  0.00     0.093 A 
ATOM      8  C   UNL     1     -10.701  -9.084  16.494  1.00  0.00     0.123 A 
ATOM      9  C   UNL     1     -10.813  -7.970  15.664  1.00  0.00     0.094 A 
ATOM     10  C   UNL     1      -9.816  -7.679  14.730  1.00  0.00     0.146 A 
ATOM     11  O   UNL     1      -9.968  -6.613  13.952  1.00  0.00    -0.452 OA
ENDROOT
BRANCH   1  12
ATOM     12  C   UNL     1      -9.367  -5.031  12.236  1.00  0.00     0.021 A 
ATOM     13  C   UNL     1      -8.906  -3.773  12.664  1.00  0.00     0.016 A 
ATOM     14  C   UNL     1      -9.197  -2.624  11.920  1.00  0.00     0.047 A 
ATOM     15  C   UNL     1      -9.962  -2.718  10.750  1.00  0.00     0.115 A 
ATOM     16  C   UNL     1     -10.150  -5.112  11.073  1.00  0.00     0.016 A 
ATOM     17  C   UNL     1     -10.438  -3.963  10.332  1.00  0.00     0.047 A 
BRANCH  15  18
ATOM     18  O   UNL     1     -10.256  -1.580  10.001  1.00  0.00    -0.508 OA
ATOM     19  H   UNL     1     -11.195  -1.202   9.960  1.00  0.00     0.293 HD
ENDBRANCH  15  18
ENDBRANCH   1  12
BRANCH   2  20
ATOM     20  O   UNL     1      -7.084  -6.748  11.742  1.00  0.00    -0.502 OA
ATOM     21  H   UNL     1      -7.269  -7.000  10.779  1.00  0.00     0.293 HD
ENDBRANCH   2  20
BRANCH   6  22
ATOM     22  O   UNL     1      -7.408 -10.433  15.574  1.00  0.00    -0.507 OA
ATOM     23  H   UNL     1      -7.362 -11.377  15.220  1.00  0.00     0.293 HD
ENDBRANCH   6  22
BRANCH   8  24
ATOM     24  O   UNL     1     -11.717  -9.369  17.403  1.00  0.00    -0.508 OA
ATOM     25  H   UNL     1     -12.560  -9.857  17.121  1.00  0.00     0.293 HD
ENDBRANCH   8  24
TORSDOF 5
ENDMDL
MODEL 9
REMARK VINA RESULT:    -6.658      3.901      9.026
REMARK INTER + INTRA:          -8.118
REMARK INTER:                  -7.834
REMARK INTRA:                  -0.285
REMARK UNBOUND:                -0.293
REMARK SMILES O=c1c(O)c(-c2ccc(O)cc2)oc2cc(O)cc(O)c12
REMARK SMILES IDX 5 1 3 2 2 3 1 4 21 5 19 6 18 7 16 8 15 9 14 10 13 11 6 12
REMARK SMILES IDX 7 13 8 14 9 15 12 16 11 17 10 18 4 20 20 22 17 24
REMARK H PARENT 10 19 4 21 20 23 17 25
REMARK Flexibility Score: inf
ROOT
ATOM      1  C   UNL     1      -6.380  -7.912  13.529  1.00  0.00     0.180 A 
ATOM      2  C   UNL     1      -7.197  -7.298  12.563  1.00  0.00     0.208 A 
ATOM      3  C   UNL     1      -8.584  -7.252  12.773  1.00  0.00     0.238 A 
ATOM      4  O   UNL     1      -9.303  -6.653  11.931  1.00  0.00    -0.285 OA
ATOM      5  C   UNL     1      -9.140  -7.835  13.938  1.00  0.00     0.111 A 
ATOM      6  C   UNL     1     -10.536  -7.882  14.233  1.00  0.00     0.134 A 
ATOM      7  C   UNL     1     -10.962  -8.367  15.476  1.00  0.00     0.093 A 
ATOM      8  C   UNL     1     -10.048  -8.867  16.406  1.00  0.00     0.123 A 
ATOM      9  C   UNL     1      -8.688  -8.880  16.102  1.00  0.00     0.094 A 
ATOM     10  C   UNL     1      -8.229  -8.369  14.886  1.00  0.00     0.146 A 
ATOM     11  O   UNL     1      -6.924  -8.390  14.641  1.00  0.00    -0.452 OA
ENDROOT
BRANCH   1  12
ATOM     12  C   UNL     1      -4.912  -8.021  13.366  1.00  0.00     0.021 A 
ATOM     13  C   UNL     1      -4.052  -6.982  13.764  1.00  0.00     0.016 A 
ATOM     14  C   UNL     1      -2.670  -7.099  13.580  1.00  0.00     0.047 A 
ATOM     15  C   UNL     1      -2.134  -8.248  12.983  1.00  0.00     0.115 A 
ATOM     16  C   UNL     1      -4.368  -9.160  12.750  1.00  0.00     0.016 A 
ATOM     17  C   UNL     1      -2.987  -9.274  12.568  1.00  0.00     0.047 A 
BRANCH  15  18
ATOM     18  O   UNL     1      -0.760  -8.375  12.795  1.00  0.00    -0.508 OA
ATOM     19  H   UNL     1      -0.185  -8.911  13.434  1.00  0.00     0.293 HD
ENDBRANCH  15  18
ENDBRANCH   1  12
BRANCH   2  20
ATOM     20  O   UNL     1      -6.626  -6.710  11.431  1.00  0.00    -0.502 OA
ATOM     21  H   UNL     1      -5.862  -6.048  11.489  1.00  0.00     0.293 HD
ENDBRANCH   2  20
BRANCH   6  22
ATOM     22  O   UNL     1     -11.536  -7.495  13.338  1.00  0.00    -0.507 OA
ATOM     23  H   UNL     1     -12.098  -6.661  13.429  1.00  0.00     0.293 HD
ENDBRANCH   6  22
BRANCH   8  24
ATOM     24  O   UNL     1     -10.482  -9.362  17.634  1.00  0.00    -0.508 OA
ATOM     25  H   UNL     1     -10.988 -10.237  17.704  1.00  0.00     0.293 HD
ENDBRANCH   8  24
TORSDOF 5
ENDMDL
