MODEL 1
REMARK VINA RESULT:    -4.065      0.000      0.000
REMARK INTER + INTRA:         -12.877
REMARK INTER:                  -9.293
REMARK INTRA:                  -3.585
REMARK UNBOUND:                -3.585
REMARK SMILES CCCCCCCCCCCCCCCCCCCCCCCC(=O)[O-]
REMARK SMILES IDX 13 1 14 2 15 3 16 4 17 5 18 6 19 7 20 8 21 9 22 10 23 11
REMARK SMILES IDX 24 12 25 13 26 14 12 15 11 16 10 17 9 18 8 19 7 20 6 21 5 22
REMARK SMILES IDX 4 23 3 24 2 25 1 26
REMARK H PARENT
REMARK Flexibility Score: inf
ROOT
ATOM      1  C   UNL     1      22.363  13.548 -18.716  1.00  0.00     0.000 C 
ENDROOT
BRANCH   1   2
ATOM      2  C   UNL     1      22.450  14.120 -17.284  1.00  0.00     0.000 C 
BRANCH   2   3
ATOM      3  C   UNL     1      21.286  13.691 -16.372  1.00  0.00     0.000 C 
BRANCH   3   4
ATOM      4  C   UNL     1      20.254  14.794 -16.088  1.00  0.00     0.000 C 
BRANCH   4   5
ATOM      5  C   UNL     1      20.700  16.173 -16.606  1.00  0.00     0.000 C 
BRANCH   5   6
ATOM      6  C   UNL     1      19.996  16.563 -17.916  1.00  0.00     0.000 C 
BRANCH   6   7
ATOM      7  C   UNL     1      20.965  17.161 -18.952  1.00  0.00     0.000 C 
BRANCH   7   8
ATOM      8  C   UNL     1      20.823  16.505 -20.335  1.00  0.00     0.000 C 
BRANCH   8   9
ATOM      9  C   UNL     1      19.417  16.693 -20.934  1.00  0.00     0.000 C 
BRANCH   9  10
ATOM     10  C   UNL     1      19.172  18.117 -21.463  1.00  0.00     0.006 C 
BRANCH  10  11
ATOM     11  C   UNL     1      17.714  18.589 -21.324  1.00  0.00     0.053 C 
BRANCH  11  12
ATOM     12  C   UNL     1      16.805  17.960 -22.335  1.00  0.00     0.041 C 
ATOM     13  O   UNL     1      15.655  17.571 -22.002  1.00  0.00    -0.550 OA
ATOM     14  O   UNL     1      17.240  17.776 -23.642  1.00  0.00    -0.550 OA
ENDBRANCH  11  12
ENDBRANCH  10  11
ENDBRANCH   9  10
ENDBRANCH   8   9
ENDBRANCH   7   8
ENDBRANCH   6   7
ENDBRANCH   5   6
ENDBRANCH   4   5
ENDBRANCH   3   4
ENDBRANCH   2   3
ENDBRANCH   1   2
BRANCH   1  15
ATOM     15  C   UNL     1      21.259  12.488 -18.856  1.00  0.00     0.000 C 
BRANCH  15  16
ATOM     16  C   UNL     1      20.208  12.851 -19.919  1.00  0.00     0.000 C 
BRANCH  16  17
ATOM     17  C   UNL     1      18.915  13.453 -19.333  1.00  0.00     0.000 C 
BRANCH  17  18
ATOM     18  C   UNL     1      17.697  12.540 -19.557  1.00  0.00    -0.000 C 
BRANCH  18  19
ATOM     19  C   UNL     1      17.609  11.409 -18.520  1.00  0.00    -0.000 C 
BRANCH  19  20
ATOM     20  C   UNL     1      17.859  11.905 -17.085  1.00  0.00    -0.000 C 
BRANCH  20  21
ATOM     21  C   UNL     1      18.893  11.050 -16.331  1.00  0.00    -0.000 C 
BRANCH  21  22
ATOM     22  C   UNL     1      19.420   9.828 -17.113  1.00  0.00    -0.000 C 
BRANCH  22  23
ATOM     23  C   UNL     1      19.526   8.527 -16.296  1.00  0.00    -0.000 C 
BRANCH  23  24
ATOM     24  C   UNL     1      19.629   7.239 -17.136  1.00  0.00    -0.000 C 
BRANCH  24  25
ATOM     25  C   UNL     1      18.383   6.958 -18.002  1.00  0.00    -0.003 C 
ATOM     26  C   UNL     1      17.801   5.563 -17.766  1.00  0.00     0.004 C 
ENDBRANCH  24  25
ENDBRANCH  23  24
ENDBRANCH  22  23
ENDBRANCH  21  22
ENDBRANCH  20  21
ENDBRANCH  19  20
ENDBRANCH  18  19
ENDBRANCH  17  18
ENDBRANCH  16  17
ENDBRANCH  15  16
ENDBRANCH   1  15
TORSDOF 22
ENDMDL
MODEL 2
REMARK VINA RESULT:    -3.863      1.511      3.629
REMARK INTER + INTRA:         -12.417
REMARK INTER:                  -8.708
REMARK INTRA:                  -3.709
REMARK UNBOUND:                -3.585
REMARK SMILES CCCCCCCCCCCCCCCCCCCCCCCC(=O)[O-]
REMARK SMILES IDX 13 1 14 2 15 3 16 4 17 5 18 6 19 7 20 8 21 9 22 10 23 11
REMARK SMILES IDX 24 12 25 13 26 14 12 15 11 16 10 17 9 18 8 19 7 20 6 21 5 22
REMARK SMILES IDX 4 23 3 24 2 25 1 26
REMARK H PARENT
REMARK Flexibility Score: inf
ROOT
ATOM      1  C   UNL     1      20.211  16.820 -17.983  1.00  0.00     0.000 C 
ENDROOT
BRANCH   1   2
ATOM      2  C   UNL     1      19.827  16.826 -19.478  1.00  0.00     0.000 C 
BRANCH   2   3
ATOM      3  C   UNL     1      19.685  15.419 -20.089  1.00  0.00     0.000 C 
BRANCH   3   4
ATOM      4  C   UNL     1      20.811  15.025 -21.058  1.00  0.00     0.000 C 
BRANCH   4   5
ATOM      5  C   UNL     1      21.729  16.207 -21.416  1.00  0.00     0.000 C 
BRANCH   5   6
ATOM      6  C   UNL     1      21.656  16.577 -22.906  1.00  0.00     0.000 C 
BRANCH   6   7
ATOM      7  C   UNL     1      21.712  18.097 -23.141  1.00  0.00     0.000 C 
BRANCH   7   8
ATOM      8  C   UNL     1      20.366  18.669 -23.611  1.00  0.00     0.000 C 
BRANCH   8   9
ATOM      9  C   UNL     1      19.394  18.923 -22.444  1.00  0.00     0.000 C 
BRANCH   9  10
ATOM     10  C   UNL     1      18.124  18.058 -22.518  1.00  0.00     0.006 C 
BRANCH  10  11
ATOM     11  C   UNL     1      17.001  18.521 -21.572  1.00  0.00     0.053 C 
BRANCH  11  12
ATOM     12  C   UNL     1      15.637  18.173 -22.084  1.00  0.00     0.041 C 
ATOM     13  O   UNL     1      14.892  19.065 -22.567  1.00  0.00    -0.550 OA
ATOM     14  O   UNL     1      15.174  16.865 -21.999  1.00  0.00    -0.550 OA
ENDBRANCH  11  12
ENDBRANCH  10  11
ENDBRANCH   9  10
ENDBRANCH   8   9
ENDBRANCH   7   8
ENDBRANCH   6   7
ENDBRANCH   5   6
ENDBRANCH   4   5
ENDBRANCH   3   4
ENDBRANCH   2   3
ENDBRANCH   1   2
BRANCH   1  15
ATOM     15  C   UNL     1      21.731  16.737 -17.770  1.00  0.00     0.000 C 
BRANCH  15  16
ATOM     16  C   UNL     1      22.152  15.533 -16.909  1.00  0.00     0.000 C 
BRANCH  16  17
ATOM     17  C   UNL     1      22.436  14.256 -17.726  1.00  0.00     0.000 C 
BRANCH  17  18
ATOM     18  C   UNL     1      21.284  13.240 -17.635  1.00  0.00    -0.000 C 
BRANCH  18  19
ATOM     19  C   UNL     1      20.767  13.062 -16.198  1.00  0.00    -0.000 C 
BRANCH  19  20
ATOM     20  C   UNL     1      19.327  13.574 -16.024  1.00  0.00    -0.000 C 
BRANCH  20  21
ATOM     21  C   UNL     1      18.471  13.385 -17.290  1.00  0.00    -0.000 C 
BRANCH  21  22
ATOM     22  C   UNL     1      17.736  12.031 -17.381  1.00  0.00    -0.000 C 
BRANCH  22  23
ATOM     23  C   UNL     1      18.124  11.158 -18.589  1.00  0.00    -0.000 C 
BRANCH  23  24
ATOM     24  C   UNL     1      19.227  10.118 -18.312  1.00  0.00    -0.000 C 
BRANCH  24  25
ATOM     25  C   UNL     1      19.328   9.696 -16.831  1.00  0.00    -0.003 C 
ATOM     26  C   UNL     1      18.996   8.219 -16.614  1.00  0.00     0.004 C 
ENDBRANCH  24  25
ENDBRANCH  23  24
ENDBRANCH  22  23
ENDBRANCH  21  22
ENDBRANCH  20  21
ENDBRANCH  19  20
ENDBRANCH  18  19
ENDBRANCH  17  18
ENDBRANCH  16  17
ENDBRANCH  15  16
ENDBRANCH   1  15
TORSDOF 22
ENDMDL
MODEL 3
REMARK VINA RESULT:    -3.855      3.513      7.186
REMARK INTER + INTRA:         -12.398
REMARK INTER:                  -7.916
REMARK INTRA:                  -4.482
REMARK UNBOUND:                -3.585
REMARK SMILES CCCCCCCCCCCCCCCCCCCCCCCC(=O)[O-]
REMARK SMILES IDX 13 1 14 2 15 3 16 4 17 5 18 6 19 7 20 8 21 9 22 10 23 11
REMARK SMILES IDX 24 12 25 13 26 14 12 15 11 16 10 17 9 18 8 19 7 20 6 21 5 22
REMARK SMILES IDX 4 23 3 24 2 25 1 26
REMARK H PARENT
REMARK Flexibility Score: inf
ROOT
ATOM      1  C   UNL     1      21.720  15.191 -21.353  1.00  0.00     0.000 C 
ENDROOT
BRANCH   1   2
ATOM      2  C   UNL     1      20.184  15.024 -21.357  1.00  0.00     0.000 C 
BRANCH   2   3
ATOM      3  C   UNL     1      19.704  13.685 -20.767  1.00  0.00     0.000 C 
BRANCH   3   4
ATOM      4  C   UNL     1      19.079  13.790 -19.366  1.00  0.00     0.000 C 
BRANCH   4   5
ATOM      5  C   UNL     1      18.020  12.704 -19.105  1.00  0.00     0.000 C 
BRANCH   5   6
ATOM      6  C   UNL     1      18.026  12.217 -17.647  1.00  0.00     0.000 C 
BRANCH   6   7
ATOM      7  C   UNL     1      18.188  10.691 -17.534  1.00  0.00     0.000 C 
BRANCH   7   8
ATOM      8  C   UNL     1      19.307  10.290 -16.560  1.00  0.00     0.000 C 
BRANCH   8   9
ATOM      9  C   UNL     1      19.295   8.785 -16.237  1.00  0.00     0.000 C 
BRANCH   9  10
ATOM     10  C   UNL     1      20.333   7.987 -17.046  1.00  0.00     0.006 C 
BRANCH  10  11
ATOM     11  C   UNL     1      19.871   6.567 -17.418  1.00  0.00     0.053 C 
BRANCH  11  12
ATOM     12  C   UNL     1      18.512   6.548 -18.047  1.00  0.00     0.041 C 
ATOM     13  O   UNL     1      18.215   7.378 -18.946  1.00  0.00    -0.550 OA
ATOM     14  O   UNL     1      17.559   5.631 -17.619  1.00  0.00    -0.550 OA
ENDBRANCH  11  12
ENDBRANCH  10  11
ENDBRANCH   9  10
ENDBRANCH   8   9
ENDBRANCH   7   8
ENDBRANCH   6   7
ENDBRANCH   5   6
ENDBRANCH   4   5
ENDBRANCH   3   4
ENDBRANCH   2   3
ENDBRANCH   1   2
BRANCH   1  15
ATOM     15  C   UNL     1      22.197  16.184 -20.281  1.00  0.00     0.000 C 
BRANCH  15  16
ATOM     16  C   UNL     1      21.039  16.924 -19.589  1.00  0.00     0.000 C 
BRANCH  16  17
ATOM     17  C   UNL     1      21.326  17.288 -18.118  1.00  0.00     0.000 C 
BRANCH  17  18
ATOM     18  C   UNL     1      20.368  16.578 -17.146  1.00  0.00    -0.000 C 
BRANCH  18  19
ATOM     19  C   UNL     1      21.111  15.724 -16.106  1.00  0.00    -0.000 C 
BRANCH  19  20
ATOM     20  C   UNL     1      20.521  14.309 -15.977  1.00  0.00    -0.000 C 
BRANCH  20  21
ATOM     21  C   UNL     1      21.461  13.220 -16.526  1.00  0.00    -0.000 C 
BRANCH  21  22
ATOM     22  C   UNL     1      22.449  13.701 -17.610  1.00  0.00    -0.000 C 
BRANCH  22  23
ATOM     23  C   UNL     1      22.806  12.651 -18.678  1.00  0.00    -0.000 C 
BRANCH  23  24
ATOM     24  C   UNL     1      21.896  11.408 -18.697  1.00  0.00    -0.000 C 
BRANCH  24  25
ATOM     25  C   UNL     1      21.746  10.767 -20.093  1.00  0.00    -0.003 C 
ATOM     26  C   UNL     1      20.505   9.881 -20.207  1.00  0.00     0.004 C 
ENDBRANCH  24  25
ENDBRANCH  23  24
ENDBRANCH  22  23
ENDBRANCH  21  22
ENDBRANCH  20  21
ENDBRANCH  19  20
ENDBRANCH  18  19
ENDBRANCH  17  18
ENDBRANCH  16  17
ENDBRANCH  15  16
ENDBRANCH   1  15
TORSDOF 22
ENDMDL
MODEL 4
REMARK VINA RESULT:    -3.829      4.032      8.072
REMARK INTER + INTRA:         -12.339
REMARK INTER:                  -7.891
REMARK INTRA:                  -4.448
REMARK UNBOUND:                -3.585
REMARK SMILES CCCCCCCCCCCCCCCCCCCCCCCC(=O)[O-]
REMARK SMILES IDX 13 1 14 2 15 3 16 4 17 5 18 6 19 7 20 8 21 9 22 10 23 11
REMARK SMILES IDX 24 12 25 13 26 14 12 15 11 16 10 17 9 18 8 19 7 20 6 21 5 22
REMARK SMILES IDX 4 23 3 24 2 25 1 26
REMARK H PARENT
REMARK Flexibility Score: inf
ROOT
ATOM      1  C   UNL     1      21.026  11.556 -21.364  1.00  0.00     0.000 C 
ENDROOT
BRANCH   1   2
ATOM      2  C   UNL     1      19.489  11.687 -21.428  1.00  0.00     0.000 C 
BRANCH   2   3
ATOM      3  C   UNL     1      18.744  10.739 -20.470  1.00  0.00     0.000 C 
BRANCH   3   4
ATOM      4  C   UNL     1      17.638  11.408 -19.637  1.00  0.00     0.000 C 
BRANCH   4   5
ATOM      5  C   UNL     1      18.054  12.787 -19.095  1.00  0.00     0.000 C 
BRANCH   5   6
ATOM      6  C   UNL     1      17.941  12.875 -17.565  1.00  0.00     0.000 C 
BRANCH   6   7
ATOM      7  C   UNL     1      17.927  11.491 -16.892  1.00  0.00     0.000 C 
BRANCH   7   8
ATOM      8  C   UNL     1      19.312  11.079 -16.369  1.00  0.00     0.000 C 
BRANCH   8   9
ATOM      9  C   UNL     1      19.826   9.783 -17.022  1.00  0.00     0.000 C 
BRANCH   9  10
ATOM     10  C   UNL     1      19.202   8.514 -16.415  1.00  0.00     0.006 C 
BRANCH  10  11
ATOM     11  C   UNL     1      18.756   7.479 -17.463  1.00  0.00     0.053 C 
BRANCH  11  12
ATOM     12  C   UNL     1      19.554   6.213 -17.400  1.00  0.00     0.041 C 
ATOM     13  O   UNL     1      18.991   5.118 -17.136  1.00  0.00    -0.550 OA
ATOM     14  O   UNL     1      20.928   6.246 -17.603  1.00  0.00    -0.550 OA
ENDBRANCH  11  12
ENDBRANCH  10  11
ENDBRANCH   9  10
ENDBRANCH   8   9
ENDBRANCH   7   8
ENDBRANCH   6   7
ENDBRANCH   5   6
ENDBRANCH   4   5
ENDBRANCH   3   4
ENDBRANCH   2   3
ENDBRANCH   1   2
BRANCH   1  15
ATOM     15  C   UNL     1      21.493  10.728 -20.155  1.00  0.00     0.000 C 
BRANCH  15  16
ATOM     16  C   UNL     1      22.357  11.534 -19.172  1.00  0.00     0.000 C 
BRANCH  16  17
ATOM     17  C   UNL     1      21.632  12.752 -18.563  1.00  0.00     0.000 C 
BRANCH  17  18
ATOM     18  C   UNL     1      22.273  13.208 -17.241  1.00  0.00    -0.000 C 
BRANCH  18  19
ATOM     19  C   UNL     1      21.339  14.105 -16.411  1.00  0.00    -0.000 C 
BRANCH  19  20
ATOM     20  C   UNL     1      21.782  15.577 -16.413  1.00  0.00    -0.000 C 
BRANCH  20  21
ATOM     21  C   UNL     1      20.641  16.542 -16.788  1.00  0.00    -0.000 C 
BRANCH  21  22
ATOM     22  C   UNL     1      19.780  16.094 -17.987  1.00  0.00    -0.000 C 
BRANCH  22  23
ATOM     23  C   UNL     1      20.153  16.739 -19.335  1.00  0.00    -0.000 C 
BRANCH  23  24
ATOM     24  C   UNL     1      20.687  15.760 -20.398  1.00  0.00    -0.000 C 
BRANCH  24  25
ATOM     25  C   UNL     1      22.220  15.583 -20.367  1.00  0.00    -0.003 C 
ATOM     26  C   UNL     1      22.942  16.782 -19.751  1.00  0.00     0.004 C 
ENDBRANCH  24  25
ENDBRANCH  23  24
ENDBRANCH  22  23
ENDBRANCH  21  22
ENDBRANCH  20  21
ENDBRANCH  19  20
ENDBRANCH  18  19
ENDBRANCH  17  18
ENDBRANCH  16  17
ENDBRANCH  15  16
ENDBRANCH   1  15
TORSDOF 22
ENDMDL
MODEL 5
REMARK VINA RESULT:    -3.812      3.857      8.634
REMARK INTER + INTRA:         -12.299
REMARK INTER:                  -8.526
REMARK INTRA:                  -3.773
REMARK UNBOUND:                -3.585
REMARK SMILES CCCCCCCCCCCCCCCCCCCCCCCC(=O)[O-]
REMARK SMILES IDX 13 1 14 2 15 3 16 4 17 5 18 6 19 7 20 8 21 9 22 10 23 11
REMARK SMILES IDX 24 12 25 13 26 14 12 15 11 16 10 17 9 18 8 19 7 20 6 21 5 22
REMARK SMILES IDX 4 23 3 24 2 25 1 26
REMARK H PARENT
REMARK Flexibility Score: inf
ROOT
ATOM      1  C   UNL     1      19.651  12.644 -19.990  1.00  0.00     0.000 C 
ENDROOT
BRANCH   1   2
ATOM      2  C   UNL     1      18.501  13.138 -19.086  1.00  0.00     0.000 C 
BRANCH   2   3
ATOM      3  C   UNL     1      17.663  12.002 -18.470  1.00  0.00     0.000 C 
BRANCH   3   4
ATOM      4  C   UNL     1      17.693  11.943 -16.935  1.00  0.00     0.000 C 
BRANCH   4   5
ATOM      5  C   UNL     1      18.598  10.819 -16.400  1.00  0.00     0.000 C 
BRANCH   5   6
ATOM      6  C   UNL     1      18.857   9.726 -17.449  1.00  0.00     0.000 C 
BRANCH   6   7
ATOM      7  C   UNL     1      19.956   8.738 -17.016  1.00  0.00     0.000 C 
BRANCH   7   8
ATOM      8  C   UNL     1      20.928   8.404 -18.158  1.00  0.00     0.000 C 
BRANCH   8   9
ATOM      9  C   UNL     1      21.231   6.897 -18.251  1.00  0.00     0.000 C 
BRANCH   9  10
ATOM     10  C   UNL     1      20.427   6.057 -17.243  1.00  0.00     0.006 C 
BRANCH  10  11
ATOM     11  C   UNL     1      19.663   4.884 -17.882  1.00  0.00     0.053 C 
BRANCH  11  12
ATOM     12  C   UNL     1      18.176   5.046 -17.791  1.00  0.00     0.041 C 
ATOM     13  O   UNL     1      17.675   6.153 -17.461  1.00  0.00    -0.550 OA
ATOM     14  O   UNL     1      17.342   3.963 -18.041  1.00  0.00    -0.550 OA
ENDBRANCH  11  12
ENDBRANCH  10  11
ENDBRANCH   9  10
ENDBRANCH   8   9
ENDBRANCH   7   8
ENDBRANCH   6   7
ENDBRANCH   5   6
ENDBRANCH   4   5
ENDBRANCH   3   4
ENDBRANCH   2   3
ENDBRANCH   1   2
BRANCH   1  15
ATOM     15  C   UNL     1      21.023  13.158 -19.525  1.00  0.00     0.000 C 
BRANCH  15  16
ATOM     16  C   UNL     1      21.641  12.298 -18.410  1.00  0.00     0.000 C 
BRANCH  16  17
ATOM     17  C   UNL     1      22.118  13.112 -17.190  1.00  0.00     0.000 C 
BRANCH  17  18
ATOM     18  C   UNL     1      21.039  13.208 -16.098  1.00  0.00    -0.000 C 
BRANCH  18  19
ATOM     19  C   UNL     1      20.500  14.638 -15.926  1.00  0.00    -0.000 C 
BRANCH  19  20
ATOM     20  C   UNL     1      21.474  15.702 -16.461  1.00  0.00    -0.000 C 
BRANCH  20  21
ATOM     21  C   UNL     1      20.751  16.899 -17.107  1.00  0.00    -0.000 C 
BRANCH  21  22
ATOM     22  C   UNL     1      19.789  16.534 -18.257  1.00  0.00    -0.000 C 
BRANCH  22  23
ATOM     23  C   UNL     1      20.296  16.887 -19.667  1.00  0.00    -0.000 C 
BRANCH  23  24
ATOM     24  C   UNL     1      19.243  16.766 -20.785  1.00  0.00    -0.000 C 
BRANCH  24  25
ATOM     25  C   UNL     1      19.721  15.951 -22.006  1.00  0.00    -0.003 C 
ATOM     26  C   UNL     1      21.245  15.875 -22.106  1.00  0.00     0.004 C 
ENDBRANCH  24  25
ENDBRANCH  23  24
ENDBRANCH  22  23
ENDBRANCH  21  22
ENDBRANCH  20  21
ENDBRANCH  19  20
ENDBRANCH  18  19
ENDBRANCH  17  18
ENDBRANCH  16  17
ENDBRANCH  15  16
ENDBRANCH   1  15
TORSDOF 22
ENDMDL
MODEL 6
REMARK VINA RESULT:    -3.799      1.874      3.410
REMARK INTER + INTRA:         -12.270
REMARK INTER:                  -8.907
REMARK INTRA:                  -3.364
REMARK UNBOUND:                -3.585
REMARK SMILES CCCCCCCCCCCCCCCCCCCCCCCC(=O)[O-]
REMARK SMILES IDX 13 1 14 2 15 3 16 4 17 5 18 6 19 7 20 8 21 9 22 10 23 11
REMARK SMILES IDX 24 12 25 13 26 14 12 15 11 16 10 17 9 18 8 19 7 20 6 21 5 22
REMARK SMILES IDX 4 23 3 24 2 25 1 26
REMARK H PARENT
REMARK Flexibility Score: inf
ROOT
ATOM      1  C   UNL     1      20.055  13.153 -19.169  1.00  0.00     0.000 C 
ENDROOT
BRANCH   1   2
ATOM      2  C   UNL     1      21.496  12.767 -18.771  1.00  0.00     0.000 C 
BRANCH   2   3
ATOM      3  C   UNL     1      22.040  13.556 -17.565  1.00  0.00     0.000 C 
BRANCH   3   4
ATOM      4  C   UNL     1      21.272  13.330 -16.252  1.00  0.00     0.000 C 
BRANCH   4   5
ATOM      5  C   UNL     1      20.356  14.512 -15.889  1.00  0.00     0.000 C 
BRANCH   5   6
ATOM      6  C   UNL     1      21.032  15.873 -16.123  1.00  0.00     0.000 C 
BRANCH   6   7
ATOM      7  C   UNL     1      20.382  16.668 -17.269  1.00  0.00     0.000 C 
BRANCH   7   8
ATOM      8  C   UNL     1      21.404  17.119 -18.324  1.00  0.00     0.000 C 
BRANCH   8   9
ATOM      9  C   UNL     1      20.965  16.767 -19.757  1.00  0.00     0.000 C 
BRANCH   9  10
ATOM     10  C   UNL     1      19.454  16.940 -19.985  1.00  0.00     0.006 C 
BRANCH  10  11
ATOM     11  C   UNL     1      19.104  17.738 -21.254  1.00  0.00     0.053 C 
BRANCH  11  12
ATOM     12  C   UNL     1      17.638  17.717 -21.563  1.00  0.00     0.041 C 
ATOM     13  O   UNL     1      17.102  16.681 -22.036  1.00  0.00    -0.550 OA
ATOM     14  O   UNL     1      16.868  18.855 -21.355  1.00  0.00    -0.550 OA
ENDBRANCH  11  12
ENDBRANCH  10  11
ENDBRANCH   9  10
ENDBRANCH   8   9
ENDBRANCH   7   8
ENDBRANCH   6   7
ENDBRANCH   5   6
ENDBRANCH   4   5
ENDBRANCH   3   4
ENDBRANCH   2   3
ENDBRANCH   1   2
BRANCH   1  15
ATOM     15  C   UNL     1      19.065  11.992 -18.979  1.00  0.00     0.000 C 
BRANCH  15  16
ATOM     16  C   UNL     1      18.030  12.260 -17.874  1.00  0.00     0.000 C 
BRANCH  16  17
ATOM     17  C   UNL     1      18.118  11.275 -16.690  1.00  0.00     0.000 C 
BRANCH  17  18
ATOM     18  C   UNL     1      19.362  10.374 -16.775  1.00  0.00    -0.000 C 
BRANCH  18  19
ATOM     19  C   UNL     1      19.077   8.932 -16.323  1.00  0.00    -0.000 C 
BRANCH  19  20
ATOM     20  C   UNL     1      19.726   7.887 -17.247  1.00  0.00    -0.000 C 
BRANCH  20  21
ATOM     21  C   UNL     1      19.696   8.304 -18.729  1.00  0.00    -0.000 C 
BRANCH  21  22
ATOM     22  C   UNL     1      21.037   8.145 -19.475  1.00  0.00    -0.000 C 
BRANCH  22  23
ATOM     23  C   UNL     1      22.289   8.175 -18.579  1.00  0.00    -0.000 C 
BRANCH  23  24
ATOM     24  C   UNL     1      22.954   9.558 -18.437  1.00  0.00    -0.000 C 
BRANCH  24  25
ATOM     25  C   UNL     1      24.495   9.506 -18.385  1.00  0.00    -0.003 C 
ATOM     26  C   UNL     1      25.068  10.180 -17.138  1.00  0.00     0.004 C 
ENDBRANCH  24  25
ENDBRANCH  23  24
ENDBRANCH  22  23
ENDBRANCH  21  22
ENDBRANCH  20  21
ENDBRANCH  19  20
ENDBRANCH  18  19
ENDBRANCH  17  18
ENDBRANCH  16  17
ENDBRANCH  15  16
ENDBRANCH   1  15
TORSDOF 22
ENDMDL
MODEL 7
REMARK VINA RESULT:    -3.789      3.679      5.561
REMARK INTER + INTRA:         -12.246
REMARK INTER:                  -8.165
REMARK INTRA:                  -4.081
REMARK UNBOUND:                -3.585
REMARK SMILES CCCCCCCCCCCCCCCCCCCCCCCC(=O)[O-]
REMARK SMILES IDX 13 1 14 2 15 3 16 4 17 5 18 6 19 7 20 8 21 9 22 10 23 11
REMARK SMILES IDX 24 12 25 13 26 14 12 15 11 16 10 17 9 18 8 19 7 20 6 21 5 22
REMARK SMILES IDX 4 23 3 24 2 25 1 26
REMARK H PARENT
REMARK Flexibility Score: inf
ROOT
ATOM      1  C   UNL     1      20.753  14.419 -20.327  1.00  0.00     0.000 C 
ENDROOT
BRANCH   1   2
ATOM      2  C   UNL     1      21.094  15.769 -19.658  1.00  0.00     0.000 C 
BRANCH   2   3
ATOM      3  C   UNL     1      19.886  16.456 -18.995  1.00  0.00     0.000 C 
BRANCH   3   4
ATOM      4  C   UNL     1      19.957  16.540 -17.462  1.00  0.00     0.000 C 
BRANCH   4   5
ATOM      5  C   UNL     1      21.148  15.758 -16.879  1.00  0.00     0.000 C 
BRANCH   5   6
ATOM      6  C   UNL     1      20.703  14.540 -16.055  1.00  0.00     0.000 C 
BRANCH   6   7
ATOM      7  C   UNL     1      21.437  13.250 -16.462  1.00  0.00     0.000 C 
BRANCH   7   8
ATOM      8  C   UNL     1      22.637  13.523 -17.382  1.00  0.00     0.000 C 
BRANCH   8   9
ATOM      9  C   UNL     1      23.297  12.228 -17.890  1.00  0.00     0.000 C 
BRANCH   9  10
ATOM     10  C   UNL     1      22.334  11.334 -18.690  1.00  0.00     0.006 C 
BRANCH  10  11
ATOM     11  C   UNL     1      22.645   9.831 -18.578  1.00  0.00     0.053 C 
BRANCH  11  12
ATOM     12  C   UNL     1      24.091   9.522 -18.821  1.00  0.00     0.041 C 
ATOM     13  O   UNL     1      24.803   9.046 -17.899  1.00  0.00    -0.550 OA
ATOM     14  O   UNL     1      24.661   9.788 -20.060  1.00  0.00    -0.550 OA
ENDBRANCH  11  12
ENDBRANCH  10  11
ENDBRANCH   9  10
ENDBRANCH   8   9
ENDBRANCH   7   8
ENDBRANCH   6   7
ENDBRANCH   5   6
ENDBRANCH   4   5
ENDBRANCH   3   4
ENDBRANCH   2   3
ENDBRANCH   1   2
BRANCH   1  15
ATOM     15  C   UNL     1      19.278  14.031 -20.141  1.00  0.00     0.000 C 
BRANCH  15  16
ATOM     16  C   UNL     1      19.087  12.832 -19.195  1.00  0.00     0.000 C 
BRANCH  16  17
ATOM     17  C   UNL     1      18.003  13.056 -18.121  1.00  0.00     0.000 C 
BRANCH  17  18
ATOM     18  C   UNL     1      17.708  11.778 -17.318  1.00  0.00    -0.000 C 
BRANCH  18  19
ATOM     19  C   UNL     1      18.603  10.599 -17.736  1.00  0.00    -0.000 C 
BRANCH  19  20
ATOM     20  C   UNL     1      19.521  10.125 -16.597  1.00  0.00    -0.000 C 
BRANCH  20  21
ATOM     21  C   UNL     1      19.299   8.646 -16.230  1.00  0.00    -0.000 C 
BRANCH  21  22
ATOM     22  C   UNL     1      20.165   7.644 -17.021  1.00  0.00    -0.000 C 
BRANCH  22  23
ATOM     23  C   UNL     1      19.473   6.311 -17.364  1.00  0.00    -0.000 C 
BRANCH  23  24
ATOM     24  C   UNL     1      18.013   6.442 -17.841  1.00  0.00    -0.000 C 
BRANCH  24  25
ATOM     25  C   UNL     1      17.873   7.039 -19.258  1.00  0.00    -0.003 C 
ATOM     26  C   UNL     1      18.853   6.425 -20.258  1.00  0.00     0.004 C 
ENDBRANCH  24  25
ENDBRANCH  23  24
ENDBRANCH  22  23
ENDBRANCH  21  22
ENDBRANCH  20  21
ENDBRANCH  19  20
ENDBRANCH  18  19
ENDBRANCH  17  18
ENDBRANCH  16  17
ENDBRANCH  15  16
ENDBRANCH   1  15
TORSDOF 22
ENDMDL
MODEL 8
REMARK VINA RESULT:    -3.781      3.168      4.969
REMARK INTER + INTRA:         -12.228
REMARK INTER:                  -7.801
REMARK INTRA:                  -4.427
REMARK UNBOUND:                -3.585
REMARK SMILES CCCCCCCCCCCCCCCCCCCCCCCC(=O)[O-]
REMARK SMILES IDX 13 1 14 2 15 3 16 4 17 5 18 6 19 7 20 8 21 9 22 10 23 11
REMARK SMILES IDX 24 12 25 13 26 14 12 15 11 16 10 17 9 18 8 19 7 20 6 21 5 22
REMARK SMILES IDX 4 23 3 24 2 25 1 26
REMARK H PARENT
REMARK Flexibility Score: inf
ROOT
ATOM      1  C   UNL     1      20.367  13.405 -20.632  1.00  0.00     0.000 C 
ENDROOT
BRANCH   1   2
ATOM      2  C   UNL     1      19.729  14.802 -20.476  1.00  0.00     0.000 C 
BRANCH   2   3
ATOM      3  C   UNL     1      20.751  15.929 -20.237  1.00  0.00     0.000 C 
BRANCH   3   4
ATOM      4  C   UNL     1      20.317  16.979 -19.201  1.00  0.00     0.000 C 
BRANCH   4   5
ATOM      5  C   UNL     1      19.735  16.348 -17.924  1.00  0.00     0.000 C 
BRANCH   5   6
ATOM      6  C   UNL     1      20.679  16.484 -16.719  1.00  0.00     0.000 C 
BRANCH   6   7
ATOM      7  C   UNL     1      20.931  15.142 -16.009  1.00  0.00     0.000 C 
BRANCH   7   8
ATOM      8  C   UNL     1      21.420  14.050 -16.974  1.00  0.00     0.000 C 
BRANCH   8   9
ATOM      9  C   UNL     1      22.797  14.375 -17.580  1.00  0.00     0.000 C 
BRANCH   9  10
ATOM     10  C   UNL     1      23.458  13.161 -18.258  1.00  0.00     0.006 C 
BRANCH  10  11
ATOM     11  C   UNL     1      22.726  11.832 -18.004  1.00  0.00     0.053 C 
BRANCH  11  12
ATOM     12  C   UNL     1      23.130  10.758 -18.966  1.00  0.00     0.041 C 
ATOM     13  O   UNL     1      23.078  10.963 -20.208  1.00  0.00    -0.550 OA
ATOM     14  O   UNL     1      23.537   9.516 -18.492  1.00  0.00    -0.550 OA
ENDBRANCH  11  12
ENDBRANCH  10  11
ENDBRANCH   9  10
ENDBRANCH   8   9
ENDBRANCH   7   8
ENDBRANCH   6   7
ENDBRANCH   5   6
ENDBRANCH   4   5
ENDBRANCH   3   4
ENDBRANCH   2   3
ENDBRANCH   1   2
BRANCH   1  15
ATOM     15  C   UNL     1      19.587  12.317 -19.877  1.00  0.00     0.000 C 
BRANCH  15  16
ATOM     16  C   UNL     1      18.062  12.501 -19.966  1.00  0.00     0.000 C 
BRANCH  16  17
ATOM     17  C   UNL     1      17.334  12.308 -18.620  1.00  0.00     0.000 C 
BRANCH  17  18
ATOM     18  C   UNL     1      18.044  13.036 -17.466  1.00  0.00    -0.000 C 
BRANCH  18  19
ATOM     19  C   UNL     1      18.458  12.082 -16.333  1.00  0.00    -0.000 C 
BRANCH  19  20
ATOM     20  C   UNL     1      18.326  10.603 -16.733  1.00  0.00    -0.000 C 
BRANCH  20  21
ATOM     21  C   UNL     1      19.687   9.890 -16.834  1.00  0.00    -0.000 C 
BRANCH  21  22
ATOM     22  C   UNL     1      19.899   9.076 -18.127  1.00  0.00    -0.000 C 
BRANCH  22  23
ATOM     23  C   UNL     1      18.607   8.632 -18.838  1.00  0.00    -0.000 C 
BRANCH  23  24
ATOM     24  C   UNL     1      18.459   7.109 -19.024  1.00  0.00    -0.000 C 
BRANCH  24  25
ATOM     25  C   UNL     1      17.995   6.368 -17.752  1.00  0.00    -0.003 C 
ATOM     26  C   UNL     1      18.864   5.152 -17.426  1.00  0.00     0.004 C 
ENDBRANCH  24  25
ENDBRANCH  23  24
ENDBRANCH  22  23
ENDBRANCH  21  22
ENDBRANCH  20  21
ENDBRANCH  19  20
ENDBRANCH  18  19
ENDBRANCH  17  18
ENDBRANCH  16  17
ENDBRANCH  15  16
ENDBRANCH   1  15
TORSDOF 22
ENDMDL
MODEL 9
REMARK VINA RESULT:    -3.737      1.868      3.991
REMARK INTER + INTRA:         -12.127
REMARK INTER:                  -7.830
REMARK INTRA:                  -4.297
REMARK UNBOUND:                -3.585
REMARK SMILES CCCCCCCCCCCCCCCCCCCCCCCC(=O)[O-]
REMARK SMILES IDX 13 1 14 2 15 3 16 4 17 5 18 6 19 7 20 8 21 9 22 10 23 11
REMARK SMILES IDX 24 12 25 13 26 14 12 15 11 16 10 17 9 18 8 19 7 20 6 21 5 22
REMARK SMILES IDX 4 23 3 24 2 25 1 26
REMARK H PARENT
REMARK Flexibility Score: inf
ROOT
ATOM      1  C   UNL     1      19.617  11.222 -20.297  1.00  0.00     0.000 C 
ENDROOT
BRANCH   1   2
ATOM      2  C   UNL     1      19.531  11.115 -18.759  1.00  0.00     0.000 C 
BRANCH   2   3
ATOM      3  C   UNL     1      18.130  11.413 -18.193  1.00  0.00     0.000 C 
BRANCH   3   4
ATOM      4  C   UNL     1      18.099  12.479 -17.086  1.00  0.00     0.000 C 
BRANCH   4   5
ATOM      5  C   UNL     1      19.235  12.306 -16.063  1.00  0.00     0.000 C 
BRANCH   5   6
ATOM      6  C   UNL     1      19.621  13.631 -15.385  1.00  0.00     0.000 C 
BRANCH   6   7
ATOM      7  C   UNL     1      20.812  14.323 -16.071  1.00  0.00     0.000 C 
BRANCH   7   8
ATOM      8  C   UNL     1      20.496  15.771 -16.475  1.00  0.00     0.000 C 
BRANCH   8   9
ATOM      9  C   UNL     1      21.631  16.415 -17.292  1.00  0.00     0.000 C 
BRANCH   9  10
ATOM     10  C   UNL     1      21.125  17.185 -18.525  1.00  0.00     0.006 C 
BRANCH  10  11
ATOM     11  C   UNL     1      19.857  16.582 -19.156  1.00  0.00     0.053 C 
BRANCH  11  12
ATOM     12  C   UNL     1      19.749  16.871 -20.622  1.00  0.00     0.041 C 
ATOM     13  O   UNL     1      20.140  16.024 -21.468  1.00  0.00    -0.550 OA
ATOM     14  O   UNL     1      19.244  18.091 -21.056  1.00  0.00    -0.550 OA
ENDBRANCH  11  12
ENDBRANCH  10  11
ENDBRANCH   9  10
ENDBRANCH   8   9
ENDBRANCH   7   8
ENDBRANCH   6   7
ENDBRANCH   5   6
ENDBRANCH   4   5
ENDBRANCH   3   4
ENDBRANCH   2   3
ENDBRANCH   1   2
BRANCH   1  15
ATOM     15  C   UNL     1      20.587  12.323 -20.754  1.00  0.00     0.000 C 
BRANCH  15  16
ATOM     16  C   UNL     1      21.084  13.204 -19.596  1.00  0.00     0.000 C 
BRANCH  16  17
ATOM     17  C   UNL     1      22.522  13.729 -19.788  1.00  0.00     0.000 C 
BRANCH  17  18
ATOM     18  C   UNL     1      23.400  13.486 -18.549  1.00  0.00    -0.000 C 
BRANCH  18  19
ATOM     19  C   UNL     1      23.195  12.086 -17.947  1.00  0.00    -0.000 C 
BRANCH  19  20
ATOM     20  C   UNL     1      24.046  11.014 -18.650  1.00  0.00    -0.000 C 
BRANCH  20  21
ATOM     21  C   UNL     1      23.193   9.893 -19.273  1.00  0.00    -0.000 C 
BRANCH  21  22
ATOM     22  C   UNL     1      22.407   9.035 -18.260  1.00  0.00    -0.000 C 
BRANCH  22  23
ATOM     23  C   UNL     1      21.469   7.985 -18.884  1.00  0.00    -0.000 C 
BRANCH  23  24
ATOM     24  C   UNL     1      20.723   7.096 -17.870  1.00  0.00    -0.000 C 
BRANCH  24  25
ATOM     25  C   UNL     1      19.350   7.657 -17.442  1.00  0.00    -0.003 C 
ATOM     26  C   UNL     1      19.428   8.511 -16.176  1.00  0.00     0.004 C 
ENDBRANCH  24  25
ENDBRANCH  23  24
ENDBRANCH  22  23
ENDBRANCH  21  22
ENDBRANCH  20  21
ENDBRANCH  19  20
ENDBRANCH  18  19
ENDBRANCH  17  18
ENDBRANCH  16  17
ENDBRANCH  15  16
ENDBRANCH   1  15
TORSDOF 22
ENDMDL
