MODEL 1
REMARK VINA RESULT:    -3.686      0.000      0.000
REMARK INTER + INTRA:          -9.972
REMARK INTER:                  -7.134
REMARK INTRA:                  -2.839
REMARK UNBOUND:                -2.839
REMARK SMILES CCCCCCCCCCCCCCCCCC(=O)[O-]
REMARK SMILES IDX 10 1 11 2 12 3 13 4 14 5 15 6 16 7 17 8 18 9 19 10 20 11
REMARK SMILES IDX 9 12 8 13 7 14 6 15 5 16 4 17 3 18 2 19 1 20
REMARK H PARENT
REMARK Flexibility Score: inf
ROOT
ATOM      1  C   UNL     1       3.779   1.254  -6.535  1.00  0.00     0.000 C 
ENDROOT
BRANCH   1   2
ATOM      2  C   UNL     1       4.988   1.692  -5.695  1.00  0.00     0.000 C 
BRANCH   2   3
ATOM      3  C   UNL     1       5.614   0.495  -4.969  1.00  0.00     0.000 C 
BRANCH   3   4
ATOM      4  C   UNL     1       5.130  -0.831  -5.575  1.00  0.00     0.000 C 
BRANCH   4   5
ATOM      5  C   UNL     1       6.250  -1.608  -6.293  1.00  0.00     0.000 C 
BRANCH   5   6
ATOM      6  C   UNL     1       5.772  -2.581  -7.384  1.00  0.00     0.000 C 
BRANCH   6   7
ATOM      7  C   UNL     1       6.057  -4.053  -7.039  1.00  0.00     0.006 C 
BRANCH   7   8
ATOM      8  C   UNL     1       5.893  -4.339  -5.540  1.00  0.00     0.053 C 
BRANCH   8   9
ATOM      9  C   UNL     1       7.106  -5.003  -4.964  1.00  0.00     0.041 C 
ATOM     10  O   UNL     1       7.193  -5.197  -3.723  1.00  0.00    -0.550 OA
ATOM     11  O   UNL     1       8.153  -5.382  -5.795  1.00  0.00    -0.550 OA
ENDBRANCH   8   9
ENDBRANCH   7   8
ENDBRANCH   6   7
ENDBRANCH   5   6
ENDBRANCH   4   5
ENDBRANCH   3   4
ENDBRANCH   2   3
ENDBRANCH   1   2
BRANCH   1  12
ATOM     12  C   UNL     1       3.862   1.739  -7.992  1.00  0.00     0.000 C 
BRANCH  12  13
ATOM     13  C   UNL     1       4.105   0.589  -8.984  1.00  0.00    -0.000 C 
BRANCH  13  14
ATOM     14  C   UNL     1       5.290   0.857  -9.930  1.00  0.00    -0.000 C 
BRANCH  14  15
ATOM     15  C   UNL     1       6.601   0.136  -9.557  1.00  0.00    -0.000 C 
BRANCH  15  16
ATOM     16  C   UNL     1       7.799   1.061  -9.263  1.00  0.00    -0.000 C 
BRANCH  16  17
ATOM     17  C   UNL     1       8.209   1.141  -7.781  1.00  0.00    -0.000 C 
BRANCH  17  18
ATOM     18  C   UNL     1       8.056   2.552  -7.196  1.00  0.00    -0.000 C 
BRANCH  18  19
ATOM     19  C   UNL     1       7.740   3.571  -8.298  1.00  0.00    -0.003 C 
ATOM     20  C   UNL     1       6.426   4.296  -8.019  1.00  0.00     0.004 C 
ENDBRANCH  18  19
ENDBRANCH  17  18
ENDBRANCH  16  17
ENDBRANCH  15  16
ENDBRANCH  14  15
ENDBRANCH  13  14
ENDBRANCH  12  13
ENDBRANCH   1  12
TORSDOF 16
ENDMDL
MODEL 2
REMARK VINA RESULT:    -3.680      1.114      3.304
REMARK INTER + INTRA:          -9.960
REMARK INTER:                  -7.190
REMARK INTRA:                  -2.770
REMARK UNBOUND:                -2.839
REMARK SMILES CCCCCCCCCCCCCCCCCC(=O)[O-]
REMARK SMILES IDX 10 1 11 2 12 3 13 4 14 5 15 6 16 7 17 8 18 9 19 10 20 11
REMARK SMILES IDX 9 12 8 13 7 14 6 15 5 16 4 17 3 18 2 19 1 20
REMARK H PARENT
REMARK Flexibility Score: inf
ROOT
ATOM      1  C   UNL     1       7.593   2.607  -7.118  1.00  0.00     0.000 C 
ENDROOT
BRANCH   1   2
ATOM      2  C   UNL     1       7.702   1.215  -7.759  1.00  0.00     0.000 C 
BRANCH   2   3
ATOM      3  C   UNL     1       8.704   0.338  -6.997  1.00  0.00     0.000 C 
BRANCH   3   4
ATOM      4  C   UNL     1       8.267  -1.135  -7.008  1.00  0.00     0.000 C 
BRANCH   4   5
ATOM      5  C   UNL     1       6.998  -1.378  -7.845  1.00  0.00     0.000 C 
BRANCH   5   6
ATOM      6  C   UNL     1       6.162  -2.600  -7.422  1.00  0.00     0.000 C 
BRANCH   6   7
ATOM      7  C   UNL     1       6.049  -2.748  -5.895  1.00  0.00     0.006 C 
BRANCH   7   8
ATOM      8  C   UNL     1       5.786  -4.200  -5.473  1.00  0.00     0.053 C 
BRANCH   8   9
ATOM      9  C   UNL     1       7.034  -4.876  -4.994  1.00  0.00     0.041 C 
ATOM     10  O   UNL     1       7.163  -5.184  -3.780  1.00  0.00    -0.550 OA
ATOM     11  O   UNL     1       8.067  -5.141  -5.884  1.00  0.00    -0.550 OA
ENDBRANCH   8   9
ENDBRANCH   7   8
ENDBRANCH   6   7
ENDBRANCH   5   6
ENDBRANCH   4   5
ENDBRANCH   3   4
ENDBRANCH   2   3
ENDBRANCH   1   2
BRANCH   1  12
ATOM     12  C   UNL     1       7.456   3.730  -8.160  1.00  0.00     0.000 C 
BRANCH  12  13
ATOM     13  C   UNL     1       6.751   3.260  -9.444  1.00  0.00    -0.000 C 
BRANCH  13  14
ATOM     14  C   UNL     1       5.336   3.846  -9.596  1.00  0.00    -0.000 C 
BRANCH  14  15
ATOM     15  C   UNL     1       4.222   3.063  -8.873  1.00  0.00    -0.000 C 
BRANCH  15  16
ATOM     16  C   UNL     1       4.108   1.575  -9.260  1.00  0.00    -0.000 C 
BRANCH  16  17
ATOM     17  C   UNL     1       4.032   0.599  -8.071  1.00  0.00    -0.000 C 
BRANCH  17  18
ATOM     18  C   UNL     1       4.079   1.312  -6.713  1.00  0.00    -0.000 C 
BRANCH  18  19
ATOM     19  C   UNL     1       4.375   0.319  -5.582  1.00  0.00    -0.003 C 
ATOM     20  C   UNL     1       5.450   0.856  -4.643  1.00  0.00     0.004 C 
ENDBRANCH  18  19
ENDBRANCH  17  18
ENDBRANCH  16  17
ENDBRANCH  15  16
ENDBRANCH  14  15
ENDBRANCH  13  14
ENDBRANCH  12  13
ENDBRANCH   1  12
TORSDOF 16
ENDMDL
MODEL 3
REMARK VINA RESULT:    -3.505      1.265      3.026
REMARK INTER + INTRA:          -9.621
REMARK INTER:                  -6.701
REMARK INTRA:                  -2.920
REMARK UNBOUND:                -2.839
REMARK SMILES CCCCCCCCCCCCCCCCCC(=O)[O-]
REMARK SMILES IDX 10 1 11 2 12 3 13 4 14 5 15 6 16 7 17 8 18 9 19 10 20 11
REMARK SMILES IDX 9 12 8 13 7 14 6 15 5 16 4 17 3 18 2 19 1 20
REMARK H PARENT
REMARK Flexibility Score: inf
ROOT
ATOM      1  C   UNL     1       6.874  -0.688  -6.016  1.00  0.00     0.000 C 
ENDROOT
BRANCH   1   2
ATOM      2  C   UNL     1       7.590  -0.007  -7.192  1.00  0.00     0.000 C 
BRANCH   2   3
ATOM      3  C   UNL     1       7.292  -0.734  -8.510  1.00  0.00     0.000 C 
BRANCH   3   4
ATOM      4  C   UNL     1       5.801  -0.634  -8.868  1.00  0.00     0.000 C 
BRANCH   4   5
ATOM      5  C   UNL     1       5.120  -2.010  -8.990  1.00  0.00     0.000 C 
BRANCH   5   6
ATOM      6  C   UNL     1       6.074  -3.217  -8.945  1.00  0.00     0.000 C 
BRANCH   6   7
ATOM      7  C   UNL     1       5.769  -4.177  -7.782  1.00  0.00     0.006 C 
BRANCH   7   8
ATOM      8  C   UNL     1       6.927  -4.257  -6.779  1.00  0.00     0.053 C 
BRANCH   8   9
ATOM      9  C   UNL     1       6.436  -4.316  -5.365  1.00  0.00     0.041 C 
ATOM     10  O   UNL     1       5.262  -3.958  -5.085  1.00  0.00    -0.550 OA
ATOM     11  O   UNL     1       7.286  -4.740  -4.350  1.00  0.00    -0.550 OA
ENDBRANCH   8   9
ENDBRANCH   7   8
ENDBRANCH   6   7
ENDBRANCH   5   6
ENDBRANCH   4   5
ENDBRANCH   3   4
ENDBRANCH   2   3
ENDBRANCH   1   2
BRANCH   1  12
ATOM     12  C   UNL     1       5.958   0.275  -5.242  1.00  0.00     0.000 C 
BRANCH  12  13
ATOM     13  C   UNL     1       4.472  -0.106  -5.353  1.00  0.00    -0.000 C 
BRANCH  13  14
ATOM     14  C   UNL     1       3.677   0.847  -6.264  1.00  0.00    -0.000 C 
BRANCH  14  15
ATOM     15  C   UNL     1       4.439   2.110  -6.713  1.00  0.00    -0.000 C 
BRANCH  15  16
ATOM     16  C   UNL     1       4.183   2.549  -8.169  1.00  0.00    -0.000 C 
BRANCH  16  17
ATOM     17  C   UNL     1       5.298   3.407  -8.794  1.00  0.00    -0.000 C 
BRANCH  17  18
ATOM     18  C   UNL     1       6.355   3.846  -7.770  1.00  0.00    -0.000 C 
BRANCH  18  19
ATOM     19  C   UNL     1       7.763   3.452  -8.232  1.00  0.00    -0.003 C 
ATOM     20  C   UNL     1       7.736   2.850  -9.634  1.00  0.00     0.004 C 
ENDBRANCH  18  19
ENDBRANCH  17  18
ENDBRANCH  16  17
ENDBRANCH  15  16
ENDBRANCH  14  15
ENDBRANCH  13  14
ENDBRANCH  12  13
ENDBRANCH   1  12
TORSDOF 16
ENDMDL
MODEL 4
REMARK VINA RESULT:    -3.463      2.865      5.952
REMARK INTER + INTRA:          -9.541
REMARK INTER:                  -6.632
REMARK INTRA:                  -2.909
REMARK UNBOUND:                -2.839
REMARK SMILES CCCCCCCCCCCCCCCCCC(=O)[O-]
REMARK SMILES IDX 10 1 11 2 12 3 13 4 14 5 15 6 16 7 17 8 18 9 19 10 20 11
REMARK SMILES IDX 9 12 8 13 7 14 6 15 5 16 4 17 3 18 2 19 1 20
REMARK H PARENT
REMARK Flexibility Score: inf
ROOT
ATOM      1  C   UNL     1       5.767  -1.104  -6.787  1.00  0.00     0.000 C 
ENDROOT
BRANCH   1   2
ATOM      2  C   UNL     1       6.286  -0.397  -5.526  1.00  0.00     0.000 C 
BRANCH   2   3
ATOM      3  C   UNL     1       5.254   0.609  -4.999  1.00  0.00     0.000 C 
BRANCH   3   4
ATOM      4  C   UNL     1       4.079   0.756  -5.977  1.00  0.00     0.000 C 
BRANCH   4   5
ATOM      5  C   UNL     1       4.013   2.148  -6.632  1.00  0.00     0.000 C 
BRANCH   5   6
ATOM      6  C   UNL     1       4.073   2.149  -8.170  1.00  0.00     0.000 C 
BRANCH   6   7
ATOM      7  C   UNL     1       5.298   2.900  -8.720  1.00  0.00     0.006 C 
BRANCH   7   8
ATOM      8  C   UNL     1       6.287   3.285  -7.612  1.00  0.00     0.053 C 
BRANCH   8   9
ATOM      9  C   UNL     1       7.596   2.570  -7.759  1.00  0.00     0.041 C 
ATOM     10  O   UNL     1       8.271   2.266  -6.741  1.00  0.00    -0.550 OA
ATOM     11  O   UNL     1       8.082   2.264  -9.024  1.00  0.00    -0.550 OA
ENDBRANCH   8   9
ENDBRANCH   7   8
ENDBRANCH   6   7
ENDBRANCH   5   6
ENDBRANCH   4   5
ENDBRANCH   3   4
ENDBRANCH   2   3
ENDBRANCH   1   2
BRANCH   1  12
ATOM     12  C   UNL     1       6.671  -0.873  -8.010  1.00  0.00     0.000 C 
BRANCH  12  13
ATOM     13  C   UNL     1       5.898  -0.951  -9.337  1.00  0.00    -0.000 C 
BRANCH  13  14
ATOM     14  C   UNL     1       4.639  -1.833  -9.245  1.00  0.00    -0.000 C 
BRANCH  14  15
ATOM     15  C   UNL     1       4.829  -3.294  -9.700  1.00  0.00    -0.000 C 
BRANCH  15  16
ATOM     16  C   UNL     1       5.264  -4.275  -8.594  1.00  0.00    -0.000 C 
BRANCH  16  17
ATOM     17  C   UNL     1       6.764  -4.618  -8.583  1.00  0.00    -0.000 C 
BRANCH  17  18
ATOM     18  C   UNL     1       7.365  -4.621  -7.171  1.00  0.00    -0.000 C 
BRANCH  18  19
ATOM     19  C   UNL     1       6.272  -4.438  -6.110  1.00  0.00    -0.003 C 
ATOM     20  C   UNL     1       6.823  -4.665  -4.706  1.00  0.00     0.004 C 
ENDBRANCH  18  19
ENDBRANCH  17  18
ENDBRANCH  16  17
ENDBRANCH  15  16
ENDBRANCH  14  15
ENDBRANCH  13  14
ENDBRANCH  12  13
ENDBRANCH   1  12
TORSDOF 16
ENDMDL
MODEL 5
REMARK VINA RESULT:    -3.310      1.407      2.623
REMARK INTER + INTRA:          -9.245
REMARK INTER:                  -6.287
REMARK INTRA:                  -2.958
REMARK UNBOUND:                -2.839
REMARK SMILES CCCCCCCCCCCCCCCCCC(=O)[O-]
REMARK SMILES IDX 10 1 11 2 12 3 13 4 14 5 15 6 16 7 17 8 18 9 19 10 20 11
REMARK SMILES IDX 9 12 8 13 7 14 6 15 5 16 4 17 3 18 2 19 1 20
REMARK H PARENT
REMARK Flexibility Score: inf
ROOT
ATOM      1  C   UNL     1       5.369   0.577  -5.044  1.00  0.00     0.000 C 
ENDROOT
BRANCH   1   2
ATOM      2  C   UNL     1       6.262  -0.528  -5.629  1.00  0.00     0.000 C 
BRANCH   2   3
ATOM      3  C   UNL     1       5.501  -1.351  -6.675  1.00  0.00     0.000 C 
BRANCH   3   4
ATOM      4  C   UNL     1       6.123  -1.182  -8.069  1.00  0.00     0.000 C 
BRANCH   4   5
ATOM      5  C   UNL     1       6.512  -2.522  -8.721  1.00  0.00     0.000 C 
BRANCH   5   6
ATOM      6  C   UNL     1       8.010  -2.868  -8.658  1.00  0.00     0.000 C 
BRANCH   6   7
ATOM      7  C   UNL     1       8.324  -3.986  -7.649  1.00  0.00     0.006 C 
BRANCH   7   8
ATOM      8  C   UNL     1       7.056  -4.710  -7.174  1.00  0.00     0.053 C 
BRANCH   8   9
ATOM      9  C   UNL     1       7.063  -4.933  -5.693  1.00  0.00     0.041 C 
ATOM     10  O   UNL     1       7.952  -5.651  -5.164  1.00  0.00    -0.550 OA
ATOM     11  O   UNL     1       6.072  -4.370  -4.900  1.00  0.00    -0.550 OA
ENDBRANCH   8   9
ENDBRANCH   7   8
ENDBRANCH   6   7
ENDBRANCH   5   6
ENDBRANCH   4   5
ENDBRANCH   3   4
ENDBRANCH   2   3
ENDBRANCH   1   2
BRANCH   1  12
ATOM     12  C   UNL     1       4.097   0.813  -5.875  1.00  0.00     0.000 C 
BRANCH  12  13
ATOM     13  C   UNL     1       4.084   2.192  -6.557  1.00  0.00    -0.000 C 
BRANCH  13  14
ATOM     14  C   UNL     1       4.309   2.107  -8.077  1.00  0.00    -0.000 C 
BRANCH  14  15
ATOM     15  C   UNL     1       5.725   2.488  -8.553  1.00  0.00    -0.000 C 
BRANCH  15  16
ATOM     16  C   UNL     1       6.655   3.052  -7.459  1.00  0.00    -0.000 C 
BRANCH  16  17
ATOM     17  C   UNL     1       8.086   2.485  -7.468  1.00  0.00    -0.000 C 
BRANCH  17  18
ATOM     18  C   UNL     1       8.388   1.652  -8.721  1.00  0.00    -0.000 C 
BRANCH  18  19
ATOM     19  C   UNL     1       9.403   0.545  -8.412  1.00  0.00    -0.003 C 
ATOM     20  C   UNL     1       9.518   0.304  -6.910  1.00  0.00     0.004 C 
ENDBRANCH  18  19
ENDBRANCH  17  18
ENDBRANCH  16  17
ENDBRANCH  15  16
ENDBRANCH  14  15
ENDBRANCH  13  14
ENDBRANCH  12  13
ENDBRANCH   1  12
TORSDOF 16
ENDMDL
MODEL 6
REMARK VINA RESULT:    -3.280      3.126      6.103
REMARK INTER + INTRA:          -9.187
REMARK INTER:                  -6.105
REMARK INTRA:                  -3.082
REMARK UNBOUND:                -2.839
REMARK SMILES CCCCCCCCCCCCCCCCCC(=O)[O-]
REMARK SMILES IDX 10 1 11 2 12 3 13 4 14 5 15 6 16 7 17 8 18 9 19 10 20 11
REMARK SMILES IDX 9 12 8 13 7 14 6 15 5 16 4 17 3 18 2 19 1 20
REMARK H PARENT
REMARK Flexibility Score: inf
ROOT
ATOM      1  C   UNL     1       5.518  -0.277  -5.341  1.00  0.00     0.000 C 
ENDROOT
BRANCH   1   2
ATOM      2  C   UNL     1       4.253   0.358  -5.940  1.00  0.00     0.000 C 
BRANCH   2   3
ATOM      3  C   UNL     1       4.477   1.844  -6.244  1.00  0.00     0.000 C 
BRANCH   3   4
ATOM      4  C   UNL     1       4.013   2.192  -7.667  1.00  0.00     0.000 C 
BRANCH   4   5
ATOM      5  C   UNL     1       4.158   1.016  -8.650  1.00  0.00     0.000 C 
BRANCH   5   6
ATOM      6  C   UNL     1       4.997   1.315  -9.905  1.00  0.00     0.000 C 
BRANCH   6   7
ATOM      7  C   UNL     1       5.763   2.645  -9.810  1.00  0.00     0.006 C 
BRANCH   7   8
ATOM      8  C   UNL     1       7.221   2.444  -9.376  1.00  0.00     0.053 C 
BRANCH   8   9
ATOM      9  C   UNL     1       7.550   3.232  -8.144  1.00  0.00     0.041 C 
ATOM     10  O   UNL     1       6.871   4.248  -7.841  1.00  0.00    -0.550 OA
ATOM     11  O   UNL     1       8.625   2.859  -7.347  1.00  0.00    -0.550 OA
ENDBRANCH   8   9
ENDBRANCH   7   8
ENDBRANCH   6   7
ENDBRANCH   5   6
ENDBRANCH   4   5
ENDBRANCH   3   4
ENDBRANCH   2   3
ENDBRANCH   1   2
BRANCH   1  12
ATOM     12  C   UNL     1       6.802   0.172  -6.057  1.00  0.00     0.000 C 
BRANCH  12  13
ATOM     13  C   UNL     1       7.551  -0.999  -6.715  1.00  0.00    -0.000 C 
BRANCH  13  14
ATOM     14  C   UNL     1       7.682  -0.842  -8.241  1.00  0.00    -0.000 C 
BRANCH  14  15
ATOM     15  C   UNL     1       6.811  -1.803  -9.075  1.00  0.00    -0.000 C 
BRANCH  15  16
ATOM     16  C   UNL     1       5.579  -2.374  -8.345  1.00  0.00    -0.000 C 
BRANCH  16  17
ATOM     17  C   UNL     1       5.472  -3.910  -8.357  1.00  0.00    -0.000 C 
BRANCH  17  18
ATOM     18  C   UNL     1       6.252  -4.570  -7.211  1.00  0.00    -0.000 C 
BRANCH  18  19
ATOM     19  C   UNL     1       5.752  -4.073  -5.849  1.00  0.00    -0.003 C 
ATOM     20  C   UNL     1       6.807  -4.274  -4.766  1.00  0.00     0.004 C 
ENDBRANCH  18  19
ENDBRANCH  17  18
ENDBRANCH  16  17
ENDBRANCH  15  16
ENDBRANCH  14  15
ENDBRANCH  13  14
ENDBRANCH  12  13
ENDBRANCH   1  12
TORSDOF 16
ENDMDL
MODEL 7
REMARK VINA RESULT:    -3.275      1.070      1.896
REMARK INTER + INTRA:          -9.177
REMARK INTER:                  -6.440
REMARK INTRA:                  -2.737
REMARK UNBOUND:                -2.839
REMARK SMILES CCCCCCCCCCCCCCCCCC(=O)[O-]
REMARK SMILES IDX 10 1 11 2 12 3 13 4 14 5 15 6 16 7 17 8 18 9 19 10 20 11
REMARK SMILES IDX 9 12 8 13 7 14 6 15 5 16 4 17 3 18 2 19 1 20
REMARK H PARENT
REMARK Flexibility Score: inf
ROOT
ATOM      1  C   UNL     1       3.963   2.201  -8.269  1.00  0.00     0.000 C 
ENDROOT
BRANCH   1   2
ATOM      2  C   UNL     1       3.915   1.663  -6.831  1.00  0.00     0.000 C 
BRANCH   2   3
ATOM      3  C   UNL     1       5.222   1.970  -6.088  1.00  0.00     0.000 C 
BRANCH   3   4
ATOM      4  C   UNL     1       5.552   0.864  -5.074  1.00  0.00     0.000 C 
BRANCH   4   5
ATOM      5  C   UNL     1       6.300  -0.325  -5.704  1.00  0.00     0.000 C 
BRANCH   5   6
ATOM      6  C   UNL     1       5.596  -1.687  -5.565  1.00  0.00     0.000 C 
BRANCH   6   7
ATOM      7  C   UNL     1       6.145  -2.746  -6.537  1.00  0.00     0.006 C 
BRANCH   7   8
ATOM      8  C   UNL     1       5.678  -4.162  -6.174  1.00  0.00     0.053 C 
BRANCH   8   9
ATOM      9  C   UNL     1       6.750  -4.941  -5.476  1.00  0.00     0.041 C 
ATOM     10  O   UNL     1       7.391  -5.832  -6.093  1.00  0.00    -0.550 OA
ATOM     11  O   UNL     1       7.024  -4.701  -4.135  1.00  0.00    -0.550 OA
ENDBRANCH   8   9
ENDBRANCH   7   8
ENDBRANCH   6   7
ENDBRANCH   5   6
ENDBRANCH   4   5
ENDBRANCH   3   4
ENDBRANCH   2   3
ENDBRANCH   1   2
BRANCH   1  12
ATOM     12  C   UNL     1       3.722   1.104  -9.320  1.00  0.00     0.000 C 
BRANCH  12  13
ATOM     13  C   UNL     1       4.352  -0.242  -8.923  1.00  0.00    -0.000 C 
BRANCH  13  14
ATOM     14  C   UNL     1       5.481  -0.676  -9.875  1.00  0.00    -0.000 C 
BRANCH  14  15
ATOM     15  C   UNL     1       6.909  -0.504  -9.318  1.00  0.00    -0.000 C 
BRANCH  15  16
ATOM     16  C   UNL     1       7.674   0.727  -9.844  1.00  0.00    -0.000 C 
BRANCH  16  17
ATOM     17  C   UNL     1       7.423   2.030  -9.062  1.00  0.00    -0.000 C 
BRANCH  17  18
ATOM     18  C   UNL     1       8.701   2.606  -8.438  1.00  0.00    -0.000 C 
BRANCH  18  19
ATOM     19  C   UNL     1       8.798   2.243  -6.951  1.00  0.00    -0.003 C 
ATOM     20  C   UNL     1       9.731   1.055  -6.733  1.00  0.00     0.004 C 
ENDBRANCH  18  19
ENDBRANCH  17  18
ENDBRANCH  16  17
ENDBRANCH  15  16
ENDBRANCH  14  15
ENDBRANCH  13  14
ENDBRANCH  12  13
ENDBRANCH   1  12
TORSDOF 16
ENDMDL
MODEL 8
REMARK VINA RESULT:    -3.248      1.583      3.185
REMARK INTER + INTRA:          -9.126
REMARK INTER:                  -5.960
REMARK INTRA:                  -3.166
REMARK UNBOUND:                -2.839
REMARK SMILES CCCCCCCCCCCCCCCCCC(=O)[O-]
REMARK SMILES IDX 10 1 11 2 12 3 13 4 14 5 15 6 16 7 17 8 18 9 19 10 20 11
REMARK SMILES IDX 9 12 8 13 7 14 6 15 5 16 4 17 3 18 2 19 1 20
REMARK H PARENT
REMARK Flexibility Score: inf
ROOT
ATOM      1  C   UNL     1       4.113   0.785  -6.007  1.00  0.00     0.000 C 
ENDROOT
BRANCH   1   2
ATOM      2  C   UNL     1       4.120   2.158  -6.696  1.00  0.00     0.000 C 
BRANCH   2   3
ATOM      3  C   UNL     1       3.948   2.011  -8.213  1.00  0.00     0.000 C 
BRANCH   3   4
ATOM      4  C   UNL     1       4.141   0.552  -8.650  1.00  0.00     0.000 C 
BRANCH   4   5
ATOM      5  C   UNL     1       5.166   0.397  -9.789  1.00  0.00     0.000 C 
BRANCH   5   6
ATOM      6  C   UNL     1       5.959  -0.922  -9.778  1.00  0.00     0.000 C 
BRANCH   6   7
ATOM      7  C   UNL     1       5.236  -2.049  -9.019  1.00  0.00     0.006 C 
BRANCH   7   8
ATOM      8  C   UNL     1       6.214  -3.095  -8.467  1.00  0.00     0.053 C 
BRANCH   8   9
ATOM      9  C   UNL     1       5.498  -4.288  -7.910  1.00  0.00     0.041 C 
ATOM     10  O   UNL     1       4.574  -4.836  -8.566  1.00  0.00    -0.550 OA
ATOM     11  O   UNL     1       5.835  -4.777  -6.655  1.00  0.00    -0.550 OA
ENDBRANCH   8   9
ENDBRANCH   7   8
ENDBRANCH   6   7
ENDBRANCH   5   6
ENDBRANCH   4   5
ENDBRANCH   3   4
ENDBRANCH   2   3
ENDBRANCH   1   2
BRANCH   1  12
ATOM     12  C   UNL     1       5.365   0.546  -5.147  1.00  0.00     0.000 C 
BRANCH  12  13
ATOM     13  C   UNL     1       6.212  -0.633  -5.653  1.00  0.00    -0.000 C 
BRANCH  13  14
ATOM     14  C   UNL     1       7.390  -0.186  -6.538  1.00  0.00    -0.000 C 
BRANCH  14  15
ATOM     15  C   UNL     1       7.592   1.340  -6.636  1.00  0.00    -0.000 C 
BRANCH  15  16
ATOM     16  C   UNL     1       8.116   1.846  -7.996  1.00  0.00    -0.000 C 
BRANCH  16  17
ATOM     17  C   UNL     1       7.797   3.320  -8.306  1.00  0.00    -0.000 C 
BRANCH  17  18
ATOM     18  C   UNL     1       7.132   3.510  -9.676  1.00  0.00    -0.000 C 
BRANCH  18  19
ATOM     19  C   UNL     1       6.086   4.630  -9.628  1.00  0.00    -0.003 C 
ATOM     20  C   UNL     1       5.942   5.191  -8.217  1.00  0.00     0.004 C 
ENDBRANCH  18  19
ENDBRANCH  17  18
ENDBRANCH  16  17
ENDBRANCH  15  16
ENDBRANCH  14  15
ENDBRANCH  13  14
ENDBRANCH  12  13
ENDBRANCH   1  12
TORSDOF 16
ENDMDL
MODEL 9
REMARK VINA RESULT:    -3.239      1.530      2.552
REMARK INTER + INTRA:          -9.107
REMARK INTER:                  -6.054
REMARK INTRA:                  -3.053
REMARK UNBOUND:                -2.839
REMARK SMILES CCCCCCCCCCCCCCCCCC(=O)[O-]
REMARK SMILES IDX 10 1 11 2 12 3 13 4 14 5 15 6 16 7 17 8 18 9 19 10 20 11
REMARK SMILES IDX 9 12 8 13 7 14 6 15 5 16 4 17 3 18 2 19 1 20
REMARK H PARENT
REMARK Flexibility Score: inf
ROOT
ATOM      1  C   UNL     1       4.502   2.057  -6.306  1.00  0.00     0.000 C 
ENDROOT
BRANCH   1   2
ATOM      2  C   UNL     1       5.407   1.103  -5.513  1.00  0.00     0.000 C 
BRANCH   2   3
ATOM      3  C   UNL     1       4.804  -0.306  -5.458  1.00  0.00     0.000 C 
BRANCH   3   4
ATOM      4  C   UNL     1       5.899  -1.379  -5.560  1.00  0.00     0.000 C 
BRANCH   4   5
ATOM      5  C   UNL     1       5.340  -2.813  -5.530  1.00  0.00     0.000 C 
BRANCH   5   6
ATOM      6  C   UNL     1       6.023  -3.800  -6.493  1.00  0.00     0.000 C 
BRANCH   6   7
ATOM      7  C   UNL     1       7.499  -3.456  -6.756  1.00  0.00     0.006 C 
BRANCH   7   8
ATOM      8  C   UNL     1       8.123  -4.362  -7.825  1.00  0.00     0.053 C 
BRANCH   8   9
ATOM      9  C   UNL     1       8.560  -5.677  -7.256  1.00  0.00     0.041 C 
ATOM     10  O   UNL     1       9.544  -5.734  -6.472  1.00  0.00    -0.550 OA
ATOM     11  O   UNL     1       7.897  -6.844  -7.612  1.00  0.00    -0.550 OA
ENDBRANCH   8   9
ENDBRANCH   7   8
ENDBRANCH   6   7
ENDBRANCH   5   6
ENDBRANCH   4   5
ENDBRANCH   3   4
ENDBRANCH   2   3
ENDBRANCH   1   2
BRANCH   1  12
ATOM     12  C   UNL     1       5.288   2.941  -7.288  1.00  0.00     0.000 C 
BRANCH  12  13
ATOM     13  C   UNL     1       4.760   2.836  -8.729  1.00  0.00    -0.000 C 
BRANCH  13  14
ATOM     14  C   UNL     1       3.807   1.644  -8.930  1.00  0.00    -0.000 C 
BRANCH  14  15
ATOM     15  C   UNL     1       4.343   0.524  -9.845  1.00  0.00    -0.000 C 
BRANCH  15  16
ATOM     16  C   UNL     1       4.747  -0.777  -9.122  1.00  0.00    -0.000 C 
BRANCH  16  17
ATOM     17  C   UNL     1       6.250  -1.109  -9.177  1.00  0.00    -0.000 C 
BRANCH  17  18
ATOM     18  C   UNL     1       7.140   0.133  -9.035  1.00  0.00    -0.000 C 
BRANCH  18  19
ATOM     19  C   UNL     1       8.273  -0.115  -8.033  1.00  0.00    -0.003 C 
ATOM     20  C   UNL     1       8.587   1.144  -7.230  1.00  0.00     0.004 C 
ENDBRANCH  18  19
ENDBRANCH  17  18
ENDBRANCH  16  17
ENDBRANCH  15  16
ENDBRANCH  14  15
ENDBRANCH  13  14
ENDBRANCH  12  13
ENDBRANCH   1  12
TORSDOF 16
ENDMDL
