MODEL 1
REMARK VINA RESULT:    15.461      0.000      0.000
REMARK INTER + INTRA:          22.874
REMARK INTER:                  22.692
REMARK INTRA:                   0.181
REMARK UNBOUND:                 0.181
REMARK SMILES O=c1c(O[C@@H]2O[C@H](CO)[C@@H](O)[C@H](O)[C@H]2O)c(-c2ccc(O)c(O)c2)oc2cc(O)cc(O)c12
REMARK SMILES IDX 4 1 3 2 16 3 25 4 2 5 26 6 1 7 33 8 27 9 31 10 28 11 30 12
REMARK SMILES IDX 17 13 18 14 19 15 20 16 24 17 22 18 21 19 23 21 32 23 29 25
REMARK SMILES IDX 5 27 14 28 6 29 12 30 7 31 10 32 15 33 13 35 8 37 9 38 11 40
REMARK H PARENT 21 20 23 22 32 24 29 26 15 34 13 36 9 39 11 41
REMARK Flexibility Score: inf
ROOT
ATOM      1  O   UNL     1      15.667  -2.910  27.573  1.00  0.00    -0.454 OA
ENDROOT
BRANCH   1   2
ATOM      2  C   UNL     1      15.343  -3.549  26.371  1.00  0.00     0.214 A 
ATOM      3  C   UNL     1      14.957  -2.810  25.238  1.00  0.00     0.180 A 
ATOM      4  O   UNL     1      14.774  -3.429  24.076  1.00  0.00    -0.452 OA
ATOM      5  C   UNL     1      15.457  -4.941  26.267  1.00  0.00     0.239 A 
ATOM      6  C   UNL     1      14.902  -4.746  23.926  1.00  0.00     0.146 A 
ATOM      7  O   UNL     1      15.773  -5.608  27.290  1.00  0.00    -0.285 OA
ATOM      8  C   UNL     1      15.233  -5.572  25.029  1.00  0.00     0.111 A 
ATOM      9  C   UNL     1      14.688  -5.310  22.665  1.00  0.00     0.094 A 
ATOM     10  C   UNL     1      15.326  -6.972  24.838  1.00  0.00     0.134 A 
ATOM     11  C   UNL     1      14.797  -6.693  22.479  1.00  0.00     0.123 A 
ATOM     12  C   UNL     1      15.105  -7.517  23.562  1.00  0.00     0.093 A 
BRANCH   3  13
ATOM     13  C   UNL     1      14.766  -1.345  25.290  1.00  0.00     0.025 A 
ATOM     14  C   UNL     1      14.730  -0.574  24.114  1.00  0.00     0.016 A 
ATOM     15  C   UNL     1      14.582   0.813  24.183  1.00  0.00     0.051 A 
ATOM     16  C   UNL     1      14.470   1.456  25.419  1.00  0.00     0.157 A 
ATOM     17  C   UNL     1      14.669  -0.695  26.529  1.00  0.00     0.062 A 
ATOM     18  C   UNL     1      14.513   0.692  26.607  1.00  0.00     0.158 A 
BRANCH  16  19
ATOM     19  O   UNL     1      14.317   2.849  25.420  1.00  0.00    -0.504 OA
ATOM     20  H   UNL     1      14.978   3.486  25.835  1.00  0.00     0.293 HD
ENDBRANCH  16  19
BRANCH  18  21
ATOM     21  O   UNL     1      14.408   1.268  27.875  1.00  0.00    -0.504 OA
ATOM     22  H   UNL     1      13.592   1.751  28.214  1.00  0.00     0.293 HD
ENDBRANCH  18  21
ENDBRANCH   3  13
BRANCH  10  23
ATOM     23  O   UNL     1      15.643  -7.821  25.898  1.00  0.00    -0.507 OA
ATOM     24  H   UNL     1      16.476  -8.396  25.886  1.00  0.00     0.293 HD
ENDBRANCH  10  23
BRANCH  11  25
ATOM     25  O   UNL     1      14.599  -7.262  21.224  1.00  0.00    -0.508 OA
ATOM     26  H   UNL     1      15.381  -7.583  20.664  1.00  0.00     0.293 HD
ENDBRANCH  11  25
ENDBRANCH   1   2
BRANCH   1  27
ATOM     27  C   UNL     1      16.999  -2.506  27.909  1.00  0.00     0.339 C 
ATOM     28  C   UNL     1      17.749  -3.723  28.507  1.00  0.00     0.214 C 
ATOM     29  O   UNL     1      17.658  -2.019  26.754  1.00  0.00    -0.332 OA
ATOM     30  C   UNL     1      19.191  -3.880  27.960  1.00  0.00     0.180 C 
ATOM     31  C   UNL     1      18.909  -1.451  27.077  1.00  0.00     0.179 C 
ATOM     32  C   UNL     1      19.882  -2.517  27.695  1.00  0.00     0.177 C 
BRANCH  28  33
ATOM     33  O   UNL     1      17.745  -3.686  29.918  1.00  0.00    -0.384 OA
ATOM     34  H   UNL     1      16.805  -3.653  30.208  1.00  0.00     0.211 HD
ENDBRANCH  28  33
BRANCH  30  35
ATOM     35  O   UNL     1      19.163  -4.617  26.764  1.00  0.00    -0.387 OA
ATOM     36  H   UNL     1      19.718  -4.121  26.105  1.00  0.00     0.211 HD
ENDBRANCH  30  35
BRANCH  31  37
ATOM     37  C   UNL     1      19.498  -0.804  25.797  1.00  0.00     0.191 C 
BRANCH  37  38
ATOM     38  O   UNL     1      18.475  -0.440  24.912  1.00  0.00    -0.394 OA
ATOM     39  H   UNL     1      17.999  -1.278  24.670  1.00  0.00     0.210 HD
ENDBRANCH  37  38
ENDBRANCH  31  37
BRANCH  32  40
ATOM     40  O   UNL     1      20.517  -2.026  28.848  1.00  0.00    -0.387 OA
ATOM     41  H   UNL     1      21.482  -2.246  28.793  1.00  0.00     0.211 HD
ENDBRANCH  32  40
ENDBRANCH   1  27
TORSDOF 12
ENDMDL
MODEL 2
REMARK VINA RESULT:    15.857      5.663     10.351
REMARK INTER + INTRA:          23.454
REMARK INTER:                  21.929
REMARK INTRA:                   1.525
REMARK UNBOUND:                 0.181
REMARK SMILES O=c1c(O[C@@H]2O[C@H](CO)[C@@H](O)[C@H](O)[C@H]2O)c(-c2ccc(O)c(O)c2)oc2cc(O)cc(O)c12
REMARK SMILES IDX 4 1 3 2 16 3 25 4 2 5 26 6 1 7 33 8 27 9 31 10 28 11 30 12
REMARK SMILES IDX 17 13 18 14 19 15 20 16 24 17 22 18 21 19 23 21 32 23 29 25
REMARK SMILES IDX 5 27 14 28 6 29 12 30 7 31 10 32 15 33 13 35 8 37 9 38 11 40
REMARK H PARENT 21 20 23 22 32 24 29 26 15 34 13 36 9 39 11 41
REMARK Flexibility Score: inf
ROOT
ATOM      1  O   UNL     1      13.314  -9.009  28.352  1.00  0.00    -0.454 OA
ENDROOT
BRANCH   1   2
ATOM      2  C   UNL     1      13.917  -9.013  27.090  1.00  0.00     0.214 A 
ATOM      3  C   UNL     1      14.419 -10.201  26.528  1.00  0.00     0.180 A 
ATOM      4  O   UNL     1      14.874 -10.202  25.279  1.00  0.00    -0.452 OA
ATOM      5  C   UNL     1      13.975  -7.831  26.340  1.00  0.00     0.239 A 
ATOM      6  C   UNL     1      14.918  -9.108  24.521  1.00  0.00     0.146 A 
ATOM      7  O   UNL     1      13.554  -6.759  26.853  1.00  0.00    -0.285 OA
ATOM      8  C   UNL     1      14.485  -7.858  25.028  1.00  0.00     0.111 A 
ATOM      9  C   UNL     1      15.415  -9.204  23.218  1.00  0.00     0.094 A 
ATOM     10  C   UNL     1      14.580  -6.709  24.204  1.00  0.00     0.134 A 
ATOM     11  C   UNL     1      15.492  -8.069  22.403  1.00  0.00     0.123 A 
ATOM     12  C   UNL     1      15.085  -6.830  22.898  1.00  0.00     0.093 A 
BRANCH   3  13
ATOM     13  C   UNL     1      14.438 -11.472  27.282  1.00  0.00     0.025 A 
ATOM     14  C   UNL     1      15.048 -11.558  28.548  1.00  0.00     0.016 A 
ATOM     15  C   UNL     1      15.086 -12.774  29.232  1.00  0.00     0.051 A 
ATOM     16  C   UNL     1      14.523 -13.925  28.672  1.00  0.00     0.157 A 
ATOM     17  C   UNL     1      13.887 -12.631  26.716  1.00  0.00     0.062 A 
ATOM     18  C   UNL     1      13.915 -13.852  27.398  1.00  0.00     0.158 A 
BRANCH  16  19
ATOM     19  O   UNL     1      14.588 -15.112  29.412  1.00  0.00    -0.504 OA
ATOM     20  H   UNL     1      13.814 -15.493  29.933  1.00  0.00     0.293 HD
ENDBRANCH  16  19
BRANCH  18  21
ATOM     21  O   UNL     1      13.334 -14.960  26.778  1.00  0.00    -0.504 OA
ATOM     22  H   UNL     1      13.517 -15.242  25.829  1.00  0.00     0.293 HD
ENDBRANCH  18  21
ENDBRANCH   3  13
BRANCH  10  23
ATOM     23  O   UNL     1      14.171  -5.459  24.665  1.00  0.00    -0.507 OA
ATOM     24  H   UNL     1      14.606  -4.605  24.340  1.00  0.00     0.293 HD
ENDBRANCH  10  23
BRANCH  11  25
ATOM     25  O   UNL     1      15.973  -8.157  21.100  1.00  0.00    -0.508 OA
ATOM     26  H   UNL     1      15.361  -8.020  20.304  1.00  0.00     0.293 HD
ENDBRANCH  11  25
ENDBRANCH   1   2
BRANCH   1  27
ATOM     27  C   UNL     1      12.590 -10.128  28.875  1.00  0.00     0.339 C 
ATOM     28  C   UNL     1      11.758  -9.653  30.093  1.00  0.00     0.214 C 
ATOM     29  O   UNL     1      11.756 -10.672  27.869  1.00  0.00    -0.332 OA
ATOM     30  C   UNL     1      10.311 -10.209  30.097  1.00  0.00     0.180 C 
ATOM     31  C   UNL     1      11.159 -11.879  28.293  1.00  0.00     0.179 C 
ATOM     32  C   UNL     1      10.224 -11.652  29.534  1.00  0.00     0.177 C 
BRANCH  28  33
ATOM     33  O   UNL     1      12.414  -9.941  31.308  1.00  0.00    -0.384 OA
ATOM     34  H   UNL     1      12.832 -10.828  31.214  1.00  0.00     0.211 HD
ENDBRANCH  28  33
BRANCH  30  35
ATOM     35  O   UNL     1       9.481  -9.371  29.334  1.00  0.00    -0.387 OA
ATOM     36  H   UNL     1       8.658  -9.889  29.127  1.00  0.00     0.211 HD
ENDBRANCH  30  35
BRANCH  31  37
ATOM     37  C   UNL     1      10.391 -12.493  27.095  1.00  0.00     0.191 C 
BRANCH  37  38
ATOM     38  O   UNL     1      10.431 -13.892  27.149  1.00  0.00    -0.394 OA
ATOM     39  H   UNL     1      10.368 -14.214  26.210  1.00  0.00     0.210 HD
ENDBRANCH  37  38
ENDBRANCH  31  37
BRANCH  32  40
ATOM     40  O   UNL     1      10.454 -12.613  30.533  1.00  0.00    -0.387 OA
ATOM     41  H   UNL     1      10.367 -13.514  30.129  1.00  0.00     0.211 HD
ENDBRANCH  32  40
ENDBRANCH   1  27
TORSDOF 12
ENDMDL
MODEL 3
REMARK VINA RESULT:    17.339      3.080      5.026
REMARK INTER + INTRA:          25.629
REMARK INTER:                  24.898
REMARK INTRA:                   0.731
REMARK UNBOUND:                 0.181
REMARK SMILES O=c1c(O[C@@H]2O[C@H](CO)[C@@H](O)[C@H](O)[C@H]2O)c(-c2ccc(O)c(O)c2)oc2cc(O)cc(O)c12
REMARK SMILES IDX 4 1 3 2 16 3 25 4 2 5 26 6 1 7 33 8 27 9 31 10 28 11 30 12
REMARK SMILES IDX 17 13 18 14 19 15 20 16 24 17 22 18 21 19 23 21 32 23 29 25
REMARK SMILES IDX 5 27 14 28 6 29 12 30 7 31 10 32 15 33 13 35 8 37 9 38 11 40
REMARK H PARENT 21 20 23 22 32 24 29 26 15 34 13 36 9 39 11 41
REMARK Flexibility Score: inf
ROOT
ATOM      1  O   UNL     1      16.943  -2.474  25.887  1.00  0.00    -0.454 OA
ENDROOT
BRANCH   1   2
ATOM      2  C   UNL     1      16.396  -2.314  27.164  1.00  0.00     0.214 A 
ATOM      3  C   UNL     1      15.403  -1.349  27.414  1.00  0.00     0.180 A 
ATOM      4  O   UNL     1      14.813  -1.300  28.604  1.00  0.00    -0.452 OA
ATOM      5  C   UNL     1      16.795  -3.162  28.206  1.00  0.00     0.239 A 
ATOM      6  C   UNL     1      15.139  -2.106  29.612  1.00  0.00     0.146 A 
ATOM      7  O   UNL     1      17.706  -4.006  27.994  1.00  0.00    -0.285 OA
ATOM      8  C   UNL     1      16.168  -3.069  29.463  1.00  0.00     0.111 A 
ATOM      9  C   UNL     1      14.465  -1.980  30.829  1.00  0.00     0.094 A 
ATOM     10  C   UNL     1      16.512  -3.886  30.568  1.00  0.00     0.134 A 
ATOM     11  C   UNL     1      14.798  -2.801  31.913  1.00  0.00     0.123 A 
ATOM     12  C   UNL     1      15.821  -3.740  31.783  1.00  0.00     0.093 A 
BRANCH   3  13
ATOM     13  C   UNL     1      14.972  -0.388  26.376  1.00  0.00     0.025 A 
ATOM     14  C   UNL     1      15.003  -0.729  25.012  1.00  0.00     0.016 A 
ATOM     15  C   UNL     1      14.624   0.202  24.042  1.00  0.00     0.051 A 
ATOM     16  C   UNL     1      14.212   1.486  24.411  1.00  0.00     0.157 A 
ATOM     17  C   UNL     1      14.573   0.906  26.742  1.00  0.00     0.062 A 
ATOM     18  C   UNL     1      14.186   1.842  25.778  1.00  0.00     0.158 A 
BRANCH  16  19
ATOM     19  O   UNL     1      13.838   2.371  23.392  1.00  0.00    -0.504 OA
ATOM     20  H   UNL     1      14.476   3.006  22.937  1.00  0.00     0.293 HD
ENDBRANCH  16  19
BRANCH  18  21
ATOM     21  O   UNL     1      13.786   3.106  26.218  1.00  0.00    -0.504 OA
ATOM     22  H   UNL     1      13.977   3.476  27.135  1.00  0.00     0.293 HD
ENDBRANCH  18  21
ENDBRANCH   3  13
BRANCH  10  23
ATOM     23  O   UNL     1      17.522  -4.841  30.468  1.00  0.00    -0.507 OA
ATOM     24  H   UNL     1      17.861  -5.343  31.279  1.00  0.00     0.293 HD
ENDBRANCH  10  23
BRANCH  11  25
ATOM     25  O   UNL     1      14.122  -2.692  33.124  1.00  0.00    -0.508 OA
ATOM     26  H   UNL     1      13.219  -3.131  33.264  1.00  0.00     0.293 HD
ENDBRANCH  11  25
ENDBRANCH   1   2
BRANCH   1  27
ATOM     27  C   UNL     1      18.336  -2.303  25.607  1.00  0.00     0.339 C 
ATOM     28  C   UNL     1      18.570  -0.848  25.127  1.00  0.00     0.214 C 
ATOM     29  O   UNL     1      19.097  -2.585  26.768  1.00  0.00    -0.332 OA
ATOM     30  C   UNL     1      19.817  -0.187  25.767  1.00  0.00     0.180 C 
ATOM     31  C   UNL     1      20.479  -2.597  26.486  1.00  0.00     0.179 C 
ATOM     32  C   UNL     1      20.977  -1.193  25.991  1.00  0.00     0.177 C 
BRANCH  28  33
ATOM     33  O   UNL     1      18.624  -0.774  23.720  1.00  0.00    -0.384 OA
ATOM     34  H   UNL     1      17.773  -1.126  23.373  1.00  0.00     0.211 HD
ENDBRANCH  28  33
BRANCH  30  35
ATOM     35  O   UNL     1      19.467   0.385  27.002  1.00  0.00    -0.387 OA
ATOM     36  H   UNL     1      18.774   1.073  26.816  1.00  0.00     0.211 HD
ENDBRANCH  30  35
BRANCH  31  37
ATOM     37  C   UNL     1      21.234  -3.064  27.757  1.00  0.00     0.191 C 
BRANCH  37  38
ATOM     38  O   UNL     1      20.404  -2.985  28.881  1.00  0.00    -0.394 OA
ATOM     39  H   UNL     1      20.917  -3.370  29.640  1.00  0.00     0.210 HD
ENDBRANCH  37  38
ENDBRANCH  31  37
BRANCH  32  40
ATOM     40  O   UNL     1      21.789  -1.308  24.850  1.00  0.00    -0.387 OA
ATOM     41  H   UNL     1      21.249  -1.068  24.054  1.00  0.00     0.211 HD
ENDBRANCH  32  40
ENDBRANCH   1  27
TORSDOF 12
ENDMDL
MODEL 4
REMARK VINA RESULT:    18.146      6.921     10.438
REMARK INTER + INTRA:          26.814
REMARK INTER:                  24.765
REMARK INTRA:                   2.049
REMARK UNBOUND:                 0.181
REMARK SMILES O=c1c(O[C@@H]2O[C@H](CO)[C@@H](O)[C@H](O)[C@H]2O)c(-c2ccc(O)c(O)c2)oc2cc(O)cc(O)c12
REMARK SMILES IDX 4 1 3 2 16 3 25 4 2 5 26 6 1 7 33 8 27 9 31 10 28 11 30 12
REMARK SMILES IDX 17 13 18 14 19 15 20 16 24 17 22 18 21 19 23 21 32 23 29 25
REMARK SMILES IDX 5 27 14 28 6 29 12 30 7 31 10 32 15 33 13 35 8 37 9 38 11 40
REMARK H PARENT 21 20 23 22 32 24 29 26 15 34 13 36 9 39 11 41
REMARK Flexibility Score: inf
ROOT
ATOM      1  O   UNL     1      13.853 -11.702  29.740  1.00  0.00    -0.454 OA
ENDROOT
BRANCH   1   2
ATOM      2  C   UNL     1      14.232 -12.561  28.703  1.00  0.00     0.214 A 
ATOM      3  C   UNL     1      14.506 -12.068  27.414  1.00  0.00     0.180 A 
ATOM      4  O   UNL     1      14.982 -12.885  26.480  1.00  0.00    -0.452 OA
ATOM      5  C   UNL     1      14.400 -13.929  28.955  1.00  0.00     0.239 A 
ATOM      6  C   UNL     1      15.186 -14.185  26.686  1.00  0.00     0.146 A 
ATOM      7  O   UNL     1      14.126 -14.379  30.100  1.00  0.00    -0.285 OA
ATOM      8  C   UNL     1      14.883 -14.775  27.939  1.00  0.00     0.111 A 
ATOM      9  C   UNL     1      15.689 -14.968  25.643  1.00  0.00     0.094 A 
ATOM     10  C   UNL     1      15.080 -16.167  28.110  1.00  0.00     0.134 A 
ATOM     11  C   UNL     1      15.896 -16.340  25.824  1.00  0.00     0.123 A 
ATOM     12  C   UNL     1      15.585 -16.935  27.046  1.00  0.00     0.093 A 
BRANCH   3  13
ATOM     13  C   UNL     1      14.300 -10.647  27.064  1.00  0.00     0.025 A 
ATOM     14  C   UNL     1      13.019 -10.064  27.109  1.00  0.00     0.016 A 
ATOM     15  C   UNL     1      12.837  -8.730  26.743  1.00  0.00     0.051 A 
ATOM     16  C   UNL     1      13.920  -7.952  26.324  1.00  0.00     0.157 A 
ATOM     17  C   UNL     1      15.382  -9.868  26.628  1.00  0.00     0.062 A 
ATOM     18  C   UNL     1      15.209  -8.528  26.266  1.00  0.00     0.158 A 
BRANCH  16  19
ATOM     19  O   UNL     1      13.672  -6.618  25.977  1.00  0.00    -0.504 OA
ATOM     20  H   UNL     1      12.750  -6.228  25.867  1.00  0.00     0.293 HD
ENDBRANCH  16  19
BRANCH  18  21
ATOM     21  O   UNL     1      16.336  -7.812  25.857  1.00  0.00    -0.504 OA
ATOM     22  H   UNL     1      16.817  -7.135  26.426  1.00  0.00     0.293 HD
ENDBRANCH  18  21
ENDBRANCH   3  13
BRANCH  10  23
ATOM     23  O   UNL     1      14.789 -16.789  29.323  1.00  0.00    -0.507 OA
ATOM     24  H   UNL     1      14.478 -17.752  29.365  1.00  0.00     0.293 HD
ENDBRANCH  10  23
BRANCH  11  25
ATOM     25  O   UNL     1      16.409 -17.125  24.795  1.00  0.00    -0.508 OA
ATOM     26  H   UNL     1      17.313 -17.575  24.879  1.00  0.00     0.293 HD
ENDBRANCH  11  25
ENDBRANCH   1   2
BRANCH   1  27
ATOM     27  C   UNL     1      12.488 -11.380  30.028  1.00  0.00     0.339 C 
ATOM     28  C   UNL     1      12.432  -9.953  30.628  1.00  0.00     0.214 C 
ATOM     29  O   UNL     1      11.715 -11.466  28.844  1.00  0.00    -0.332 OA
ATOM     30  C   UNL     1      11.287  -9.089  30.042  1.00  0.00     0.180 C 
ATOM     31  C   UNL     1      10.338 -11.327  29.119  1.00  0.00     0.179 C 
ATOM     32  C   UNL     1      10.013  -9.917  29.730  1.00  0.00     0.177 C 
BRANCH  28  33
ATOM     33  O   UNL     1      12.367  -9.991  32.037  1.00  0.00    -0.384 OA
ATOM     34  H   UNL     1      11.415  -9.958  32.289  1.00  0.00     0.211 HD
ENDBRANCH  28  33
BRANCH  30  35
ATOM     35  O   UNL     1      11.724  -8.463  28.863  1.00  0.00    -0.387 OA
ATOM     36  H   UNL     1      11.787  -7.490  29.057  1.00  0.00     0.211 HD
ENDBRANCH  30  35
BRANCH  31  37
ATOM     37  C   UNL     1       9.549 -11.585  27.810  1.00  0.00     0.191 C 
BRANCH  37  38
ATOM     38  O   UNL     1       9.904 -12.821  27.255  1.00  0.00    -0.394 OA
ATOM     39  H   UNL     1      10.037 -12.667  26.282  1.00  0.00     0.210 HD
ENDBRANCH  37  38
ENDBRANCH  31  37
BRANCH  32  40
ATOM     40  O   UNL     1       9.177 -10.025  30.853  1.00  0.00    -0.387 OA
ATOM     41  H   UNL     1       8.402  -9.418  30.728  1.00  0.00     0.211 HD
ENDBRANCH  32  40
ENDBRANCH   1  27
TORSDOF 12
ENDMDL
