MODEL 1
REMARK VINA RESULT:    -6.218      0.000      0.000
REMARK INTER + INTRA:          -6.819
REMARK INTER:                  -6.763
REMARK INTRA:                  -0.057
REMARK UNBOUND:                -0.057
REMARK SMILES COc1cc2ccc(=O)oc2cc1O
REMARK SMILES IDX 3 1 13 2 12 3 11 4 5 5 4 6 6 7 7 8 8 9 9 10 10 11 2 12 1 13
REMARK SMILES IDX 14 14
REMARK H PARENT 14 15
REMARK Flexibility Score: inf
ROOT
ATOM      1  C   UNL     1     -33.949  10.381 -36.946  1.00  0.00     0.161 A 
ATOM      2  C   UNL     1     -34.190  11.688 -36.493  1.00  0.00     0.161 A 
ATOM      3  C   UNL     1     -33.882  12.047 -35.173  1.00  0.00     0.098 A 
ATOM      4  C   UNL     1     -33.333  11.108 -34.296  1.00  0.00     0.142 A 
ATOM      5  C   UNL     1     -33.087   9.793 -34.744  1.00  0.00     0.022 A 
ATOM      6  C   UNL     1     -33.394   9.432 -36.063  1.00  0.00     0.062 A 
ATOM      7  C   UNL     1     -32.536   8.875 -33.844  1.00  0.00     0.019 A 
ATOM      8  C   UNL     1     -32.247   9.281 -32.542  1.00  0.00     0.094 A 
ATOM      9  C   UNL     1     -32.518  10.602 -32.169  1.00  0.00     0.336 A 
ATOM     10  O   UNL     1     -32.265  10.989 -30.997  1.00  0.00    -0.246 OA
ATOM     11  O   UNL     1     -33.043  11.455 -33.045  1.00  0.00    -0.423 OA
ENDROOT
BRANCH   1  12
ATOM     12  O   UNL     1     -34.273  10.066 -38.275  1.00  0.00    -0.493 OA
ATOM     13  C   UNL     1     -35.500   9.471 -38.687  1.00  0.00     0.278 C 
ENDBRANCH   1  12
BRANCH   2  14
ATOM     14  O   UNL     1     -34.739  12.627 -37.364  1.00  0.00    -0.504 OA
ATOM     15  H   UNL     1     -35.698  12.939 -37.273  1.00  0.00     0.293 HD
ENDBRANCH   2  14
TORSDOF 2
ENDMDL
MODEL 2
REMARK VINA RESULT:    -5.726      1.588      5.373
REMARK INTER + INTRA:          -6.285
REMARK INTER:                  -6.357
REMARK INTRA:                   0.072
REMARK UNBOUND:                -0.057
REMARK SMILES COc1cc2ccc(=O)oc2cc1O
REMARK SMILES IDX 3 1 13 2 12 3 11 4 5 5 4 6 6 7 7 8 8 9 9 10 10 11 2 12 1 13
REMARK SMILES IDX 14 14
REMARK H PARENT 14 15
REMARK Flexibility Score: inf
ROOT
ATOM      1  C   UNL     1     -33.566  11.197 -32.618  1.00  0.00     0.161 A 
ATOM      2  C   UNL     1     -33.634   9.795 -32.584  1.00  0.00     0.161 A 
ATOM      3  C   UNL     1     -33.819   9.067 -33.767  1.00  0.00     0.098 A 
ATOM      4  C   UNL     1     -33.938   9.729 -34.991  1.00  0.00     0.142 A 
ATOM      5  C   UNL     1     -33.870  11.137 -35.035  1.00  0.00     0.022 A 
ATOM      6  C   UNL     1     -33.686  11.867 -33.853  1.00  0.00     0.062 A 
ATOM      7  C   UNL     1     -33.993  11.772 -36.275  1.00  0.00     0.019 A 
ATOM      8  C   UNL     1     -34.175  11.003 -37.423  1.00  0.00     0.094 A 
ATOM      9  C   UNL     1     -34.232   9.610 -37.304  1.00  0.00     0.336 A 
ATOM     10  O   UNL     1     -34.396   8.897 -38.329  1.00  0.00    -0.246 OA
ATOM     11  O   UNL     1     -34.113   9.031 -36.111  1.00  0.00    -0.423 OA
ENDROOT
BRANCH   1  12
ATOM     12  O   UNL     1     -33.381  11.885 -31.408  1.00  0.00    -0.493 OA
ATOM     13  C   UNL     1     -32.143  11.967 -30.709  1.00  0.00     0.278 C 
ENDBRANCH   1  12
BRANCH   2  14
ATOM     14  O   UNL     1     -33.516   9.131 -31.364  1.00  0.00    -0.504 OA
ATOM     15  H   UNL     1     -33.171   8.180 -31.308  1.00  0.00     0.293 HD
ENDBRANCH   2  14
TORSDOF 2
ENDMDL
MODEL 3
REMARK VINA RESULT:    -5.191      1.142      2.207
REMARK INTER + INTRA:          -5.703
REMARK INTER:                  -5.641
REMARK INTRA:                  -0.062
REMARK UNBOUND:                -0.057
REMARK SMILES COc1cc2ccc(=O)oc2cc1O
REMARK SMILES IDX 3 1 13 2 12 3 11 4 5 5 4 6 6 7 7 8 8 9 9 10 10 11 2 12 1 13
REMARK SMILES IDX 14 14
REMARK H PARENT 14 15
REMARK Flexibility Score: inf
ROOT
ATOM      1  C   UNL     1     -33.808  10.660 -36.913  1.00  0.00     0.161 A 
ATOM      2  C   UNL     1     -32.875   9.622 -36.767  1.00  0.00     0.161 A 
ATOM      3  C   UNL     1     -32.326   9.336 -35.509  1.00  0.00     0.098 A 
ATOM      4  C   UNL     1     -32.702  10.083 -34.390  1.00  0.00     0.142 A 
ATOM      5  C   UNL     1     -33.639  11.128 -34.528  1.00  0.00     0.022 A 
ATOM      6  C   UNL     1     -34.189  11.415 -35.785  1.00  0.00     0.062 A 
ATOM      7  C   UNL     1     -33.996  11.857 -33.389  1.00  0.00     0.019 A 
ATOM      8  C   UNL     1     -33.422  11.535 -32.161  1.00  0.00     0.094 A 
ATOM      9  C   UNL     1     -32.499  10.485 -32.100  1.00  0.00     0.336 A 
ATOM     10  O   UNL     1     -31.968  10.177 -31.000  1.00  0.00    -0.246 OA
ATOM     11  O   UNL     1     -32.177   9.807 -33.198  1.00  0.00    -0.423 OA
ENDROOT
BRANCH   1  12
ATOM     12  O   UNL     1     -34.332  10.911 -38.192  1.00  0.00    -0.493 OA
ATOM     13  C   UNL     1     -35.701  10.748 -38.548  1.00  0.00     0.278 C 
ENDBRANCH   1  12
BRANCH   2  14
ATOM     14  O   UNL     1     -32.497   8.875 -37.882  1.00  0.00    -0.504 OA
ATOM     15  H   UNL     1     -33.132   8.219 -38.322  1.00  0.00     0.293 HD
ENDBRANCH   2  14
TORSDOF 2
ENDMDL
MODEL 4
REMARK VINA RESULT:    -4.943      1.675      2.704
REMARK INTER + INTRA:          -5.433
REMARK INTER:                  -5.376
REMARK INTRA:                  -0.057
REMARK UNBOUND:                -0.057
REMARK SMILES COc1cc2ccc(=O)oc2cc1O
REMARK SMILES IDX 3 1 13 2 12 3 11 4 5 5 4 6 6 7 7 8 8 9 9 10 10 11 2 12 1 13
REMARK SMILES IDX 14 14
REMARK H PARENT 14 15
REMARK Flexibility Score: inf
ROOT
ATOM      1  C   UNL     1     -32.947  10.433 -35.838  1.00  0.00     0.161 A 
ATOM      2  C   UNL     1     -31.868   9.689 -35.337  1.00  0.00     0.161 A 
ATOM      3  C   UNL     1     -31.528   9.763 -33.979  1.00  0.00     0.098 A 
ATOM      4  C   UNL     1     -32.260  10.578 -33.112  1.00  0.00     0.142 A 
ATOM      5  C   UNL     1     -33.346  11.329 -33.608  1.00  0.00     0.022 A 
ATOM      6  C   UNL     1     -33.688  11.256 -34.965  1.00  0.00     0.062 A 
ATOM      7  C   UNL     1     -34.060  12.135 -32.716  1.00  0.00     0.019 A 
ATOM      8  C   UNL     1     -33.683  12.174 -31.375  1.00  0.00     0.094 A 
ATOM      9  C   UNL     1     -32.594  11.402 -30.954  1.00  0.00     0.336 A 
ATOM     10  O   UNL     1     -32.237  11.423 -29.747  1.00  0.00    -0.246 OA
ATOM     11  O   UNL     1     -31.932  10.644 -31.824  1.00  0.00    -0.423 OA
ENDROOT
BRANCH   1  12
ATOM     12  O   UNL     1     -33.252  10.329 -37.205  1.00  0.00    -0.493 OA
ATOM     13  C   UNL     1     -34.530   9.972 -37.721  1.00  0.00     0.278 C 
ENDBRANCH   1  12
BRANCH   2  14
ATOM     14  O   UNL     1     -31.135   8.875 -36.199  1.00  0.00    -0.504 OA
ATOM     15  H   UNL     1     -31.481   8.629 -37.119  1.00  0.00     0.293 HD
ENDBRANCH   2  14
TORSDOF 2
ENDMDL
MODEL 5
REMARK VINA RESULT:    -4.678      1.970      3.133
REMARK INTER + INTRA:          -5.145
REMARK INTER:                  -5.214
REMARK INTRA:                   0.069
REMARK UNBOUND:                -0.057
REMARK SMILES COc1cc2ccc(=O)oc2cc1O
REMARK SMILES IDX 3 1 13 2 12 3 11 4 5 5 4 6 6 7 7 8 8 9 9 10 10 11 2 12 1 13
REMARK SMILES IDX 14 14
REMARK H PARENT 14 15
REMARK Flexibility Score: inf
ROOT
ATOM      1  C   UNL     1     -35.226  10.715 -38.538  1.00  0.00     0.161 A 
ATOM      2  C   UNL     1     -34.452   9.583 -38.840  1.00  0.00     0.161 A 
ATOM      3  C   UNL     1     -33.437   9.167 -37.967  1.00  0.00     0.098 A 
ATOM      4  C   UNL     1     -33.187   9.874 -36.788  1.00  0.00     0.142 A 
ATOM      5  C   UNL     1     -33.960  11.012 -36.478  1.00  0.00     0.022 A 
ATOM      6  C   UNL     1     -34.974  11.430 -37.349  1.00  0.00     0.062 A 
ATOM      7  C   UNL     1     -33.685  11.700 -35.291  1.00  0.00     0.019 A 
ATOM      8  C   UNL     1     -32.666  11.245 -34.456  1.00  0.00     0.094 A 
ATOM      9  C   UNL     1     -31.941  10.109 -34.829  1.00  0.00     0.336 A 
ATOM     10  O   UNL     1     -31.016   9.682 -34.089  1.00  0.00    -0.246 OA
ATOM     11  O   UNL     1     -32.222   9.474 -35.964  1.00  0.00    -0.423 OA
ENDROOT
BRANCH   1  12
ATOM     12  O   UNL     1     -36.231  11.096 -39.442  1.00  0.00    -0.493 OA
ATOM     13  C   UNL     1     -37.486  10.437 -39.575  1.00  0.00     0.278 C 
ENDBRANCH   1  12
BRANCH   2  14
ATOM     14  O   UNL     1     -34.699   8.875 -40.015  1.00  0.00    -0.504 OA
ATOM     15  H   UNL     1     -34.104   8.110 -40.308  1.00  0.00     0.293 HD
ENDBRANCH   2  14
TORSDOF 2
ENDMDL
MODEL 6
REMARK VINA RESULT:    -4.510      1.524      5.251
REMARK INTER + INTRA:          -4.962
REMARK INTER:                  -4.988
REMARK INTRA:                   0.026
REMARK UNBOUND:                -0.057
REMARK SMILES COc1cc2ccc(=O)oc2cc1O
REMARK SMILES IDX 3 1 13 2 12 3 11 4 5 5 4 6 6 7 7 8 8 9 9 10 10 11 2 12 1 13
REMARK SMILES IDX 14 14
REMARK H PARENT 14 15
REMARK Flexibility Score: inf
ROOT
ATOM      1  C   UNL     1     -32.497   9.911 -35.510  1.00  0.00     0.161 A 
ATOM      2  C   UNL     1     -33.109  11.162 -35.333  1.00  0.00     0.161 A 
ATOM      3  C   UNL     1     -34.023  11.643 -36.280  1.00  0.00     0.098 A 
ATOM      4  C   UNL     1     -34.335  10.883 -37.410  1.00  0.00     0.142 A 
ATOM      5  C   UNL     1     -33.725   9.624 -37.595  1.00  0.00     0.022 A 
ATOM      6  C   UNL     1     -32.810   9.142 -36.649  1.00  0.00     0.062 A 
ATOM      7  C   UNL     1     -34.056   8.885 -38.736  1.00  0.00     0.019 A 
ATOM      8  C   UNL     1     -34.971   9.407 -39.648  1.00  0.00     0.094 A 
ATOM      9  C   UNL     1     -35.536  10.663 -39.398  1.00  0.00     0.336 A 
ATOM     10  O   UNL     1     -36.365  11.153 -40.210  1.00  0.00    -0.246 OA
ATOM     11  O   UNL     1     -35.203  11.345 -38.306  1.00  0.00    -0.423 OA
ENDROOT
BRANCH   1  12
ATOM     12  O   UNL     1     -31.588   9.469 -34.536  1.00  0.00    -0.493 OA
ATOM     13  C   UNL     1     -31.960   8.878 -33.295  1.00  0.00     0.278 C 
ENDBRANCH   1  12
BRANCH   2  14
ATOM     14  O   UNL     1     -32.801  11.924 -34.207  1.00  0.00    -0.504 OA
ATOM     15  H   UNL     1     -32.999  11.592 -33.271  1.00  0.00     0.293 HD
ENDBRANCH   2  14
TORSDOF 2
ENDMDL
MODEL 7
REMARK VINA RESULT:    -4.143      1.768      5.681
REMARK INTER + INTRA:          -4.563
REMARK INTER:                  -4.801
REMARK INTRA:                   0.238
REMARK UNBOUND:                -0.057
REMARK SMILES COc1cc2ccc(=O)oc2cc1O
REMARK SMILES IDX 3 1 13 2 12 3 11 4 5 5 4 6 6 7 7 8 8 9 9 10 10 11 2 12 1 13
REMARK SMILES IDX 14 14
REMARK H PARENT 14 15
REMARK Flexibility Score: inf
ROOT
ATOM      1  C   UNL     1     -33.295  11.062 -35.247  1.00  0.00     0.161 A 
ATOM      2  C   UNL     1     -33.193   9.663 -35.305  1.00  0.00     0.161 A 
ATOM      3  C   UNL     1     -33.737   8.959 -36.388  1.00  0.00     0.098 A 
ATOM      4  C   UNL     1     -34.385   9.642 -37.420  1.00  0.00     0.142 A 
ATOM      5  C   UNL     1     -34.492  11.048 -37.369  1.00  0.00     0.022 A 
ATOM      6  C   UNL     1     -33.948  11.754 -36.287  1.00  0.00     0.062 A 
ATOM      7  C   UNL     1     -35.146  11.704 -38.417  1.00  0.00     0.019 A 
ATOM      8  C   UNL     1     -35.670  10.959 -39.471  1.00  0.00     0.094 A 
ATOM      9  C   UNL     1     -35.527   9.567 -39.454  1.00  0.00     0.336 A 
ATOM     10  O   UNL     1     -35.993   8.875 -40.397  1.00  0.00    -0.246 OA
ATOM     11  O   UNL     1     -34.900   8.968 -38.445  1.00  0.00    -0.423 OA
ENDROOT
BRANCH   1  12
ATOM     12  O   UNL     1     -32.735  11.726 -34.143  1.00  0.00    -0.493 OA
ATOM     13  C   UNL     1     -33.152  11.540 -32.794  1.00  0.00     0.278 C 
ENDBRANCH   1  12
BRANCH   2  14
ATOM     14  O   UNL     1     -32.547   8.978 -34.278  1.00  0.00    -0.504 OA
ATOM     15  H   UNL     1     -32.917   8.964 -33.334  1.00  0.00     0.293 HD
ENDBRANCH   2  14
TORSDOF 2
ENDMDL
MODEL 8
REMARK VINA RESULT:    -3.903     18.274     19.594
REMARK INTER + INTRA:          -4.302
REMARK INTER:                  -4.249
REMARK INTRA:                  -0.053
REMARK UNBOUND:                -0.057
REMARK SMILES COc1cc2ccc(=O)oc2cc1O
REMARK SMILES IDX 3 1 13 2 12 3 11 4 5 5 4 6 6 7 7 8 8 9 9 10 10 11 2 12 1 13
REMARK SMILES IDX 14 14
REMARK H PARENT 14 15
REMARK Flexibility Score: inf
ROOT
ATOM      1  C   UNL     1     -24.203  24.831 -31.193  1.00  0.00     0.161 A 
ATOM      2  C   UNL     1     -23.314  24.208 -30.303  1.00  0.00     0.161 A 
ATOM      3  C   UNL     1     -22.464  24.978 -29.498  1.00  0.00     0.098 A 
ATOM      4  C   UNL     1     -22.493  26.372 -29.573  1.00  0.00     0.142 A 
ATOM      5  C   UNL     1     -23.384  27.007 -30.464  1.00  0.00     0.022 A 
ATOM      6  C   UNL     1     -24.235  26.239 -31.270  1.00  0.00     0.062 A 
ATOM      7  C   UNL     1     -23.390  28.405 -30.517  1.00  0.00     0.019 A 
ATOM      8  C   UNL     1     -22.526  29.125 -29.695  1.00  0.00     0.094 A 
ATOM      9  C   UNL     1     -21.669  28.428 -28.835  1.00  0.00     0.336 A 
ATOM     10  O   UNL     1     -20.880  29.060 -28.085  1.00  0.00    -0.246 OA
ATOM     11  O   UNL     1     -21.683  27.098 -28.805  1.00  0.00    -0.423 OA
ENDROOT
BRANCH   1  12
ATOM     12  O   UNL     1     -25.036  24.021 -31.981  1.00  0.00    -0.493 OA
ATOM     13  C   UNL     1     -26.430  24.243 -32.173  1.00  0.00     0.278 C 
ENDBRANCH   1  12
BRANCH   2  14
ATOM     14  O   UNL     1     -23.282  22.816 -30.226  1.00  0.00    -0.504 OA
ATOM     15  H   UNL     1     -23.155  22.337 -29.343  1.00  0.00     0.293 HD
ENDBRANCH   2  14
TORSDOF 2
ENDMDL
