MODEL 1
REMARK VINA RESULT:    -4.815      0.000      0.000
REMARK INTER + INTRA:          -8.356
REMARK INTER:                  -6.644
REMARK INTRA:                  -1.712
REMARK UNBOUND:                -1.712
REMARK SMILES CC[C@H](CC[C@H](C)[C@@H]1CC[C@@H]2C3=CC[C@H]4C[C@H](O)CC[C@]4(C)[C@@H]3CC[C@]21C)C(C)C
REMARK SMILES IDX 5 1 4 2 3 3 2 4 1 5 28 6 29 7 30 8 6 9 7 10 8 11 9 12 26 13
REMARK SMILES IDX 10 14 11 15 25 16 27 17 12 18 24 19 23 20 13 21 21 22 14 23
REMARK SMILES IDX 15 24 20 25 22 26 16 27 19 28 17 29 18 30
REMARK H PARENT 18 31
REMARK Flexibility Score: inf
ROOT
ATOM      1  C   UNL     1       3.162  -6.244  -4.085  1.00  0.00     0.004 C 
ENDROOT
BRANCH   1   2
ATOM      2  C   UNL     1       3.675  -5.806  -2.690  1.00  0.00     0.004 C 
BRANCH   2   3
ATOM      3  C   UNL     1       2.605  -5.113  -1.793  1.00  0.00    -0.009 C 
BRANCH   3   4
ATOM      4  C   UNL     1       2.585  -5.756  -0.379  1.00  0.00     0.000 C 
ATOM      5  C   UNL     1       2.614  -7.289  -0.382  1.00  0.00     0.004 C 
ENDBRANCH   3   4
BRANCH   3   6
ATOM      6  C   UNL     1       2.664  -3.538  -1.703  1.00  0.00    -0.014 C 
ATOM      7  C   UNL     1       1.669  -2.903  -0.716  1.00  0.00     0.007 C 
ATOM      8  C   UNL     1       4.086  -3.022  -1.423  1.00  0.00     0.007 C 
ENDBRANCH   3   6
ENDBRANCH   2   3
ENDBRANCH   1   2
BRANCH   1   9
ATOM      9  C   UNL     1       1.620  -6.397  -4.218  1.00  0.00    -0.011 C 
ATOM     10  C   UNL     1       1.222  -7.869  -4.027  1.00  0.00     0.008 C 
BRANCH   9  11
ATOM     11  C   UNL     1       1.039  -5.785  -5.545  1.00  0.00    -0.002 C 
ATOM     12  C   UNL     1       2.125  -5.090  -6.414  1.00  0.00     0.005 C 
ATOM     13  C   UNL     1      -0.087  -4.711  -5.429  1.00  0.00    -0.023 C 
ATOM     14  C   UNL     1       1.459  -3.900  -7.121  1.00  0.00     0.009 C 
ATOM     15  C   UNL     1      -0.024  -4.095  -6.835  1.00  0.00     0.021 C 
ATOM     16  C   UNL     1      -1.528  -5.268  -5.234  1.00  0.00     0.008 C 
ATOM     17  C   UNL     1       0.244  -3.668  -4.317  1.00  0.00     0.012 C 
ATOM     18  C   UNL     1      -1.026  -2.972  -6.983  1.00  0.00    -0.067 C 
ATOM     19  C   UNL     1      -2.612  -4.175  -5.441  1.00  0.00     0.009 C 
ATOM     20  C   UNL     1      -2.479  -3.432  -6.806  1.00  0.00     0.021 C 
ATOM     21  C   UNL     1      -0.667  -1.666  -7.028  1.00  0.00    -0.027 C 
ATOM     22  C   UNL     1      -3.519  -2.271  -7.063  1.00  0.00    -0.023 C 
ATOM     23  C   UNL     1      -1.663  -0.533  -6.992  1.00  0.00     0.031 C 
ATOM     24  C   UNL     1      -2.998  -0.980  -6.372  1.00  0.00     0.002 C 
ATOM     25  C   UNL     1      -4.907  -2.594  -6.451  1.00  0.00     0.010 C 
ATOM     26  C   UNL     1      -3.650  -2.104  -8.613  1.00  0.00     0.012 C 
ATOM     27  C   UNL     1      -4.026   0.188  -6.263  1.00  0.00     0.036 C 
ATOM     28  C   UNL     1      -5.972  -1.513  -6.706  1.00  0.00     0.032 C 
ATOM     29  C   UNL     1      -5.428  -0.071  -6.869  1.00  0.00     0.114 C 
BRANCH  29  30
ATOM     30  O   UNL     1      -6.355   0.858  -6.365  1.00  0.00    -0.393 OA
ATOM     31  H   UNL     1      -6.707   0.502  -5.507  1.00  0.00     0.210 HD
ENDBRANCH  29  30
ENDBRANCH   9  11
ENDBRANCH   1   9
TORSDOF 7
ENDMDL
MODEL 2
REMARK VINA RESULT:    -4.762      5.597      9.269
REMARK INTER + INTRA:          -8.283
REMARK INTER:                  -6.776
REMARK INTRA:                  -1.507
REMARK UNBOUND:                -1.712
REMARK SMILES CC[C@H](CC[C@H](C)[C@@H]1CC[C@@H]2C3=CC[C@H]4C[C@H](O)CC[C@]4(C)[C@@H]3CC[C@]21C)C(C)C
REMARK SMILES IDX 5 1 4 2 3 3 2 4 1 5 28 6 29 7 30 8 6 9 7 10 8 11 9 12 26 13
REMARK SMILES IDX 10 14 11 15 25 16 27 17 12 18 24 19 23 20 13 21 21 22 14 23
REMARK SMILES IDX 15 24 20 25 22 26 16 27 19 28 17 29 18 30
REMARK H PARENT 18 31
REMARK Flexibility Score: inf
ROOT
ATOM      1  C   UNL     1       5.217  -4.226  -0.753  1.00  0.00     0.004 C 
ENDROOT
BRANCH   1   2
ATOM      2  C   UNL     1       4.108  -5.259  -1.078  1.00  0.00     0.004 C 
BRANCH   2   3
ATOM      3  C   UNL     1       2.719  -4.636  -1.411  1.00  0.00    -0.009 C 
BRANCH   3   4
ATOM      4  C   UNL     1       2.613  -3.202  -0.824  1.00  0.00     0.000 C 
ATOM      5  C   UNL     1       1.177  -2.720  -0.589  1.00  0.00     0.004 C 
ENDBRANCH   3   4
BRANCH   3   6
ATOM      6  C   UNL     1       2.270  -4.668  -2.925  1.00  0.00    -0.014 C 
ATOM      7  C   UNL     1       3.076  -3.753  -3.863  1.00  0.00     0.007 C 
ATOM      8  C   UNL     1       2.227  -6.097  -3.491  1.00  0.00     0.007 C 
ENDBRANCH   3   6
ENDBRANCH   2   3
ENDBRANCH   1   2
BRANCH   1   9
ATOM      9  C   UNL     1       6.029  -3.703  -1.971  1.00  0.00    -0.011 C 
ATOM     10  C   UNL     1       6.856  -4.848  -2.577  1.00  0.00     0.008 C 
BRANCH   9  11
ATOM     11  C   UNL     1       6.902  -2.436  -1.649  1.00  0.00    -0.002 C 
ATOM     12  C   UNL     1       7.108  -2.219  -0.123  1.00  0.00     0.005 C 
ATOM     13  C   UNL     1       6.403  -1.048  -2.158  1.00  0.00    -0.023 C 
ATOM     14  C   UNL     1       7.170  -0.704   0.124  1.00  0.00     0.009 C 
ATOM     15  C   UNL     1       7.248  -0.114  -1.278  1.00  0.00     0.021 C 
ATOM     16  C   UNL     1       6.740  -0.716  -3.641  1.00  0.00     0.008 C 
ATOM     17  C   UNL     1       4.874  -0.873  -1.900  1.00  0.00     0.012 C 
ATOM     18  C   UNL     1       6.925   1.337  -1.559  1.00  0.00    -0.067 C 
ATOM     19  C   UNL     1       6.496   0.780  -3.977  1.00  0.00     0.009 C 
ATOM     20  C   UNL     1       7.229   1.754  -3.004  1.00  0.00     0.021 C 
ATOM     21  C   UNL     1       6.224   2.115  -0.700  1.00  0.00    -0.027 C 
ATOM     22  C   UNL     1       6.983   3.294  -3.256  1.00  0.00    -0.023 C 
ATOM     23  C   UNL     1       5.741   3.502  -1.046  1.00  0.00     0.031 C 
ATOM     24  C   UNL     1       5.650   3.700  -2.569  1.00  0.00     0.002 C 
ATOM     25  C   UNL     1       6.841   3.616  -4.766  1.00  0.00     0.010 C 
ATOM     26  C   UNL     1       8.213   4.060  -2.666  1.00  0.00     0.012 C 
ATOM     27  C   UNL     1       5.093   5.104  -2.956  1.00  0.00     0.036 C 
ATOM     28  C   UNL     1       6.640   5.111  -5.073  1.00  0.00     0.032 C 
ATOM     29  C   UNL     1       5.939   5.928  -3.958  1.00  0.00     0.114 C 
BRANCH  29  30
ATOM     30  O   UNL     1       5.161   6.954  -4.523  1.00  0.00    -0.393 OA
ATOM     31  H   UNL     1       5.560   7.823  -4.252  1.00  0.00     0.210 HD
ENDBRANCH  29  30
ENDBRANCH   9  11
ENDBRANCH   1   9
TORSDOF 7
ENDMDL
MODEL 3
REMARK VINA RESULT:    -4.655      6.315      9.811
REMARK INTER + INTRA:          -8.136
REMARK INTER:                  -6.281
REMARK INTRA:                  -1.854
REMARK UNBOUND:                -1.712
REMARK SMILES CC[C@H](CC[C@H](C)[C@@H]1CC[C@@H]2C3=CC[C@H]4C[C@H](O)CC[C@]4(C)[C@@H]3CC[C@]21C)C(C)C
REMARK SMILES IDX 5 1 4 2 3 3 2 4 1 5 28 6 29 7 30 8 6 9 7 10 8 11 9 12 26 13
REMARK SMILES IDX 10 14 11 15 25 16 27 17 12 18 24 19 23 20 13 21 21 22 14 23
REMARK SMILES IDX 15 24 20 25 22 26 16 27 19 28 17 29 18 30
REMARK H PARENT 18 31
REMARK Flexibility Score: inf
ROOT
ATOM      1  C   UNL     1       8.275   2.213  -2.565  1.00  0.00     0.004 C 
ENDROOT
BRANCH   1   2
ATOM      2  C   UNL     1       7.402   3.403  -2.088  1.00  0.00     0.004 C 
BRANCH   2   3
ATOM      3  C   UNL     1       5.870   3.117  -2.071  1.00  0.00    -0.009 C 
BRANCH   3   4
ATOM      4  C   UNL     1       5.327   3.160  -0.616  1.00  0.00     0.000 C 
ATOM      5  C   UNL     1       6.411   3.296   0.459  1.00  0.00     0.004 C 
ENDBRANCH   3   4
BRANCH   3   6
ATOM      6  C   UNL     1       4.974   3.983  -3.041  1.00  0.00    -0.014 C 
ATOM      7  C   UNL     1       5.402   5.454  -3.183  1.00  0.00     0.007 C 
ATOM      8  C   UNL     1       4.828   3.340  -4.431  1.00  0.00     0.007 C 
ENDBRANCH   3   6
ENDBRANCH   2   3
ENDBRANCH   1   2
BRANCH   1   9
ATOM      9  C   UNL     1       8.225   0.940  -1.673  1.00  0.00    -0.011 C 
ATOM     10  C   UNL     1       9.595   0.707  -1.018  1.00  0.00     0.008 C 
BRANCH   9  11
ATOM     11  C   UNL     1       7.693  -0.334  -2.424  1.00  0.00    -0.002 C 
ATOM     12  C   UNL     1       6.944   0.012  -3.742  1.00  0.00     0.005 C 
ATOM     13  C   UNL     1       6.703  -1.275  -1.670  1.00  0.00    -0.023 C 
ATOM     14  C   UNL     1       5.825  -1.026  -3.924  1.00  0.00     0.009 C 
ATOM     15  C   UNL     1       6.122  -2.066  -2.852  1.00  0.00     0.021 C 
ATOM     16  C   UNL     1       7.360  -2.304  -0.703  1.00  0.00     0.008 C 
ATOM     17  C   UNL     1       5.609  -0.453  -0.920  1.00  0.00     0.012 C 
ATOM     18  C   UNL     1       5.081  -3.057  -2.384  1.00  0.00    -0.067 C 
ATOM     19  C   UNL     1       6.357  -3.395  -0.239  1.00  0.00     0.009 C 
ATOM     20  C   UNL     1       5.643  -4.115  -1.423  1.00  0.00     0.021 C 
ATOM     21  C   UNL     1       3.753  -2.889  -2.598  1.00  0.00    -0.027 C 
ATOM     22  C   UNL     1       4.569  -5.203  -1.023  1.00  0.00    -0.023 C 
ATOM     23  C   UNL     1       2.697  -3.771  -1.982  1.00  0.00     0.031 C 
ATOM     24  C   UNL     1       3.224  -4.482  -0.723  1.00  0.00     0.002 C 
ATOM     25  C   UNL     1       4.978  -5.970   0.261  1.00  0.00     0.010 C 
ATOM     26  C   UNL     1       4.454  -6.201  -2.222  1.00  0.00     0.012 C 
ATOM     27  C   UNL     1       2.134  -5.353  -0.028  1.00  0.00     0.036 C 
ATOM     28  C   UNL     1       3.986  -7.072   0.676  1.00  0.00     0.032 C 
ATOM     29  C   UNL     1       2.513  -6.827   0.262  1.00  0.00     0.114 C 
BRANCH  29  30
ATOM     30  O   UNL     1       1.641  -7.374   1.221  1.00  0.00    -0.393 OA
ATOM     31  H   UNL     1       1.400  -6.652   1.859  1.00  0.00     0.210 HD
ENDBRANCH  29  30
ENDBRANCH   9  11
ENDBRANCH   1   9
TORSDOF 7
ENDMDL
MODEL 4
REMARK VINA RESULT:    -4.635      1.256      2.328
REMARK INTER + INTRA:          -8.108
REMARK INTER:                  -7.334
REMARK INTRA:                  -0.774
REMARK UNBOUND:                -1.712
REMARK SMILES CC[C@H](CC[C@H](C)[C@@H]1CC[C@@H]2C3=CC[C@H]4C[C@H](O)CC[C@]4(C)[C@@H]3CC[C@]21C)C(C)C
REMARK SMILES IDX 5 1 4 2 3 3 2 4 1 5 28 6 29 7 30 8 6 9 7 10 8 11 9 12 26 13
REMARK SMILES IDX 10 14 11 15 25 16 27 17 12 18 24 19 23 20 13 21 21 22 14 23
REMARK SMILES IDX 15 24 20 25 22 26 16 27 19 28 17 29 18 30
REMARK H PARENT 18 31
REMARK Flexibility Score: inf
ROOT
ATOM      1  C   UNL     1       3.115  -5.188  -4.218  1.00  0.00     0.004 C 
ENDROOT
BRANCH   1   2
ATOM      2  C   UNL     1       3.620  -4.979  -2.767  1.00  0.00     0.004 C 
BRANCH   2   3
ATOM      3  C   UNL     1       2.511  -4.582  -1.746  1.00  0.00    -0.009 C 
BRANCH   3   4
ATOM      4  C   UNL     1       2.649  -5.417  -0.443  1.00  0.00     0.000 C 
ATOM      5  C   UNL     1       4.019  -6.081  -0.261  1.00  0.00     0.004 C 
ENDBRANCH   3   4
BRANCH   3   6
ATOM      6  C   UNL     1       2.359  -3.043  -1.425  1.00  0.00    -0.014 C 
ATOM      7  C   UNL     1       1.337  -2.706  -0.326  1.00  0.00     0.007 C 
ATOM      8  C   UNL     1       3.709  -2.376  -1.113  1.00  0.00     0.007 C 
ENDBRANCH   3   6
ENDBRANCH   2   3
ENDBRANCH   1   2
BRANCH   1   9
ATOM      9  C   UNL     1       2.351  -6.517  -4.481  1.00  0.00    -0.011 C 
ATOM     10  C   UNL     1       2.858  -7.162  -5.780  1.00  0.00     0.008 C 
BRANCH   9  11
ATOM     11  C   UNL     1       0.787  -6.359  -4.460  1.00  0.00    -0.002 C 
ATOM     12  C   UNL     1       0.047  -7.629  -4.964  1.00  0.00     0.005 C 
ATOM     13  C   UNL     1       0.152  -5.203  -5.294  1.00  0.00    -0.023 C 
ATOM     14  C   UNL     1      -1.229  -7.166  -5.683  1.00  0.00     0.009 C 
ATOM     15  C   UNL     1      -1.307  -5.681  -5.357  1.00  0.00     0.021 C 
ATOM     16  C   UNL     1       0.151  -3.804  -4.611  1.00  0.00     0.008 C 
ATOM     17  C   UNL     1       0.801  -5.112  -6.710  1.00  0.00     0.012 C 
ATOM     18  C   UNL     1      -2.158  -4.724  -6.162  1.00  0.00    -0.067 C 
ATOM     19  C   UNL     1      -0.763  -2.791  -5.352  1.00  0.00     0.009 C 
ATOM     20  C   UNL     1      -2.217  -3.315  -5.558  1.00  0.00     0.021 C 
ATOM     21  C   UNL     1      -2.620  -5.014  -7.402  1.00  0.00    -0.027 C 
ATOM     22  C   UNL     1      -3.190  -2.354  -6.351  1.00  0.00    -0.023 C 
ATOM     23  C   UNL     1      -3.313  -4.005  -8.284  1.00  0.00     0.031 C 
ATOM     24  C   UNL     1      -2.958  -2.565  -7.874  1.00  0.00     0.002 C 
ATOM     25  C   UNL     1      -2.905  -0.862  -6.042  1.00  0.00     0.010 C 
ATOM     26  C   UNL     1      -4.649  -2.716  -5.917  1.00  0.00     0.012 C 
ATOM     27  C   UNL     1      -3.609  -1.500  -8.808  1.00  0.00     0.036 C 
ATOM     28  C   UNL     1      -3.851   0.118  -6.759  1.00  0.00     0.032 C 
ATOM     29  C   UNL     1      -4.420  -0.378  -8.112  1.00  0.00     0.114 C 
BRANCH  29  30
ATOM     30  O   UNL     1      -4.603   0.705  -8.989  1.00  0.00    -0.393 OA
ATOM     31  H   UNL     1      -3.807   0.755  -9.582  1.00  0.00     0.210 HD
ENDBRANCH  29  30
ENDBRANCH   9  11
ENDBRANCH   1   9
TORSDOF 7
ENDMDL
MODEL 5
REMARK VINA RESULT:    -4.627      9.373     11.335
REMARK INTER + INTRA:          -8.096
REMARK INTER:                  -6.417
REMARK INTRA:                  -1.680
REMARK UNBOUND:                -1.712
REMARK SMILES CC[C@H](CC[C@H](C)[C@@H]1CC[C@@H]2C3=CC[C@H]4C[C@H](O)CC[C@]4(C)[C@@H]3CC[C@]21C)C(C)C
REMARK SMILES IDX 5 1 4 2 3 3 2 4 1 5 28 6 29 7 30 8 6 9 7 10 8 11 9 12 26 13
REMARK SMILES IDX 10 14 11 15 25 16 27 17 12 18 24 19 23 20 13 21 21 22 14 23
REMARK SMILES IDX 15 24 20 25 22 26 16 27 19 28 17 29 18 30
REMARK H PARENT 18 31
REMARK Flexibility Score: inf
ROOT
ATOM      1  C   UNL     1       5.746   0.894  -0.388  1.00  0.00     0.004 C 
ENDROOT
BRANCH   1   2
ATOM      2  C   UNL     1       6.959   0.068   0.114  1.00  0.00     0.004 C 
BRANCH   2   3
ATOM      3  C   UNL     1       8.329   0.804   0.014  1.00  0.00    -0.009 C 
BRANCH   3   4
ATOM      4  C   UNL     1       8.913   1.057   1.431  1.00  0.00     0.000 C 
ATOM      5  C   UNL     1       7.876   1.494   2.472  1.00  0.00     0.004 C 
ENDBRANCH   3   4
BRANCH   3   6
ATOM      6  C   UNL     1       9.410   0.165  -0.943  1.00  0.00    -0.014 C 
ATOM      7  C   UNL     1       9.443  -1.373  -0.956  1.00  0.00     0.007 C 
ATOM      8  C   UNL     1       9.307   0.702  -2.381  1.00  0.00     0.007 C 
ENDBRANCH   3   6
ENDBRANCH   2   3
ENDBRANCH   1   2
BRANCH   1   9
ATOM      9  C   UNL     1       6.080   2.294  -0.976  1.00  0.00    -0.011 C 
ATOM     10  C   UNL     1       5.641   3.391   0.007  1.00  0.00     0.008 C 
BRANCH   9  11
ATOM     11  C   UNL     1       5.511   2.521  -2.423  1.00  0.00    -0.002 C 
ATOM     12  C   UNL     1       5.791   1.324  -3.375  1.00  0.00     0.005 C 
ATOM     13  C   UNL     1       6.015   3.760  -3.227  1.00  0.00    -0.023 C 
ATOM     14  C   UNL     1       6.001   1.895  -4.786  1.00  0.00     0.009 C 
ATOM     15  C   UNL     1       5.594   3.355  -4.647  1.00  0.00     0.021 C 
ATOM     16  C   UNL     1       5.304   5.106  -2.900  1.00  0.00     0.008 C 
ATOM     17  C   UNL     1       7.562   3.921  -3.097  1.00  0.00     0.012 C 
ATOM     18  C   UNL     1       6.005   4.404  -5.657  1.00  0.00    -0.067 C 
ATOM     19  C   UNL     1       5.631   6.210  -3.942  1.00  0.00     0.009 C 
ATOM     20  C   UNL     1       5.348   5.769  -5.410  1.00  0.00     0.021 C 
ATOM     21  C   UNL     1       7.022   4.224  -6.534  1.00  0.00    -0.027 C 
ATOM     22  C   UNL     1       5.707   6.826  -6.529  1.00  0.00    -0.023 C 
ATOM     23  C   UNL     1       7.558   5.323  -7.417  1.00  0.00     0.031 C 
ATOM     24  C   UNL     1       7.224   6.713  -6.847  1.00  0.00     0.002 C 
ATOM     25  C   UNL     1       5.441   8.278  -6.057  1.00  0.00     0.010 C 
ATOM     26  C   UNL     1       4.814   6.502  -7.773  1.00  0.00     0.012 C 
ATOM     27  C   UNL     1       7.820   7.869  -7.706  1.00  0.00     0.036 C 
ATOM     28  C   UNL     1       5.736   9.349  -7.123  1.00  0.00     0.032 C 
ATOM     29  C   UNL     1       6.832   8.975  -8.152  1.00  0.00     0.114 C 
BRANCH  29  30
ATOM     30  O   UNL     1       7.536  10.125  -8.551  1.00  0.00    -0.393 OA
ATOM     31  H   UNL     1       8.495   9.880  -8.636  1.00  0.00     0.210 HD
ENDBRANCH  29  30
ENDBRANCH   9  11
ENDBRANCH   1   9
TORSDOF 7
ENDMDL
MODEL 6
REMARK VINA RESULT:    -4.613      3.673      6.622
REMARK INTER + INTRA:          -8.078
REMARK INTER:                  -7.043
REMARK INTRA:                  -1.035
REMARK UNBOUND:                -1.712
REMARK SMILES CC[C@H](CC[C@H](C)[C@@H]1CC[C@@H]2C3=CC[C@H]4C[C@H](O)CC[C@]4(C)[C@@H]3CC[C@]21C)C(C)C
REMARK SMILES IDX 5 1 4 2 3 3 2 4 1 5 28 6 29 7 30 8 6 9 7 10 8 11 9 12 26 13
REMARK SMILES IDX 10 14 11 15 25 16 27 17 12 18 24 19 23 20 13 21 21 22 14 23
REMARK SMILES IDX 15 24 20 25 22 26 16 27 19 28 17 29 18 30
REMARK H PARENT 18 31
REMARK Flexibility Score: inf
ROOT
ATOM      1  C   UNL     1       6.338  -1.712  -0.603  1.00  0.00     0.004 C 
ENDROOT
BRANCH   1   2
ATOM      2  C   UNL     1       5.305  -0.570  -0.423  1.00  0.00     0.004 C 
BRANCH   2   3
ATOM      3  C   UNL     1       5.907   0.772   0.093  1.00  0.00    -0.009 C 
BRANCH   3   4
ATOM      4  C   UNL     1       7.358   0.554   0.605  1.00  0.00     0.000 C 
ATOM      5  C   UNL     1       7.663   1.235   1.944  1.00  0.00     0.004 C 
ENDBRANCH   3   4
BRANCH   3   6
ATOM      6  C   UNL     1       5.826   2.010  -0.885  1.00  0.00    -0.014 C 
ATOM      7  C   UNL     1       5.586   3.366  -0.200  1.00  0.00     0.007 C 
ATOM      8  C   UNL     1       7.047   2.098  -1.817  1.00  0.00     0.007 C 
ENDBRANCH   3   6
ENDBRANCH   2   3
ENDBRANCH   1   2
BRANCH   1   9
ATOM      9  C   UNL     1       5.743  -3.141  -0.753  1.00  0.00    -0.011 C 
ATOM     10  C   UNL     1       6.613  -4.152   0.011  1.00  0.00     0.008 C 
BRANCH   9  11
ATOM     11  C   UNL     1       5.499  -3.568  -2.246  1.00  0.00    -0.002 C 
ATOM     12  C   UNL     1       5.688  -2.393  -3.247  1.00  0.00     0.005 C 
ATOM     13  C   UNL     1       4.105  -4.158  -2.625  1.00  0.00    -0.023 C 
ATOM     14  C   UNL     1       4.693  -2.603  -4.399  1.00  0.00     0.009 C 
ATOM     15  C   UNL     1       4.148  -4.004  -4.152  1.00  0.00     0.021 C 
ATOM     16  C   UNL     1       3.912  -5.673  -2.319  1.00  0.00     0.008 C 
ATOM     17  C   UNL     1       2.951  -3.327  -1.983  1.00  0.00     0.012 C 
ATOM     18  C   UNL     1       2.862  -4.488  -4.785  1.00  0.00    -0.067 C 
ATOM     19  C   UNL     1       2.641  -6.251  -2.999  1.00  0.00     0.009 C 
ATOM     20  C   UNL     1       2.591  -5.978  -4.534  1.00  0.00     0.021 C 
ATOM     21  C   UNL     1       1.936  -3.649  -5.309  1.00  0.00    -0.027 C 
ATOM     22  C   UNL     1       1.299  -6.495  -5.284  1.00  0.00    -0.023 C 
ATOM     23  C   UNL     1       0.576  -4.105  -5.775  1.00  0.00     0.031 C 
ATOM     24  C   UNL     1       0.174  -5.435  -5.115  1.00  0.00     0.002 C 
ATOM     25  C   UNL     1       0.776  -7.824  -4.682  1.00  0.00     0.010 C 
ATOM     26  C   UNL     1       1.691  -6.710  -6.783  1.00  0.00     0.012 C 
ATOM     27  C   UNL     1      -1.256  -5.900  -5.530  1.00  0.00     0.036 C 
ATOM     28  C   UNL     1      -0.460  -8.395  -5.401  1.00  0.00     0.032 C 
ATOM     29  C   UNL     1      -1.379  -7.345  -6.074  1.00  0.00     0.114 C 
BRANCH  29  30
ATOM     30  O   UNL     1      -2.718  -7.770  -6.027  1.00  0.00    -0.393 OA
ATOM     31  H   UNL     1      -2.747  -8.631  -5.532  1.00  0.00     0.210 HD
ENDBRANCH  29  30
ENDBRANCH   9  11
ENDBRANCH   1   9
TORSDOF 7
ENDMDL
MODEL 7
REMARK VINA RESULT:    -4.556      3.150      9.106
REMARK INTER + INTRA:          -7.999
REMARK INTER:                  -5.716
REMARK INTRA:                  -2.283
REMARK UNBOUND:                -1.712
REMARK SMILES CC[C@H](CC[C@H](C)[C@@H]1CC[C@@H]2C3=CC[C@H]4C[C@H](O)CC[C@]4(C)[C@@H]3CC[C@]21C)C(C)C
REMARK SMILES IDX 5 1 4 2 3 3 2 4 1 5 28 6 29 7 30 8 6 9 7 10 8 11 9 12 26 13
REMARK SMILES IDX 10 14 11 15 25 16 27 17 12 18 24 19 23 20 13 21 21 22 14 23
REMARK SMILES IDX 15 24 20 25 22 26 16 27 19 28 17 29 18 30
REMARK H PARENT 18 31
REMARK Flexibility Score: inf
ROOT
ATOM      1  C   UNL     1      -7.014   0.676  -7.927  1.00  0.00     0.004 C 
ENDROOT
BRANCH   1   2
ATOM      2  C   UNL     1      -8.409   0.055  -7.657  1.00  0.00     0.004 C 
BRANCH   2   3
ATOM      3  C   UNL     1      -8.380  -1.444  -7.232  1.00  0.00    -0.009 C 
BRANCH   3   4
ATOM      4  C   UNL     1      -9.167  -1.647  -5.908  1.00  0.00     0.000 C 
ATOM      5  C   UNL     1      -8.442  -1.137  -4.657  1.00  0.00     0.004 C 
ENDBRANCH   3   4
BRANCH   3   6
ATOM      6  C   UNL     1      -8.814  -2.501  -8.322  1.00  0.00    -0.014 C 
ATOM      7  C   UNL     1      -9.032  -1.929  -9.733  1.00  0.00     0.007 C 
ATOM      8  C   UNL     1      -7.857  -3.703  -8.383  1.00  0.00     0.007 C 
ENDBRANCH   3   6
ENDBRANCH   2   3
ENDBRANCH   1   2
BRANCH   1   9
ATOM      9  C   UNL     1      -5.876   0.217  -6.971  1.00  0.00    -0.011 C 
ATOM     10  C   UNL     1      -5.365   1.414  -6.155  1.00  0.00     0.008 C 
BRANCH   9  11
ATOM     11  C   UNL     1      -4.715  -0.553  -7.699  1.00  0.00    -0.002 C 
ATOM     12  C   UNL     1      -5.166  -1.193  -9.042  1.00  0.00     0.005 C 
ATOM     13  C   UNL     1      -4.022  -1.728  -6.942  1.00  0.00    -0.023 C 
ATOM     14  C   UNL     1      -4.376  -2.499  -9.221  1.00  0.00     0.009 C 
ATOM     15  C   UNL     1      -3.331  -2.440  -8.115  1.00  0.00     0.021 C 
ATOM     16  C   UNL     1      -2.911  -1.314  -5.933  1.00  0.00     0.008 C 
ATOM     17  C   UNL     1      -5.075  -2.641  -6.240  1.00  0.00     0.012 C 
ATOM     18  C   UNL     1      -2.590  -3.672  -7.643  1.00  0.00    -0.067 C 
ATOM     19  C   UNL     1      -2.065  -2.529  -5.462  1.00  0.00     0.009 C 
ATOM     20  C   UNL     1      -1.471  -3.356  -6.642  1.00  0.00     0.021 C 
ATOM     21  C   UNL     1      -3.022  -4.932  -7.892  1.00  0.00    -0.027 C 
ATOM     22  C   UNL     1      -0.640  -4.638  -6.236  1.00  0.00    -0.023 C 
ATOM     23  C   UNL     1      -2.395  -6.158  -7.276  1.00  0.00     0.031 C 
ATOM     24  C   UNL     1      -1.631  -5.809  -5.987  1.00  0.00     0.002 C 
ATOM     25  C   UNL     1       0.155  -4.418  -4.923  1.00  0.00     0.010 C 
ATOM     26  C   UNL     1       0.350  -4.936  -7.410  1.00  0.00     0.012 C 
ATOM     27  C   UNL     1      -1.025  -7.067  -5.293  1.00  0.00     0.036 C 
ATOM     28  C   UNL     1       1.015  -5.622  -4.501  1.00  0.00     0.032 C 
ATOM     29  C   UNL     1       0.485  -7.006  -4.954  1.00  0.00     0.114 C 
BRANCH  29  30
ATOM     30  O   UNL     1       0.810  -7.987  -4.001  1.00  0.00    -0.393 OA
ATOM     31  H   UNL     1       0.704  -8.876  -4.431  1.00  0.00     0.210 HD
ENDBRANCH  29  30
ENDBRANCH   9  11
ENDBRANCH   1   9
TORSDOF 7
ENDMDL
MODEL 8
REMARK VINA RESULT:    -4.552      8.078     10.150
REMARK INTER + INTRA:          -7.993
REMARK INTER:                  -5.791
REMARK INTRA:                  -2.202
REMARK UNBOUND:                -1.712
REMARK SMILES CC[C@H](CC[C@H](C)[C@@H]1CC[C@@H]2C3=CC[C@H]4C[C@H](O)CC[C@]4(C)[C@@H]3CC[C@]21C)C(C)C
REMARK SMILES IDX 5 1 4 2 3 3 2 4 1 5 28 6 29 7 30 8 6 9 7 10 8 11 9 12 26 13
REMARK SMILES IDX 10 14 11 15 25 16 27 17 12 18 24 19 23 20 13 21 21 22 14 23
REMARK SMILES IDX 15 24 20 25 22 26 16 27 19 28 17 29 18 30
REMARK H PARENT 18 31
REMARK Flexibility Score: inf
ROOT
ATOM      1  C   UNL     1       8.872  -0.133  -1.432  1.00  0.00     0.004 C 
ENDROOT
BRANCH   1   2
ATOM      2  C   UNL     1       7.804  -0.438  -0.350  1.00  0.00     0.004 C 
BRANCH   2   3
ATOM      3  C   UNL     1       6.580   0.527  -0.356  1.00  0.00    -0.009 C 
BRANCH   3   4
ATOM      4  C   UNL     1       5.253  -0.281  -0.376  1.00  0.00     0.000 C 
ATOM      5  C   UNL     1       5.055  -1.138  -1.631  1.00  0.00     0.004 C 
ENDBRANCH   3   4
BRANCH   3   6
ATOM      6  C   UNL     1       6.551   1.646   0.758  1.00  0.00    -0.014 C 
ATOM      7  C   UNL     1       7.890   1.885   1.477  1.00  0.00     0.007 C 
ATOM      8  C   UNL     1       5.990   2.978   0.232  1.00  0.00     0.007 C 
ENDBRANCH   3   6
ENDBRANCH   2   3
ENDBRANCH   1   2
BRANCH   1   9
ATOM      9  C   UNL     1       8.322   0.151  -2.859  1.00  0.00    -0.011 C 
ATOM     10  C   UNL     1       8.916  -0.855  -3.857  1.00  0.00     0.008 C 
BRANCH   9  11
ATOM     11  C   UNL     1       8.513   1.641  -3.323  1.00  0.00    -0.002 C 
ATOM     12  C   UNL     1       8.892   2.592  -2.152  1.00  0.00     0.005 C 
ATOM     13  C   UNL     1       7.309   2.359  -4.009  1.00  0.00    -0.023 C 
ATOM     14  C   UNL     1       8.258   3.960  -2.444  1.00  0.00     0.009 C 
ATOM     15  C   UNL     1       7.751   3.824  -3.874  1.00  0.00     0.021 C 
ATOM     16  C   UNL     1       7.133   2.068  -5.528  1.00  0.00     0.008 C 
ATOM     17  C   UNL     1       5.978   2.075  -3.247  1.00  0.00     0.012 C 
ATOM     18  C   UNL     1       6.714   4.761  -4.452  1.00  0.00    -0.067 C 
ATOM     19  C   UNL     1       6.128   3.044  -6.199  1.00  0.00     0.009 C 
ATOM     20  C   UNL     1       6.475   4.544  -5.952  1.00  0.00     0.021 C 
ATOM     21  C   UNL     1       5.914   5.539  -3.683  1.00  0.00    -0.027 C 
ATOM     22  C   UNL     1       5.465   5.595  -6.564  1.00  0.00    -0.023 C 
ATOM     23  C   UNL     1       4.759   6.336  -4.235  1.00  0.00     0.031 C 
ATOM     24  C   UNL     1       4.274   5.766  -5.579  1.00  0.00     0.002 C 
ATOM     25  C   UNL     1       4.881   5.113  -7.916  1.00  0.00     0.010 C 
ATOM     26  C   UNL     1       6.257   6.928  -6.774  1.00  0.00     0.012 C 
ATOM     27  C   UNL     1       3.039   6.532  -6.143  1.00  0.00     0.036 C 
ATOM     28  C   UNL     1       3.919   6.117  -8.578  1.00  0.00     0.032 C 
ATOM     29  C   UNL     1       3.153   7.044  -7.601  1.00  0.00     0.114 C 
BRANCH  29  30
ATOM     30  O   UNL     1       1.878   7.342  -8.113  1.00  0.00    -0.393 OA
ATOM     31  H   UNL     1       1.248   7.398  -7.347  1.00  0.00     0.210 HD
ENDBRANCH  29  30
ENDBRANCH   9  11
ENDBRANCH   1   9
TORSDOF 7
ENDMDL
MODEL 9
REMARK VINA RESULT:    -4.446      1.690      2.767
REMARK INTER + INTRA:          -7.847
REMARK INTER:                  -6.058
REMARK INTRA:                  -1.790
REMARK UNBOUND:                -1.712
REMARK SMILES CC[C@H](CC[C@H](C)[C@@H]1CC[C@@H]2C3=CC[C@H]4C[C@H](O)CC[C@]4(C)[C@@H]3CC[C@]21C)C(C)C
REMARK SMILES IDX 5 1 4 2 3 3 2 4 1 5 28 6 29 7 30 8 6 9 7 10 8 11 9 12 26 13
REMARK SMILES IDX 10 14 11 15 25 16 27 17 12 18 24 19 23 20 13 21 21 22 14 23
REMARK SMILES IDX 15 24 20 25 22 26 16 27 19 28 17 29 18 30
REMARK H PARENT 18 31
REMARK Flexibility Score: inf
ROOT
ATOM      1  C   UNL     1       1.437  -7.239  -3.832  1.00  0.00     0.004 C 
ENDROOT
BRANCH   1   2
ATOM      2  C   UNL     1       2.966  -7.386  -3.623  1.00  0.00     0.004 C 
BRANCH   2   3
ATOM      3  C   UNL     1       3.580  -6.383  -2.601  1.00  0.00    -0.009 C 
BRANCH   3   4
ATOM      4  C   UNL     1       4.346  -5.253  -3.343  1.00  0.00     0.000 C 
ATOM      5  C   UNL     1       4.594  -5.530  -4.830  1.00  0.00     0.004 C 
ENDBRANCH   3   4
BRANCH   3   6
ATOM      6  C   UNL     1       2.603  -5.790  -1.511  1.00  0.00    -0.014 C 
ATOM      7  C   UNL     1       2.737  -6.409  -0.109  1.00  0.00     0.007 C 
ATOM      8  C   UNL     1       2.690  -4.257  -1.421  1.00  0.00     0.007 C 
ENDBRANCH   3   6
ENDBRANCH   2   3
ENDBRANCH   1   2
BRANCH   1   9
ATOM      9  C   UNL     1       0.967  -7.107  -5.308  1.00  0.00    -0.011 C 
ATOM     10  C   UNL     1       1.998  -7.759  -6.244  1.00  0.00     0.008 C 
BRANCH   9  11
ATOM     11  C   UNL     1       0.621  -5.633  -5.730  1.00  0.00    -0.002 C 
ATOM     12  C   UNL     1       0.861  -4.607  -4.586  1.00  0.00     0.005 C 
ATOM     13  C   UNL     1      -0.832  -5.325  -6.207  1.00  0.00    -0.023 C 
ATOM     14  C   UNL     1      -0.198  -3.503  -4.726  1.00  0.00     0.009 C 
ATOM     15  C   UNL     1      -0.845  -3.794  -6.073  1.00  0.00     0.021 C 
ATOM     16  C   UNL     1      -1.135  -5.661  -7.697  1.00  0.00     0.008 C 
ATOM     17  C   UNL     1      -1.884  -6.003  -5.275  1.00  0.00     0.012 C 
ATOM     18  C   UNL     1      -2.194  -3.226  -6.457  1.00  0.00    -0.067 C 
ATOM     19  C   UNL     1      -2.479  -5.046  -8.175  1.00  0.00     0.009 C 
ATOM     20  C   UNL     1      -2.575  -3.511  -7.916  1.00  0.00     0.021 C 
ATOM     21  C   UNL     1      -3.070  -2.731  -5.550  1.00  0.00    -0.027 C 
ATOM     22  C   UNL     1      -3.938  -2.826  -8.332  1.00  0.00    -0.023 C 
ATOM     23  C   UNL     1      -4.483  -2.332  -5.896  1.00  0.00     0.031 C 
ATOM     24  C   UNL     1      -4.963  -3.029  -7.181  1.00  0.00     0.002 C 
ATOM     25  C   UNL     1      -4.541  -3.470  -9.607  1.00  0.00     0.010 C 
ATOM     26  C   UNL     1      -3.632  -1.315  -8.596  1.00  0.00     0.012 C 
ATOM     27  C   UNL     1      -6.443  -2.684  -7.530  1.00  0.00     0.036 C 
ATOM     28  C   UNL     1      -5.851  -2.815 -10.081  1.00  0.00     0.032 C 
ATOM     29  C   UNL     1      -6.709  -2.167  -8.966  1.00  0.00     0.114 C 
BRANCH  29  30
ATOM     30  O   UNL     1      -8.076  -2.279  -9.278  1.00  0.00    -0.393 OA
ATOM     31  H   UNL     1      -8.150  -2.519 -10.239  1.00  0.00     0.210 HD
ENDBRANCH  29  30
ENDBRANCH   9  11
ENDBRANCH   1   9
TORSDOF 7
ENDMDL
