MODEL 1
REMARK VINA RESULT:    -5.340      0.000      0.000
REMARK INTER + INTRA:          -6.265
REMARK INTER:                  -6.120
REMARK INTRA:                  -0.145
REMARK UNBOUND:                -0.145
REMARK SMILES O=C([O-])C=Cc1ccc(O)cc1
REMARK SMILES IDX 6 1 7 2 12 3 8 4 11 5 9 6 5 7 4 8 2 9 1 10 3 11 10 12
REMARK H PARENT 10 13
REMARK Flexibility Score: inf
ROOT
ATOM      1  C   UNL     1      -2.500  -7.067  -3.452  1.00  0.00    -0.025 A 
ATOM      2  C   UNL     1      -3.178  -8.285  -3.279  1.00  0.00     0.012 A 
ATOM      3  C   UNL     1      -3.170  -6.001  -4.088  1.00  0.00     0.012 A 
ATOM      4  C   UNL     1      -4.484  -8.447  -3.750  1.00  0.00     0.047 A 
ATOM      5  C   UNL     1      -4.477  -6.167  -4.559  1.00  0.00     0.047 A 
ATOM      6  C   UNL     1      -5.137  -7.391  -4.393  1.00  0.00     0.115 A 
ENDROOT
BRANCH   1   7
ATOM      7  C   UNL     1      -1.119  -6.940  -2.926  1.00  0.00     0.010 C 
ATOM      8  C   UNL     1      -0.174  -7.879  -3.076  1.00  0.00     0.025 C 
BRANCH   8   9
ATOM      9  C   UNL     1       1.183  -7.723  -2.528  1.00  0.00     0.064 C 
ATOM     10  O   UNL     1       1.732  -6.591  -2.455  1.00  0.00    -0.545 OA
ATOM     11  O   UNL     1       1.874  -8.844  -2.086  1.00  0.00    -0.545 OA
ENDBRANCH   8   9
ENDBRANCH   1   7
BRANCH   6  12
ATOM     12  O   UNL     1      -6.437  -7.567  -4.858  1.00  0.00    -0.508 OA
ATOM     13  H   UNL     1      -6.625  -7.844  -5.814  1.00  0.00     0.293 HD
ENDBRANCH   6  12
TORSDOF 3
ENDMDL
MODEL 2
REMARK VINA RESULT:    -4.912      2.792      6.897
REMARK INTER + INTRA:          -5.774
REMARK INTER:                  -5.640
REMARK INTRA:                  -0.134
REMARK UNBOUND:                -0.145
REMARK SMILES O=C([O-])C=Cc1ccc(O)cc1
REMARK SMILES IDX 6 1 7 2 12 3 8 4 11 5 9 6 5 7 4 8 2 9 1 10 3 11 10 12
REMARK H PARENT 10 13
REMARK Flexibility Score: inf
ROOT
ATOM      1  C   UNL     1       1.837  -7.858  -2.460  1.00  0.00    -0.025 A 
ATOM      2  C   UNL     1       2.233  -8.785  -1.482  1.00  0.00     0.012 A 
ATOM      3  C   UNL     1       2.761  -6.880  -2.883  1.00  0.00     0.012 A 
ATOM      4  C   UNL     1       3.512  -8.725  -0.919  1.00  0.00     0.047 A 
ATOM      5  C   UNL     1       4.039  -6.823  -2.318  1.00  0.00     0.047 A 
ATOM      6  C   UNL     1       4.417  -7.743  -1.333  1.00  0.00     0.115 A 
ENDROOT
BRANCH   1   7
ATOM      7  C   UNL     1       0.474  -7.969  -3.033  1.00  0.00     0.010 C 
ATOM      8  C   UNL     1      -0.552  -7.183  -2.678  1.00  0.00     0.025 C 
BRANCH   8   9
ATOM      9  C   UNL     1      -1.896  -7.332  -3.261  1.00  0.00     0.064 C 
ATOM     10  O   UNL     1      -2.438  -8.464  -3.369  1.00  0.00    -0.545 OA
ATOM     11  O   UNL     1      -2.577  -6.206  -3.703  1.00  0.00    -0.545 OA
ENDBRANCH   8   9
ENDBRANCH   1   7
BRANCH   6  12
ATOM     12  O   UNL     1       5.688  -7.695  -0.764  1.00  0.00    -0.508 OA
ATOM     13  H   UNL     1       6.427  -8.318  -1.065  1.00  0.00     0.293 HD
ENDBRANCH   6  12
TORSDOF 3
ENDMDL
MODEL 3
REMARK VINA RESULT:    -4.768     15.363     17.624
REMARK INTER + INTRA:          -5.610
REMARK INTER:                  -5.470
REMARK INTRA:                  -0.139
REMARK UNBOUND:                -0.145
REMARK SMILES O=C([O-])C=Cc1ccc(O)cc1
REMARK SMILES IDX 6 1 7 2 12 3 8 4 11 5 9 6 5 7 4 8 2 9 1 10 3 11 10 12
REMARK H PARENT 10 13
REMARK Flexibility Score: inf
ROOT
ATOM      1  C   UNL     1       8.145   5.584   2.097  1.00  0.00    -0.025 A 
ATOM      2  C   UNL     1       8.922   6.714   2.398  1.00  0.00     0.012 A 
ATOM      3  C   UNL     1       6.872   5.456   2.691  1.00  0.00     0.012 A 
ATOM      4  C   UNL     1       8.455   7.683   3.290  1.00  0.00     0.047 A 
ATOM      5  C   UNL     1       6.407   6.428   3.583  1.00  0.00     0.047 A 
ATOM      6  C   UNL     1       7.198   7.543   3.887  1.00  0.00     0.115 A 
ENDROOT
BRANCH   1   7
ATOM      7  C   UNL     1       8.680   4.588   1.136  1.00  0.00     0.010 C 
ATOM      8  C   UNL     1       7.930   3.951   0.226  1.00  0.00     0.025 C 
BRANCH   8   9
ATOM      9  C   UNL     1       8.496   2.958  -0.703  1.00  0.00     0.064 C 
ATOM     10  O   UNL     1       7.854   1.921  -1.020  1.00  0.00    -0.545 OA
ATOM     11  O   UNL     1       9.760   3.167  -1.238  1.00  0.00    -0.545 OA
ENDBRANCH   8   9
ENDBRANCH   1   7
BRANCH   6  12
ATOM     12  O   UNL     1       6.744   8.516   4.774  1.00  0.00    -0.508 OA
ATOM     13  H   UNL     1       6.084   8.296   5.510  1.00  0.00     0.293 HD
ENDBRANCH   6  12
TORSDOF 3
ENDMDL
MODEL 4
REMARK VINA RESULT:    -4.727     13.083     14.524
REMARK INTER + INTRA:          -5.563
REMARK INTER:                  -5.427
REMARK INTRA:                  -0.136
REMARK UNBOUND:                -0.145
REMARK SMILES O=C([O-])C=Cc1ccc(O)cc1
REMARK SMILES IDX 6 1 7 2 12 3 8 4 11 5 9 6 5 7 4 8 2 9 1 10 3 11 10 12
REMARK H PARENT 10 13
REMARK Flexibility Score: inf
ROOT
ATOM      1  C   UNL     1      -9.077   2.703   2.728  1.00  0.00    -0.025 A 
ATOM      2  C   UNL     1     -10.124   2.004   3.353  1.00  0.00     0.012 A 
ATOM      3  C   UNL     1      -7.865   2.028   2.474  1.00  0.00     0.012 A 
ATOM      4  C   UNL     1      -9.959   0.671   3.740  1.00  0.00     0.047 A 
ATOM      5  C   UNL     1      -7.705   0.693   2.862  1.00  0.00     0.047 A 
ATOM      6  C   UNL     1      -8.749   0.012   3.498  1.00  0.00     0.115 A 
ENDROOT
BRANCH   1   7
ATOM      7  C   UNL     1      -9.304   4.113   2.327  1.00  0.00     0.010 C 
ATOM      8  C   UNL     1      -8.341   5.046   2.301  1.00  0.00     0.025 C 
BRANCH   8   9
ATOM      9  C   UNL     1      -8.608   6.440   1.910  1.00  0.00     0.064 C 
ATOM     10  O   UNL     1      -7.804   7.076   1.176  1.00  0.00    -0.545 OA
ATOM     11  O   UNL     1      -9.762   7.066   2.359  1.00  0.00    -0.545 OA
ENDBRANCH   8   9
ENDBRANCH   1   7
BRANCH   6  12
ATOM     12  O   UNL     1      -8.599  -1.316   3.889  1.00  0.00    -0.508 OA
ATOM     13  H   UNL     1      -7.966  -1.580   4.635  1.00  0.00     0.293 HD
ENDBRANCH   6  12
TORSDOF 3
ENDMDL
MODEL 5
REMARK VINA RESULT:    -4.713      3.264      7.481
REMARK INTER + INTRA:          -5.547
REMARK INTER:                  -5.395
REMARK INTRA:                  -0.152
REMARK UNBOUND:                -0.145
REMARK SMILES O=C([O-])C=Cc1ccc(O)cc1
REMARK SMILES IDX 6 1 7 2 12 3 8 4 11 5 9 6 5 7 4 8 2 9 1 10 3 11 10 12
REMARK H PARENT 10 13
REMARK Flexibility Score: inf
ROOT
ATOM      1  C   UNL     1       3.077  -7.672  -2.666  1.00  0.00    -0.025 A 
ATOM      2  C   UNL     1       3.423  -8.687  -3.573  1.00  0.00     0.012 A 
ATOM      3  C   UNL     1       4.092  -7.084  -1.884  1.00  0.00     0.012 A 
ATOM      4  C   UNL     1       4.746  -9.125  -3.681  1.00  0.00     0.047 A 
ATOM      5  C   UNL     1       5.415  -7.524  -1.995  1.00  0.00     0.047 A 
ATOM      6  C   UNL     1       5.745  -8.548  -2.892  1.00  0.00     0.115 A 
ENDROOT
BRANCH   1   7
ATOM      7  C   UNL     1       1.661  -7.234  -2.596  1.00  0.00     0.010 C 
ATOM      8  C   UNL     1       0.630  -7.970  -3.036  1.00  0.00     0.025 C 
BRANCH   8   9
ATOM      9  C   UNL     1      -0.762  -7.496  -2.961  1.00  0.00     0.064 C 
ATOM     10  O   UNL     1      -1.031  -6.309  -2.633  1.00  0.00    -0.545 OA
ATOM     11  O   UNL     1      -1.798  -8.373  -3.253  1.00  0.00    -0.545 OA
ENDBRANCH   8   9
ENDBRANCH   1   7
BRANCH   6  12
ATOM     12  O   UNL     1       7.059  -8.994  -3.009  1.00  0.00    -0.508 OA
ATOM     13  H   UNL     1       7.763  -8.448  -3.492  1.00  0.00     0.293 HD
ENDBRANCH   6  12
TORSDOF 3
ENDMDL
MODEL 6
REMARK VINA RESULT:    -4.702     14.932     16.747
REMARK INTER + INTRA:          -5.534
REMARK INTER:                  -5.395
REMARK INTRA:                  -0.139
REMARK UNBOUND:                -0.145
REMARK SMILES O=C([O-])C=Cc1ccc(O)cc1
REMARK SMILES IDX 6 1 7 2 12 3 8 4 11 5 9 6 5 7 4 8 2 9 1 10 3 11 10 12
REMARK H PARENT 10 13
REMARK Flexibility Score: inf
ROOT
ATOM      1  C   UNL     1       8.049   4.695   0.714  1.00  0.00    -0.025 A 
ATOM      2  C   UNL     1       8.016   3.294   0.813  1.00  0.00     0.012 A 
ATOM      3  C   UNL     1       8.252   5.283  -0.551  1.00  0.00     0.012 A 
ATOM      4  C   UNL     1       8.206   2.496  -0.319  1.00  0.00     0.047 A 
ATOM      5  C   UNL     1       8.442   4.480  -1.681  1.00  0.00     0.047 A 
ATOM      6  C   UNL     1       8.422   3.085  -1.568  1.00  0.00     0.115 A 
ENDROOT
BRANCH   1   7
ATOM      7  C   UNL     1       7.831   5.499   1.942  1.00  0.00     0.010 C 
ATOM      8  C   UNL     1       6.698   5.476   2.658  1.00  0.00     0.025 C 
BRANCH   8   9
ATOM      9  C   UNL     1       6.514   6.299   3.865  1.00  0.00     0.064 C 
ATOM     10  O   UNL     1       6.082   5.797   4.937  1.00  0.00    -0.545 OA
ATOM     11  O   UNL     1       6.819   7.653   3.821  1.00  0.00    -0.545 OA
ENDBRANCH   8   9
ENDBRANCH   1   7
BRANCH   6  12
ATOM     12  O   UNL     1       8.611   2.278  -2.687  1.00  0.00    -0.508 OA
ATOM     13  H   UNL     1       9.511   1.862  -2.895  1.00  0.00     0.293 HD
ENDBRANCH   6  12
TORSDOF 3
ENDMDL
MODEL 7
REMARK VINA RESULT:    -4.647     12.998     15.249
REMARK INTER + INTRA:          -5.471
REMARK INTER:                  -5.324
REMARK INTRA:                  -0.146
REMARK UNBOUND:                -0.145
REMARK SMILES O=C([O-])C=Cc1ccc(O)cc1
REMARK SMILES IDX 6 1 7 2 12 3 8 4 11 5 9 6 5 7 4 8 2 9 1 10 3 11 10 12
REMARK H PARENT 10 13
REMARK Flexibility Score: inf
ROOT
ATOM      1  C   UNL     1       8.284   2.835  -2.144  1.00  0.00    -0.025 A 
ATOM      2  C   UNL     1       8.206   4.186  -2.524  1.00  0.00     0.012 A 
ATOM      3  C   UNL     1       8.310   2.516  -0.771  1.00  0.00     0.012 A 
ATOM      4  C   UNL     1       8.179   5.196  -1.559  1.00  0.00     0.047 A 
ATOM      5  C   UNL     1       8.282   3.530   0.192  1.00  0.00     0.047 A 
ATOM      6  C   UNL     1       8.219   4.873  -0.199  1.00  0.00     0.115 A 
ENDROOT
BRANCH   1   7
ATOM      7  C   UNL     1       8.300   1.799  -3.205  1.00  0.00     0.010 C 
ATOM      8  C   UNL     1       7.561   1.862  -4.322  1.00  0.00     0.025 C 
BRANCH   8   9
ATOM      9  C   UNL     1       7.594   0.806  -5.348  1.00  0.00     0.064 C 
ATOM     10  O   UNL     1       8.685   0.319  -5.747  1.00  0.00    -0.545 OA
ATOM     11  O   UNL     1       6.402   0.341  -5.887  1.00  0.00    -0.545 OA
ENDBRANCH   8   9
ENDBRANCH   1   7
BRANCH   6  12
ATOM     12  O   UNL     1       8.191   5.890   0.751  1.00  0.00    -0.508 OA
ATOM     13  H   UNL     1       8.680   6.766   0.605  1.00  0.00     0.293 HD
ENDBRANCH   6  12
TORSDOF 3
ENDMDL
MODEL 8
REMARK VINA RESULT:    -4.527     15.215     16.110
REMARK INTER + INTRA:          -5.333
REMARK INTER:                  -5.180
REMARK INTRA:                  -0.152
REMARK UNBOUND:                -0.145
REMARK SMILES O=C([O-])C=Cc1ccc(O)cc1
REMARK SMILES IDX 6 1 7 2 12 3 8 4 11 5 9 6 5 7 4 8 2 9 1 10 3 11 10 12
REMARK H PARENT 10 13
REMARK Flexibility Score: inf
ROOT
ATOM      1  C   UNL     1       8.546   4.154  -1.815  1.00  0.00    -0.025 A 
ATOM      2  C   UNL     1       8.474   2.836  -1.334  1.00  0.00     0.012 A 
ATOM      3  C   UNL     1       8.260   5.216  -0.932  1.00  0.00     0.012 A 
ATOM      4  C   UNL     1       8.101   2.579  -0.012  1.00  0.00     0.047 A 
ATOM      5  C   UNL     1       7.888   4.955   0.391  1.00  0.00     0.047 A 
ATOM      6  C   UNL     1       7.805   3.636   0.854  1.00  0.00     0.115 A 
ENDROOT
BRANCH   1   7
ATOM      7  C   UNL     1       8.956   4.375  -3.223  1.00  0.00     0.010 C 
ATOM      8  C   UNL     1       8.942   3.420  -4.163  1.00  0.00     0.025 C 
BRANCH   8   9
ATOM      9  C   UNL     1       9.369   3.674  -5.550  1.00  0.00     0.064 C 
ATOM     10  O   UNL     1       9.480   4.849  -5.993  1.00  0.00    -0.545 OA
ATOM     11  O   UNL     1       9.651   2.602  -6.385  1.00  0.00    -0.545 OA
ENDBRANCH   8   9
ENDBRANCH   1   7
BRANCH   6  12
ATOM     12  O   UNL     1       7.435   3.366   2.169  1.00  0.00    -0.508 OA
ATOM     13  H   UNL     1       6.487   3.515   2.494  1.00  0.00     0.293 HD
ENDBRANCH   6  12
TORSDOF 3
ENDMDL
MODEL 9
REMARK VINA RESULT:    -4.498      4.995      7.469
REMARK INTER + INTRA:          -5.300
REMARK INTER:                  -5.150
REMARK INTRA:                  -0.150
REMARK UNBOUND:                -0.145
REMARK SMILES O=C([O-])C=Cc1ccc(O)cc1
REMARK SMILES IDX 6 1 7 2 12 3 8 4 11 5 9 6 5 7 4 8 2 9 1 10 3 11 10 12
REMARK H PARENT 10 13
REMARK Flexibility Score: inf
ROOT
ATOM      1  C   UNL     1       4.570  -7.951  -1.547  1.00  0.00    -0.025 A 
ATOM      2  C   UNL     1       4.222  -6.967  -2.488  1.00  0.00     0.012 A 
ATOM      3  C   UNL     1       3.580  -8.857  -1.115  1.00  0.00     0.012 A 
ATOM      4  C   UNL     1       2.913  -6.871  -2.967  1.00  0.00     0.047 A 
ATOM      5  C   UNL     1       2.271  -8.758  -1.597  1.00  0.00     0.047 A 
ATOM      6  C   UNL     1       1.933  -7.764  -2.523  1.00  0.00     0.115 A 
ENDROOT
BRANCH   1   7
ATOM      7  C   UNL     1       5.975  -8.019  -1.076  1.00  0.00     0.010 C 
ATOM      8  C   UNL     1       6.836  -6.994  -1.147  1.00  0.00     0.025 C 
BRANCH   8   9
ATOM      9  C   UNL     1       8.228  -7.103  -0.680  1.00  0.00     0.064 C 
ATOM     10  O   UNL     1       9.139  -6.383  -1.170  1.00  0.00    -0.545 OA
ATOM     11  O   UNL     1       8.544  -8.018   0.316  1.00  0.00    -0.545 OA
ENDBRANCH   8   9
ENDBRANCH   1   7
BRANCH   6  12
ATOM     12  O   UNL     1       0.632  -7.656  -3.009  1.00  0.00    -0.508 OA
ATOM     13  H   UNL     1      -0.141  -8.139  -2.566  1.00  0.00     0.293 HD
ENDBRANCH   6  12
TORSDOF 3
ENDMDL
