MODEL 1
REMARK VINA RESULT:    -5.144      0.000      0.000
REMARK INTER + INTRA:         -14.690
REMARK INTER:                 -11.759
REMARK INTRA:                  -2.931
REMARK UNBOUND:                -2.931
REMARK SMILES CCCCCCCCCCCCCCCCCCCCCCCC(=O)[O-]
REMARK SMILES IDX 13 1 14 2 15 3 16 4 17 5 18 6 19 7 20 8 21 9 22 10 23 11
REMARK SMILES IDX 24 12 25 13 26 14 12 15 11 16 10 17 9 18 8 19 7 20 6 21 5 22
REMARK SMILES IDX 4 23 3 24 2 25 1 26
REMARK H PARENT
REMARK Flexibility Score: inf
ROOT
ATOM      1  C   UNL     1      84.709  62.512   8.516  1.00  0.00     0.000 C 
ENDROOT
BRANCH   1   2
ATOM      2  C   UNL     1      86.100  61.874   8.355  1.00  0.00     0.000 C 
BRANCH   2   3
ATOM      3  C   UNL     1      86.275  61.175   6.998  1.00  0.00     0.000 C 
BRANCH   3   4
ATOM      4  C   UNL     1      85.651  59.774   7.016  1.00  0.00     0.000 C 
BRANCH   4   5
ATOM      5  C   UNL     1      86.203  58.942   8.182  1.00  0.00     0.000 C 
BRANCH   5   6
ATOM      6  C   UNL     1      85.143  58.029   8.824  1.00  0.00     0.000 C 
BRANCH   6   7
ATOM      7  C   UNL     1      85.034  58.179  10.356  1.00  0.00     0.000 C 
BRANCH   7   8
ATOM      8  C   UNL     1      86.038  59.203  10.913  1.00  0.00     0.000 C 
BRANCH   8   9
ATOM      9  C   UNL     1      85.952  59.344  12.442  1.00  0.00     0.000 C 
BRANCH   9  10
ATOM     10  C   UNL     1      85.050  60.515  12.874  1.00  0.00     0.006 C 
BRANCH  10  11
ATOM     11  C   UNL     1      85.409  61.039  14.271  1.00  0.00     0.053 C 
BRANCH  11  12
ATOM     12  C   UNL     1      84.228  61.053  15.194  1.00  0.00     0.041 C 
ATOM     13  O   UNL     1      84.323  61.560  16.343  1.00  0.00    -0.550 OA
ATOM     14  O   UNL     1      83.013  60.523  14.774  1.00  0.00    -0.550 OA
ENDBRANCH  11  12
ENDBRANCH  10  11
ENDBRANCH   9  10
ENDBRANCH   8   9
ENDBRANCH   7   8
ENDBRANCH   6   7
ENDBRANCH   5   6
ENDBRANCH   4   5
ENDBRANCH   3   4
ENDBRANCH   2   3
ENDBRANCH   1   2
BRANCH   1  15
ATOM     15  C   UNL     1      84.183  62.415   9.958  1.00  0.00     0.000 C 
BRANCH  15  16
ATOM     16  C   UNL     1      82.712  61.962  10.034  1.00  0.00     0.000 C 
BRANCH  16  17
ATOM     17  C   UNL     1      82.474  60.452   9.847  1.00  0.00     0.000 C 
BRANCH  17  18
ATOM     18  C   UNL     1      81.773  59.802  11.050  1.00  0.00    -0.000 C 
BRANCH  18  19
ATOM     19  C   UNL     1      81.276  58.375  10.755  1.00  0.00    -0.000 C 
BRANCH  19  20
ATOM     20  C   UNL     1      79.774  58.260  10.437  1.00  0.00    -0.000 C 
BRANCH  20  21
ATOM     21  C   UNL     1      79.337  56.819  10.120  1.00  0.00    -0.000 C 
BRANCH  21  22
ATOM     22  C   UNL     1      77.852  56.720   9.742  1.00  0.00    -0.000 C 
BRANCH  22  23
ATOM     23  C   UNL     1      77.623  56.758   8.221  1.00  0.00    -0.000 C 
BRANCH  23  24
ATOM     24  C   UNL     1      78.571  55.798   7.469  1.00  0.00    -0.000 C 
BRANCH  24  25
ATOM     25  C   UNL     1      78.178  54.319   7.604  1.00  0.00    -0.003 C 
ATOM     26  C   UNL     1      79.256  53.473   8.277  1.00  0.00     0.004 C 
ENDBRANCH  24  25
ENDBRANCH  23  24
ENDBRANCH  22  23
ENDBRANCH  21  22
ENDBRANCH  20  21
ENDBRANCH  19  20
ENDBRANCH  18  19
ENDBRANCH  17  18
ENDBRANCH  16  17
ENDBRANCH  15  16
ENDBRANCH   1  15
TORSDOF 22
ENDMDL
MODEL 2
REMARK VINA RESULT:    -5.101      4.194      7.839
REMARK INTER + INTRA:         -14.593
REMARK INTER:                 -10.315
REMARK INTRA:                  -4.278
REMARK UNBOUND:                -2.931
REMARK SMILES CCCCCCCCCCCCCCCCCCCCCCCC(=O)[O-]
REMARK SMILES IDX 13 1 14 2 15 3 16 4 17 5 18 6 19 7 20 8 21 9 22 10 23 11
REMARK SMILES IDX 24 12 25 13 26 14 12 15 11 16 10 17 9 18 8 19 7 20 6 21 5 22
REMARK SMILES IDX 4 23 3 24 2 25 1 26
REMARK H PARENT
REMARK Flexibility Score: inf
ROOT
ATOM      1  C   UNL     1      89.750  63.545   8.625  1.00  0.00     0.000 C 
ENDROOT
BRANCH   1   2
ATOM      2  C   UNL     1      89.104  64.941   8.659  1.00  0.00     0.000 C 
BRANCH   2   3
ATOM      3  C   UNL     1      88.353  65.276   7.362  1.00  0.00     0.000 C 
BRANCH   3   4
ATOM      4  C   UNL     1      88.458  64.125   6.353  1.00  0.00     0.000 C 
BRANCH   4   5
ATOM      5  C   UNL     1      87.102  63.428   6.172  1.00  0.00     0.000 C 
BRANCH   5   6
ATOM      6  C   UNL     1      85.934  64.217   6.789  1.00  0.00     0.000 C 
BRANCH   6   7
ATOM      7  C   UNL     1      85.044  63.379   7.732  1.00  0.00     0.000 C 
BRANCH   7   8
ATOM      8  C   UNL     1      85.730  63.093   9.079  1.00  0.00     0.000 C 
BRANCH   8   9
ATOM      9  C   UNL     1      84.735  62.665  10.170  1.00  0.00     0.000 C 
BRANCH   9  10
ATOM     10  C   UNL     1      83.339  62.349   9.601  1.00  0.00     0.006 C 
BRANCH  10  11
ATOM     11  C   UNL     1      82.628  61.240  10.388  1.00  0.00     0.053 C 
BRANCH  11  12
ATOM     12  C   UNL     1      83.526  60.070  10.660  1.00  0.00     0.041 C 
ATOM     13  O   UNL     1      83.799  59.250   9.743  1.00  0.00    -0.550 OA
ATOM     14  O   UNL     1      84.079  59.899  11.923  1.00  0.00    -0.550 OA
ENDBRANCH  11  12
ENDBRANCH  10  11
ENDBRANCH   9  10
ENDBRANCH   8   9
ENDBRANCH   7   8
ENDBRANCH   6   7
ENDBRANCH   5   6
ENDBRANCH   4   5
ENDBRANCH   3   4
ENDBRANCH   2   3
ENDBRANCH   1   2
BRANCH   1  15
ATOM     15  C   UNL     1      91.222  63.569   9.070  1.00  0.00     0.000 C 
BRANCH  15  16
ATOM     16  C   UNL     1      92.164  62.859   8.079  1.00  0.00     0.000 C 
BRANCH  16  17
ATOM     17  C   UNL     1      92.056  63.322   6.615  1.00  0.00     0.000 C 
BRANCH  17  18
ATOM     18  C   UNL     1      91.948  62.154   5.623  1.00  0.00    -0.000 C 
BRANCH  18  19
ATOM     19  C   UNL     1      91.424  60.861   6.274  1.00  0.00    -0.000 C 
BRANCH  19  20
ATOM     20  C   UNL     1      89.897  60.672   6.213  1.00  0.00    -0.000 C 
BRANCH  20  21
ATOM     21  C   UNL     1      89.342  59.889   7.416  1.00  0.00    -0.000 C 
BRANCH  21  22
ATOM     22  C   UNL     1      88.037  60.488   7.961  1.00  0.00    -0.000 C 
BRANCH  22  23
ATOM     23  C   UNL     1      86.871  59.484   7.945  1.00  0.00    -0.000 C 
BRANCH  23  24
ATOM     24  C   UNL     1      85.735  59.932   6.999  1.00  0.00    -0.000 C 
BRANCH  24  25
ATOM     25  C   UNL     1      85.789  59.263   5.617  1.00  0.00    -0.003 C 
ATOM     26  C   UNL     1      86.359  60.174   4.533  1.00  0.00     0.004 C 
ENDBRANCH  24  25
ENDBRANCH  23  24
ENDBRANCH  22  23
ENDBRANCH  21  22
ENDBRANCH  20  21
ENDBRANCH  19  20
ENDBRANCH  18  19
ENDBRANCH  17  18
ENDBRANCH  16  17
ENDBRANCH  15  16
ENDBRANCH   1  15
TORSDOF 22
ENDMDL
MODEL 3
REMARK VINA RESULT:    -5.072      4.416      7.839
REMARK INTER + INTRA:         -14.527
REMARK INTER:                 -10.746
REMARK INTRA:                  -3.781
REMARK UNBOUND:                -2.931
REMARK SMILES CCCCCCCCCCCCCCCCCCCCCCCC(=O)[O-]
REMARK SMILES IDX 13 1 14 2 15 3 16 4 17 5 18 6 19 7 20 8 21 9 22 10 23 11
REMARK SMILES IDX 24 12 25 13 26 14 12 15 11 16 10 17 9 18 8 19 7 20 6 21 5 22
REMARK SMILES IDX 4 23 3 24 2 25 1 26
REMARK H PARENT
REMARK Flexibility Score: inf
ROOT
ATOM      1  C   UNL     1      90.602  64.428  10.020  1.00  0.00     0.000 C 
ENDROOT
BRANCH   1   2
ATOM      2  C   UNL     1      89.460  65.179   9.315  1.00  0.00     0.000 C 
BRANCH   2   3
ATOM      3  C   UNL     1      88.519  64.237   8.549  1.00  0.00     0.000 C 
BRANCH   3   4
ATOM      4  C   UNL     1      88.178  64.805   7.165  1.00  0.00     0.000 C 
BRANCH   4   5
ATOM      5  C   UNL     1      87.082  63.972   6.486  1.00  0.00     0.000 C 
BRANCH   5   6
ATOM      6  C   UNL     1      85.661  64.390   6.907  1.00  0.00     0.000 C 
BRANCH   6   7
ATOM      7  C   UNL     1      84.850  63.258   7.573  1.00  0.00     0.000 C 
BRANCH   7   8
ATOM      8  C   UNL     1      85.409  61.865   7.237  1.00  0.00     0.000 C 
BRANCH   8   9
ATOM      9  C   UNL     1      85.439  60.929   8.457  1.00  0.00     0.000 C 
BRANCH   9  10
ATOM     10  C   UNL     1      85.480  61.702   9.787  1.00  0.00     0.006 C 
BRANCH  10  11
ATOM     11  C   UNL     1      84.914  60.881  10.954  1.00  0.00     0.053 C 
BRANCH  11  12
ATOM     12  C   UNL     1      83.418  60.790  10.912  1.00  0.00     0.041 C 
ATOM     13  O   UNL     1      82.810  59.961  11.640  1.00  0.00    -0.550 OA
ATOM     14  O   UNL     1      82.695  61.640  10.084  1.00  0.00    -0.550 OA
ENDBRANCH  11  12
ENDBRANCH  10  11
ENDBRANCH   9  10
ENDBRANCH   8   9
ENDBRANCH   7   8
ENDBRANCH   6   7
ENDBRANCH   5   6
ENDBRANCH   4   5
ENDBRANCH   3   4
ENDBRANCH   2   3
ENDBRANCH   1   2
BRANCH   1  15
ATOM     15  C   UNL     1      91.893  64.405   9.184  1.00  0.00     0.000 C 
BRANCH  15  16
ATOM     16  C   UNL     1      92.056  63.113   8.361  1.00  0.00     0.000 C 
BRANCH  16  17
ATOM     17  C   UNL     1      91.714  63.234   6.864  1.00  0.00     0.000 C 
BRANCH  17  18
ATOM     18  C   UNL     1      91.153  61.933   6.270  1.00  0.00    -0.000 C 
BRANCH  18  19
ATOM     19  C   UNL     1      90.452  61.049   7.318  1.00  0.00    -0.000 C 
BRANCH  19  20
ATOM     20  C   UNL     1      88.932  60.893   7.129  1.00  0.00    -0.000 C 
BRANCH  20  21
ATOM     21  C   UNL     1      88.531  60.667   5.660  1.00  0.00    -0.000 C 
BRANCH  21  22
ATOM     22  C   UNL     1      87.671  59.410   5.467  1.00  0.00    -0.000 C 
BRANCH  22  23
ATOM     23  C   UNL     1      87.574  58.555   6.743  1.00  0.00    -0.000 C 
BRANCH  23  24
ATOM     24  C   UNL     1      88.423  57.269   6.644  1.00  0.00    -0.000 C 
BRANCH  24  25
ATOM     25  C   UNL     1      88.659  56.585   7.999  1.00  0.00    -0.003 C 
ATOM     26  C   UNL     1      88.790  57.574   9.155  1.00  0.00     0.004 C 
ENDBRANCH  24  25
ENDBRANCH  23  24
ENDBRANCH  22  23
ENDBRANCH  21  22
ENDBRANCH  20  21
ENDBRANCH  19  20
ENDBRANCH  18  19
ENDBRANCH  17  18
ENDBRANCH  16  17
ENDBRANCH  15  16
ENDBRANCH   1  15
TORSDOF 22
ENDMDL
MODEL 4
REMARK VINA RESULT:    -5.063      3.707      7.799
REMARK INTER + INTRA:         -14.506
REMARK INTER:                 -10.785
REMARK INTRA:                  -3.721
REMARK UNBOUND:                -2.931
REMARK SMILES CCCCCCCCCCCCCCCCCCCCCCCC(=O)[O-]
REMARK SMILES IDX 13 1 14 2 15 3 16 4 17 5 18 6 19 7 20 8 21 9 22 10 23 11
REMARK SMILES IDX 24 12 25 13 26 14 12 15 11 16 10 17 9 18 8 19 7 20 6 21 5 22
REMARK SMILES IDX 4 23 3 24 2 25 1 26
REMARK H PARENT
REMARK Flexibility Score: inf
ROOT
ATOM      1  C   UNL     1      77.742  56.750   8.581  1.00  0.00     0.000 C 
ENDROOT
BRANCH   1   2
ATOM      2  C   UNL     1      78.231  55.714   7.554  1.00  0.00     0.000 C 
BRANCH   2   3
ATOM      3  C   UNL     1      78.726  54.418   8.213  1.00  0.00     0.000 C 
BRANCH   3   4
ATOM      4  C   UNL     1      79.995  53.900   7.526  1.00  0.00     0.000 C 
BRANCH   4   5
ATOM      5  C   UNL     1      81.175  53.864   8.507  1.00  0.00     0.000 C 
BRANCH   5   6
ATOM      6  C   UNL     1      80.776  54.254   9.942  1.00  0.00     0.000 C 
BRANCH   6   7
ATOM      7  C   UNL     1      81.943  54.810  10.785  1.00  0.00     0.000 C 
BRANCH   7   8
ATOM      8  C   UNL     1      82.861  55.736   9.969  1.00  0.00     0.000 C 
BRANCH   8   9
ATOM      9  C   UNL     1      84.353  55.459  10.219  1.00  0.00     0.000 C 
BRANCH   9  10
ATOM     10  C   UNL     1      85.194  55.577   8.935  1.00  0.00     0.006 C 
BRANCH  10  11
ATOM     11  C   UNL     1      84.492  56.411   7.855  1.00  0.00     0.053 C 
BRANCH  11  12
ATOM     12  C   UNL     1      84.452  55.710   6.531  1.00  0.00     0.041 C 
ATOM     13  O   UNL     1      83.358  55.301   6.059  1.00  0.00    -0.550 OA
ATOM     14  O   UNL     1      85.625  55.528   5.807  1.00  0.00    -0.550 OA
ENDBRANCH  11  12
ENDBRANCH  10  11
ENDBRANCH   9  10
ENDBRANCH   8   9
ENDBRANCH   7   8
ENDBRANCH   6   7
ENDBRANCH   5   6
ENDBRANCH   4   5
ENDBRANCH   3   4
ENDBRANCH   2   3
ENDBRANCH   1   2
BRANCH   1  15
ATOM     15  C   UNL     1      78.121  56.370  10.023  1.00  0.00     0.000 C 
BRANCH  15  16
ATOM     16  C   UNL     1      79.031  57.411  10.702  1.00  0.00     0.000 C 
BRANCH  16  17
ATOM     17  C   UNL     1      79.356  58.656   9.858  1.00  0.00     0.000 C 
BRANCH  17  18
ATOM     18  C   UNL     1      80.279  59.648  10.583  1.00  0.00    -0.000 C 
BRANCH  18  19
ATOM     19  C   UNL     1      81.712  59.112  10.762  1.00  0.00    -0.000 C 
BRANCH  19  20
ATOM     20  C   UNL     1      82.831  60.101  10.389  1.00  0.00    -0.000 C 
BRANCH  20  21
ATOM     21  C   UNL     1      84.154  59.402  10.029  1.00  0.00    -0.000 C 
BRANCH  21  22
ATOM     22  C   UNL     1      84.945  58.958  11.269  1.00  0.00    -0.000 C 
BRANCH  22  23
ATOM     23  C   UNL     1      86.391  58.553  10.935  1.00  0.00    -0.000 C 
BRANCH  23  24
ATOM     24  C   UNL     1      86.824  59.050   9.539  1.00  0.00    -0.000 C 
BRANCH  24  25
ATOM     25  C   UNL     1      87.864  58.145   8.861  1.00  0.00    -0.003 C 
ATOM     26  C   UNL     1      88.673  57.314   9.854  1.00  0.00     0.004 C 
ENDBRANCH  24  25
ENDBRANCH  23  24
ENDBRANCH  22  23
ENDBRANCH  21  22
ENDBRANCH  20  21
ENDBRANCH  19  20
ENDBRANCH  18  19
ENDBRANCH  17  18
ENDBRANCH  16  17
ENDBRANCH  15  16
ENDBRANCH   1  15
TORSDOF 22
ENDMDL
MODEL 5
REMARK VINA RESULT:    -5.028      4.930      7.527
REMARK INTER + INTRA:         -14.425
REMARK INTER:                 -10.389
REMARK INTRA:                  -4.037
REMARK UNBOUND:                -2.931
REMARK SMILES CCCCCCCCCCCCCCCCCCCCCCCC(=O)[O-]
REMARK SMILES IDX 13 1 14 2 15 3 16 4 17 5 18 6 19 7 20 8 21 9 22 10 23 11
REMARK SMILES IDX 24 12 25 13 26 14 12 15 11 16 10 17 9 18 8 19 7 20 6 21 5 22
REMARK SMILES IDX 4 23 3 24 2 25 1 26
REMARK H PARENT
REMARK Flexibility Score: inf
ROOT
ATOM      1  C   UNL     1      88.870  57.345   9.567  1.00  0.00     0.000 C 
ENDROOT
BRANCH   1   2
ATOM      2  C   UNL     1      88.063  56.492   8.573  1.00  0.00     0.000 C 
BRANCH   2   3
ATOM      3  C   UNL     1      88.458  56.757   7.113  1.00  0.00     0.000 C 
BRANCH   3   4
ATOM      4  C   UNL     1      87.249  57.223   6.291  1.00  0.00     0.000 C 
BRANCH   4   5
ATOM      5  C   UNL     1      86.008  57.379   7.181  1.00  0.00     0.000 C 
BRANCH   5   6
ATOM      6  C   UNL     1      85.516  58.835   7.277  1.00  0.00     0.000 C 
BRANCH   6   7
ATOM      7  C   UNL     1      86.580  59.880   6.878  1.00  0.00     0.000 C 
BRANCH   7   8
ATOM      8  C   UNL     1      87.326  60.447   8.098  1.00  0.00     0.000 C 
BRANCH   8   9
ATOM      9  C   UNL     1      88.625  61.173   7.712  1.00  0.00     0.000 C 
BRANCH   9  10
ATOM     10  C   UNL     1      89.678  60.218   7.121  1.00  0.00     0.006 C 
BRANCH  10  11
ATOM     11  C   UNL     1      90.571  60.910   6.082  1.00  0.00     0.053 C 
BRANCH  11  12
ATOM     12  C   UNL     1      91.185  62.172   6.609  1.00  0.00     0.041 C 
ATOM     13  O   UNL     1      90.888  63.285   6.100  1.00  0.00    -0.550 OA
ATOM     14  O   UNL     1      92.070  62.118   7.679  1.00  0.00    -0.550 OA
ENDBRANCH  11  12
ENDBRANCH  10  11
ENDBRANCH   9  10
ENDBRANCH   8   9
ENDBRANCH   7   8
ENDBRANCH   6   7
ENDBRANCH   5   6
ENDBRANCH   4   5
ENDBRANCH   3   4
ENDBRANCH   2   3
ENDBRANCH   1   2
BRANCH   1  15
ATOM     15  C   UNL     1      88.162  57.491  10.925  1.00  0.00     0.000 C 
BRANCH  15  16
ATOM     16  C   UNL     1      86.638  57.677  10.793  1.00  0.00     0.000 C 
BRANCH  16  17
ATOM     17  C   UNL     1      86.128  59.117  10.982  1.00  0.00     0.000 C 
BRANCH  17  18
ATOM     18  C   UNL     1      85.499  59.355  12.363  1.00  0.00    -0.000 C 
BRANCH  18  19
ATOM     19  C   UNL     1      84.112  60.021  12.283  1.00  0.00    -0.000 C 
BRANCH  19  20
ATOM     20  C   UNL     1      83.391  59.867  10.932  1.00  0.00    -0.000 C 
BRANCH  20  21
ATOM     21  C   UNL     1      82.853  61.201  10.384  1.00  0.00    -0.000 C 
BRANCH  21  22
ATOM     22  C   UNL     1      83.828  61.878   9.410  1.00  0.00    -0.000 C 
BRANCH  22  23
ATOM     23  C   UNL     1      84.796  62.845  10.114  1.00  0.00    -0.000 C 
BRANCH  23  24
ATOM     24  C   UNL     1      85.770  63.514   9.121  1.00  0.00    -0.000 C 
BRANCH  24  25
ATOM     25  C   UNL     1      85.366  63.331   7.649  1.00  0.00    -0.003 C 
ATOM     26  C   UNL     1      85.608  64.579   6.803  1.00  0.00     0.004 C 
ENDBRANCH  24  25
ENDBRANCH  23  24
ENDBRANCH  22  23
ENDBRANCH  21  22
ENDBRANCH  20  21
ENDBRANCH  19  20
ENDBRANCH  18  19
ENDBRANCH  17  18
ENDBRANCH  16  17
ENDBRANCH  15  16
ENDBRANCH   1  15
TORSDOF 22
ENDMDL
MODEL 6
REMARK VINA RESULT:    -4.981      4.582      6.342
REMARK INTER + INTRA:         -14.319
REMARK INTER:                 -11.248
REMARK INTRA:                  -3.071
REMARK UNBOUND:                -2.931
REMARK SMILES CCCCCCCCCCCCCCCCCCCCCCCC(=O)[O-]
REMARK SMILES IDX 13 1 14 2 15 3 16 4 17 5 18 6 19 7 20 8 21 9 22 10 23 11
REMARK SMILES IDX 24 12 25 13 26 14 12 15 11 16 10 17 9 18 8 19 7 20 6 21 5 22
REMARK SMILES IDX 4 23 3 24 2 25 1 26
REMARK H PARENT
REMARK Flexibility Score: inf
ROOT
ATOM      1  C   UNL     1      83.609  56.580   9.709  1.00  0.00     0.000 C 
ENDROOT
BRANCH   1   2
ATOM      2  C   UNL     1      84.489  57.519   8.866  1.00  0.00     0.000 C 
BRANCH   2   3
ATOM      3  C   UNL     1      84.790  58.845   9.580  1.00  0.00     0.000 C 
BRANCH   3   4
ATOM      4  C   UNL     1      86.281  58.957   9.927  1.00  0.00     0.000 C 
BRANCH   4   5
ATOM      5  C   UNL     1      86.743  57.750  10.755  1.00  0.00     0.000 C 
BRANCH   5   6
ATOM      6  C   UNL     1      88.219  57.386  10.514  1.00  0.00     0.000 C 
BRANCH   6   7
ATOM      7  C   UNL     1      88.510  56.874   9.086  1.00  0.00     0.000 C 
BRANCH   7   8
ATOM      8  C   UNL     1      87.602  55.697   8.693  1.00  0.00     0.000 C 
BRANCH   8   9
ATOM      9  C   UNL     1      88.221  54.332   9.034  1.00  0.00     0.000 C 
BRANCH   9  10
ATOM     10  C   UNL     1      87.466  53.612  10.166  1.00  0.00     0.006 C 
BRANCH  10  11
ATOM     11  C   UNL     1      88.345  52.579  10.885  1.00  0.00     0.053 C 
BRANCH  11  12
ATOM     12  C   UNL     1      88.078  51.180  10.417  1.00  0.00     0.041 C 
ATOM     13  O   UNL     1      87.504  50.353  11.174  1.00  0.00    -0.550 OA
ATOM     14  O   UNL     1      88.445  50.797   9.132  1.00  0.00    -0.550 OA
ENDBRANCH  11  12
ENDBRANCH  10  11
ENDBRANCH   9  10
ENDBRANCH   8   9
ENDBRANCH   7   8
ENDBRANCH   6   7
ENDBRANCH   5   6
ENDBRANCH   4   5
ENDBRANCH   3   4
ENDBRANCH   2   3
ENDBRANCH   1   2
BRANCH   1  15
ATOM     15  C   UNL     1      84.132  55.133   9.714  1.00  0.00     0.000 C 
BRANCH  15  16
ATOM     16  C   UNL     1      83.285  54.183   8.846  1.00  0.00     0.000 C 
BRANCH  16  17
ATOM     17  C   UNL     1      81.886  54.701   8.469  1.00  0.00     0.000 C 
BRANCH  17  18
ATOM     18  C   UNL     1      80.752  53.904   9.131  1.00  0.00    -0.000 C 
BRANCH  18  19
ATOM     19  C   UNL     1      80.948  53.732  10.648  1.00  0.00    -0.000 C 
BRANCH  19  20
ATOM     20  C   UNL     1      80.665  54.989  11.491  1.00  0.00    -0.000 C 
BRANCH  20  21
ATOM     21  C   UNL     1      79.354  55.692  11.098  1.00  0.00    -0.000 C 
BRANCH  21  22
ATOM     22  C   UNL     1      79.571  57.144  10.647  1.00  0.00    -0.000 C 
BRANCH  22  23
ATOM     23  C   UNL     1      78.601  57.569   9.531  1.00  0.00    -0.000 C 
BRANCH  23  24
ATOM     24  C   UNL     1      77.742  56.388   9.029  1.00  0.00    -0.000 C 
BRANCH  24  25
ATOM     25  C   UNL     1      78.056  55.974   7.583  1.00  0.00    -0.003 C 
ATOM     26  C   UNL     1      77.762  57.075   6.567  1.00  0.00     0.004 C 
ENDBRANCH  24  25
ENDBRANCH  23  24
ENDBRANCH  22  23
ENDBRANCH  21  22
ENDBRANCH  20  21
ENDBRANCH  19  20
ENDBRANCH  18  19
ENDBRANCH  17  18
ENDBRANCH  16  17
ENDBRANCH  15  16
ENDBRANCH   1  15
TORSDOF 22
ENDMDL
MODEL 7
REMARK VINA RESULT:    -4.970      4.658      7.394
REMARK INTER + INTRA:         -14.294
REMARK INTER:                 -10.406
REMARK INTRA:                  -3.888
REMARK UNBOUND:                -2.931
REMARK SMILES CCCCCCCCCCCCCCCCCCCCCCCC(=O)[O-]
REMARK SMILES IDX 13 1 14 2 15 3 16 4 17 5 18 6 19 7 20 8 21 9 22 10 23 11
REMARK SMILES IDX 24 12 25 13 26 14 12 15 11 16 10 17 9 18 8 19 7 20 6 21 5 22
REMARK SMILES IDX 4 23 3 24 2 25 1 26
REMARK H PARENT
REMARK Flexibility Score: inf
ROOT
ATOM      1  C   UNL     1      89.004  60.917   5.535  1.00  0.00     0.000 C 
ENDROOT
BRANCH   1   2
ATOM      2  C   UNL     1      89.494  62.375   5.489  1.00  0.00     0.000 C 
BRANCH   2   3
ATOM      3  C   UNL     1      91.022  62.487   5.600  1.00  0.00     0.000 C 
BRANCH   3   4
ATOM      4  C   UNL     1      91.561  61.583   6.716  1.00  0.00     0.000 C 
BRANCH   4   5
ATOM      5  C   UNL     1      92.208  62.415   7.832  1.00  0.00     0.000 C 
BRANCH   5   6
ATOM      6  C   UNL     1      91.674  63.857   7.893  1.00  0.00     0.000 C 
BRANCH   6   7
ATOM      7  C   UNL     1      91.445  64.377   9.329  1.00  0.00     0.000 C 
BRANCH   7   8
ATOM      8  C   UNL     1      89.957  64.623   9.629  1.00  0.00     0.000 C 
BRANCH   8   9
ATOM      9  C   UNL     1      89.030  64.003   8.570  1.00  0.00     0.000 C 
BRANCH   9  10
ATOM     10  C   UNL     1      87.568  64.457   8.732  1.00  0.00     0.006 C 
BRANCH  10  11
ATOM     11  C   UNL     1      86.592  63.273   8.772  1.00  0.00     0.053 C 
BRANCH  11  12
ATOM     12  C   UNL     1      85.616  63.302   7.635  1.00  0.00     0.041 C 
ATOM     13  O   UNL     1      84.386  63.125   7.846  1.00  0.00    -0.550 OA
ATOM     14  O   UNL     1      86.063  63.548   6.342  1.00  0.00    -0.550 OA
ENDBRANCH  11  12
ENDBRANCH  10  11
ENDBRANCH   9  10
ENDBRANCH   8   9
ENDBRANCH   7   8
ENDBRANCH   6   7
ENDBRANCH   5   6
ENDBRANCH   4   5
ENDBRANCH   3   4
ENDBRANCH   2   3
ENDBRANCH   1   2
BRANCH   1  15
ATOM     15  C   UNL     1      88.126  60.633   6.766  1.00  0.00     0.000 C 
BRANCH  15  16
ATOM     16  C   UNL     1      88.737  59.582   7.713  1.00  0.00     0.000 C 
BRANCH  16  17
ATOM     17  C   UNL     1      88.957  58.187   7.100  1.00  0.00     0.000 C 
BRANCH  17  18
ATOM     18  C   UNL     1      88.710  57.047   8.100  1.00  0.00    -0.000 C 
BRANCH  18  19
ATOM     19  C   UNL     1      88.845  57.497   9.567  1.00  0.00    -0.000 C 
BRANCH  19  20
ATOM     20  C   UNL     1      87.685  57.076  10.488  1.00  0.00    -0.000 C 
BRANCH  20  21
ATOM     21  C   UNL     1      87.246  58.196  11.448  1.00  0.00    -0.000 C 
BRANCH  21  22
ATOM     22  C   UNL     1      85.864  58.767  11.100  1.00  0.00    -0.000 C 
BRANCH  22  23
ATOM     23  C   UNL     1      85.915  59.778   9.941  1.00  0.00    -0.000 C 
BRANCH  23  24
ATOM     24  C   UNL     1      84.801  59.524   8.902  1.00  0.00    -0.000 C 
BRANCH  24  25
ATOM     25  C   UNL     1      85.235  58.602   7.752  1.00  0.00    -0.003 C 
ATOM     26  C   UNL     1      84.892  57.134   7.999  1.00  0.00     0.004 C 
ENDBRANCH  24  25
ENDBRANCH  23  24
ENDBRANCH  22  23
ENDBRANCH  21  22
ENDBRANCH  20  21
ENDBRANCH  19  20
ENDBRANCH  18  19
ENDBRANCH  17  18
ENDBRANCH  16  17
ENDBRANCH  15  16
ENDBRANCH   1  15
TORSDOF 22
ENDMDL
MODEL 8
REMARK VINA RESULT:    -4.962      3.205      7.893
REMARK INTER + INTRA:         -14.274
REMARK INTER:                 -11.150
REMARK INTRA:                  -3.124
REMARK UNBOUND:                -2.931
REMARK SMILES CCCCCCCCCCCCCCCCCCCCCCCC(=O)[O-]
REMARK SMILES IDX 13 1 14 2 15 3 16 4 17 5 18 6 19 7 20 8 21 9 22 10 23 11
REMARK SMILES IDX 24 12 25 13 26 14 12 15 11 16 10 17 9 18 8 19 7 20 6 21 5 22
REMARK SMILES IDX 4 23 3 24 2 25 1 26
REMARK H PARENT
REMARK Flexibility Score: inf
ROOT
ATOM      1  C   UNL     1      80.294  59.542  10.764  1.00  0.00     0.000 C 
ENDROOT
BRANCH   1   2
ATOM      2  C   UNL     1      79.577  58.453   9.946  1.00  0.00     0.000 C 
BRANCH   2   3
ATOM      3  C   UNL     1      78.884  57.410  10.834  1.00  0.00     0.000 C 
BRANCH   3   4
ATOM      4  C   UNL     1      78.346  56.243   9.996  1.00  0.00     0.000 C 
BRANCH   4   5
ATOM      5  C   UNL     1      77.888  56.726   8.613  1.00  0.00     0.000 C 
BRANCH   5   6
ATOM      6  C   UNL     1      78.139  55.692   7.501  1.00  0.00     0.000 C 
BRANCH   6   7
ATOM      7  C   UNL     1      78.159  54.231   8.000  1.00  0.00     0.000 C 
BRANCH   7   8
ATOM      8  C   UNL     1      79.488  53.526   7.682  1.00  0.00     0.000 C 
BRANCH   8   9
ATOM      9  C   UNL     1      80.674  54.502   7.612  1.00  0.00     0.000 C 
BRANCH   9  10
ATOM     10  C   UNL     1      81.805  54.123   8.585  1.00  0.00     0.006 C 
BRANCH  10  11
ATOM     11  C   UNL     1      81.337  54.119  10.046  1.00  0.00     0.053 C 
BRANCH  11  12
ATOM     12  C   UNL     1      82.077  53.115  10.878  1.00  0.00     0.041 C 
ATOM     13  O   UNL     1      81.559  51.995  11.134  1.00  0.00    -0.550 OA
ATOM     14  O   UNL     1      83.350  53.409  11.351  1.00  0.00    -0.550 OA
ENDBRANCH  11  12
ENDBRANCH  10  11
ENDBRANCH   9  10
ENDBRANCH   8   9
ENDBRANCH   7   8
ENDBRANCH   6   7
ENDBRANCH   5   6
ENDBRANCH   4   5
ENDBRANCH   3   4
ENDBRANCH   2   3
ENDBRANCH   1   2
BRANCH   1  15
ATOM     15  C   UNL     1      81.471  60.170   9.999  1.00  0.00     0.000 C 
BRANCH  15  16
ATOM     16  C   UNL     1      82.665  60.517  10.908  1.00  0.00     0.000 C 
BRANCH  16  17
ATOM     17  C   UNL     1      84.008  60.729  10.186  1.00  0.00     0.000 C 
BRANCH  17  18
ATOM     18  C   UNL     1      84.925  59.498  10.250  1.00  0.00    -0.000 C 
BRANCH  18  19
ATOM     19  C   UNL     1      84.624  58.468   9.146  1.00  0.00    -0.000 C 
BRANCH  19  20
ATOM     20  C   UNL     1      84.060  57.124   9.643  1.00  0.00    -0.000 C 
BRANCH  20  21
ATOM     21  C   UNL     1      85.066  55.967   9.512  1.00  0.00    -0.000 C 
BRANCH  21  22
ATOM     22  C   UNL     1      85.902  55.761  10.784  1.00  0.00    -0.000 C 
BRANCH  22  23
ATOM     23  C   UNL     1      87.415  55.858  10.522  1.00  0.00    -0.000 C 
BRANCH  23  24
ATOM     24  C   UNL     1      87.930  57.310  10.638  1.00  0.00    -0.000 C 
BRANCH  24  25
ATOM     25  C   UNL     1      88.401  57.901   9.300  1.00  0.00    -0.003 C 
ATOM     26  C   UNL     1      88.658  56.840   8.233  1.00  0.00     0.004 C 
ENDBRANCH  24  25
ENDBRANCH  23  24
ENDBRANCH  22  23
ENDBRANCH  21  22
ENDBRANCH  20  21
ENDBRANCH  19  20
ENDBRANCH  18  19
ENDBRANCH  17  18
ENDBRANCH  16  17
ENDBRANCH  15  16
ENDBRANCH   1  15
TORSDOF 22
ENDMDL
MODEL 9
REMARK VINA RESULT:    -4.949      4.397      9.011
REMARK INTER + INTRA:         -14.246
REMARK INTER:                 -10.492
REMARK INTRA:                  -3.754
REMARK UNBOUND:                -2.931
REMARK SMILES CCCCCCCCCCCCCCCCCCCCCCCC(=O)[O-]
REMARK SMILES IDX 13 1 14 2 15 3 16 4 17 5 18 6 19 7 20 8 21 9 22 10 23 11
REMARK SMILES IDX 24 12 25 13 26 14 12 15 11 16 10 17 9 18 8 19 7 20 6 21 5 22
REMARK SMILES IDX 4 23 3 24 2 25 1 26
REMARK H PARENT
REMARK Flexibility Score: inf
ROOT
ATOM      1  C   UNL     1      90.493  64.663   9.967  1.00  0.00     0.000 C 
ENDROOT
BRANCH   1   2
ATOM      2  C   UNL     1      89.462  64.054   9.000  1.00  0.00     0.000 C 
BRANCH   2   3
ATOM      3  C   UNL     1      88.208  64.927   8.850  1.00  0.00     0.000 C 
BRANCH   3   4
ATOM      4  C   UNL     1      87.622  64.812   7.436  1.00  0.00     0.000 C 
BRANCH   4   5
ATOM      5  C   UNL     1      87.011  63.423   7.207  1.00  0.00     0.000 C 
BRANCH   5   6
ATOM      6  C   UNL     1      85.480  63.405   7.366  1.00  0.00     0.000 C 
BRANCH   6   7
ATOM      7  C   UNL     1      85.006  63.096   8.803  1.00  0.00     0.000 C 
BRANCH   7   8
ATOM      8  C   UNL     1      85.668  61.831   9.375  1.00  0.00     0.000 C 
BRANCH   8   9
ATOM      9  C   UNL     1      85.317  60.566   8.575  1.00  0.00     0.000 C 
BRANCH   9  10
ATOM     10  C   UNL     1      84.948  59.380   9.484  1.00  0.00     0.006 C 
BRANCH  10  11
ATOM     11  C   UNL     1      85.953  59.190  10.628  1.00  0.00     0.053 C 
BRANCH  11  12
ATOM     12  C   UNL     1      85.368  59.538  11.963  1.00  0.00     0.041 C 
ATOM     13  O   UNL     1      86.109  59.640  12.977  1.00  0.00    -0.550 OA
ATOM     14  O   UNL     1      84.003  59.772  12.083  1.00  0.00    -0.550 OA
ENDBRANCH  11  12
ENDBRANCH  10  11
ENDBRANCH   9  10
ENDBRANCH   8   9
ENDBRANCH   7   8
ENDBRANCH   6   7
ENDBRANCH   5   6
ENDBRANCH   4   5
ENDBRANCH   3   4
ENDBRANCH   2   3
ENDBRANCH   1   2
BRANCH   1  15
ATOM     15  C   UNL     1      91.831  64.976   9.277  1.00  0.00     0.000 C 
BRANCH  15  16
ATOM     16  C   UNL     1      91.930  66.433   8.785  1.00  0.00     0.000 C 
BRANCH  16  17
ATOM     17  C   UNL     1      92.086  66.609   7.264  1.00  0.00     0.000 C 
BRANCH  17  18
ATOM     18  C   UNL     1      90.856  66.133   6.475  1.00  0.00    -0.000 C 
BRANCH  18  19
ATOM     19  C   UNL     1      91.216  65.171   5.328  1.00  0.00    -0.000 C 
BRANCH  19  20
ATOM     20  C   UNL     1      90.958  63.682   5.618  1.00  0.00    -0.000 C 
BRANCH  20  21
ATOM     21  C   UNL     1      92.153  62.986   6.294  1.00  0.00    -0.000 C 
BRANCH  21  22
ATOM     22  C   UNL     1      91.725  61.830   7.209  1.00  0.00    -0.000 C 
BRANCH  22  23
ATOM     23  C   UNL     1      90.585  60.988   6.609  1.00  0.00    -0.000 C 
BRANCH  23  24
ATOM     24  C   UNL     1      89.463  60.718   7.635  1.00  0.00    -0.000 C 
BRANCH  24  25
ATOM     25  C   UNL     1      88.579  59.515   7.273  1.00  0.00    -0.003 C 
ATOM     26  C   UNL     1      88.770  58.327   8.213  1.00  0.00     0.004 C 
ENDBRANCH  24  25
ENDBRANCH  23  24
ENDBRANCH  22  23
ENDBRANCH  21  22
ENDBRANCH  20  21
ENDBRANCH  19  20
ENDBRANCH  18  19
ENDBRANCH  17  18
ENDBRANCH  16  17
ENDBRANCH  15  16
ENDBRANCH   1  15
TORSDOF 22
ENDMDL
