MODEL 1
REMARK VINA RESULT:    -4.904      0.000      0.000
REMARK INTER + INTRA:         -13.277
REMARK INTER:                 -10.637
REMARK INTRA:                  -2.640
REMARK UNBOUND:                -2.640
REMARK SMILES CCCCCCCCCCCCCCCCCCCCCC(=O)[O-]
REMARK SMILES IDX 12 1 11 2 10 3 9 4 8 5 7 6 6 7 5 8 4 9 3 10 2 11 1 12 13 13
REMARK SMILES IDX 14 14 15 15 16 16 17 17 18 18 19 19 20 20 21 21 22 22 23 23
REMARK SMILES IDX 24 24
REMARK H PARENT
REMARK Flexibility Score: inf
ROOT
ATOM      1  C   UNL     1       9.447   4.952  30.075  1.00  0.00     0.000 C 
ENDROOT
BRANCH   1   2
ATOM      2  C   UNL     1       9.357   6.402  30.578  1.00  0.00     0.000 C 
BRANCH   2   3
ATOM      3  C   UNL     1       9.181   7.416  29.437  1.00  0.00     0.000 C 
BRANCH   3   4
ATOM      4  C   UNL     1       8.805   6.750  28.105  1.00  0.00    -0.000 C 
BRANCH   4   5
ATOM      5  C   UNL     1       9.887   6.990  27.045  1.00  0.00    -0.000 C 
BRANCH   5   6
ATOM      6  C   UNL     1      10.765   8.191  27.416  1.00  0.00    -0.000 C 
BRANCH   6   7
ATOM      7  C   UNL     1      11.186   8.973  26.166  1.00  0.00    -0.000 C 
BRANCH   7   8
ATOM      8  C   UNL     1      10.715   8.260  24.888  1.00  0.00    -0.000 C 
BRANCH   8   9
ATOM      9  C   UNL     1      11.723   8.388  23.735  1.00  0.00    -0.000 C 
BRANCH   9  10
ATOM     10  C   UNL     1      11.972   7.050  23.016  1.00  0.00    -0.000 C 
BRANCH  10  11
ATOM     11  C   UNL     1      11.154   6.917  21.723  1.00  0.00    -0.003 C 
ATOM     12  C   UNL     1      11.988   7.171  20.468  1.00  0.00     0.004 C 
ENDBRANCH  10  11
ENDBRANCH   9  10
ENDBRANCH   8   9
ENDBRANCH   7   8
ENDBRANCH   6   7
ENDBRANCH   5   6
ENDBRANCH   4   5
ENDBRANCH   3   4
ENDBRANCH   2   3
ENDBRANCH   1   2
BRANCH   1  13
ATOM     13  C   UNL     1      10.487   4.156  30.873  1.00  0.00     0.000 C 
BRANCH  13  14
ATOM     14  C   UNL     1      11.914   4.550  30.460  1.00  0.00     0.000 C 
BRANCH  14  15
ATOM     15  C   UNL     1      12.020   4.908  28.969  1.00  0.00     0.000 C 
BRANCH  15  16
ATOM     16  C   UNL     1      13.449   5.287  28.552  1.00  0.00     0.000 C 
BRANCH  16  17
ATOM     17  C   UNL     1      13.479   5.803  27.106  1.00  0.00     0.000 C 
BRANCH  17  18
ATOM     18  C   UNL     1      14.451   6.980  26.907  1.00  0.00     0.000 C 
BRANCH  18  19
ATOM     19  C   UNL     1      14.596   7.468  25.454  1.00  0.00     0.000 C 
BRANCH  19  20
ATOM     20  C   UNL     1      15.535   8.679  25.319  1.00  0.00     0.006 C 
BRANCH  20  21
ATOM     21  C   UNL     1      16.792   8.536  26.186  1.00  0.00     0.053 C 
BRANCH  21  22
ATOM     22  C   UNL     1      18.012   8.269  25.358  1.00  0.00     0.041 C 
ATOM     23  O   UNL     1      19.081   8.895  25.585  1.00  0.00    -0.550 OA
ATOM     24  O   UNL     1      17.960   7.348  24.319  1.00  0.00    -0.550 OA
ENDBRANCH  21  22
ENDBRANCH  20  21
ENDBRANCH  19  20
ENDBRANCH  18  19
ENDBRANCH  17  18
ENDBRANCH  16  17
ENDBRANCH  15  16
ENDBRANCH  14  15
ENDBRANCH  13  14
ENDBRANCH   1  13
TORSDOF 20
ENDMDL
MODEL 2
REMARK VINA RESULT:    -4.858      9.577     14.462
REMARK INTER + INTRA:         -13.177
REMARK INTER:                  -9.856
REMARK INTRA:                  -3.321
REMARK UNBOUND:                -2.640
REMARK SMILES CCCCCCCCCCCCCCCCCCCCCC(=O)[O-]
REMARK SMILES IDX 12 1 11 2 10 3 9 4 8 5 7 6 6 7 5 8 4 9 3 10 2 11 1 12 13 13
REMARK SMILES IDX 14 14 15 15 16 16 17 17 18 18 19 19 20 20 21 21 22 22 23 23
REMARK SMILES IDX 24 24
REMARK H PARENT
REMARK Flexibility Score: inf
ROOT
ATOM      1  C   UNL     1       7.879   6.034  13.059  1.00  0.00     0.000 C 
ENDROOT
BRANCH   1   2
ATOM      2  C   UNL     1       6.468   5.651  13.533  1.00  0.00     0.000 C 
BRANCH   2   3
ATOM      3  C   UNL     1       5.379   6.022  12.515  1.00  0.00     0.000 C 
BRANCH   3   4
ATOM      4  C   UNL     1       4.425   7.107  13.036  1.00  0.00    -0.000 C 
BRANCH   4   5
ATOM      5  C   UNL     1       3.887   6.746  14.425  1.00  0.00    -0.000 C 
BRANCH   5   6
ATOM      6  C   UNL     1       3.030   7.882  14.996  1.00  0.00    -0.000 C 
BRANCH   6   7
ATOM      7  C   UNL     1       2.994   7.829  16.528  1.00  0.00    -0.000 C 
BRANCH   7   8
ATOM      8  C   UNL     1       2.820   9.235  17.123  1.00  0.00    -0.000 C 
BRANCH   8   9
ATOM      9  C   UNL     1       2.191   9.211  18.525  1.00  0.00    -0.000 C 
BRANCH   9  10
ATOM     10  C   UNL     1       0.830   9.926  18.574  1.00  0.00    -0.000 C 
BRANCH  10  11
ATOM     11  C   UNL     1      -0.345   8.970  18.318  1.00  0.00    -0.003 C 
ATOM     12  C   UNL     1      -0.824   8.997  16.867  1.00  0.00     0.004 C 
ENDBRANCH  10  11
ENDBRANCH   9  10
ENDBRANCH   8   9
ENDBRANCH   7   8
ENDBRANCH   6   7
ENDBRANCH   5   6
ENDBRANCH   4   5
ENDBRANCH   3   4
ENDBRANCH   2   3
ENDBRANCH   1   2
BRANCH   1  13
ATOM     13  C   UNL     1       7.817   6.894  11.789  1.00  0.00     0.000 C 
BRANCH  13  14
ATOM     14  C   UNL     1       8.304   8.323  12.071  1.00  0.00     0.000 C 
BRANCH  14  15
ATOM     15  C   UNL     1       8.286   8.670  13.568  1.00  0.00     0.000 C 
BRANCH  15  16
ATOM     16  C   UNL     1       7.179   9.673  13.930  1.00  0.00     0.000 C 
BRANCH  16  17
ATOM     17  C   UNL     1       6.422   9.223  15.188  1.00  0.00     0.000 C 
BRANCH  17  18
ATOM     18  C   UNL     1       7.170   8.140  15.985  1.00  0.00     0.000 C 
BRANCH  18  19
ATOM     19  C   UNL     1       6.348   7.466  17.099  1.00  0.00     0.000 C 
BRANCH  19  20
ATOM     20  C   UNL     1       6.359   8.261  18.416  1.00  0.00     0.006 C 
BRANCH  20  21
ATOM     21  C   UNL     1       5.473   7.616  19.489  1.00  0.00     0.053 C 
BRANCH  21  22
ATOM     22  C   UNL     1       6.283   7.060  20.620  1.00  0.00     0.041 C 
ATOM     23  O   UNL     1       7.537   7.186  20.624  1.00  0.00    -0.550 OA
ATOM     24  O   UNL     1       5.657   6.380  21.657  1.00  0.00    -0.550 OA
ENDBRANCH  21  22
ENDBRANCH  20  21
ENDBRANCH  19  20
ENDBRANCH  18  19
ENDBRANCH  17  18
ENDBRANCH  16  17
ENDBRANCH  15  16
ENDBRANCH  14  15
ENDBRANCH  13  14
ENDBRANCH   1  13
TORSDOF 20
ENDMDL
MODEL 3
REMARK VINA RESULT:    -4.812      1.132      2.056
REMARK INTER + INTRA:         -13.077
REMARK INTER:                 -10.082
REMARK INTRA:                  -2.995
REMARK UNBOUND:                -2.640
REMARK SMILES CCCCCCCCCCCCCCCCCCCCCC(=O)[O-]
REMARK SMILES IDX 12 1 11 2 10 3 9 4 8 5 7 6 6 7 5 8 4 9 3 10 2 11 1 12 13 13
REMARK SMILES IDX 14 14 15 15 16 16 17 17 18 18 19 19 20 20 21 21 22 22 23 23
REMARK SMILES IDX 24 24
REMARK H PARENT
REMARK Flexibility Score: inf
ROOT
ATOM      1  C   UNL     1      10.372   3.975  29.283  1.00  0.00     0.000 C 
ENDROOT
BRANCH   1   2
ATOM      2  C   UNL     1       9.278   4.607  30.158  1.00  0.00     0.000 C 
BRANCH   2   3
ATOM      3  C   UNL     1       9.619   6.042  30.587  1.00  0.00     0.000 C 
BRANCH   3   4
ATOM      4  C   UNL     1       8.958   7.102  29.693  1.00  0.00    -0.000 C 
BRANCH   4   5
ATOM      5  C   UNL     1       9.413   8.514  30.084  1.00  0.00    -0.000 C 
BRANCH   5   6
ATOM      6  C   UNL     1      10.253   9.150  28.971  1.00  0.00    -0.000 C 
BRANCH   6   7
ATOM      7  C   UNL     1      10.174   8.326  27.681  1.00  0.00    -0.000 C 
BRANCH   7   8
ATOM      8  C   UNL     1      11.039   8.952  26.575  1.00  0.00    -0.000 C 
BRANCH   8   9
ATOM      9  C   UNL     1      10.907   8.215  25.233  1.00  0.00    -0.000 C 
BRANCH   9  10
ATOM     10  C   UNL     1      11.414   9.053  24.046  1.00  0.00    -0.000 C 
BRANCH  10  11
ATOM     11  C   UNL     1      11.963   8.183  22.905  1.00  0.00    -0.003 C 
ATOM     12  C   UNL     1      11.279   6.820  22.819  1.00  0.00     0.004 C 
ENDBRANCH  10  11
ENDBRANCH   9  10
ENDBRANCH   8   9
ENDBRANCH   7   8
ENDBRANCH   6   7
ENDBRANCH   5   6
ENDBRANCH   4   5
ENDBRANCH   3   4
ENDBRANCH   2   3
ENDBRANCH   1   2
BRANCH   1  13
ATOM     13  C   UNL     1       9.979   4.008  27.800  1.00  0.00     0.000 C 
BRANCH  13  14
ATOM     14  C   UNL     1      10.838   5.020  27.028  1.00  0.00     0.000 C 
BRANCH  14  15
ATOM     15  C   UNL     1      12.091   5.449  27.807  1.00  0.00     0.000 C 
BRANCH  15  16
ATOM     16  C   UNL     1      13.371   5.366  26.962  1.00  0.00     0.000 C 
BRANCH  16  17
ATOM     17  C   UNL     1      14.079   6.728  26.904  1.00  0.00     0.000 C 
BRANCH  17  18
ATOM     18  C   UNL     1      14.367   7.195  25.466  1.00  0.00     0.000 C 
BRANCH  18  19
ATOM     19  C   UNL     1      14.797   8.668  25.333  1.00  0.00     0.000 C 
BRANCH  19  20
ATOM     20  C   UNL     1      15.652   8.932  24.082  1.00  0.00     0.006 C 
BRANCH  20  21
ATOM     21  C   UNL     1      16.985   9.609  24.424  1.00  0.00     0.053 C 
BRANCH  21  22
ATOM     22  C   UNL     1      18.047   8.607  24.762  1.00  0.00     0.041 C 
ATOM     23  O   UNL     1      17.957   7.422  24.343  1.00  0.00    -0.550 OA
ATOM     24  O   UNL     1      19.122   8.975  25.561  1.00  0.00    -0.550 OA
ENDBRANCH  21  22
ENDBRANCH  20  21
ENDBRANCH  19  20
ENDBRANCH  18  19
ENDBRANCH  17  18
ENDBRANCH  16  17
ENDBRANCH  15  16
ENDBRANCH  14  15
ENDBRANCH  13  14
ENDBRANCH   1  13
TORSDOF 20
ENDMDL
MODEL 4
REMARK VINA RESULT:    -4.773      2.631      5.347
REMARK INTER + INTRA:         -12.993
REMARK INTER:                  -9.609
REMARK INTRA:                  -3.384
REMARK UNBOUND:                -2.640
REMARK SMILES CCCCCCCCCCCCCCCCCCCCCC(=O)[O-]
REMARK SMILES IDX 12 1 11 2 10 3 9 4 8 5 7 6 6 7 5 8 4 9 3 10 2 11 1 12 13 13
REMARK SMILES IDX 14 14 15 15 16 16 17 17 18 18 19 19 20 20 21 21 22 22 23 23
REMARK SMILES IDX 24 24
REMARK H PARENT
REMARK Flexibility Score: inf
ROOT
ATOM      1  C   UNL     1       9.606   4.782  27.939  1.00  0.00     0.000 C 
ENDROOT
BRANCH   1   2
ATOM      2  C   UNL     1      11.041   4.575  27.430  1.00  0.00     0.000 C 
BRANCH   2   3
ATOM      3  C   UNL     1      12.094   5.215  28.348  1.00  0.00     0.000 C 
BRANCH   3   4
ATOM      4  C   UNL     1      13.366   5.629  27.592  1.00  0.00    -0.000 C 
BRANCH   4   5
ATOM      5  C   UNL     1      13.271   5.257  26.108  1.00  0.00    -0.000 C 
BRANCH   5   6
ATOM      6  C   UNL     1      13.927   6.328  25.228  1.00  0.00    -0.000 C 
BRANCH   6   7
ATOM      7  C   UNL     1      14.297   7.567  26.052  1.00  0.00    -0.000 C 
BRANCH   7   8
ATOM      8  C   UNL     1      14.578   8.770  25.139  1.00  0.00    -0.000 C 
BRANCH   8   9
ATOM      9  C   UNL     1      16.079   8.980  24.881  1.00  0.00    -0.000 C 
BRANCH   9  10
ATOM     10  C   UNL     1      16.961   8.317  25.953  1.00  0.00    -0.000 C 
BRANCH  10  11
ATOM     11  C   UNL     1      18.405   8.101  25.475  1.00  0.00    -0.003 C 
ATOM     12  C   UNL     1      18.979   9.323  24.758  1.00  0.00     0.004 C 
ENDBRANCH  10  11
ENDBRANCH   9  10
ENDBRANCH   8   9
ENDBRANCH   7   8
ENDBRANCH   6   7
ENDBRANCH   5   6
ENDBRANCH   4   5
ENDBRANCH   3   4
ENDBRANCH   2   3
ENDBRANCH   1   2
BRANCH   1  13
ATOM     13  C   UNL     1       9.597   5.113  29.437  1.00  0.00     0.000 C 
BRANCH  13  14
ATOM     14  C   UNL     1       9.014   6.512  29.686  1.00  0.00     0.000 C 
BRANCH  14  15
ATOM     15  C   UNL     1       9.025   7.390  28.425  1.00  0.00     0.000 C 
BRANCH  15  16
ATOM     16  C   UNL     1       9.970   8.596  28.552  1.00  0.00     0.000 C 
BRANCH  16  17
ATOM     17  C   UNL     1      11.022   8.587  27.434  1.00  0.00     0.000 C 
BRANCH  17  18
ATOM     18  C   UNL     1      10.545   7.859  26.164  1.00  0.00     0.000 C 
BRANCH  18  19
ATOM     19  C   UNL     1      10.917   8.548  24.839  1.00  0.00     0.000 C 
BRANCH  19  20
ATOM     20  C   UNL     1      10.873   7.593  23.634  1.00  0.00     0.006 C 
BRANCH  20  21
ATOM     21  C   UNL     1      11.930   7.943  22.579  1.00  0.00     0.053 C 
BRANCH  21  22
ATOM     22  C   UNL     1      11.440   7.671  21.189  1.00  0.00     0.041 C 
ATOM     23  O   UNL     1      10.877   8.582  20.526  1.00  0.00    -0.550 OA
ATOM     24  O   UNL     1      11.582   6.404  20.636  1.00  0.00    -0.550 OA
ENDBRANCH  21  22
ENDBRANCH  20  21
ENDBRANCH  19  20
ENDBRANCH  18  19
ENDBRANCH  17  18
ENDBRANCH  16  17
ENDBRANCH  15  16
ENDBRANCH  14  15
ENDBRANCH  13  14
ENDBRANCH   1  13
TORSDOF 20
ENDMDL
MODEL 5
REMARK VINA RESULT:    -4.589      2.966      5.494
REMARK INTER + INTRA:         -12.595
REMARK INTER:                  -9.354
REMARK INTRA:                  -3.240
REMARK UNBOUND:                -2.640
REMARK SMILES CCCCCCCCCCCCCCCCCCCCCC(=O)[O-]
REMARK SMILES IDX 12 1 11 2 10 3 9 4 8 5 7 6 6 7 5 8 4 9 3 10 2 11 1 12 13 13
REMARK SMILES IDX 14 14 15 15 16 16 17 17 18 18 19 19 20 20 21 21 22 22 23 23
REMARK SMILES IDX 24 24
REMARK H PARENT
REMARK Flexibility Score: inf
ROOT
ATOM      1  C   UNL     1       9.214   6.502  30.147  1.00  0.00     0.000 C 
ENDROOT
BRANCH   1   2
ATOM      2  C   UNL     1       9.383   5.065  29.628  1.00  0.00     0.000 C 
BRANCH   2   3
ATOM      3  C   UNL     1      10.721   4.437  30.048  1.00  0.00     0.000 C 
BRANCH   3   4
ATOM      4  C   UNL     1      11.934   5.180  29.466  1.00  0.00    -0.000 C 
BRANCH   4   5
ATOM      5  C   UNL     1      12.134   4.830  27.986  1.00  0.00    -0.000 C 
BRANCH   5   6
ATOM      6  C   UNL     1      13.324   5.596  27.396  1.00  0.00    -0.000 C 
BRANCH   6   7
ATOM      7  C   UNL     1      13.412   5.392  25.879  1.00  0.00    -0.000 C 
BRANCH   7   8
ATOM      8  C   UNL     1      14.163   6.556  25.211  1.00  0.00    -0.000 C 
BRANCH   8   9
ATOM      9  C   UNL     1      14.755   7.540  26.232  1.00  0.00    -0.000 C 
BRANCH   9  10
ATOM     10  C   UNL     1      15.573   8.661  25.567  1.00  0.00    -0.000 C 
BRANCH  10  11
ATOM     11  C   UNL     1      16.396   8.157  24.372  1.00  0.00    -0.003 C 
ATOM     12  C   UNL     1      17.863   7.916  24.724  1.00  0.00     0.004 C 
ENDBRANCH  10  11
ENDBRANCH   9  10
ENDBRANCH   8   9
ENDBRANCH   7   8
ENDBRANCH   6   7
ENDBRANCH   5   6
ENDBRANCH   4   5
ENDBRANCH   3   4
ENDBRANCH   2   3
ENDBRANCH   1   2
BRANCH   1  13
ATOM     13  C   UNL     1       9.118   7.499  28.985  1.00  0.00     0.000 C 
BRANCH  13  14
ATOM     14  C   UNL     1       8.972   6.765  27.644  1.00  0.00     0.000 C 
BRANCH  14  15
ATOM     15  C   UNL     1      10.066   7.150  26.636  1.00  0.00     0.000 C 
BRANCH  15  16
ATOM     16  C   UNL     1      10.890   8.365  27.093  1.00  0.00     0.000 C 
BRANCH  16  17
ATOM     17  C   UNL     1      11.477   9.113  25.888  1.00  0.00     0.000 C 
BRANCH  17  18
ATOM     18  C   UNL     1      10.766   8.776  24.565  1.00  0.00     0.000 C 
BRANCH  18  19
ATOM     19  C   UNL     1      11.693   8.319  23.424  1.00  0.00     0.000 C 
BRANCH  19  20
ATOM     20  C   UNL     1      11.342   6.920  22.890  1.00  0.00     0.006 C 
BRANCH  20  21
ATOM     21  C   UNL     1      11.104   6.921  21.375  1.00  0.00     0.053 C 
BRANCH  21  22
ATOM     22  C   UNL     1       9.785   7.536  21.019  1.00  0.00     0.041 C 
ATOM     23  O   UNL     1       8.713   6.914  21.248  1.00  0.00    -0.550 OA
ATOM     24  O   UNL     1       9.740   8.784  20.411  1.00  0.00    -0.550 OA
ENDBRANCH  21  22
ENDBRANCH  20  21
ENDBRANCH  19  20
ENDBRANCH  18  19
ENDBRANCH  17  18
ENDBRANCH  16  17
ENDBRANCH  15  16
ENDBRANCH  14  15
ENDBRANCH  13  14
ENDBRANCH   1  13
TORSDOF 20
ENDMDL
MODEL 6
REMARK VINA RESULT:    -4.345      8.114     12.974
REMARK INTER + INTRA:         -12.064
REMARK INTER:                  -8.607
REMARK INTRA:                  -3.457
REMARK UNBOUND:                -2.640
REMARK SMILES CCCCCCCCCCCCCCCCCCCCCC(=O)[O-]
REMARK SMILES IDX 12 1 11 2 10 3 9 4 8 5 7 6 6 7 5 8 4 9 3 10 2 11 1 12 13 13
REMARK SMILES IDX 14 14 15 15 16 16 17 17 18 18 19 19 20 20 21 21 22 22 23 23
REMARK SMILES IDX 24 24
REMARK H PARENT
REMARK Flexibility Score: inf
ROOT
ATOM      1  C   UNL     1       7.674   8.102  14.906  1.00  0.00     0.000 C 
ENDROOT
BRANCH   1   2
ATOM      2  C   UNL     1       8.417   7.543  13.682  1.00  0.00     0.000 C 
BRANCH   2   3
ATOM      3  C   UNL     1       7.799   6.237  13.160  1.00  0.00     0.000 C 
BRANCH   3   4
ATOM      4  C   UNL     1       6.460   5.903  13.834  1.00  0.00    -0.000 C 
BRANCH   4   5
ATOM      5  C   UNL     1       5.280   6.407  12.995  1.00  0.00    -0.000 C 
BRANCH   5   6
ATOM      6  C   UNL     1       4.127   6.876  13.890  1.00  0.00    -0.000 C 
BRANCH   6   7
ATOM      7  C   UNL     1       4.319   6.394  15.333  1.00  0.00    -0.000 C 
BRANCH   7   8
ATOM      8  C   UNL     1       3.476   7.231  16.308  1.00  0.00    -0.000 C 
BRANCH   8   9
ATOM      9  C   UNL     1       2.617   8.285  15.592  1.00  0.00    -0.000 C 
BRANCH   9  10
ATOM     10  C   UNL     1       2.005   9.309  16.565  1.00  0.00    -0.000 C 
BRANCH  10  11
ATOM     11  C   UNL     1       1.576   8.672  17.895  1.00  0.00    -0.003 C 
ATOM     12  C   UNL     1       1.708   9.629  19.079  1.00  0.00     0.004 C 
ENDBRANCH  10  11
ENDBRANCH   9  10
ENDBRANCH   8   9
ENDBRANCH   7   8
ENDBRANCH   6   7
ENDBRANCH   5   6
ENDBRANCH   4   5
ENDBRANCH   3   4
ENDBRANCH   2   3
ENDBRANCH   1   2
BRANCH   1  13
ATOM     13  C   UNL     1       6.991   9.435  14.571  1.00  0.00     0.000 C 
BRANCH  13  14
ATOM     14  C   UNL     1       5.928   9.785  15.623  1.00  0.00     0.000 C 
BRANCH  14  15
ATOM     15  C   UNL     1       6.318   9.323  17.036  1.00  0.00     0.000 C 
BRANCH  15  16
ATOM     16  C   UNL     1       5.420   9.928  18.126  1.00  0.00     0.000 C 
BRANCH  16  17
ATOM     17  C   UNL     1       5.229   8.942  19.288  1.00  0.00     0.000 C 
BRANCH  17  18
ATOM     18  C   UNL     1       5.907   7.583  19.041  1.00  0.00     0.000 C 
BRANCH  18  19
ATOM     19  C   UNL     1       6.611   6.973  20.267  1.00  0.00     0.000 C 
BRANCH  19  20
ATOM     20  C   UNL     1       7.276   8.032  21.164  1.00  0.00     0.006 C 
BRANCH  20  21
ATOM     21  C   UNL     1       8.693   8.382  20.693  1.00  0.00     0.053 C 
BRANCH  21  22
ATOM     22  C   UNL     1       9.739   7.783  21.583  1.00  0.00     0.041 C 
ATOM     23  O   UNL     1       9.906   8.223  22.751  1.00  0.00    -0.550 OA
ATOM     24  O   UNL     1      10.548   6.756  21.112  1.00  0.00    -0.550 OA
ENDBRANCH  21  22
ENDBRANCH  20  21
ENDBRANCH  19  20
ENDBRANCH  18  19
ENDBRANCH  17  18
ENDBRANCH  16  17
ENDBRANCH  15  16
ENDBRANCH  14  15
ENDBRANCH  13  14
ENDBRANCH   1  13
TORSDOF 20
ENDMDL
MODEL 7
REMARK VINA RESULT:    -4.331      4.397      7.214
REMARK INTER + INTRA:         -12.034
REMARK INTER:                  -9.318
REMARK INTRA:                  -2.716
REMARK UNBOUND:                -2.640
REMARK SMILES CCCCCCCCCCCCCCCCCCCCCC(=O)[O-]
REMARK SMILES IDX 12 1 11 2 10 3 9 4 8 5 7 6 6 7 5 8 4 9 3 10 2 11 1 12 13 13
REMARK SMILES IDX 14 14 15 15 16 16 17 17 18 18 19 19 20 20 21 21 22 22 23 23
REMARK SMILES IDX 24 24
REMARK H PARENT
REMARK Flexibility Score: inf
ROOT
ATOM      1  C   UNL     1      11.315   6.751  21.958  1.00  0.00     0.000 C 
ENDROOT
BRANCH   1   2
ATOM      2  C   UNL     1       9.818   6.997  21.713  1.00  0.00     0.000 C 
BRANCH   2   3
ATOM      3  C   UNL     1       9.486   8.485  21.519  1.00  0.00     0.000 C 
BRANCH   3   4
ATOM      4  C   UNL     1       8.930   9.140  22.792  1.00  0.00    -0.000 C 
BRANCH   4   5
ATOM      5  C   UNL     1       7.583   9.821  22.518  1.00  0.00    -0.000 C 
BRANCH   5   6
ATOM      6  C   UNL     1       6.451   9.131  23.288  1.00  0.00    -0.000 C 
BRANCH   6   7
ATOM      7  C   UNL     1       5.314   8.719  22.344  1.00  0.00    -0.000 C 
BRANCH   7   8
ATOM      8  C   UNL     1       5.306   7.197  22.128  1.00  0.00    -0.000 C 
BRANCH   8   9
ATOM      9  C   UNL     1       6.096   6.774  20.879  1.00  0.00    -0.000 C 
BRANCH   9  10
ATOM     10  C   UNL     1       5.493   7.335  19.579  1.00  0.00    -0.000 C 
BRANCH  10  11
ATOM     11  C   UNL     1       6.568   7.739  18.560  1.00  0.00    -0.003 C 
ATOM     12  C   UNL     1       7.157   9.121  18.838  1.00  0.00     0.004 C 
ENDBRANCH  10  11
ENDBRANCH   9  10
ENDBRANCH   8   9
ENDBRANCH   7   8
ENDBRANCH   6   7
ENDBRANCH   5   6
ENDBRANCH   4   5
ENDBRANCH   3   4
ENDBRANCH   2   3
ENDBRANCH   1   2
BRANCH   1  13
ATOM     13  C   UNL     1      12.172   7.526  20.948  1.00  0.00     0.000 C 
BRANCH  13  14
ATOM     14  C   UNL     1      13.491   7.986  21.587  1.00  0.00     0.000 C 
BRANCH  14  15
ATOM     15  C   UNL     1      13.289   8.612  22.976  1.00  0.00     0.000 C 
BRANCH  15  16
ATOM     16  C   UNL     1      14.329   8.130  23.999  1.00  0.00     0.000 C 
BRANCH  16  17
ATOM     17  C   UNL     1      13.653   7.376  25.154  1.00  0.00     0.000 C 
BRANCH  17  18
ATOM     18  C   UNL     1      12.211   7.847  25.417  1.00  0.00     0.000 C 
BRANCH  18  19
ATOM     19  C   UNL     1      11.291   6.797  26.067  1.00  0.00     0.000 C 
BRANCH  19  20
ATOM     20  C   UNL     1      11.994   5.983  27.167  1.00  0.00     0.006 C 
BRANCH  20  21
ATOM     21  C   UNL     1      11.015   5.498  28.243  1.00  0.00     0.053 C 
BRANCH  21  22
ATOM     22  C   UNL     1       9.741   4.983  27.646  1.00  0.00     0.041 C 
ATOM     23  O   UNL     1       9.712   3.851  27.095  1.00  0.00    -0.550 OA
ATOM     24  O   UNL     1       8.593   5.765  27.673  1.00  0.00    -0.550 OA
ENDBRANCH  21  22
ENDBRANCH  20  21
ENDBRANCH  19  20
ENDBRANCH  18  19
ENDBRANCH  17  18
ENDBRANCH  16  17
ENDBRANCH  15  16
ENDBRANCH  14  15
ENDBRANCH  13  14
ENDBRANCH   1  13
TORSDOF 20
ENDMDL
MODEL 8
REMARK VINA RESULT:    -4.314      4.621      8.756
REMARK INTER + INTRA:         -11.997
REMARK INTER:                  -9.704
REMARK INTRA:                  -2.293
REMARK UNBOUND:                -2.640
REMARK SMILES CCCCCCCCCCCCCCCCCCCCCC(=O)[O-]
REMARK SMILES IDX 12 1 11 2 10 3 9 4 8 5 7 6 6 7 5 8 4 9 3 10 2 11 1 12 13 13
REMARK SMILES IDX 14 14 15 15 16 16 17 17 18 18 19 19 20 20 21 21 22 22 23 23
REMARK SMILES IDX 24 24
REMARK H PARENT
REMARK Flexibility Score: inf
ROOT
ATOM      1  C   UNL     1      14.089   8.223  22.521  1.00  0.00     0.000 C 
ENDROOT
BRANCH   1   2
ATOM      2  C   UNL     1      14.760   8.886  23.734  1.00  0.00     0.000 C 
BRANCH   2   3
ATOM      3  C   UNL     1      13.979   8.664  25.039  1.00  0.00     0.000 C 
BRANCH   3   4
ATOM      4  C   UNL     1      12.569   9.271  24.996  1.00  0.00    -0.000 C 
BRANCH   4   5
ATOM      5  C   UNL     1      11.525   8.275  25.514  1.00  0.00    -0.000 C 
BRANCH   5   6
ATOM      6  C   UNL     1      12.142   6.886  25.717  1.00  0.00    -0.000 C 
BRANCH   6   7
ATOM      7  C   UNL     1      11.707   6.280  27.057  1.00  0.00    -0.000 C 
BRANCH   7   8
ATOM      8  C   UNL     1      10.276   5.726  26.971  1.00  0.00    -0.000 C 
BRANCH   8   9
ATOM      9  C   UNL     1       9.284   6.513  27.841  1.00  0.00    -0.000 C 
BRANCH   9  10
ATOM     10  C   UNL     1       9.114   5.902  29.243  1.00  0.00    -0.000 C 
BRANCH  10  11
ATOM     11  C   UNL     1       9.512   4.419  29.290  1.00  0.00    -0.003 C 
ATOM     12  C   UNL     1      10.565   4.122  30.357  1.00  0.00     0.004 C 
ENDBRANCH  10  11
ENDBRANCH   9  10
ENDBRANCH   8   9
ENDBRANCH   7   8
ENDBRANCH   6   7
ENDBRANCH   5   6
ENDBRANCH   4   5
ENDBRANCH   3   4
ENDBRANCH   2   3
ENDBRANCH   1   2
BRANCH   1  13
ATOM     13  C   UNL     1      13.484   9.276  21.583  1.00  0.00     0.000 C 
BRANCH  13  14
ATOM     14  C   UNL     1      12.163   8.777  20.979  1.00  0.00     0.000 C 
BRANCH  14  15
ATOM     15  C   UNL     1      11.897   7.294  21.280  1.00  0.00     0.000 C 
BRANCH  15  16
ATOM     16  C   UNL     1      10.703   7.088  22.225  1.00  0.00     0.000 C 
BRANCH  16  17
ATOM     17  C   UNL     1       9.504   7.942  21.789  1.00  0.00     0.000 C 
BRANCH  17  18
ATOM     18  C   UNL     1       9.055   8.945  22.866  1.00  0.00     0.000 C 
BRANCH  18  19
ATOM     19  C   UNL     1       7.738   9.682  22.563  1.00  0.00     0.000 C 
BRANCH  19  20
ATOM     20  C   UNL     1       6.502   8.954  23.120  1.00  0.00     0.006 C 
BRANCH  20  21
ATOM     21  C   UNL     1       5.303   9.037  22.167  1.00  0.00     0.053 C 
BRANCH  21  22
ATOM     22  C   UNL     1       5.247   7.862  21.239  1.00  0.00     0.041 C 
ATOM     23  O   UNL     1       4.731   7.981  20.096  1.00  0.00    -0.550 OA
ATOM     24  O   UNL     1       5.742   6.629  21.647  1.00  0.00    -0.550 OA
ENDBRANCH  21  22
ENDBRANCH  20  21
ENDBRANCH  19  20
ENDBRANCH  18  19
ENDBRANCH  17  18
ENDBRANCH  16  17
ENDBRANCH  15  16
ENDBRANCH  14  15
ENDBRANCH  13  14
ENDBRANCH   1  13
TORSDOF 20
ENDMDL
MODEL 9
REMARK VINA RESULT:    -4.286      8.042     12.090
REMARK INTER + INTRA:         -11.936
REMARK INTER:                  -8.964
REMARK INTRA:                  -2.972
REMARK UNBOUND:                -2.640
REMARK SMILES CCCCCCCCCCCCCCCCCCCCCC(=O)[O-]
REMARK SMILES IDX 12 1 11 2 10 3 9 4 8 5 7 6 6 7 5 8 4 9 3 10 2 11 1 12 13 13
REMARK SMILES IDX 14 14 15 15 16 16 17 17 18 18 19 19 20 20 21 21 22 22 23 23
REMARK SMILES IDX 24 24
REMARK H PARENT
REMARK Flexibility Score: inf
ROOT
ATOM      1  C   UNL     1       4.939   8.524  20.804  1.00  0.00     0.000 C 
ENDROOT
BRANCH   1   2
ATOM      2  C   UNL     1       5.249   7.297  19.932  1.00  0.00     0.000 C 
BRANCH   2   3
ATOM      3  C   UNL     1       6.372   7.562  18.916  1.00  0.00     0.000 C 
BRANCH   3   4
ATOM      4  C   UNL     1       6.872   9.014  18.950  1.00  0.00    -0.000 C 
BRANCH   4   5
ATOM      5  C   UNL     1       8.304   9.090  19.492  1.00  0.00    -0.000 C 
BRANCH   5   6
ATOM      6  C   UNL     1       8.332   9.727  20.887  1.00  0.00    -0.000 C 
BRANCH   6   7
ATOM      7  C   UNL     1       8.533   8.664  21.974  1.00  0.00    -0.000 C 
BRANCH   7   8
ATOM      8  C   UNL     1       9.142   7.382  21.383  1.00  0.00    -0.000 C 
BRANCH   8   9
ATOM      9  C   UNL     1      10.493   7.021  22.020  1.00  0.00    -0.000 C 
BRANCH   9  10
ATOM     10  C   UNL     1      11.574   6.704  20.972  1.00  0.00    -0.000 C 
BRANCH  10  11
ATOM     11  C   UNL     1      12.747   7.694  21.020  1.00  0.00    -0.003 C 
ATOM     12  C   UNL     1      12.290   9.147  21.135  1.00  0.00     0.004 C 
ENDBRANCH  10  11
ENDBRANCH   9  10
ENDBRANCH   8   9
ENDBRANCH   7   8
ENDBRANCH   6   7
ENDBRANCH   5   6
ENDBRANCH   4   5
ENDBRANCH   3   4
ENDBRANCH   2   3
ENDBRANCH   1   2
BRANCH   1  13
ATOM     13  C   UNL     1       3.430   8.800  20.848  1.00  0.00     0.000 C 
BRANCH  13  14
ATOM     14  C   UNL     1       2.807   8.662  19.451  1.00  0.00     0.000 C 
BRANCH  14  15
ATOM     15  C   UNL     1       3.009   9.916  18.587  1.00  0.00     0.000 C 
BRANCH  15  16
ATOM     16  C   UNL     1       3.570   9.591  17.193  1.00  0.00     0.000 C 
BRANCH  16  17
ATOM     17  C   UNL     1       2.809   8.419  16.556  1.00  0.00     0.000 C 
BRANCH  17  18
ATOM     18  C   UNL     1       3.739   7.309  16.037  1.00  0.00     0.000 C 
BRANCH  18  19
ATOM     19  C   UNL     1       5.078   7.798  15.454  1.00  0.00     0.000 C 
BRANCH  19  20
ATOM     20  C   UNL     1       6.126   6.679  15.337  1.00  0.00     0.006 C 
BRANCH  20  21
ATOM     21  C   UNL     1       6.991   6.824  14.079  1.00  0.00     0.053 C 
BRANCH  21  22
ATOM     22  C   UNL     1       6.465   6.001  12.943  1.00  0.00     0.041 C 
ATOM     23  O   UNL     1       7.189   5.119  12.411  1.00  0.00    -0.550 OA
ATOM     24  O   UNL     1       5.184   6.227  12.455  1.00  0.00    -0.550 OA
ENDBRANCH  21  22
ENDBRANCH  20  21
ENDBRANCH  19  20
ENDBRANCH  18  19
ENDBRANCH  17  18
ENDBRANCH  16  17
ENDBRANCH  15  16
ENDBRANCH  14  15
ENDBRANCH  13  14
ENDBRANCH   1  13
TORSDOF 20
ENDMDL
