MODEL 1
REMARK VINA RESULT:    -3.161      0.000      0.000
REMARK INTER + INTRA:          -8.017
REMARK INTER:                  -5.747
REMARK INTRA:                  -2.270
REMARK UNBOUND:                -2.270
REMARK SMILES CCCCCCCCCCCCCCCC(=O)[O-]
REMARK SMILES IDX 9 1 10 2 11 3 12 4 13 5 14 6 15 7 16 8 17 9 18 10 8 11 7 12
REMARK SMILES IDX 6 13 5 14 4 15 3 16 2 17 1 18
REMARK H PARENT
REMARK Flexibility Score: inf
ROOT
ATOM      1  C   UNL     1      -5.942  -3.708   7.086  1.00  0.00     0.000 C 
ENDROOT
BRANCH   1   2
ATOM      2  C   UNL     1      -4.971  -4.894   7.192  1.00  0.00     0.000 C 
BRANCH   2   3
ATOM      3  C   UNL     1      -4.520  -5.165   8.637  1.00  0.00     0.000 C 
BRANCH   3   4
ATOM      4  C   UNL     1      -4.505  -6.664   8.979  1.00  0.00     0.000 C 
BRANCH   4   5
ATOM      5  C   UNL     1      -3.122  -7.310   8.782  1.00  0.00     0.000 C 
BRANCH   5   6
ATOM      6  C   UNL     1      -3.128  -8.672   8.058  1.00  0.00     0.006 C 
BRANCH   6   7
ATOM      7  C   UNL     1      -3.673  -8.628   6.621  1.00  0.00     0.053 C 
BRANCH   7   8
ATOM      8  C   UNL     1      -2.669  -8.071   5.660  1.00  0.00     0.041 C 
ATOM      9  O   UNL     1      -2.768  -6.881   5.258  1.00  0.00    -0.550 OA
ATOM     10  O   UNL     1      -1.642  -8.875   5.182  1.00  0.00    -0.550 OA
ENDBRANCH   7   8
ENDBRANCH   6   7
ENDBRANCH   5   6
ENDBRANCH   4   5
ENDBRANCH   3   4
ENDBRANCH   2   3
ENDBRANCH   1   2
BRANCH   1  11
ATOM     11  C   UNL     1      -6.161  -3.054   8.455  1.00  0.00     0.000 C 
BRANCH  11  12
ATOM     12  C   UNL     1      -7.651  -3.051   8.831  1.00  0.00    -0.000 C 
BRANCH  12  13
ATOM     13  C   UNL     1      -8.070  -4.316   9.597  1.00  0.00    -0.000 C 
BRANCH  13  14
ATOM     14  C   UNL     1      -8.956  -5.251   8.753  1.00  0.00    -0.000 C 
BRANCH  14  15
ATOM     15  C   UNL     1      -8.178  -6.444   8.175  1.00  0.00    -0.000 C 
BRANCH  15  16
ATOM     16  C   UNL     1      -8.332  -6.564   6.649  1.00  0.00    -0.000 C 
BRANCH  16  17
ATOM     17  C   UNL     1      -9.282  -5.505   6.069  1.00  0.00    -0.003 C 
ATOM     18  C   UNL     1      -8.687  -4.770   4.866  1.00  0.00     0.004 C 
ENDBRANCH  16  17
ENDBRANCH  15  16
ENDBRANCH  14  15
ENDBRANCH  13  14
ENDBRANCH  12  13
ENDBRANCH  11  12
ENDBRANCH   1  11
TORSDOF 14
ENDMDL
MODEL 2
REMARK VINA RESULT:    -3.033     17.347     19.673
REMARK INTER + INTRA:          -7.785
REMARK INTER:                  -5.846
REMARK INTRA:                  -1.939
REMARK UNBOUND:                -2.270
REMARK SMILES CCCCCCCCCCCCCCCC(=O)[O-]
REMARK SMILES IDX 9 1 10 2 11 3 12 4 13 5 14 6 15 7 16 8 17 9 18 10 8 11 7 12
REMARK SMILES IDX 6 13 5 14 4 15 3 16 2 17 1 18
REMARK H PARENT
REMARK Flexibility Score: inf
ROOT
ATOM      1  C   UNL     1       5.938   0.313  -8.560  1.00  0.00     0.000 C 
ENDROOT
BRANCH   1   2
ATOM      2  C   UNL     1       5.606  -0.155  -7.135  1.00  0.00     0.000 C 
BRANCH   2   3
ATOM      3  C   UNL     1       6.514   0.485  -6.072  1.00  0.00     0.000 C 
BRANCH   3   4
ATOM      4  C   UNL     1       7.199  -0.561  -5.176  1.00  0.00     0.000 C 
BRANCH   4   5
ATOM      5  C   UNL     1       6.832  -2.007  -5.554  1.00  0.00     0.000 C 
BRANCH   5   6
ATOM      6  C   UNL     1       6.235  -2.854  -4.411  1.00  0.00     0.006 C 
BRANCH   6   7
ATOM      7  C   UNL     1       5.118  -3.816  -4.845  1.00  0.00     0.053 C 
BRANCH   7   8
ATOM      8  C   UNL     1       4.619  -4.645  -3.702  1.00  0.00     0.041 C 
ATOM      9  O   UNL     1       4.521  -5.895  -3.820  1.00  0.00    -0.550 OA
ATOM     10  O   UNL     1       4.231  -4.033  -2.517  1.00  0.00    -0.550 OA
ENDBRANCH   7   8
ENDBRANCH   6   7
ENDBRANCH   5   6
ENDBRANCH   4   5
ENDBRANCH   3   4
ENDBRANCH   2   3
ENDBRANCH   1   2
BRANCH   1  11
ATOM     11  C   UNL     1       7.282   1.050  -8.596  1.00  0.00     0.000 C 
BRANCH  11  12
ATOM     12  C   UNL     1       7.299   2.109  -9.708  1.00  0.00    -0.000 C 
BRANCH  12  13
ATOM     13  C   UNL     1       7.505   3.533  -9.165  1.00  0.00    -0.000 C 
BRANCH  13  14
ATOM     14  C   UNL     1       7.746   3.557  -7.645  1.00  0.00    -0.000 C 
BRANCH  14  15
ATOM     15  C   UNL     1       6.652   4.321  -6.883  1.00  0.00    -0.000 C 
BRANCH  15  16
ATOM     16  C   UNL     1       5.371   4.505  -7.716  1.00  0.00    -0.000 C 
BRANCH  16  17
ATOM     17  C   UNL     1       4.298   3.457  -7.382  1.00  0.00    -0.003 C 
ATOM     18  C   UNL     1       4.102   3.266  -5.877  1.00  0.00     0.004 C 
ENDBRANCH  16  17
ENDBRANCH  15  16
ENDBRANCH  14  15
ENDBRANCH  13  14
ENDBRANCH  12  13
ENDBRANCH  11  12
ENDBRANCH   1  11
TORSDOF 14
ENDMDL
MODEL 3
REMARK VINA RESULT:    -2.964      1.337      2.139
REMARK INTER + INTRA:          -7.661
REMARK INTER:                  -5.557
REMARK INTRA:                  -2.103
REMARK UNBOUND:                -2.270
REMARK SMILES CCCCCCCCCCCCCCCC(=O)[O-]
REMARK SMILES IDX 9 1 10 2 11 3 12 4 13 5 14 6 15 7 16 8 17 9 18 10 8 11 7 12
REMARK SMILES IDX 6 13 5 14 4 15 3 16 2 17 1 18
REMARK H PARENT
REMARK Flexibility Score: inf
ROOT
ATOM      1  C   UNL     1      -5.992  -3.348   7.891  1.00  0.00     0.000 C 
ENDROOT
BRANCH   1   2
ATOM      2  C   UNL     1      -5.173  -4.175   8.893  1.00  0.00     0.000 C 
BRANCH   2   3
ATOM      3  C   UNL     1      -4.471  -5.377   8.240  1.00  0.00     0.000 C 
BRANCH   3   4
ATOM      4  C   UNL     1      -3.716  -6.245   9.260  1.00  0.00     0.000 C 
BRANCH   4   5
ATOM      5  C   UNL     1      -3.387  -7.651   8.724  1.00  0.00     0.000 C 
BRANCH   5   6
ATOM      6  C   UNL     1      -1.969  -7.816   8.141  1.00  0.00     0.006 C 
BRANCH   6   7
ATOM      7  C   UNL     1      -1.915  -8.536   6.785  1.00  0.00     0.053 C 
BRANCH   7   8
ATOM      8  C   UNL     1      -2.933  -7.999   5.826  1.00  0.00     0.041 C 
ATOM      9  O   UNL     1      -2.736  -6.900   5.243  1.00  0.00    -0.550 OA
ATOM     10  O   UNL     1      -4.112  -8.697   5.601  1.00  0.00    -0.550 OA
ENDBRANCH   7   8
ENDBRANCH   6   7
ENDBRANCH   5   6
ENDBRANCH   4   5
ENDBRANCH   3   4
ENDBRANCH   2   3
ENDBRANCH   1   2
BRANCH   1  11
ATOM     11  C   UNL     1      -6.152  -4.098   6.563  1.00  0.00     0.000 C 
BRANCH  11  12
ATOM     12  C   UNL     1      -7.625  -4.447   6.302  1.00  0.00    -0.000 C 
BRANCH  12  13
ATOM     13  C   UNL     1      -8.549  -4.007   7.448  1.00  0.00    -0.000 C 
BRANCH  13  14
ATOM     14  C   UNL     1      -9.794  -4.902   7.582  1.00  0.00    -0.000 C 
BRANCH  14  15
ATOM     15  C   UNL     1      -9.466  -6.293   8.148  1.00  0.00    -0.000 C 
BRANCH  15  16
ATOM     16  C   UNL     1      -8.275  -6.267   9.122  1.00  0.00    -0.000 C 
BRANCH  16  17
ATOM     17  C   UNL     1      -7.445  -7.560   9.070  1.00  0.00    -0.003 C 
ATOM     18  C   UNL     1      -6.960  -7.897   7.659  1.00  0.00     0.004 C 
ENDBRANCH  16  17
ENDBRANCH  15  16
ENDBRANCH  14  15
ENDBRANCH  13  14
ENDBRANCH  12  13
ENDBRANCH  11  12
ENDBRANCH   1  11
TORSDOF 14
ENDMDL
MODEL 4
REMARK VINA RESULT:    -2.928     19.045     20.656
REMARK INTER + INTRA:          -7.595
REMARK INTER:                  -6.722
REMARK INTRA:                  -0.874
REMARK UNBOUND:                -2.270
REMARK SMILES CCCCCCCCCCCCCCCC(=O)[O-]
REMARK SMILES IDX 9 1 10 2 11 3 12 4 13 5 14 6 15 7 16 8 17 9 18 10 8 11 7 12
REMARK SMILES IDX 6 13 5 14 4 15 3 16 2 17 1 18
REMARK H PARENT
REMARK Flexibility Score: inf
ROOT
ATOM      1  C   UNL     1       6.734   6.999  -5.594  1.00  0.00     0.000 C 
ENDROOT
BRANCH   1   2
ATOM      2  C   UNL     1       6.452   6.008  -6.733  1.00  0.00     0.000 C 
BRANCH   2   3
ATOM      3  C   UNL     1       5.648   4.781  -6.269  1.00  0.00     0.000 C 
BRANCH   3   4
ATOM      4  C   UNL     1       5.583   3.679  -7.340  1.00  0.00     0.000 C 
BRANCH   4   5
ATOM      5  C   UNL     1       6.709   2.639  -7.198  1.00  0.00     0.000 C 
BRANCH   5   6
ATOM      6  C   UNL     1       6.262   1.167  -7.308  1.00  0.00     0.006 C 
BRANCH   6   7
ATOM      7  C   UNL     1       6.081   0.451  -5.961  1.00  0.00     0.053 C 
BRANCH   7   8
ATOM      8  C   UNL     1       7.195  -0.511  -5.685  1.00  0.00     0.041 C 
ATOM      9  O   UNL     1       8.379  -0.217  -5.996  1.00  0.00    -0.550 OA
ATOM     10  O   UNL     1       6.920  -1.748  -5.114  1.00  0.00    -0.550 OA
ENDBRANCH   7   8
ENDBRANCH   6   7
ENDBRANCH   5   6
ENDBRANCH   4   5
ENDBRANCH   3   4
ENDBRANCH   2   3
ENDBRANCH   1   2
BRANCH   1  11
ATOM     11  C   UNL     1       6.317   6.412  -4.240  1.00  0.00     0.000 C 
BRANCH  11  12
ATOM     12  C   UNL     1       6.403   7.472  -3.132  1.00  0.00    -0.000 C 
BRANCH  12  13
ATOM     13  C   UNL     1       5.326   8.560  -3.268  1.00  0.00    -0.000 C 
BRANCH  13  14
ATOM     14  C   UNL     1       5.637   9.810  -2.426  1.00  0.00    -0.000 C 
BRANCH  14  15
ATOM     15  C   UNL     1       5.184   9.668  -0.964  1.00  0.00    -0.000 C 
BRANCH  15  16
ATOM     16  C   UNL     1       6.329   9.912   0.035  1.00  0.00    -0.000 C 
BRANCH  16  17
ATOM     17  C   UNL     1       6.467   8.775   1.059  1.00  0.00    -0.003 C 
ATOM     18  C   UNL     1       7.173   7.544   0.488  1.00  0.00     0.004 C 
ENDBRANCH  16  17
ENDBRANCH  15  16
ENDBRANCH  14  15
ENDBRANCH  13  14
ENDBRANCH  12  13
ENDBRANCH  11  12
ENDBRANCH   1  11
TORSDOF 14
ENDMDL
MODEL 5
REMARK VINA RESULT:    -2.923     19.357     21.063
REMARK INTER + INTRA:          -7.586
REMARK INTER:                  -6.200
REMARK INTRA:                  -1.386
REMARK UNBOUND:                -2.270
REMARK SMILES CCCCCCCCCCCCCCCC(=O)[O-]
REMARK SMILES IDX 9 1 10 2 11 3 12 4 13 5 14 6 15 7 16 8 17 9 18 10 8 11 7 12
REMARK SMILES IDX 6 13 5 14 4 15 3 16 2 17 1 18
REMARK H PARENT
REMARK Flexibility Score: inf
ROOT
ATOM      1  C   UNL     1       5.186   2.152  -6.537  1.00  0.00     0.000 C 
ENDROOT
BRANCH   1   2
ATOM      2  C   UNL     1       4.775   3.627  -6.660  1.00  0.00     0.000 C 
BRANCH   2   3
ATOM      3  C   UNL     1       5.551   4.543  -5.700  1.00  0.00     0.000 C 
BRANCH   3   4
ATOM      4  C   UNL     1       6.382   5.605  -6.441  1.00  0.00     0.000 C 
BRANCH   4   5
ATOM      5  C   UNL     1       6.530   6.914  -5.643  1.00  0.00     0.000 C 
BRANCH   5   6
ATOM      6  C   UNL     1       6.145   6.822  -4.153  1.00  0.00     0.006 C 
BRANCH   6   7
ATOM      7  C   UNL     1       5.833   8.173  -3.490  1.00  0.00     0.053 C 
BRANCH   7   8
ATOM      8  C   UNL     1       6.030   8.126  -2.006  1.00  0.00     0.041 C 
ATOM      9  O   UNL     1       6.709   7.202  -1.485  1.00  0.00    -0.550 OA
ATOM     10  O   UNL     1       5.437   9.086  -1.195  1.00  0.00    -0.550 OA
ENDBRANCH   7   8
ENDBRANCH   6   7
ENDBRANCH   5   6
ENDBRANCH   4   5
ENDBRANCH   3   4
ENDBRANCH   2   3
ENDBRANCH   1   2
BRANCH   1  11
ATOM     11  C   UNL     1       6.489   1.880  -7.299  1.00  0.00     0.000 C 
BRANCH  11  12
ATOM     12  C   UNL     1       7.448   1.021  -6.461  1.00  0.00    -0.000 C 
BRANCH  12  13
ATOM     13  C   UNL     1       6.711  -0.018  -5.600  1.00  0.00    -0.000 C 
BRANCH  13  14
ATOM     14  C   UNL     1       6.693  -1.415  -6.247  1.00  0.00    -0.000 C 
BRANCH  14  15
ATOM     15  C   UNL     1       5.447  -1.650  -7.116  1.00  0.00    -0.000 C 
BRANCH  15  16
ATOM     16  C   UNL     1       5.771  -1.667  -8.620  1.00  0.00    -0.000 C 
BRANCH  16  17
ATOM     17  C   UNL     1       7.273  -1.832  -8.896  1.00  0.00    -0.003 C 
ATOM     18  C   UNL     1       7.846  -0.707  -9.759  1.00  0.00     0.004 C 
ENDBRANCH  16  17
ENDBRANCH  15  16
ENDBRANCH  14  15
ENDBRANCH  13  14
ENDBRANCH  12  13
ENDBRANCH  11  12
ENDBRANCH   1  11
TORSDOF 14
ENDMDL
MODEL 6
REMARK VINA RESULT:    -2.878     19.134     21.042
REMARK INTER + INTRA:          -7.503
REMARK INTER:                  -5.802
REMARK INTRA:                  -1.700
REMARK UNBOUND:                -2.270
REMARK SMILES CCCCCCCCCCCCCCCC(=O)[O-]
REMARK SMILES IDX 9 1 10 2 11 3 12 4 13 5 14 6 15 7 16 8 17 9 18 10 8 11 7 12
REMARK SMILES IDX 6 13 5 14 4 15 3 16 2 17 1 18
REMARK H PARENT
REMARK Flexibility Score: inf
ROOT
ATOM      1  C   UNL     1       5.378   4.400  -6.116  1.00  0.00     0.000 C 
ENDROOT
BRANCH   1   2
ATOM      2  C   UNL     1       4.374   3.459  -6.799  1.00  0.00     0.000 C 
BRANCH   2   3
ATOM      3  C   UNL     1       4.773   3.110  -8.243  1.00  0.00     0.000 C 
BRANCH   3   4
ATOM      4  C   UNL     1       5.339   1.685  -8.370  1.00  0.00     0.000 C 
BRANCH   4   5
ATOM      5  C   UNL     1       6.867   1.629  -8.189  1.00  0.00     0.000 C 
BRANCH   5   6
ATOM      6  C   UNL     1       7.348   1.131  -6.811  1.00  0.00     0.006 C 
BRANCH   6   7
ATOM      7  C   UNL     1       6.285   0.374  -5.999  1.00  0.00     0.053 C 
BRANCH   7   8
ATOM      8  C   UNL     1       6.418  -1.110  -6.151  1.00  0.00     0.041 C 
ATOM      9  O   UNL     1       6.066  -1.671  -7.222  1.00  0.00    -0.550 OA
ATOM     10  O   UNL     1       6.899  -1.877  -5.098  1.00  0.00    -0.550 OA
ENDBRANCH   7   8
ENDBRANCH   6   7
ENDBRANCH   5   6
ENDBRANCH   4   5
ENDBRANCH   3   4
ENDBRANCH   2   3
ENDBRANCH   1   2
BRANCH   1  11
ATOM     11  C   UNL     1       6.231   5.138  -7.155  1.00  0.00     0.000 C 
BRANCH  11  12
ATOM     12  C   UNL     1       7.721   5.076  -6.787  1.00  0.00    -0.000 C 
BRANCH  12  13
ATOM     13  C   UNL     1       8.351   6.470  -6.633  1.00  0.00    -0.000 C 
BRANCH  13  14
ATOM     14  C   UNL     1       7.458   7.437  -5.834  1.00  0.00    -0.000 C 
BRANCH  14  15
ATOM     15  C   UNL     1       7.534   7.199  -4.318  1.00  0.00    -0.000 C 
BRANCH  15  16
ATOM     16  C   UNL     1       6.145   7.060  -3.672  1.00  0.00    -0.000 C 
BRANCH  16  17
ATOM     17  C   UNL     1       5.726   8.321  -2.901  1.00  0.00    -0.003 C 
ATOM     18  C   UNL     1       4.914   9.297  -3.755  1.00  0.00     0.004 C 
ENDBRANCH  16  17
ENDBRANCH  15  16
ENDBRANCH  14  15
ENDBRANCH  13  14
ENDBRANCH  12  13
ENDBRANCH  11  12
ENDBRANCH   1  11
TORSDOF 14
ENDMDL
MODEL 7
REMARK VINA RESULT:    -2.835      2.360      5.530
REMARK INTER + INTRA:          -7.425
REMARK INTER:                  -5.300
REMARK INTRA:                  -2.125
REMARK UNBOUND:                -2.270
REMARK SMILES CCCCCCCCCCCCCCCC(=O)[O-]
REMARK SMILES IDX 9 1 10 2 11 3 12 4 13 5 14 6 15 7 16 8 17 9 18 10 8 11 7 12
REMARK SMILES IDX 6 13 5 14 4 15 3 16 2 17 1 18
REMARK H PARENT
REMARK Flexibility Score: inf
ROOT
ATOM      1  C   UNL     1      -4.883  -5.139   7.398  1.00  0.00     0.000 C 
ENDROOT
BRANCH   1   2
ATOM      2  C   UNL     1      -5.619  -3.811   7.635  1.00  0.00     0.000 C 
BRANCH   2   3
ATOM      3  C   UNL     1      -5.959  -3.576   9.116  1.00  0.00     0.000 C 
BRANCH   3   4
ATOM      4  C   UNL     1      -7.414  -3.945   9.452  1.00  0.00     0.000 C 
BRANCH   4   5
ATOM      5  C   UNL     1      -8.428  -3.354   8.455  1.00  0.00     0.000 C 
BRANCH   5   6
ATOM      6  C   UNL     1      -9.295  -4.387   7.708  1.00  0.00     0.006 C 
BRANCH   6   7
ATOM      7  C   UNL     1      -9.425  -4.139   6.197  1.00  0.00     0.053 C 
BRANCH   7   8
ATOM      8  C   UNL     1      -8.542  -5.052   5.402  1.00  0.00     0.041 C 
ATOM      9  O   UNL     1      -8.049  -6.081   5.936  1.00  0.00    -0.550 OA
ATOM     10  O   UNL     1      -8.239  -4.750   4.081  1.00  0.00    -0.550 OA
ENDBRANCH   7   8
ENDBRANCH   6   7
ENDBRANCH   5   6
ENDBRANCH   4   5
ENDBRANCH   3   4
ENDBRANCH   2   3
ENDBRANCH   1   2
BRANCH   1  11
ATOM     11  C   UNL     1      -4.196  -5.621   8.681  1.00  0.00     0.000 C 
BRANCH  11  12
ATOM     12  C   UNL     1      -4.732  -6.996   9.108  1.00  0.00    -0.000 C 
BRANCH  12  13
ATOM     13  C   UNL     1      -5.982  -7.415   8.317  1.00  0.00    -0.000 C 
BRANCH  13  14
ATOM     14  C   UNL     1      -5.831  -8.801   7.665  1.00  0.00    -0.000 C 
BRANCH  14  15
ATOM     15  C   UNL     1      -4.362  -9.212   7.478  1.00  0.00    -0.000 C 
BRANCH  15  16
ATOM     16  C   UNL     1      -3.844  -8.921   6.059  1.00  0.00    -0.000 C 
BRANCH  16  17
ATOM     17  C   UNL     1      -2.703  -7.892   6.050  1.00  0.00    -0.003 C 
ATOM     18  C   UNL     1      -1.735  -8.067   7.221  1.00  0.00     0.004 C 
ENDBRANCH  16  17
ENDBRANCH  15  16
ENDBRANCH  14  15
ENDBRANCH  13  14
ENDBRANCH  12  13
ENDBRANCH  11  12
ENDBRANCH   1  11
TORSDOF 14
ENDMDL
MODEL 8
REMARK VINA RESULT:    -2.806     19.518     21.571
REMARK INTER + INTRA:          -7.372
REMARK INTER:                  -5.699
REMARK INTRA:                  -1.673
REMARK UNBOUND:                -2.270
REMARK SMILES CCCCCCCCCCCCCCCC(=O)[O-]
REMARK SMILES IDX 9 1 10 2 11 3 12 4 13 5 14 6 15 7 16 8 17 9 18 10 8 11 7 12
REMARK SMILES IDX 6 13 5 14 4 15 3 16 2 17 1 18
REMARK H PARENT
REMARK Flexibility Score: inf
ROOT
ATOM      1  C   UNL     1       5.426   3.021  -8.958  1.00  0.00     0.000 C 
ENDROOT
BRANCH   1   2
ATOM      2  C   UNL     1       6.865   2.872  -8.439  1.00  0.00     0.000 C 
BRANCH   2   3
ATOM      3  C   UNL     1       7.105   3.633  -7.125  1.00  0.00     0.000 C 
BRANCH   3   4
ATOM      4  C   UNL     1       5.947   4.583  -6.774  1.00  0.00     0.000 C 
BRANCH   4   5
ATOM      5  C   UNL     1       6.269   6.058  -7.076  1.00  0.00     0.000 C 
BRANCH   5   6
ATOM      6  C   UNL     1       6.693   6.901  -5.856  1.00  0.00     0.006 C 
BRANCH   6   7
ATOM      7  C   UNL     1       6.352   6.274  -4.496  1.00  0.00     0.053 C 
BRANCH   7   8
ATOM      8  C   UNL     1       6.027   7.312  -3.467  1.00  0.00     0.041 C 
ATOM      9  O   UNL     1       5.430   8.370  -3.800  1.00  0.00    -0.550 OA
ATOM     10  O   UNL     1       6.411   7.126  -2.145  1.00  0.00    -0.550 OA
ENDBRANCH   7   8
ENDBRANCH   6   7
ENDBRANCH   5   6
ENDBRANCH   4   5
ENDBRANCH   3   4
ENDBRANCH   2   3
ENDBRANCH   1   2
BRANCH   1  11
ATOM     11  C   UNL     1       4.875   1.675  -9.441  1.00  0.00     0.000 C 
BRANCH  11  12
ATOM     12  C   UNL     1       5.899   0.551  -9.223  1.00  0.00    -0.000 C 
BRANCH  12  13
ATOM     13  C   UNL     1       5.258  -0.737  -8.681  1.00  0.00    -0.000 C 
BRANCH  13  14
ATOM     14  C   UNL     1       5.972  -1.269  -7.425  1.00  0.00    -0.000 C 
BRANCH  14  15
ATOM     15  C   UNL     1       6.075  -0.216  -6.310  1.00  0.00    -0.000 C 
BRANCH  15  16
ATOM     16  C   UNL     1       7.454  -0.211  -5.628  1.00  0.00    -0.000 C 
BRANCH  16  17
ATOM     17  C   UNL     1       8.597   0.066  -6.617  1.00  0.00    -0.003 C 
ATOM     18  C   UNL     1       9.655   1.015  -6.051  1.00  0.00     0.004 C 
ENDBRANCH  16  17
ENDBRANCH  15  16
ENDBRANCH  14  15
ENDBRANCH  13  14
ENDBRANCH  12  13
ENDBRANCH  11  12
ENDBRANCH   1  11
TORSDOF 14
ENDMDL
MODEL 9
REMARK VINA RESULT:    -2.780     19.348     21.281
REMARK INTER + INTRA:          -7.326
REMARK INTER:                  -5.054
REMARK INTRA:                  -2.272
REMARK UNBOUND:                -2.270
REMARK SMILES CCCCCCCCCCCCCCCC(=O)[O-]
REMARK SMILES IDX 9 1 10 2 11 3 12 4 13 5 14 6 15 7 16 8 17 9 18 10 8 11 7 12
REMARK SMILES IDX 6 13 5 14 4 15 3 16 2 17 1 18
REMARK H PARENT
REMARK Flexibility Score: inf
ROOT
ATOM      1  C   UNL     1       4.601   3.207  -7.821  1.00  0.00     0.000 C 
ENDROOT
BRANCH   1   2
ATOM      2  C   UNL     1       5.294   1.847  -7.989  1.00  0.00     0.000 C 
BRANCH   2   3
ATOM      3  C   UNL     1       6.492   1.904  -8.952  1.00  0.00     0.000 C 
BRANCH   3   4
ATOM      4  C   UNL     1       7.842   1.912  -8.215  1.00  0.00     0.000 C 
BRANCH   4   5
ATOM      5  C   UNL     1       7.712   1.543  -6.725  1.00  0.00     0.000 C 
BRANCH   5   6
ATOM      6  C   UNL     1       8.226   0.138  -6.349  1.00  0.00     0.006 C 
BRANCH   6   7
ATOM      7  C   UNL     1       7.129  -0.852  -5.929  1.00  0.00     0.053 C 
BRANCH   7   8
ATOM      8  C   UNL     1       6.457  -1.478  -7.112  1.00  0.00     0.041 C 
ATOM      9  O   UNL     1       5.256  -1.848  -7.037  1.00  0.00    -0.550 OA
ATOM     10  O   UNL     1       7.167  -1.680  -8.289  1.00  0.00    -0.550 OA
ENDBRANCH   7   8
ENDBRANCH   6   7
ENDBRANCH   5   6
ENDBRANCH   4   5
ENDBRANCH   3   4
ENDBRANCH   2   3
ENDBRANCH   1   2
BRANCH   1  11
ATOM     11  C   UNL     1       4.591   3.640  -6.350  1.00  0.00     0.000 C 
BRANCH  11  12
ATOM     12  C   UNL     1       5.640   4.733  -6.092  1.00  0.00    -0.000 C 
BRANCH  12  13
ATOM     13  C   UNL     1       6.007   5.513  -7.364  1.00  0.00    -0.000 C 
BRANCH  13  14
ATOM     14  C   UNL     1       7.527   5.572  -7.604  1.00  0.00    -0.000 C 
BRANCH  14  15
ATOM     15  C   UNL     1       8.339   5.174  -6.361  1.00  0.00    -0.000 C 
BRANCH  15  16
ATOM     16  C   UNL     1       9.026   6.379  -5.695  1.00  0.00    -0.000 C 
BRANCH  16  17
ATOM     17  C   UNL     1       8.862   6.378  -4.167  1.00  0.00    -0.003 C 
ATOM     18  C   UNL     1       7.449   6.758  -3.721  1.00  0.00     0.004 C 
ENDBRANCH  16  17
ENDBRANCH  15  16
ENDBRANCH  14  15
ENDBRANCH  13  14
ENDBRANCH  12  13
ENDBRANCH  11  12
ENDBRANCH   1  11
TORSDOF 14
ENDMDL
