MODEL 1
REMARK VINA RESULT:    -6.123      0.000      0.000
REMARK INTER + INTRA:          -7.514
REMARK INTER:                  -7.197
REMARK INTRA:                  -0.317
REMARK UNBOUND:                -0.317
REMARK SMILES O=c1cc(-c2ccc(O)c(O)c2)oc2cc(O)cc(O)c12
REMARK SMILES IDX 4 1 3 2 2 3 1 4 21 5 19 6 18 7 16 8 15 9 14 10 13 11 5 12
REMARK SMILES IDX 6 13 7 14 8 15 12 16 10 17 9 18 11 20 20 22 17 24
REMARK H PARENT 9 19 11 21 20 23 17 25
REMARK Flexibility Score: inf
ROOT
ATOM      1  C   UNL     1      17.658  41.081   5.867  1.00  0.00     0.138 A 
ATOM      2  C   UNL     1      17.758  41.909   4.741  1.00  0.00     0.100 A 
ATOM      3  C   UNL     1      18.626  41.564   3.705  1.00  0.00     0.197 A 
ATOM      4  O   UNL     1      18.734  42.357   2.734  1.00  0.00    -0.289 OA
ATOM      5  C   UNL     1      19.371  40.363   3.781  1.00  0.00     0.107 A 
ATOM      6  C   UNL     1      20.262  39.892   2.769  1.00  0.00     0.134 A 
ATOM      7  C   UNL     1      21.020  38.737   3.001  1.00  0.00     0.093 A 
ATOM      8  C   UNL     1      20.877  38.005   4.183  1.00  0.00     0.123 A 
ATOM      9  C   UNL     1      19.974  38.429   5.155  1.00  0.00     0.094 A 
ATOM     10  C   UNL     1      19.228  39.597   4.969  1.00  0.00     0.146 A 
ATOM     11  O   UNL     1      18.392  39.974   5.929  1.00  0.00    -0.456 OA
ENDROOT
BRANCH   1  12
ATOM     12  C   UNL     1      16.748  41.397   6.997  1.00  0.00     0.021 A 
ATOM     13  C   UNL     1      16.049  42.614   6.999  1.00  0.00     0.016 A 
ATOM     14  C   UNL     1      15.183  42.933   8.046  1.00  0.00     0.051 A 
ATOM     15  C   UNL     1      14.985  42.044   9.106  1.00  0.00     0.157 A 
ATOM     16  C   UNL     1      16.539  40.495   8.057  1.00  0.00     0.062 A 
ATOM     17  C   UNL     1      15.669  40.806   9.109  1.00  0.00     0.158 A 
BRANCH  15  18
ATOM     18  O   UNL     1      14.110  42.426  10.125  1.00  0.00    -0.504 OA
ATOM     19  H   UNL     1      14.408  42.718  11.045  1.00  0.00     0.293 HD
ENDBRANCH  15  18
BRANCH  17  20
ATOM     20  O   UNL     1      15.510  39.860  10.125  1.00  0.00    -0.504 OA
ATOM     21  H   UNL     1      14.742  39.207  10.174  1.00  0.00     0.293 HD
ENDBRANCH  17  20
ENDBRANCH   1  12
BRANCH   6  22
ATOM     22  O   UNL     1      20.422  40.501   1.521  1.00  0.00    -0.507 OA
ATOM     23  H   UNL     1      19.951  40.222   0.675  1.00  0.00     0.293 HD
ENDBRANCH   6  22
BRANCH   8  24
ATOM     24  O   UNL     1      21.624  36.849   4.398  1.00  0.00    -0.508 OA
ATOM     25  H   UNL     1      21.797  36.496   5.331  1.00  0.00     0.293 HD
ENDBRANCH   8  24
TORSDOF 5
ENDMDL
MODEL 2
REMARK VINA RESULT:    -6.096      1.381      3.152
REMARK INTER + INTRA:          -7.483
REMARK INTER:                  -7.167
REMARK INTRA:                  -0.316
REMARK UNBOUND:                -0.317
REMARK SMILES O=c1cc(-c2ccc(O)c(O)c2)oc2cc(O)cc(O)c12
REMARK SMILES IDX 4 1 3 2 2 3 1 4 21 5 19 6 18 7 16 8 15 9 14 10 13 11 5 12
REMARK SMILES IDX 6 13 7 14 8 15 12 16 10 17 9 18 11 20 20 22 17 24
REMARK H PARENT 9 19 11 21 20 23 17 25
REMARK Flexibility Score: inf
ROOT
ATOM      1  C   UNL     1      17.813  40.732   5.868  1.00  0.00     0.138 A 
ATOM      2  C   UNL     1      18.758  39.702   5.959  1.00  0.00     0.100 A 
ATOM      3  C   UNL     1      19.663  39.499   4.916  1.00  0.00     0.197 A 
ATOM      4  O   UNL     1      20.462  38.532   5.003  1.00  0.00    -0.289 OA
ATOM      5  C   UNL     1      19.643  40.359   3.791  1.00  0.00     0.107 A 
ATOM      6  C   UNL     1      20.539  40.269   2.683  1.00  0.00     0.134 A 
ATOM      7  C   UNL     1      20.359  41.115   1.580  1.00  0.00     0.093 A 
ATOM      8  C   UNL     1      19.353  42.083   1.571  1.00  0.00     0.123 A 
ATOM      9  C   UNL     1      18.505  42.211   2.668  1.00  0.00     0.094 A 
ATOM     10  C   UNL     1      18.636  41.360   3.769  1.00  0.00     0.146 A 
ATOM     11  O   UNL     1      17.795  41.505   4.786  1.00  0.00    -0.456 OA
ENDROOT
BRANCH   1  12
ATOM     12  C   UNL     1      16.830  40.994   6.949  1.00  0.00     0.021 A 
ATOM     13  C   UNL     1      17.009  40.392   8.204  1.00  0.00     0.016 A 
ATOM     14  C   UNL     1      16.103  40.627   9.239  1.00  0.00     0.051 A 
ATOM     15  C   UNL     1      15.006  41.474   9.051  1.00  0.00     0.157 A 
ATOM     16  C   UNL     1      15.734  41.858   6.762  1.00  0.00     0.062 A 
ATOM     17  C   UNL     1      14.823  42.102   7.797  1.00  0.00     0.158 A 
BRANCH  15  18
ATOM     18  O   UNL     1      14.134  41.662  10.125  1.00  0.00    -0.504 OA
ATOM     19  H   UNL     1      14.365  42.190  10.954  1.00  0.00     0.293 HD
ENDBRANCH  15  18
BRANCH  17  20
ATOM     20  O   UNL     1      13.761  42.973   7.539  1.00  0.00    -0.504 OA
ATOM     21  H   UNL     1      12.833  42.859   7.917  1.00  0.00     0.293 HD
ENDBRANCH  17  20
ENDBRANCH   1  12
BRANCH   6  22
ATOM     22  O   UNL     1      21.627  39.393   2.623  1.00  0.00    -0.507 OA
ATOM     23  H   UNL     1      22.553  39.594   2.968  1.00  0.00     0.293 HD
ENDBRANCH   6  22
BRANCH   8  24
ATOM     24  O   UNL     1      19.191  42.930   0.476  1.00  0.00    -0.508 OA
ATOM     25  H   UNL     1      18.773  42.604  -0.388  1.00  0.00     0.293 HD
ENDBRANCH   8  24
TORSDOF 5
ENDMDL
MODEL 3
REMARK VINA RESULT:    -5.433      2.065      2.127
REMARK INTER + INTRA:          -6.703
REMARK INTER:                  -6.385
REMARK INTRA:                  -0.318
REMARK UNBOUND:                -0.317
REMARK SMILES O=c1cc(-c2ccc(O)c(O)c2)oc2cc(O)cc(O)c12
REMARK SMILES IDX 4 1 3 2 2 3 1 4 21 5 19 6 18 7 16 8 15 9 14 10 13 11 5 12
REMARK SMILES IDX 6 13 7 14 8 15 12 16 10 17 9 18 11 20 20 22 17 24
REMARK H PARENT 9 19 11 21 20 23 17 25
REMARK Flexibility Score: inf
ROOT
ATOM      1  C   UNL     1      18.597  41.416   6.840  1.00  0.00     0.138 A 
ATOM      2  C   UNL     1      19.612  42.377   6.939  1.00  0.00     0.100 A 
ATOM      3  C   UNL     1      20.739  42.279   6.122  1.00  0.00     0.197 A 
ATOM      4  O   UNL     1      21.656  43.125   6.273  1.00  0.00    -0.289 OA
ATOM      5  C   UNL     1      20.832  41.230   5.175  1.00  0.00     0.107 A 
ATOM      6  C   UNL     1      21.917  41.050   4.265  1.00  0.00     0.134 A 
ATOM      7  C   UNL     1      21.944  39.917   3.441  1.00  0.00     0.093 A 
ATOM      8  C   UNL     1      20.898  38.991   3.452  1.00  0.00     0.123 A 
ATOM      9  C   UNL     1      19.811  39.186   4.300  1.00  0.00     0.094 A 
ATOM     10  C   UNL     1      19.770  40.287   5.160  1.00  0.00     0.146 A 
ATOM     11  O   UNL     1      18.723  40.424   5.965  1.00  0.00    -0.456 OA
ENDROOT
BRANCH   1  12
ATOM     12  C   UNL     1      17.376  41.475   7.683  1.00  0.00     0.021 A 
ATOM     13  C   UNL     1      17.214  42.532   8.591  1.00  0.00     0.016 A 
ATOM     14  C   UNL     1      16.073  42.613   9.389  1.00  0.00     0.051 A 
ATOM     15  C   UNL     1      15.063  41.651   9.293  1.00  0.00     0.157 A 
ATOM     16  C   UNL     1      16.353  40.513   7.575  1.00  0.00     0.062 A 
ATOM     17  C   UNL     1      15.203  40.589   8.370  1.00  0.00     0.158 A 
BRANCH  15  18
ATOM     18  O   UNL     1      13.950  41.788  10.125  1.00  0.00    -0.504 OA
ATOM     19  H   UNL     1      13.370  41.016  10.423  1.00  0.00     0.293 HD
ENDBRANCH  15  18
BRANCH  17  20
ATOM     20  O   UNL     1      14.230  39.601   8.206  1.00  0.00    -0.504 OA
ATOM     21  H   UNL     1      13.353  39.745   7.727  1.00  0.00     0.293 HD
ENDBRANCH  17  20
ENDBRANCH   1  12
BRANCH   6  22
ATOM     22  O   UNL     1      22.972  41.954   4.114  1.00  0.00    -0.507 OA
ATOM     23  H   UNL     1      23.168  42.725   4.732  1.00  0.00     0.293 HD
ENDBRANCH   6  22
BRANCH   8  24
ATOM     24  O   UNL     1      20.927  37.876   2.618  1.00  0.00    -0.508 OA
ATOM     25  H   UNL     1      20.870  37.966   1.610  1.00  0.00     0.293 HD
ENDBRANCH   8  24
TORSDOF 5
ENDMDL
MODEL 4
REMARK VINA RESULT:    -5.334      1.978      3.001
REMARK INTER + INTRA:          -6.587
REMARK INTER:                  -6.315
REMARK INTRA:                  -0.272
REMARK UNBOUND:                -0.317
REMARK SMILES O=c1cc(-c2ccc(O)c(O)c2)oc2cc(O)cc(O)c12
REMARK SMILES IDX 4 1 3 2 2 3 1 4 21 5 19 6 18 7 16 8 15 9 14 10 13 11 5 12
REMARK SMILES IDX 6 13 7 14 8 15 12 16 10 17 9 18 11 20 20 22 17 24
REMARK H PARENT 9 19 11 21 20 23 17 25
REMARK Flexibility Score: inf
ROOT
ATOM      1  C   UNL     1      18.202  40.651   6.485  1.00  0.00     0.138 A 
ATOM      2  C   UNL     1      18.267  39.377   5.903  1.00  0.00     0.100 A 
ATOM      3  C   UNL     1      19.327  39.059   5.053  1.00  0.00     0.197 A 
ATOM      4  O   UNL     1      19.326  37.928   4.503  1.00  0.00    -0.289 OA
ATOM      5  C   UNL     1      20.347  40.011   4.814  1.00  0.00     0.107 A 
ATOM      6  C   UNL     1      21.493  39.786   3.993  1.00  0.00     0.134 A 
ATOM      7  C   UNL     1      22.386  40.839   3.752  1.00  0.00     0.093 A 
ATOM      8  C   UNL     1      22.205  42.089   4.348  1.00  0.00     0.123 A 
ATOM      9  C   UNL     1      21.117  42.303   5.190  1.00  0.00     0.094 A 
ATOM     10  C   UNL     1      20.189  41.284   5.423  1.00  0.00     0.146 A 
ATOM     11  O   UNL     1      19.156  41.537   6.219  1.00  0.00    -0.456 OA
ENDROOT
BRANCH   1  12
ATOM     12  C   UNL     1      17.099  41.041   7.399  1.00  0.00     0.021 A 
ATOM     13  C   UNL     1      17.108  40.584   8.725  1.00  0.00     0.016 A 
ATOM     14  C   UNL     1      16.087  40.942   9.606  1.00  0.00     0.051 A 
ATOM     15  C   UNL     1      15.041  41.771   9.190  1.00  0.00     0.157 A 
ATOM     16  C   UNL     1      16.055  41.888   6.982  1.00  0.00     0.062 A 
ATOM     17  C   UNL     1      15.028  42.254   7.860  1.00  0.00     0.158 A 
BRANCH  15  18
ATOM     18  O   UNL     1      14.048  42.087  10.118  1.00  0.00    -0.504 OA
ATOM     19  H   UNL     1      13.434  41.405  10.542  1.00  0.00     0.293 HD
ENDBRANCH  15  18
BRANCH  17  20
ATOM     20  O   UNL     1      14.026  43.099   7.376  1.00  0.00    -0.504 OA
ATOM     21  H   UNL     1      13.448  42.890   6.576  1.00  0.00     0.293 HD
ENDBRANCH  17  20
ENDBRANCH   1  12
BRANCH   6  22
ATOM     22  O   UNL     1      21.813  38.554   3.414  1.00  0.00    -0.507 OA
ATOM     23  H   UNL     1      21.341  37.684   3.602  1.00  0.00     0.293 HD
ENDBRANCH   6  22
BRANCH   8  24
ATOM     24  O   UNL     1      23.106  43.125   4.114  1.00  0.00    -0.508 OA
ATOM     25  H   UNL     1      23.628  43.554   4.869  1.00  0.00     0.293 HD
ENDBRANCH   8  24
TORSDOF 5
ENDMDL
MODEL 5
REMARK VINA RESULT:    -4.533      1.864      7.026
REMARK INTER + INTRA:          -5.645
REMARK INTER:                  -5.360
REMARK INTRA:                  -0.285
REMARK UNBOUND:                -0.317
REMARK SMILES O=c1cc(-c2ccc(O)c(O)c2)oc2cc(O)cc(O)c12
REMARK SMILES IDX 4 1 3 2 2 3 1 4 21 5 19 6 18 7 16 8 15 9 14 10 13 11 5 12
REMARK SMILES IDX 6 13 7 14 8 15 12 16 10 17 9 18 11 20 20 22 17 24
REMARK H PARENT 9 19 11 21 20 23 17 25
REMARK Flexibility Score: inf
ROOT
ATOM      1  C   UNL     1      19.054  40.657   6.236  1.00  0.00     0.138 A 
ATOM      2  C   UNL     1      19.536  41.626   7.127  1.00  0.00     0.100 A 
ATOM      3  C   UNL     1      18.671  42.195   8.063  1.00  0.00     0.197 A 
ATOM      4  O   UNL     1      19.119  43.101   8.810  1.00  0.00    -0.289 OA
ATOM      5  C   UNL     1      17.324  41.763   8.129  1.00  0.00     0.107 A 
ATOM      6  C   UNL     1      16.360  42.247   9.065  1.00  0.00     0.134 A 
ATOM      7  C   UNL     1      15.030  41.815   8.970  1.00  0.00     0.093 A 
ATOM      8  C   UNL     1      14.644  40.876   8.012  1.00  0.00     0.123 A 
ATOM      9  C   UNL     1      15.587  40.360   7.127  1.00  0.00     0.094 A 
ATOM     10  C   UNL     1      16.915  40.797   7.173  1.00  0.00     0.146 A 
ATOM     11  O   UNL     1      17.778  40.293   6.298  1.00  0.00    -0.456 OA
ENDROOT
BRANCH   1  12
ATOM     12  C   UNL     1      19.931  40.018   5.223  1.00  0.00     0.021 A 
ATOM     13  C   UNL     1      20.696  40.823   4.366  1.00  0.00     0.016 A 
ATOM     14  C   UNL     1      21.534  40.246   3.410  1.00  0.00     0.051 A 
ATOM     15  C   UNL     1      21.635  38.857   3.293  1.00  0.00     0.157 A 
ATOM     16  C   UNL     1      20.043  38.618   5.116  1.00  0.00     0.062 A 
ATOM     17  C   UNL     1      20.883  38.032   4.161  1.00  0.00     0.158 A 
BRANCH  15  18
ATOM     18  O   UNL     1      22.486  38.344   2.312  1.00  0.00    -0.504 OA
ATOM     19  H   UNL     1      23.434  38.660   2.166  1.00  0.00     0.293 HD
ENDBRANCH  15  18
BRANCH  17  20
ATOM     20  O   UNL     1      20.944  36.637   4.116  1.00  0.00    -0.504 OA
ATOM     21  H   UNL     1      20.410  36.069   3.475  1.00  0.00     0.293 HD
ENDBRANCH  17  20
ENDBRANCH   1  12
BRANCH   6  22
ATOM     22  O   UNL     1      16.656  43.125  10.112  1.00  0.00    -0.507 OA
ATOM     23  H   UNL     1      15.977  43.664  10.626  1.00  0.00     0.293 HD
ENDBRANCH   6  22
BRANCH   8  24
ATOM     24  O   UNL     1      13.322  40.442   7.935  1.00  0.00    -0.508 OA
ATOM     25  H   UNL     1      13.001  39.629   8.447  1.00  0.00     0.293 HD
ENDBRANCH   8  24
TORSDOF 5
ENDMDL
MODEL 6
REMARK VINA RESULT:    -4.458      2.912      6.820
REMARK INTER + INTRA:          -5.557
REMARK INTER:                  -5.255
REMARK INTRA:                  -0.302
REMARK UNBOUND:                -0.317
REMARK SMILES O=c1cc(-c2ccc(O)c(O)c2)oc2cc(O)cc(O)c12
REMARK SMILES IDX 4 1 3 2 2 3 1 4 21 5 19 6 18 7 16 8 15 9 14 10 13 11 5 12
REMARK SMILES IDX 6 13 7 14 8 15 12 16 10 17 9 18 11 20 20 22 17 24
REMARK H PARENT 9 19 11 21 20 23 17 25
REMARK Flexibility Score: inf
ROOT
ATOM      1  C   UNL     1      18.365  42.351   4.960  1.00  0.00     0.138 A 
ATOM      2  C   UNL     1      19.323  42.833   5.862  1.00  0.00     0.100 A 
ATOM      3  C   UNL     1      19.162  42.604   7.229  1.00  0.00     0.197 A 
ATOM      4  O   UNL     1      20.010  43.097   8.016  1.00  0.00    -0.289 OA
ATOM      5  C   UNL     1      18.052  41.857   7.691  1.00  0.00     0.107 A 
ATOM      6  C   UNL     1      17.803  41.532   9.059  1.00  0.00     0.134 A 
ATOM      7  C   UNL     1      16.617  40.870   9.406  1.00  0.00     0.093 A 
ATOM      8  C   UNL     1      15.702  40.471   8.429  1.00  0.00     0.123 A 
ATOM      9  C   UNL     1      15.961  40.739   7.087  1.00  0.00     0.094 A 
ATOM     10  C   UNL     1      17.117  41.429   6.712  1.00  0.00     0.146 A 
ATOM     11  O   UNL     1      17.315  41.679   5.423  1.00  0.00    -0.456 OA
ENDROOT
BRANCH   1  12
ATOM     12  C   UNL     1      18.488  42.562   3.496  1.00  0.00     0.021 A 
ATOM     13  C   UNL     1      19.758  42.544   2.901  1.00  0.00     0.016 A 
ATOM     14  C   UNL     1      19.901  42.733   1.526  1.00  0.00     0.051 A 
ATOM     15  C   UNL     1      18.783  42.935   0.712  1.00  0.00     0.157 A 
ATOM     16  C   UNL     1      17.359  42.751   2.675  1.00  0.00     0.062 A 
ATOM     17  C   UNL     1      17.494  42.939   1.295  1.00  0.00     0.158 A 
BRANCH  15  18
ATOM     18  O   UNL     1      18.995  43.124  -0.655  1.00  0.00    -0.504 OA
ATOM     19  H   UNL     1      19.878  43.406  -1.056  1.00  0.00     0.293 HD
ENDBRANCH  15  18
BRANCH  17  20
ATOM     20  O   UNL     1      16.329  43.118   0.544  1.00  0.00    -0.504 OA
ATOM     21  H   UNL     1      15.954  42.428  -0.090  1.00  0.00     0.293 HD
ENDBRANCH  17  20
ENDBRANCH   1  12
BRANCH   6  22
ATOM     22  O   UNL     1      18.687  41.812  10.105  1.00  0.00    -0.507 OA
ATOM     23  H   UNL     1      19.205  42.669  10.213  1.00  0.00     0.293 HD
ENDBRANCH   6  22
BRANCH   8  24
ATOM     24  O   UNL     1      14.533  39.800   8.782  1.00  0.00    -0.508 OA
ATOM     25  H   UNL     1      13.878  39.473   8.082  1.00  0.00     0.293 HD
ENDBRANCH   8  24
TORSDOF 5
ENDMDL
MODEL 7
REMARK VINA RESULT:    -4.088      3.428      6.790
REMARK INTER + INTRA:          -5.123
REMARK INTER:                  -4.826
REMARK INTRA:                  -0.297
REMARK UNBOUND:                -0.317
REMARK SMILES O=c1cc(-c2ccc(O)c(O)c2)oc2cc(O)cc(O)c12
REMARK SMILES IDX 4 1 3 2 2 3 1 4 21 5 19 6 18 7 16 8 15 9 14 10 13 11 5 12
REMARK SMILES IDX 6 13 7 14 8 15 12 16 10 17 9 18 11 20 20 22 17 24
REMARK H PARENT 9 19 11 21 20 23 17 25
REMARK Flexibility Score: inf
ROOT
ATOM      1  C   UNL     1      18.798  42.753   4.968  1.00  0.00     0.138 A 
ATOM      2  C   UNL     1      17.660  42.529   5.755  1.00  0.00     0.100 A 
ATOM      3  C   UNL     1      17.781  42.468   7.143  1.00  0.00     0.197 A 
ATOM      4  O   UNL     1      16.751  42.211   7.817  1.00  0.00    -0.289 OA
ATOM      5  C   UNL     1      19.045  42.669   7.749  1.00  0.00     0.107 A 
ATOM      6  C   UNL     1      19.282  42.663   9.157  1.00  0.00     0.134 A 
ATOM      7  C   UNL     1      20.595  42.775   9.635  1.00  0.00     0.093 A 
ATOM      8  C   UNL     1      21.669  42.950   8.759  1.00  0.00     0.123 A 
ATOM      9  C   UNL     1      21.441  43.007   7.387  1.00  0.00     0.094 A 
ATOM     10  C   UNL     1      20.148  42.864   6.876  1.00  0.00     0.146 A 
ATOM     11  O   UNL     1      19.978  42.906   5.559  1.00  0.00    -0.456 OA
ENDROOT
BRANCH   1  12
ATOM     12  C   UNL     1      18.726  42.830   3.487  1.00  0.00     0.021 A 
ATOM     13  C   UNL     1      19.913  42.888   2.741  1.00  0.00     0.016 A 
ATOM     14  C   UNL     1      19.873  42.955   1.348  1.00  0.00     0.051 A 
ATOM     15  C   UNL     1      18.652  42.954   0.667  1.00  0.00     0.157 A 
ATOM     16  C   UNL     1      17.496  42.815   2.802  1.00  0.00     0.062 A 
ATOM     17  C   UNL     1      17.447  42.878   1.404  1.00  0.00     0.158 A 
BRANCH  15  18
ATOM     18  O   UNL     1      18.681  43.029  -0.727  1.00  0.00    -0.504 OA
ATOM     19  H   UNL     1      18.650  42.224  -1.337  1.00  0.00     0.293 HD
ENDBRANCH  15  18
BRANCH  17  20
ATOM     20  O   UNL     1      16.191  42.856   0.794  1.00  0.00    -0.504 OA
ATOM     21  H   UNL     1      15.322  42.742   1.294  1.00  0.00     0.293 HD
ENDBRANCH  17  20
ENDBRANCH   1  12
BRANCH   6  22
ATOM     22  O   UNL     1      18.274  42.575  10.121  1.00  0.00    -0.507 OA
ATOM     23  H   UNL     1      18.375  42.146  11.028  1.00  0.00     0.293 HD
ENDBRANCH   6  22
BRANCH   8  24
ATOM     24  O   UNL     1      22.969  43.076   9.245  1.00  0.00    -0.508 OA
ATOM     25  H   UNL     1      23.529  42.263   9.475  1.00  0.00     0.293 HD
ENDBRANCH   8  24
TORSDOF 5
ENDMDL
MODEL 8
REMARK VINA RESULT:    -3.876      2.497      2.566
REMARK INTER + INTRA:          -4.873
REMARK INTER:                  -4.560
REMARK INTRA:                  -0.313
REMARK UNBOUND:                -0.317
REMARK SMILES O=c1cc(-c2ccc(O)c(O)c2)oc2cc(O)cc(O)c12
REMARK SMILES IDX 4 1 3 2 2 3 1 4 21 5 19 6 18 7 16 8 15 9 14 10 13 11 5 12
REMARK SMILES IDX 6 13 7 14 8 15 12 16 10 17 9 18 11 20 20 22 17 24
REMARK H PARENT 9 19 11 21 20 23 17 25
REMARK Flexibility Score: inf
ROOT
ATOM      1  C   UNL     1      17.360  41.704   5.621  1.00  0.00     0.138 A 
ATOM      2  C   UNL     1      16.767  41.951   4.376  1.00  0.00     0.100 A 
ATOM      3  C   UNL     1      17.568  42.286   3.284  1.00  0.00     0.197 A 
ATOM      4  O   UNL     1      17.002  42.556   2.194  1.00  0.00    -0.289 OA
ATOM      5  C   UNL     1      18.975  42.339   3.433  1.00  0.00     0.107 A 
ATOM      6  C   UNL     1      19.894  42.636   2.381  1.00  0.00     0.134 A 
ATOM      7  C   UNL     1      21.259  42.756   2.673  1.00  0.00     0.093 A 
ATOM      8  C   UNL     1      21.744  42.533   3.964  1.00  0.00     0.123 A 
ATOM      9  C   UNL     1      20.861  42.193   4.985  1.00  0.00     0.094 A 
ATOM     10  C   UNL     1      19.489  42.100   4.735  1.00  0.00     0.146 A 
ATOM     11  O   UNL     1      18.680  41.791   5.743  1.00  0.00    -0.456 OA
ENDROOT
BRANCH   1  12
ATOM     12  C   UNL     1      16.556  41.340   6.815  1.00  0.00     0.021 A 
ATOM     13  C   UNL     1      15.176  41.595   6.821  1.00  0.00     0.016 A 
ATOM     14  C   UNL     1      14.396  41.257   7.928  1.00  0.00     0.051 A 
ATOM     15  C   UNL     1      14.971  40.648   9.048  1.00  0.00     0.157 A 
ATOM     16  C   UNL     1      17.133  40.714   7.936  1.00  0.00     0.062 A 
ATOM     17  C   UNL     1      16.358  40.369   9.050  1.00  0.00     0.158 A 
BRANCH  15  18
ATOM     18  O   UNL     1      14.137  40.341  10.125  1.00  0.00    -0.504 OA
ATOM     19  H   UNL     1      14.078  40.893  10.969  1.00  0.00     0.293 HD
ENDBRANCH  15  18
BRANCH  17  20
ATOM     20  O   UNL     1      17.000  39.748  10.124  1.00  0.00    -0.504 OA
ATOM     21  H   UNL     1      16.869  38.780  10.378  1.00  0.00     0.293 HD
ENDBRANCH  17  20
ENDBRANCH   1  12
BRANCH   6  22
ATOM     22  O   UNL     1      19.527  42.799   1.042  1.00  0.00    -0.507 OA
ATOM     23  H   UNL     1      20.161  43.016   0.289  1.00  0.00     0.293 HD
ENDBRANCH   6  22
BRANCH   8  24
ATOM     24  O   UNL     1      23.105  42.640   4.240  1.00  0.00    -0.508 OA
ATOM     25  H   UNL     1      23.498  43.479   4.650  1.00  0.00     0.293 HD
ENDBRANCH   8  24
TORSDOF 5
ENDMDL
