MODEL 1
REMARK VINA RESULT:    -3.723      0.000      0.000
REMARK INTER + INTRA:          -9.191
REMARK INTER:                  -6.770
REMARK INTRA:                  -2.421
REMARK UNBOUND:                -2.421
REMARK SMILES CCCCCCCCCCCCCCCC(=O)[O-]
REMARK SMILES IDX 9 1 10 2 11 3 12 4 13 5 14 6 15 7 16 8 17 9 18 10 8 11 7 12
REMARK SMILES IDX 6 13 5 14 4 15 3 16 2 17 1 18
REMARK H PARENT
REMARK Flexibility Score: inf
ROOT
ATOM      1  C   UNL     1       0.622   2.242  -9.932  1.00  0.00     0.000 C 
ENDROOT
BRANCH   1   2
ATOM      2  C   UNL     1       0.164   1.272 -11.032  1.00  0.00     0.000 C 
BRANCH   2   3
ATOM      3  C   UNL     1      -1.358   1.320 -11.262  1.00  0.00     0.000 C 
BRANCH   3   4
ATOM      4  C   UNL     1      -1.826   2.659 -11.852  1.00  0.00     0.000 C 
BRANCH   4   5
ATOM      5  C   UNL     1      -3.286   2.985 -11.492  1.00  0.00     0.000 C 
BRANCH   5   6
ATOM      6  C   UNL     1      -3.686   2.448 -10.107  1.00  0.00     0.006 C 
BRANCH   6   7
ATOM      7  C   UNL     1      -4.622   3.399  -9.351  1.00  0.00     0.053 C 
BRANCH   7   8
ATOM      8  C   UNL     1      -5.892   2.701  -8.984  1.00  0.00     0.041 C 
ATOM      9  O   UNL     1      -6.594   3.123  -8.027  1.00  0.00    -0.550 OA
ATOM     10  O   UNL     1      -6.326   1.610  -9.726  1.00  0.00    -0.550 OA
ENDBRANCH   7   8
ENDBRANCH   6   7
ENDBRANCH   5   6
ENDBRANCH   4   5
ENDBRANCH   3   4
ENDBRANCH   2   3
ENDBRANCH   1   2
BRANCH   1  11
ATOM     11  C   UNL     1      -0.068   1.973  -8.583  1.00  0.00     0.000 C 
BRANCH  11  12
ATOM     12  C   UNL     1      -0.790   3.211  -8.023  1.00  0.00    -0.000 C 
BRANCH  12  13
ATOM     13  C   UNL     1      -0.693   4.472  -8.902  1.00  0.00    -0.000 C 
BRANCH  13  14
ATOM     14  C   UNL     1      -1.027   5.762  -8.139  1.00  0.00    -0.000 C 
BRANCH  14  15
ATOM     15  C   UNL     1      -2.288   6.427  -8.714  1.00  0.00    -0.000 C 
BRANCH  15  16
ATOM     16  C   UNL     1      -2.315   6.417 -10.250  1.00  0.00    -0.000 C 
BRANCH  16  17
ATOM     17  C   UNL     1      -3.731   6.601 -10.818  1.00  0.00    -0.003 C 
ATOM     18  C   UNL     1      -3.706   6.666 -12.342  1.00  0.00     0.004 C 
ENDBRANCH  16  17
ENDBRANCH  15  16
ENDBRANCH  14  15
ENDBRANCH  13  14
ENDBRANCH  12  13
ENDBRANCH  11  12
ENDBRANCH   1  11
TORSDOF 14
ENDMDL
MODEL 2
REMARK VINA RESULT:    -3.656      1.113      3.615
REMARK INTER + INTRA:          -9.069
REMARK INTER:                  -6.434
REMARK INTRA:                  -2.636
REMARK UNBOUND:                -2.421
REMARK SMILES CCCCCCCCCCCCCCCC(=O)[O-]
REMARK SMILES IDX 9 1 10 2 11 3 12 4 13 5 14 6 15 7 16 8 17 9 18 10 8 11 7 12
REMARK SMILES IDX 6 13 5 14 4 15 3 16 2 17 1 18
REMARK H PARENT
REMARK Flexibility Score: inf
ROOT
ATOM      1  C   UNL     1      -1.171   5.773  -8.157  1.00  0.00     0.000 C 
ENDROOT
BRANCH   1   2
ATOM      2  C   UNL     1      -2.420   6.252  -8.913  1.00  0.00     0.000 C 
BRANCH   2   3
ATOM      3  C   UNL     1      -2.475   5.717 -10.356  1.00  0.00     0.000 C 
BRANCH   3   4
ATOM      4  C   UNL     1      -3.746   4.900 -10.637  1.00  0.00     0.000 C 
BRANCH   4   5
ATOM      5  C   UNL     1      -3.456   3.604 -11.413  1.00  0.00     0.000 C 
BRANCH   5   6
ATOM      6  C   UNL     1      -3.635   2.345 -10.548  1.00  0.00     0.006 C 
BRANCH   6   7
ATOM      7  C   UNL     1      -4.220   2.657  -9.165  1.00  0.00     0.053 C 
BRANCH   7   8
ATOM      8  C   UNL     1      -5.669   2.286  -9.114  1.00  0.00     0.041 C 
ATOM      9  O   UNL     1      -6.142   1.464  -9.942  1.00  0.00    -0.550 OA
ATOM     10  O   UNL     1      -6.487   2.814  -8.123  1.00  0.00    -0.550 OA
ENDBRANCH   7   8
ENDBRANCH   6   7
ENDBRANCH   5   6
ENDBRANCH   4   5
ENDBRANCH   3   4
ENDBRANCH   2   3
ENDBRANCH   1   2
BRANCH   1  11
ATOM     11  C   UNL     1      -0.526   4.536  -8.807  1.00  0.00     0.000 C 
BRANCH  11  12
ATOM     12  C   UNL     1      -0.804   3.238  -8.029  1.00  0.00    -0.000 C 
BRANCH  12  13
ATOM     13  C   UNL     1      -0.241   1.960  -8.678  1.00  0.00    -0.000 C 
BRANCH  13  14
ATOM     14  C   UNL     1       0.548   2.239  -9.966  1.00  0.00    -0.000 C 
BRANCH  14  15
ATOM     15  C   UNL     1      -0.023   1.433 -11.143  1.00  0.00    -0.000 C 
BRANCH  15  16
ATOM     16  C   UNL     1      -0.146   2.267 -12.428  1.00  0.00    -0.000 C 
BRANCH  16  17
ATOM     17  C   UNL     1       0.260   3.735 -12.222  1.00  0.00    -0.003 C 
ATOM     18  C   UNL     1      -0.367   4.632 -13.285  1.00  0.00     0.004 C 
ENDBRANCH  16  17
ENDBRANCH  15  16
ENDBRANCH  14  15
ENDBRANCH  13  14
ENDBRANCH  12  13
ENDBRANCH  11  12
ENDBRANCH   1  11
TORSDOF 14
ENDMDL
MODEL 3
REMARK VINA RESULT:    -3.622      1.160      1.802
REMARK INTER + INTRA:          -9.007
REMARK INTER:                  -6.879
REMARK INTRA:                  -2.128
REMARK UNBOUND:                -2.421
REMARK SMILES CCCCCCCCCCCCCCCC(=O)[O-]
REMARK SMILES IDX 9 1 10 2 11 3 12 4 13 5 14 6 15 7 16 8 17 9 18 10 8 11 7 12
REMARK SMILES IDX 6 13 5 14 4 15 3 16 2 17 1 18
REMARK H PARENT
REMARK Flexibility Score: inf
ROOT
ATOM      1  C   UNL     1       0.054   1.503 -11.297  1.00  0.00     0.000 C 
ENDROOT
BRANCH   1   2
ATOM      2  C   UNL     1      -0.190   2.705 -12.223  1.00  0.00     0.000 C 
BRANCH   2   3
ATOM      3  C   UNL     1      -1.562   3.361 -11.985  1.00  0.00     0.000 C 
BRANCH   3   4
ATOM      4  C   UNL     1      -2.730   2.381 -12.178  1.00  0.00     0.000 C 
BRANCH   4   5
ATOM      5  C   UNL     1      -4.034   2.883 -11.536  1.00  0.00     0.000 C 
BRANCH   5   6
ATOM      6  C   UNL     1      -4.799   1.767 -10.803  1.00  0.00     0.006 C 
BRANCH   6   7
ATOM      7  C   UNL     1      -4.991   2.063  -9.310  1.00  0.00     0.053 C 
BRANCH   7   8
ATOM      8  C   UNL     1      -6.320   2.707  -9.072  1.00  0.00     0.041 C 
ATOM      9  O   UNL     1      -6.493   3.449  -8.070  1.00  0.00    -0.550 OA
ATOM     10  O   UNL     1      -7.354   2.523  -9.980  1.00  0.00    -0.550 OA
ENDBRANCH   7   8
ENDBRANCH   6   7
ENDBRANCH   5   6
ENDBRANCH   4   5
ENDBRANCH   3   4
ENDBRANCH   2   3
ENDBRANCH   1   2
BRANCH   1  11
ATOM     11  C   UNL     1       0.805   1.893 -10.011  1.00  0.00     0.000 C 
BRANCH  11  12
ATOM     12  C   UNL     1       0.129   1.356  -8.738  1.00  0.00    -0.000 C 
BRANCH  12  13
ATOM     13  C   UNL     1      -0.365   2.439  -7.761  1.00  0.00    -0.000 C 
BRANCH  13  14
ATOM     14  C   UNL     1      -1.406   3.381  -8.385  1.00  0.00    -0.000 C 
BRANCH  14  15
ATOM     15  C   UNL     1      -0.871   4.819  -8.454  1.00  0.00    -0.000 C 
BRANCH  15  16
ATOM     16  C   UNL     1      -1.943   5.830  -8.893  1.00  0.00    -0.000 C 
BRANCH  16  17
ATOM     17  C   UNL     1      -3.369   5.270  -8.772  1.00  0.00    -0.003 C 
ATOM     18  C   UNL     1      -4.293   5.896  -9.812  1.00  0.00     0.004 C 
ENDBRANCH  16  17
ENDBRANCH  15  16
ENDBRANCH  14  15
ENDBRANCH  13  14
ENDBRANCH  12  13
ENDBRANCH  11  12
ENDBRANCH   1  11
TORSDOF 14
ENDMDL
MODEL 4
REMARK VINA RESULT:    -3.604      1.147      3.723
REMARK INTER + INTRA:          -8.975
REMARK INTER:                  -6.807
REMARK INTRA:                  -2.168
REMARK UNBOUND:                -2.421
REMARK SMILES CCCCCCCCCCCCCCCC(=O)[O-]
REMARK SMILES IDX 9 1 10 2 11 3 12 4 13 5 14 6 15 7 16 8 17 9 18 10 8 11 7 12
REMARK SMILES IDX 6 13 5 14 4 15 3 16 2 17 1 18
REMARK H PARENT
REMARK Flexibility Score: inf
ROOT
ATOM      1  C   UNL     1      -1.010   4.709  -8.360  1.00  0.00     0.000 C 
ENDROOT
BRANCH   1   2
ATOM      2  C   UNL     1      -0.582   5.188  -9.756  1.00  0.00     0.000 C 
BRANCH   2   3
ATOM      3  C   UNL     1      -1.594   6.168 -10.377  1.00  0.00     0.000 C 
BRANCH   3   4
ATOM      4  C   UNL     1      -2.911   5.486 -10.779  1.00  0.00     0.000 C 
BRANCH   4   5
ATOM      5  C   UNL     1      -4.124   6.049 -10.017  1.00  0.00     0.000 C 
BRANCH   5   6
ATOM      6  C   UNL     1      -5.285   5.044  -9.933  1.00  0.00     0.006 C 
BRANCH   6   7
ATOM      7  C   UNL     1      -5.045   3.947  -8.888  1.00  0.00     0.053 C 
BRANCH   7   8
ATOM      8  C   UNL     1      -6.080   2.875  -9.008  1.00  0.00     0.041 C 
ATOM      9  O   UNL     1      -5.820   1.699  -8.642  1.00  0.00    -0.550 OA
ATOM     10  O   UNL     1      -7.349   3.183  -9.482  1.00  0.00    -0.550 OA
ENDBRANCH   7   8
ENDBRANCH   6   7
ENDBRANCH   5   6
ENDBRANCH   4   5
ENDBRANCH   3   4
ENDBRANCH   2   3
ENDBRANCH   1   2
BRANCH   1  11
ATOM     11  C   UNL     1      -1.386   3.217  -8.338  1.00  0.00     0.000 C 
BRANCH  11  12
ATOM     12  C   UNL     1      -0.193   2.304  -8.007  1.00  0.00    -0.000 C 
BRANCH  12  13
ATOM     13  C   UNL     1       0.197   1.316  -9.122  1.00  0.00    -0.000 C 
BRANCH  13  14
ATOM     14  C   UNL     1       1.069   1.956 -10.212  1.00  0.00    -0.000 C 
BRANCH  14  15
ATOM     15  C   UNL     1       0.522   1.633 -11.611  1.00  0.00    -0.000 C 
BRANCH  15  16
ATOM     16  C   UNL     1      -0.840   2.292 -11.882  1.00  0.00    -0.000 C 
BRANCH  16  17
ATOM     17  C   UNL     1      -1.976   1.267 -12.023  1.00  0.00    -0.003 C 
ATOM     18  C   UNL     1      -3.281   1.813 -11.452  1.00  0.00     0.004 C 
ENDBRANCH  16  17
ENDBRANCH  15  16
ENDBRANCH  14  15
ENDBRANCH  13  14
ENDBRANCH  12  13
ENDBRANCH  11  12
ENDBRANCH   1  11
TORSDOF 14
ENDMDL
MODEL 5
REMARK VINA RESULT:    -3.584      1.868      4.277
REMARK INTER + INTRA:          -8.938
REMARK INTER:                  -7.016
REMARK INTRA:                  -1.922
REMARK UNBOUND:                -2.421
REMARK SMILES CCCCCCCCCCCCCCCC(=O)[O-]
REMARK SMILES IDX 9 1 10 2 11 3 12 4 13 5 14 6 15 7 16 8 17 9 18 10 8 11 7 12
REMARK SMILES IDX 6 13 5 14 4 15 3 16 2 17 1 18
REMARK H PARENT
REMARK Flexibility Score: inf
ROOT
ATOM      1  C   UNL     1       0.944   2.138 -10.147  1.00  0.00     0.000 C 
ENDROOT
BRANCH   1   2
ATOM      2  C   UNL     1       0.277   1.587  -8.877  1.00  0.00     0.000 C 
BRANCH   2   3
ATOM      3  C   UNL     1      -0.464   2.678  -8.081  1.00  0.00     0.000 C 
BRANCH   3   4
ATOM      4  C   UNL     1      -0.556   4.008  -8.844  1.00  0.00     0.000 C 
BRANCH   4   5
ATOM      5  C   UNL     1      -1.478   5.025  -8.149  1.00  0.00     0.000 C 
BRANCH   5   6
ATOM      6  C   UNL     1      -2.286   5.869  -9.149  1.00  0.00     0.006 C 
BRANCH   6   7
ATOM      7  C   UNL     1      -3.780   5.520  -9.147  1.00  0.00     0.053 C 
BRANCH   7   8
ATOM      8  C   UNL     1      -4.497   6.281 -10.216  1.00  0.00     0.041 C 
ATOM      9  O   UNL     1      -5.449   5.748 -10.844  1.00  0.00    -0.550 OA
ATOM     10  O   UNL     1      -4.143   7.596 -10.489  1.00  0.00    -0.550 OA
ENDBRANCH   7   8
ENDBRANCH   6   7
ENDBRANCH   5   6
ENDBRANCH   4   5
ENDBRANCH   3   4
ENDBRANCH   2   3
ENDBRANCH   1   2
BRANCH   1  11
ATOM     11  C   UNL     1       0.438   1.447 -11.425  1.00  0.00     0.000 C 
BRANCH  11  12
ATOM     12  C   UNL     1      -1.033   1.008 -11.325  1.00  0.00    -0.000 C 
BRANCH  12  13
ATOM     13  C   UNL     1      -2.062   2.103 -11.664  1.00  0.00    -0.000 C 
BRANCH  13  14
ATOM     14  C   UNL     1      -3.208   2.184 -10.644  1.00  0.00    -0.000 C 
BRANCH  14  15
ATOM     15  C   UNL     1      -4.565   2.304 -11.355  1.00  0.00    -0.000 C 
BRANCH  15  16
ATOM     16  C   UNL     1      -5.738   1.847 -10.473  1.00  0.00    -0.000 C 
BRANCH  16  17
ATOM     17  C   UNL     1      -5.489   2.100  -8.978  1.00  0.00    -0.003 C 
ATOM     18  C   UNL     1      -6.446   3.156  -8.434  1.00  0.00     0.004 C 
ENDBRANCH  16  17
ENDBRANCH  15  16
ENDBRANCH  14  15
ENDBRANCH  13  14
ENDBRANCH  12  13
ENDBRANCH  11  12
ENDBRANCH   1  11
TORSDOF 14
ENDMDL
MODEL 6
REMARK VINA RESULT:    -3.560      1.435      4.223
REMARK INTER + INTRA:          -8.894
REMARK INTER:                  -6.457
REMARK INTRA:                  -2.437
REMARK UNBOUND:                -2.421
REMARK SMILES CCCCCCCCCCCCCCCC(=O)[O-]
REMARK SMILES IDX 9 1 10 2 11 3 12 4 13 5 14 6 15 7 16 8 17 9 18 10 8 11 7 12
REMARK SMILES IDX 6 13 5 14 4 15 3 16 2 17 1 18
REMARK H PARENT
REMARK Flexibility Score: inf
ROOT
ATOM      1  C   UNL     1      -0.204   6.037  -8.927  1.00  0.00     0.000 C 
ENDROOT
BRANCH   1   2
ATOM      2  C   UNL     1      -1.643   5.868  -8.413  1.00  0.00     0.000 C 
BRANCH   2   3
ATOM      3  C   UNL     1      -2.684   6.485  -9.365  1.00  0.00     0.000 C 
BRANCH   3   4
ATOM      4  C   UNL     1      -3.741   5.469  -9.826  1.00  0.00     0.000 C 
BRANCH   4   5
ATOM      5  C   UNL     1      -3.937   4.323  -8.819  1.00  0.00     0.000 C 
BRANCH   5   6
ATOM      6  C   UNL     1      -4.065   2.952  -9.504  1.00  0.00     0.006 C 
BRANCH   6   7
ATOM      7  C   UNL     1      -5.203   2.104  -8.922  1.00  0.00     0.053 C 
BRANCH   7   8
ATOM      8  C   UNL     1      -6.437   2.240  -9.756  1.00  0.00     0.041 C 
ATOM      9  O   UNL     1      -7.181   3.248  -9.627  1.00  0.00    -0.550 OA
ATOM     10  O   UNL     1      -6.742   1.277 -10.709  1.00  0.00    -0.550 OA
ENDBRANCH   7   8
ENDBRANCH   6   7
ENDBRANCH   5   6
ENDBRANCH   4   5
ENDBRANCH   3   4
ENDBRANCH   2   3
ENDBRANCH   1   2
BRANCH   1  11
ATOM     11  C   UNL     1      -0.151   6.430 -10.414  1.00  0.00     0.000 C 
BRANCH  11  12
ATOM     12  C   UNL     1       0.433   5.320 -11.304  1.00  0.00    -0.000 C 
BRANCH  12  13
ATOM     13  C   UNL     1      -0.548   4.730 -12.334  1.00  0.00    -0.000 C 
BRANCH  13  14
ATOM     14  C   UNL     1      -1.381   3.569 -11.771  1.00  0.00    -0.000 C 
BRANCH  14  15
ATOM     15  C   UNL     1      -0.518   2.309 -11.598  1.00  0.00    -0.000 C 
BRANCH  15  16
ATOM     16  C   UNL     1      -0.688   1.661 -10.215  1.00  0.00    -0.000 C 
BRANCH  16  17
ATOM     17  C   UNL     1       0.214   2.299  -9.147  1.00  0.00    -0.003 C 
ATOM     18  C   UNL     1      -0.538   2.482  -7.832  1.00  0.00     0.004 C 
ENDBRANCH  16  17
ENDBRANCH  15  16
ENDBRANCH  14  15
ENDBRANCH  13  14
ENDBRANCH  12  13
ENDBRANCH  11  12
ENDBRANCH   1  11
TORSDOF 14
ENDMDL
MODEL 7
REMARK VINA RESULT:    -3.551      1.664      3.089
REMARK INTER + INTRA:          -8.878
REMARK INTER:                  -6.617
REMARK INTRA:                  -2.260
REMARK UNBOUND:                -2.421
REMARK SMILES CCCCCCCCCCCCCCCC(=O)[O-]
REMARK SMILES IDX 9 1 10 2 11 3 12 4 13 5 14 6 15 7 16 8 17 9 18 10 8 11 7 12
REMARK SMILES IDX 6 13 5 14 4 15 3 16 2 17 1 18
REMARK H PARENT
REMARK Flexibility Score: inf
ROOT
ATOM      1  C   UNL     1      -0.191   2.425  -8.151  1.00  0.00     0.000 C 
ENDROOT
BRANCH   1   2
ATOM      2  C   UNL     1      -1.416   3.349  -8.236  1.00  0.00     0.000 C 
BRANCH   2   3
ATOM      3  C   UNL     1      -2.463   2.845  -9.246  1.00  0.00     0.000 C 
BRANCH   3   4
ATOM      4  C   UNL     1      -2.813   3.896 -10.311  1.00  0.00     0.000 C 
BRANCH   4   5
ATOM      5  C   UNL     1      -3.841   4.925  -9.811  1.00  0.00     0.000 C 
BRANCH   5   6
ATOM      6  C   UNL     1      -4.898   4.301  -8.885  1.00  0.00     0.006 C 
BRANCH   6   7
ATOM      7  C   UNL     1      -6.079   3.698  -9.657  1.00  0.00     0.053 C 
BRANCH   7   8
ATOM      8  C   UNL     1      -6.149   2.221  -9.436  1.00  0.00     0.041 C 
ATOM      9  O   UNL     1      -6.542   1.460 -10.359  1.00  0.00    -0.550 OA
ATOM     10  O   UNL     1      -5.737   1.678  -8.226  1.00  0.00    -0.550 OA
ENDBRANCH   7   8
ENDBRANCH   6   7
ENDBRANCH   5   6
ENDBRANCH   4   5
ENDBRANCH   3   4
ENDBRANCH   2   3
ENDBRANCH   1   2
BRANCH   1  11
ATOM     11  C   UNL     1       0.020   1.606  -9.436  1.00  0.00     0.000 C 
BRANCH  11  12
ATOM     12  C   UNL     1       1.089   2.211 -10.363  1.00  0.00    -0.000 C 
BRANCH  12  13
ATOM     13  C   UNL     1       0.666   2.351 -11.837  1.00  0.00    -0.000 C 
BRANCH  13  14
ATOM     14  C   UNL     1       0.325   3.796 -12.229  1.00  0.00    -0.000 C 
BRANCH  14  15
ATOM     15  C   UNL     1       1.001   4.796 -11.277  1.00  0.00    -0.000 C 
BRANCH  15  16
ATOM     16  C   UNL     1       0.041   5.891 -10.788  1.00  0.00    -0.000 C 
BRANCH  16  17
ATOM     17  C   UNL     1       0.203   6.194  -9.290  1.00  0.00    -0.003 C 
ATOM     18  C   UNL     1      -0.733   7.318  -8.854  1.00  0.00     0.004 C 
ENDBRANCH  16  17
ENDBRANCH  15  16
ENDBRANCH  14  15
ENDBRANCH  13  14
ENDBRANCH  12  13
ENDBRANCH  11  12
ENDBRANCH   1  11
TORSDOF 14
ENDMDL
MODEL 8
REMARK VINA RESULT:    -3.529      0.916      4.108
REMARK INTER + INTRA:          -8.838
REMARK INTER:                  -6.810
REMARK INTRA:                  -2.028
REMARK UNBOUND:                -2.421
REMARK SMILES CCCCCCCCCCCCCCCC(=O)[O-]
REMARK SMILES IDX 9 1 10 2 11 3 12 4 13 5 14 6 15 7 16 8 17 9 18 10 8 11 7 12
REMARK SMILES IDX 6 13 5 14 4 15 3 16 2 17 1 18
REMARK H PARENT
REMARK Flexibility Score: inf
ROOT
ATOM      1  C   UNL     1      -3.147   6.333  -9.304  1.00  0.00     0.000 C 
ENDROOT
BRANCH   1   2
ATOM      2  C   UNL     1      -4.070   6.729 -10.466  1.00  0.00     0.000 C 
BRANCH   2   3
ATOM      3  C   UNL     1      -4.239   5.596 -11.496  1.00  0.00     0.000 C 
BRANCH   3   4
ATOM      4  C   UNL     1      -3.134   4.533 -11.394  1.00  0.00     0.000 C 
BRANCH   4   5
ATOM      5  C   UNL     1      -3.628   3.129 -11.780  1.00  0.00     0.000 C 
BRANCH   5   6
ATOM      6  C   UNL     1      -3.553   2.134 -10.609  1.00  0.00     0.006 C 
BRANCH   6   7
ATOM      7  C   UNL     1      -4.080   2.725  -9.296  1.00  0.00     0.053 C 
BRANCH   7   8
ATOM      8  C   UNL     1      -5.538   2.434  -9.139  1.00  0.00     0.041 C 
ATOM      9  O   UNL     1      -6.234   3.098  -8.327  1.00  0.00    -0.550 OA
ATOM     10  O   UNL     1      -6.141   1.459  -9.923  1.00  0.00    -0.550 OA
ENDBRANCH   7   8
ENDBRANCH   6   7
ENDBRANCH   5   6
ENDBRANCH   4   5
ENDBRANCH   3   4
ENDBRANCH   2   3
ENDBRANCH   1   2
BRANCH   1  11
ATOM     11  C   UNL     1      -1.873   7.195  -9.242  1.00  0.00     0.000 C 
BRANCH  11  12
ATOM     12  C   UNL     1      -0.643   6.410  -8.755  1.00  0.00    -0.000 C 
BRANCH  12  13
ATOM     13  C   UNL     1      -0.957   5.052  -8.100  1.00  0.00    -0.000 C 
BRANCH  13  14
ATOM     14  C   UNL     1      -0.515   3.857  -8.957  1.00  0.00    -0.000 C 
BRANCH  14  15
ATOM     15  C   UNL     1      -0.405   2.583  -8.105  1.00  0.00    -0.000 C 
BRANCH  15  16
ATOM     16  C   UNL     1       0.269   1.424  -8.855  1.00  0.00    -0.000 C 
BRANCH  16  17
ATOM     17  C   UNL     1       0.824   1.848 -10.224  1.00  0.00    -0.003 C 
ATOM     18  C   UNL     1       0.151   1.072 -11.352  1.00  0.00     0.004 C 
ENDBRANCH  16  17
ENDBRANCH  15  16
ENDBRANCH  14  15
ENDBRANCH  13  14
ENDBRANCH  12  13
ENDBRANCH  11  12
ENDBRANCH   1  11
TORSDOF 14
ENDMDL
MODEL 9
REMARK VINA RESULT:    -3.501      1.654      3.375
REMARK INTER + INTRA:          -8.788
REMARK INTER:                  -6.038
REMARK INTRA:                  -2.749
REMARK UNBOUND:                -2.421
REMARK SMILES CCCCCCCCCCCCCCCC(=O)[O-]
REMARK SMILES IDX 9 1 10 2 11 3 12 4 13 5 14 6 15 7 16 8 17 9 18 10 8 11 7 12
REMARK SMILES IDX 6 13 5 14 4 15 3 16 2 17 1 18
REMARK H PARENT
REMARK Flexibility Score: inf
ROOT
ATOM      1  C   UNL     1       1.353   2.123 -10.381  1.00  0.00     0.000 C 
ENDROOT
BRANCH   1   2
ATOM      2  C   UNL     1       0.227   1.851  -9.371  1.00  0.00     0.000 C 
BRANCH   2   3
ATOM      3  C   UNL     1      -0.473   3.143  -8.910  1.00  0.00     0.000 C 
BRANCH   3   4
ATOM      4  C   UNL     1      -1.981   2.950  -8.681  1.00  0.00     0.000 C 
BRANCH   4   5
ATOM      5  C   UNL     1      -2.771   4.263  -8.815  1.00  0.00     0.000 C 
BRANCH   5   6
ATOM      6  C   UNL     1      -4.281   4.027  -8.986  1.00  0.00     0.006 C 
BRANCH   6   7
ATOM      7  C   UNL     1      -4.642   2.539  -9.074  1.00  0.00     0.053 C 
BRANCH   7   8
ATOM      8  C   UNL     1      -6.085   2.370  -9.429  1.00  0.00     0.041 C 
ATOM      9  O   UNL     1      -6.952   3.144  -8.945  1.00  0.00    -0.550 OA
ATOM     10  O   UNL     1      -6.468   1.387 -10.332  1.00  0.00    -0.550 OA
ENDBRANCH   7   8
ENDBRANCH   6   7
ENDBRANCH   5   6
ENDBRANCH   4   5
ENDBRANCH   3   4
ENDBRANCH   2   3
ENDBRANCH   1   2
BRANCH   1  11
ATOM     11  C   UNL     1       1.056   1.529 -11.769  1.00  0.00     0.000 C 
BRANCH  11  12
ATOM     12  C   UNL     1      -0.108   0.523 -11.753  1.00  0.00    -0.000 C 
BRANCH  12  13
ATOM     13  C   UNL     1      -1.288   0.881 -12.675  1.00  0.00    -0.000 C 
BRANCH  13  14
ATOM     14  C   UNL     1      -2.539   1.325 -11.903  1.00  0.00    -0.000 C 
BRANCH  14  15
ATOM     15  C   UNL     1      -2.995   2.721 -12.355  1.00  0.00    -0.000 C 
BRANCH  15  16
ATOM     16  C   UNL     1      -1.847   3.560 -12.938  1.00  0.00    -0.000 C 
BRANCH  16  17
ATOM     17  C   UNL     1      -1.526   4.797 -12.085  1.00  0.00    -0.003 C 
ATOM     18  C   UNL     1      -0.032   5.106 -12.107  1.00  0.00     0.004 C 
ENDBRANCH  16  17
ENDBRANCH  15  16
ENDBRANCH  14  15
ENDBRANCH  13  14
ENDBRANCH  12  13
ENDBRANCH  11  12
ENDBRANCH   1  11
TORSDOF 14
ENDMDL
