MODEL 1
REMARK VINA RESULT:    -5.765      0.000      0.000
REMARK INTER + INTRA:          -7.243
REMARK INTER:                  -6.944
REMARK INTRA:                  -0.299
REMARK UNBOUND:                -0.299
REMARK SMILES Oc1cc(O)c2cc(O)c(-c3ccc(O)c(O)c3)[o+]c2c1
REMARK SMILES IDX 10 1 19 2 20 3 21 4 2 5 3 6 4 7 6 8 7 9 8 10 11 11 12 12
REMARK SMILES IDX 13 13 14 14 18 15 16 16 15 17 17 19 9 21 1 23 5 25
REMARK H PARENT 15 18 17 20 9 22 1 24 5 26
REMARK Flexibility Score: inf
ROOT
ATOM      1  C   UNL     1     -37.771  75.926 -26.537  1.00  0.00     0.402 A 
ATOM      2  O   UNL     1     -38.304  76.114 -25.332  1.00  0.00    -0.202 OA
ATOM      3  C   UNL     1     -39.615  76.132 -25.109  1.00  0.00     0.368 A 
ATOM      4  C   UNL     1     -40.080  76.336 -23.807  1.00  0.00     0.162 A 
ATOM      5  C   UNL     1     -41.449  76.356 -23.543  1.00  0.00     0.128 A 
ATOM      6  C   UNL     1     -42.363  76.171 -24.586  1.00  0.00     0.093 A 
ATOM      7  C   UNL     1     -41.923  75.966 -25.899  1.00  0.00     0.136 A 
ATOM      8  C   UNL     1     -40.530  75.947 -26.172  1.00  0.00     0.125 A 
ATOM      9  C   UNL     1     -39.998  75.760 -27.459  1.00  0.00     0.078 A 
ATOM     10  C   UNL     1     -38.614  75.759 -27.652  1.00  0.00     0.223 A 
ENDROOT
BRANCH   1  11
ATOM     11  C   UNL     1     -36.295  75.917 -26.656  1.00  0.00     0.087 A 
ATOM     12  C   UNL     1     -35.583  77.114 -26.494  1.00  0.00     0.022 A 
ATOM     13  C   UNL     1     -34.190  77.125 -26.584  1.00  0.00     0.051 A 
ATOM     14  C   UNL     1     -33.480  75.944 -26.819  1.00  0.00     0.157 A 
ATOM     15  C   UNL     1     -35.584  74.723 -26.869  1.00  0.00     0.068 A 
ATOM     16  C   UNL     1     -34.186  74.725 -26.957  1.00  0.00     0.158 A 
BRANCH  14  17
ATOM     17  O   UNL     1     -32.089  76.024 -26.904  1.00  0.00    -0.504 OA
ATOM     18  H   UNL     1     -31.489  75.238 -27.109  1.00  0.00     0.293 HD
ENDBRANCH  14  17
BRANCH  16  19
ATOM     19  O   UNL     1     -33.545  73.503 -27.173  1.00  0.00    -0.504 OA
ATOM     20  H   UNL     1     -33.817  72.637 -26.730  1.00  0.00     0.293 HD
ENDBRANCH  16  19
ENDBRANCH   1  11
BRANCH  10  21
ATOM     21  O   UNL     1     -38.086  75.624 -28.936  1.00  0.00    -0.500 OA
ATOM     22  H   UNL     1     -37.108  75.801 -29.132  1.00  0.00     0.294 HD
ENDBRANCH  10  21
BRANCH   5  23
ATOM     23  O   UNL     1     -41.893  76.561 -22.238  1.00  0.00    -0.507 OA
ATOM     24  H   UNL     1     -41.373  77.140 -21.587  1.00  0.00     0.293 HD
ENDBRANCH   5  23
BRANCH   7  25
ATOM     25  O   UNL     1     -42.898  75.786 -26.884  1.00  0.00    -0.507 OA
ATOM     26  H   UNL     1     -42.700  75.611 -27.859  1.00  0.00     0.293 HD
ENDBRANCH   7  25
TORSDOF 6
ENDMDL
MODEL 2
REMARK VINA RESULT:    -4.992      1.570      2.196
REMARK INTER + INTRA:          -6.313
REMARK INTER:                  -5.979
REMARK INTRA:                  -0.334
REMARK UNBOUND:                -0.299
REMARK SMILES Oc1cc(O)c2cc(O)c(-c3ccc(O)c(O)c3)[o+]c2c1
REMARK SMILES IDX 10 1 19 2 20 3 21 4 2 5 3 6 4 7 6 8 7 9 8 10 11 11 12 12
REMARK SMILES IDX 13 13 14 14 18 15 16 16 15 17 17 19 9 21 1 23 5 25
REMARK H PARENT 15 18 17 20 9 22 1 24 5 26
REMARK Flexibility Score: inf
ROOT
ATOM      1  C   UNL     1     -39.196  75.844 -25.473  1.00  0.00     0.402 A 
ATOM      2  O   UNL     1     -39.263  76.020 -24.157  1.00  0.00    -0.202 OA
ATOM      3  C   UNL     1     -40.397  76.267 -23.510  1.00  0.00     0.368 A 
ATOM      4  C   UNL     1     -40.367  76.435 -22.123  1.00  0.00     0.162 A 
ATOM      5  C   UNL     1     -41.542  76.693 -21.418  1.00  0.00     0.128 A 
ATOM      6  C   UNL     1     -42.759  76.783 -22.102  1.00  0.00     0.093 A 
ATOM      7  C   UNL     1     -42.817  76.619 -23.491  1.00  0.00     0.136 A 
ATOM      8  C   UNL     1     -41.622  76.360 -24.212  1.00  0.00     0.125 A 
ATOM      9  C   UNL     1     -41.583  76.193 -25.607  1.00  0.00     0.078 A 
ATOM     10  C   UNL     1     -40.366  75.945 -26.249  1.00  0.00     0.223 A 
ENDROOT
BRANCH   1  11
ATOM     11  C   UNL     1     -37.873  75.565 -26.077  1.00  0.00     0.087 A 
ATOM     12  C   UNL     1     -36.954  76.610 -26.240  1.00  0.00     0.022 A 
ATOM     13  C   UNL     1     -35.694  76.366 -26.789  1.00  0.00     0.051 A 
ATOM     14  C   UNL     1     -35.320  75.073 -27.170  1.00  0.00     0.157 A 
ATOM     15  C   UNL     1     -37.493  74.260 -26.437  1.00  0.00     0.068 A 
ATOM     16  C   UNL     1     -36.229  74.004 -26.986  1.00  0.00     0.158 A 
BRANCH  14  17
ATOM     17  O   UNL     1     -34.048  74.896 -27.719  1.00  0.00    -0.504 OA
ATOM     18  H   UNL     1     -33.294  74.415 -27.252  1.00  0.00     0.293 HD
ENDBRANCH  14  17
BRANCH  16  19
ATOM     19  O   UNL     1     -35.920  72.685 -27.323  1.00  0.00    -0.504 OA
ATOM     20  H   UNL     1     -35.058  72.403 -27.765  1.00  0.00     0.293 HD
ENDBRANCH  16  19
ENDBRANCH   1  11
BRANCH  10  21
ATOM     21  O   UNL     1     -40.319  75.831 -27.638  1.00  0.00    -0.500 OA
ATOM     22  H   UNL     1     -39.654  75.222 -28.100  1.00  0.00     0.294 HD
ENDBRANCH  10  21
BRANCH   5  23
ATOM     23  O   UNL     1     -41.491  76.857 -20.035  1.00  0.00    -0.507 OA
ATOM     24  H   UNL     1     -41.272  76.083 -19.418  1.00  0.00     0.293 HD
ENDBRANCH   5  23
BRANCH   7  25
ATOM     25  O   UNL     1     -44.071  76.721 -24.100  1.00  0.00    -0.507 OA
ATOM     26  H   UNL     1     -44.336  77.452 -24.744  1.00  0.00     0.293 HD
ENDBRANCH   7  25
TORSDOF 6
ENDMDL
MODEL 3
REMARK VINA RESULT:    -4.934      1.321      2.705
REMARK INTER + INTRA:          -6.243
REMARK INTER:                  -6.161
REMARK INTRA:                  -0.082
REMARK UNBOUND:                -0.299
REMARK SMILES Oc1cc(O)c2cc(O)c(-c3ccc(O)c(O)c3)[o+]c2c1
REMARK SMILES IDX 10 1 19 2 20 3 21 4 2 5 3 6 4 7 6 8 7 9 8 10 11 11 12 12
REMARK SMILES IDX 13 13 14 14 18 15 16 16 15 17 17 19 9 21 1 23 5 25
REMARK H PARENT 15 18 17 20 9 22 1 24 5 26
REMARK Flexibility Score: inf
ROOT
ATOM      1  C   UNL     1     -38.422  75.844 -25.718  1.00  0.00     0.402 A 
ATOM      2  O   UNL     1     -39.473  75.509 -26.462  1.00  0.00    -0.202 OA
ATOM      3  C   UNL     1     -40.727  75.585 -26.029  1.00  0.00     0.368 A 
ATOM      4  C   UNL     1     -41.766  75.213 -26.886  1.00  0.00     0.162 A 
ATOM      5  C   UNL     1     -43.093  75.285 -26.459  1.00  0.00     0.128 A 
ATOM      6  C   UNL     1     -43.385  75.733 -25.167  1.00  0.00     0.093 A 
ATOM      7  C   UNL     1     -42.362  76.111 -24.288  1.00  0.00     0.136 A 
ATOM      8  C   UNL     1     -41.011  76.037 -24.718  1.00  0.00     0.125 A 
ATOM      9  C   UNL     1     -39.921  76.384 -23.902  1.00  0.00     0.078 A 
ATOM     10  C   UNL     1     -38.617  76.279 -24.394  1.00  0.00     0.223 A 
ENDROOT
BRANCH   1  11
ATOM     11  C   UNL     1     -37.073  75.725 -26.318  1.00  0.00     0.087 A 
ATOM     12  C   UNL     1     -36.213  76.831 -26.307  1.00  0.00     0.022 A 
ATOM     13  C   UNL     1     -34.930  76.735 -26.849  1.00  0.00     0.051 A 
ATOM     14  C   UNL     1     -34.475  75.533 -27.398  1.00  0.00     0.157 A 
ATOM     15  C   UNL     1     -36.612  74.507 -26.848  1.00  0.00     0.068 A 
ATOM     16  C   UNL     1     -35.325  74.401 -27.392  1.00  0.00     0.158 A 
BRANCH  14  17
ATOM     17  O   UNL     1     -33.185  75.505 -27.931  1.00  0.00    -0.504 OA
ATOM     18  H   UNL     1     -32.837  76.171 -28.605  1.00  0.00     0.293 HD
ENDBRANCH  14  17
BRANCH  16  19
ATOM     19  O   UNL     1     -34.934  73.162 -27.903  1.00  0.00    -0.504 OA
ATOM     20  H   UNL     1     -35.387  72.703 -28.679  1.00  0.00     0.293 HD
ENDBRANCH  16  19
ENDBRANCH   1  11
BRANCH  10  21
ATOM     21  O   UNL     1     -37.532  76.575 -23.568  1.00  0.00    -0.500 OA
ATOM     22  H   UNL     1     -37.380  77.507 -23.203  1.00  0.00     0.294 HD
ENDBRANCH  10  21
BRANCH   5  23
ATOM     23  O   UNL     1     -44.114  74.909 -27.329  1.00  0.00    -0.507 OA
ATOM     24  H   UNL     1     -45.057  74.740 -26.996  1.00  0.00     0.293 HD
ENDBRANCH   5  23
BRANCH   7  25
ATOM     25  O   UNL     1     -42.737  76.551 -23.015  1.00  0.00    -0.507 OA
ATOM     26  H   UNL     1     -42.876  77.519 -22.763  1.00  0.00     0.293 HD
ENDBRANCH   7  25
TORSDOF 6
ENDMDL
MODEL 4
REMARK VINA RESULT:    -4.803      1.698      2.158
REMARK INTER + INTRA:          -6.084
REMARK INTER:                  -6.162
REMARK INTRA:                   0.078
REMARK UNBOUND:                -0.299
REMARK SMILES Oc1cc(O)c2cc(O)c(-c3ccc(O)c(O)c3)[o+]c2c1
REMARK SMILES IDX 10 1 19 2 20 3 21 4 2 5 3 6 4 7 6 8 7 9 8 10 11 11 12 12
REMARK SMILES IDX 13 13 14 14 18 15 16 16 15 17 17 19 9 21 1 23 5 25
REMARK H PARENT 15 18 17 20 9 22 1 24 5 26
REMARK Flexibility Score: inf
ROOT
ATOM      1  C   UNL     1     -36.617  75.257 -27.163  1.00  0.00     0.402 A 
ATOM      2  O   UNL     1     -37.448  75.957 -26.396  1.00  0.00    -0.202 OA
ATOM      3  C   UNL     1     -38.760  75.744 -26.356  1.00  0.00     0.368 A 
ATOM      4  C   UNL     1     -39.551  76.531 -25.515  1.00  0.00     0.162 A 
ATOM      5  C   UNL     1     -40.930  76.328 -25.451  1.00  0.00     0.128 A 
ATOM      6  C   UNL     1     -41.524  75.330 -26.231  1.00  0.00     0.093 A 
ATOM      7  C   UNL     1     -40.754  74.528 -27.082  1.00  0.00     0.136 A 
ATOM      8  C   UNL     1     -39.351  74.734 -27.152  1.00  0.00     0.125 A 
ATOM      9  C   UNL     1     -38.501  73.987 -27.985  1.00  0.00     0.078 A 
ATOM     10  C   UNL     1     -37.129  74.251 -28.004  1.00  0.00     0.223 A 
ENDROOT
BRANCH   1  11
ATOM     11  C   UNL     1     -35.174  75.583 -27.112  1.00  0.00     0.087 A 
ATOM     12  C   UNL     1     -34.451  75.705 -28.307  1.00  0.00     0.022 A 
ATOM     13  C   UNL     1     -33.094  76.031 -28.283  1.00  0.00     0.051 A 
ATOM     14  C   UNL     1     -32.435  76.257 -27.070  1.00  0.00     0.157 A 
ATOM     15  C   UNL     1     -34.522  75.832 -25.892  1.00  0.00     0.068 A 
ATOM     16  C   UNL     1     -33.161  76.163 -25.858  1.00  0.00     0.158 A 
BRANCH  14  17
ATOM     17  O   UNL     1     -31.076  76.572 -27.114  1.00  0.00    -0.504 OA
ATOM     18  H   UNL     1     -30.335  75.898 -26.989  1.00  0.00     0.293 HD
ENDBRANCH  14  17
BRANCH  16  19
ATOM     19  O   UNL     1     -32.577  76.394 -24.611  1.00  0.00    -0.504 OA
ATOM     20  H   UNL     1     -32.868  77.125 -23.979  1.00  0.00     0.293 HD
ENDBRANCH  16  19
ENDBRANCH   1  11
BRANCH  10  21
ATOM     21  O   UNL     1     -36.292  73.543 -28.868  1.00  0.00    -0.500 OA
ATOM     22  H   UNL     1     -35.458  73.961 -29.262  1.00  0.00     0.294 HD
ENDBRANCH  10  21
BRANCH   5  23
ATOM     23  O   UNL     1     -41.702  77.123 -24.607  1.00  0.00    -0.507 OA
ATOM     24  H   UNL     1     -41.784  78.124 -24.751  1.00  0.00     0.293 HD
ENDBRANCH   5  23
BRANCH   7  25
ATOM     25  O   UNL     1     -41.421  73.551 -27.826  1.00  0.00    -0.507 OA
ATOM     26  H   UNL     1     -41.830  73.707 -28.737  1.00  0.00     0.293 HD
ENDBRANCH   7  25
TORSDOF 6
ENDMDL
MODEL 5
REMARK VINA RESULT:    -4.761      3.543      6.544
REMARK INTER + INTRA:          -6.034
REMARK INTER:                  -5.711
REMARK INTRA:                  -0.323
REMARK UNBOUND:                -0.299
REMARK SMILES Oc1cc(O)c2cc(O)c(-c3ccc(O)c(O)c3)[o+]c2c1
REMARK SMILES IDX 10 1 19 2 20 3 21 4 2 5 3 6 4 7 6 8 7 9 8 10 11 11 12 12
REMARK SMILES IDX 13 13 14 14 18 15 16 16 15 17 17 19 9 21 1 23 5 25
REMARK H PARENT 15 18 17 20 9 22 1 24 5 26
REMARK Flexibility Score: inf
ROOT
ATOM      1  C   UNL     1     -39.667  76.094 -22.014  1.00  0.00     0.402 A 
ATOM      2  O   UNL     1     -38.811  76.350 -22.999  1.00  0.00    -0.202 OA
ATOM      3  C   UNL     1     -39.172  76.437 -24.275  1.00  0.00     0.368 A 
ATOM      4  C   UNL     1     -38.198  76.712 -25.240  1.00  0.00     0.162 A 
ATOM      5  C   UNL     1     -38.549  76.812 -26.586  1.00  0.00     0.128 A 
ATOM      6  C   UNL     1     -39.881  76.637 -26.974  1.00  0.00     0.093 A 
ATOM      7  C   UNL     1     -40.875  76.360 -26.028  1.00  0.00     0.136 A 
ATOM      8  C   UNL     1     -40.522  76.254 -24.657  1.00  0.00     0.125 A 
ATOM      9  C   UNL     1     -41.449  75.968 -23.641  1.00  0.00     0.078 A 
ATOM     10  C   UNL     1     -41.025  75.874 -22.312  1.00  0.00     0.223 A 
ENDROOT
BRANCH   1  11
ATOM     11  C   UNL     1     -39.144  76.031 -20.630  1.00  0.00     0.087 A 
ATOM     12  C   UNL     1     -39.328  77.125 -19.773  1.00  0.00     0.022 A 
ATOM     13  C   UNL     1     -38.861  77.080 -18.458  1.00  0.00     0.051 A 
ATOM     14  C   UNL     1     -38.216  75.940 -17.968  1.00  0.00     0.157 A 
ATOM     15  C   UNL     1     -38.517  74.874 -20.135  1.00  0.00     0.068 A 
ATOM     16  C   UNL     1     -38.048  74.819 -18.816  1.00  0.00     0.158 A 
BRANCH  14  17
ATOM     17  O   UNL     1     -37.765  75.961 -16.647  1.00  0.00    -0.504 OA
ATOM     18  H   UNL     1     -37.226  76.714 -16.246  1.00  0.00     0.293 HD
ENDBRANCH  14  17
BRANCH  16  19
ATOM     19  O   UNL     1     -37.433  73.639 -18.392  1.00  0.00    -0.504 OA
ATOM     20  H   UNL     1     -37.571  72.741 -18.832  1.00  0.00     0.293 HD
ENDBRANCH  16  19
ENDBRANCH   1  11
BRANCH  10  21
ATOM     21  O   UNL     1     -41.936  75.540 -21.309  1.00  0.00    -0.500 OA
ATOM     22  H   UNL     1     -42.780  75.018 -21.509  1.00  0.00     0.294 HD
ENDBRANCH  10  21
BRANCH   5  23
ATOM     23  O   UNL     1     -37.563  77.087 -27.533  1.00  0.00    -0.507 OA
ATOM     24  H   UNL     1     -37.763  77.063 -28.526  1.00  0.00     0.293 HD
ENDBRANCH   5  23
BRANCH   7  25
ATOM     25  O   UNL     1     -42.183  76.201 -26.495  1.00  0.00    -0.507 OA
ATOM     26  H   UNL     1     -42.517  75.388 -26.994  1.00  0.00     0.293 HD
ENDBRANCH   7  25
TORSDOF 6
ENDMDL
MODEL 6
REMARK VINA RESULT:    -4.564      2.084      3.216
REMARK INTER + INTRA:          -5.797
REMARK INTER:                  -5.697
REMARK INTRA:                  -0.100
REMARK UNBOUND:                -0.299
REMARK SMILES Oc1cc(O)c2cc(O)c(-c3ccc(O)c(O)c3)[o+]c2c1
REMARK SMILES IDX 10 1 19 2 20 3 21 4 2 5 3 6 4 7 6 8 7 9 8 10 11 11 12 12
REMARK SMILES IDX 13 13 14 14 18 15 16 16 15 17 17 19 9 21 1 23 5 25
REMARK H PARENT 15 18 17 20 9 22 1 24 5 26
REMARK Flexibility Score: inf
ROOT
ATOM      1  C   UNL     1     -38.814  76.092 -24.611  1.00  0.00     0.402 A 
ATOM      2  O   UNL     1     -38.515  76.197 -23.319  1.00  0.00    -0.202 OA
ATOM      3  C   UNL     1     -39.418  76.462 -22.380  1.00  0.00     0.368 A 
ATOM      4  C   UNL     1     -39.006  76.551 -21.048  1.00  0.00     0.162 A 
ATOM      5  C   UNL     1     -39.932  76.825 -20.041  1.00  0.00     0.128 A 
ATOM      6  C   UNL     1     -41.280  77.012 -20.366  1.00  0.00     0.093 A 
ATOM      7  C   UNL     1     -41.718  76.929 -21.693  1.00  0.00     0.136 A 
ATOM      8  C   UNL     1     -40.778  76.653 -22.721  1.00  0.00     0.125 A 
ATOM      9  C   UNL     1     -41.124  76.563 -24.079  1.00  0.00     0.078 A 
ATOM     10  C   UNL     1     -40.141  76.292 -25.036  1.00  0.00     0.223 A 
ENDROOT
BRANCH   1  11
ATOM     11  C   UNL     1     -37.721  75.783 -25.561  1.00  0.00     0.087 A 
ATOM     12  C   UNL     1     -36.540  76.537 -25.523  1.00  0.00     0.022 A 
ATOM     13  C   UNL     1     -35.490  76.250 -26.396  1.00  0.00     0.051 A 
ATOM     14  C   UNL     1     -35.589  75.198 -27.312  1.00  0.00     0.157 A 
ATOM     15  C   UNL     1     -37.817  74.710 -26.464  1.00  0.00     0.068 A 
ATOM     16  C   UNL     1     -36.766  74.412 -27.342  1.00  0.00     0.158 A 
BRANCH  14  17
ATOM     17  O   UNL     1     -34.506  74.967 -28.162  1.00  0.00    -0.504 OA
ATOM     18  H   UNL     1     -34.242  74.055 -28.506  1.00  0.00     0.293 HD
ENDBRANCH  14  17
BRANCH  16  19
ATOM     19  O   UNL     1     -36.930  73.334 -28.213  1.00  0.00    -0.504 OA
ATOM     20  H   UNL     1     -36.186  72.708 -28.484  1.00  0.00     0.293 HD
ENDBRANCH  16  19
ENDBRANCH   1  11
BRANCH  10  21
ATOM     21  O   UNL     1     -40.475  76.253 -26.390  1.00  0.00    -0.500 OA
ATOM     22  H   UNL     1     -40.938  75.452 -26.802  1.00  0.00     0.294 HD
ENDBRANCH  10  21
BRANCH   5  23
ATOM     23  O   UNL     1     -39.502  76.910 -18.718  1.00  0.00    -0.507 OA
ATOM     24  H   UNL     1     -39.717  77.716 -18.142  1.00  0.00     0.293 HD
ENDBRANCH   5  23
BRANCH   7  25
ATOM     25  O   UNL     1     -43.080  77.125 -21.935  1.00  0.00    -0.507 OA
ATOM     26  H   UNL     1     -43.822  76.674 -21.419  1.00  0.00     0.293 HD
ENDBRANCH   7  25
TORSDOF 6
ENDMDL
MODEL 7
REMARK VINA RESULT:    -4.100      7.377      8.835
REMARK INTER + INTRA:          -5.237
REMARK INTER:                  -5.185
REMARK INTRA:                  -0.052
REMARK UNBOUND:                -0.299
REMARK SMILES Oc1cc(O)c2cc(O)c(-c3ccc(O)c(O)c3)[o+]c2c1
REMARK SMILES IDX 10 1 19 2 20 3 21 4 2 5 3 6 4 7 6 8 7 9 8 10 11 11 12 12
REMARK SMILES IDX 13 13 14 14 18 15 16 16 15 17 17 19 9 21 1 23 5 25
REMARK H PARENT 15 18 17 20 9 22 1 24 5 26
REMARK Flexibility Score: inf
ROOT
ATOM      1  C   UNL     1     -36.838  72.267 -18.872  1.00  0.00     0.402 A 
ATOM      2  O   UNL     1     -37.888  72.410 -19.676  1.00  0.00    -0.202 OA
ATOM      3  C   UNL     1     -38.536  73.559 -19.832  1.00  0.00     0.368 A 
ATOM      4  C   UNL     1     -39.628  73.611 -20.703  1.00  0.00     0.162 A 
ATOM      5  C   UNL     1     -40.325  74.805 -20.890  1.00  0.00     0.128 A 
ATOM      6  C   UNL     1     -39.930  75.957 -20.201  1.00  0.00     0.093 A 
ATOM      7  C   UNL     1     -38.840  75.932 -19.323  1.00  0.00     0.136 A 
ATOM      8  C   UNL     1     -38.130  74.718 -19.129  1.00  0.00     0.125 A 
ATOM      9  C   UNL     1     -37.033  74.596 -18.260  1.00  0.00     0.078 A 
ATOM     10  C   UNL     1     -36.386  73.365 -18.117  1.00  0.00     0.223 A 
ENDROOT
BRANCH   1  11
ATOM     11  C   UNL     1     -36.194  70.935 -18.790  1.00  0.00     0.087 A 
ATOM     12  C   UNL     1     -36.990  69.792 -18.641  1.00  0.00     0.022 A 
ATOM     13  C   UNL     1     -36.405  68.526 -18.581  1.00  0.00     0.051 A 
ATOM     14  C   UNL     1     -35.018  68.374 -18.685  1.00  0.00     0.157 A 
ATOM     15  C   UNL     1     -34.802  70.787 -18.919  1.00  0.00     0.068 A 
ATOM     16  C   UNL     1     -34.206  69.519 -18.863  1.00  0.00     0.158 A 
BRANCH  14  17
ATOM     17  O   UNL     1     -34.495  67.082 -18.611  1.00  0.00    -0.504 OA
ATOM     18  H   UNL     1     -34.543  66.499 -17.788  1.00  0.00     0.293 HD
ENDBRANCH  14  17
BRANCH  16  19
ATOM     19  O   UNL     1     -32.818  69.446 -18.996  1.00  0.00    -0.504 OA
ATOM     20  H   UNL     1     -32.173  70.074 -18.540  1.00  0.00     0.293 HD
ENDBRANCH  16  19
ENDBRANCH   1  11
BRANCH  10  21
ATOM     21  O   UNL     1     -35.329  73.230 -17.216  1.00  0.00    -0.500 OA
ATOM     22  H   UNL     1     -34.578  73.909 -17.171  1.00  0.00     0.294 HD
ENDBRANCH  10  21
BRANCH   5  23
ATOM     23  O   UNL     1     -41.411  74.836 -21.762  1.00  0.00    -0.507 OA
ATOM     24  H   UNL     1     -41.828  75.712 -22.057  1.00  0.00     0.293 HD
ENDBRANCH   5  23
BRANCH   7  25
ATOM     25  O   UNL     1     -38.506  77.125 -18.676  1.00  0.00    -0.507 OA
ATOM     26  H   UNL     1     -37.797  77.208 -17.962  1.00  0.00     0.293 HD
ENDBRANCH   7  25
TORSDOF 6
ENDMDL
MODEL 8
REMARK VINA RESULT:    -3.227     16.472     18.984
REMARK INTER + INTRA:          -4.186
REMARK INTER:                  -4.616
REMARK INTRA:                   0.430
REMARK UNBOUND:                -0.299
REMARK SMILES Oc1cc(O)c2cc(O)c(-c3ccc(O)c(O)c3)[o+]c2c1
REMARK SMILES IDX 10 1 19 2 20 3 21 4 2 5 3 6 4 7 6 8 7 9 8 10 11 11 12 12
REMARK SMILES IDX 13 13 14 14 18 15 16 16 15 17 17 19 9 21 1 23 5 25
REMARK H PARENT 15 18 17 20 9 22 1 24 5 26
REMARK Flexibility Score: inf
ROOT
ATOM      1  C   UNL     1     -41.835  68.733  -9.633  1.00  0.00     0.402 A 
ATOM      2  O   UNL     1     -40.599  69.106  -9.956  1.00  0.00    -0.202 OA
ATOM      3  C   UNL     1     -40.209  70.375 -10.003  1.00  0.00     0.368 A 
ATOM      4  C   UNL     1     -38.888  70.668 -10.352  1.00  0.00     0.162 A 
ATOM      5  C   UNL     1     -38.449  71.991 -10.406  1.00  0.00     0.128 A 
ATOM      6  C   UNL     1     -39.336  73.032 -10.109  1.00  0.00     0.093 A 
ATOM      7  C   UNL     1     -40.665  72.766  -9.758  1.00  0.00     0.136 A 
ATOM      8  C   UNL     1     -41.116  71.420  -9.705  1.00  0.00     0.125 A 
ATOM      9  C   UNL     1     -42.432  71.060  -9.374  1.00  0.00     0.078 A 
ATOM     10  C   UNL     1     -42.804  69.713  -9.347  1.00  0.00     0.223 A 
ENDROOT
BRANCH   1  11
ATOM     11  C   UNL     1     -42.146  67.285  -9.607  1.00  0.00     0.087 A 
ATOM     12  C   UNL     1     -43.483  66.866  -9.623  1.00  0.00     0.022 A 
ATOM     13  C   UNL     1     -43.798  65.507  -9.618  1.00  0.00     0.051 A 
ATOM     14  C   UNL     1     -42.788  64.539  -9.613  1.00  0.00     0.157 A 
ATOM     15  C   UNL     1     -41.127  66.317  -9.625  1.00  0.00     0.068 A 
ATOM     16  C   UNL     1     -41.434  64.950  -9.623  1.00  0.00     0.158 A 
BRANCH  14  17
ATOM     17  O   UNL     1     -43.169  63.196  -9.601  1.00  0.00    -0.504 OA
ATOM     18  H   UNL     1     -44.037  62.852  -9.985  1.00  0.00     0.293 HD
ENDBRANCH  14  17
BRANCH  16  19
ATOM     19  O   UNL     1     -40.371  64.044  -9.639  1.00  0.00    -0.504 OA
ATOM     20  H   UNL     1     -39.894  63.719  -8.811  1.00  0.00     0.293 HD
ENDBRANCH  16  19
ENDBRANCH   1  11
BRANCH  10  21
ATOM     21  O   UNL     1     -44.124  69.356  -9.068  1.00  0.00    -0.500 OA
ATOM     22  H   UNL     1     -44.496  69.385  -8.126  1.00  0.00     0.294 HD
ENDBRANCH  10  21
BRANCH   5  23
ATOM     23  O   UNL     1     -37.128  72.262 -10.756  1.00  0.00    -0.507 OA
ATOM     24  H   UNL     1     -36.833  72.293 -11.725  1.00  0.00     0.293 HD
ENDBRANCH   5  23
BRANCH   7  25
ATOM     25  O   UNL     1     -41.487  73.859  -9.473  1.00  0.00    -0.507 OA
ATOM     26  H   UNL     1     -41.522  74.330  -8.580  1.00  0.00     0.293 HD
ENDBRANCH   7  25
TORSDOF 6
ENDMDL
