MODEL 1
REMARK VINA RESULT:    -4.246      0.000      0.000
REMARK INTER + INTRA:          -7.661
REMARK INTER:                  -6.729
REMARK INTRA:                  -0.932
REMARK UNBOUND:                -0.932
REMARK SMILES CCCCCCCCCCCC(=O)[O-]
REMARK SMILES IDX 7 1 8 2 9 3 10 4 11 5 12 6 13 7 14 8 6 9 5 10 4 11 3 12 2 13
REMARK SMILES IDX 1 14
REMARK H PARENT
REMARK Flexibility Score: inf
ROOT
ATOM      1  C   UNL     1     -20.745  11.184  18.290  1.00  0.00     0.000 C 
ENDROOT
BRANCH   1   2
ATOM      2  C   UNL     1     -20.842   9.671  18.023  1.00  0.00     0.000 C 
BRANCH   2   3
ATOM      3  C   UNL     1     -19.516   9.062  17.539  1.00  0.00     0.000 C 
BRANCH   3   4
ATOM      4  C   UNL     1     -19.048   7.895  18.422  1.00  0.00     0.006 C 
BRANCH   4   5
ATOM      5  C   UNL     1     -17.527   7.889  18.633  1.00  0.00     0.053 C 
BRANCH   5   6
ATOM      6  C   UNL     1     -17.057   6.519  19.006  1.00  0.00     0.041 C 
ATOM      7  O   UNL     1     -16.414   5.822  18.177  1.00  0.00    -0.550 OA
ATOM      8  O   UNL     1     -17.372   5.990  20.251  1.00  0.00    -0.550 OA
ENDBRANCH   5   6
ENDBRANCH   4   5
ENDBRANCH   3   4
ENDBRANCH   2   3
ENDBRANCH   1   2
BRANCH   1   9
ATOM      9  C   UNL     1     -19.332  11.698  18.637  1.00  0.00     0.000 C 
BRANCH   9  10
ATOM     10  C   UNL     1     -18.904  12.983  17.906  1.00  0.00    -0.000 C 
BRANCH  10  11
ATOM     11  C   UNL     1     -19.439  13.063  16.466  1.00  0.00    -0.000 C 
BRANCH  11  12
ATOM     12  C   UNL     1     -18.339  12.808  15.415  1.00  0.00    -0.000 C 
BRANCH  12  13
ATOM     13  C   UNL     1     -18.790  11.913  14.247  1.00  0.00    -0.003 C 
ATOM     14  C   UNL     1     -18.408  10.446  14.429  1.00  0.00     0.004 C 
ENDBRANCH  12  13
ENDBRANCH  11  12
ENDBRANCH  10  11
ENDBRANCH   9  10
ENDBRANCH   1   9
TORSDOF 10
ENDMDL
MODEL 2
REMARK VINA RESULT:    -4.212      2.963      5.364
REMARK INTER + INTRA:          -7.606
REMARK INTER:                  -6.509
REMARK INTRA:                  -1.097
REMARK UNBOUND:                -0.932
REMARK SMILES CCCCCCCCCCCC(=O)[O-]
REMARK SMILES IDX 7 1 8 2 9 3 10 4 11 5 12 6 13 7 14 8 6 9 5 10 4 11 3 12 2 13
REMARK SMILES IDX 1 14
REMARK H PARENT
REMARK Flexibility Score: inf
ROOT
ATOM      1  C   UNL     1     -19.403  13.262  17.332  1.00  0.00     0.000 C 
ENDROOT
BRANCH   1   2
ATOM      2  C   UNL     1     -18.395  13.252  16.169  1.00  0.00     0.000 C 
BRANCH   2   3
ATOM      3  C   UNL     1     -19.073  13.193  14.790  1.00  0.00     0.000 C 
BRANCH   3   4
ATOM      4  C   UNL     1     -19.992  11.970  14.640  1.00  0.00     0.006 C 
BRANCH   4   5
ATOM      5  C   UNL     1     -19.208  10.662  14.468  1.00  0.00     0.053 C 
BRANCH   5   6
ATOM      6  C   UNL     1     -18.295  10.751  13.287  1.00  0.00     0.041 C 
ATOM      7  O   UNL     1     -18.769  10.830  12.123  1.00  0.00    -0.550 OA
ATOM      8  O   UNL     1     -16.918  10.698  13.467  1.00  0.00    -0.550 OA
ENDBRANCH   5   6
ENDBRANCH   4   5
ENDBRANCH   3   4
ENDBRANCH   2   3
ENDBRANCH   1   2
BRANCH   1   9
ATOM      9  C   UNL     1     -19.107  12.257  18.464  1.00  0.00     0.000 C 
BRANCH   9  10
ATOM     10  C   UNL     1     -20.284  11.345  18.856  1.00  0.00    -0.000 C 
BRANCH  10  11
ATOM     11  C   UNL     1     -20.387  10.086  17.977  1.00  0.00    -0.000 C 
BRANCH  11  12
ATOM     12  C   UNL     1     -19.059   9.304  17.914  1.00  0.00    -0.000 C 
BRANCH  12  13
ATOM     13  C   UNL     1     -19.193   7.819  18.294  1.00  0.00    -0.003 C 
ATOM     14  C   UNL     1     -17.945   7.254  18.970  1.00  0.00     0.004 C 
ENDBRANCH  12  13
ENDBRANCH  11  12
ENDBRANCH  10  11
ENDBRANCH   9  10
ENDBRANCH   1   9
TORSDOF 10
ENDMDL
MODEL 3
REMARK VINA RESULT:    -4.148      3.646      5.610
REMARK INTER + INTRA:          -7.504
REMARK INTER:                  -6.373
REMARK INTRA:                  -1.131
REMARK UNBOUND:                -0.932
REMARK SMILES CCCCCCCCCCCC(=O)[O-]
REMARK SMILES IDX 7 1 8 2 9 3 10 4 11 5 12 6 13 7 14 8 6 9 5 10 4 11 3 12 2 13
REMARK SMILES IDX 1 14
REMARK H PARENT
REMARK Flexibility Score: inf
ROOT
ATOM      1  C   UNL     1     -19.833  13.690  16.978  1.00  0.00     0.000 C 
ENDROOT
BRANCH   1   2
ATOM      2  C   UNL     1     -19.360  13.634  15.514  1.00  0.00     0.000 C 
BRANCH   2   3
ATOM      3  C   UNL     1     -17.938  13.066  15.367  1.00  0.00     0.000 C 
BRANCH   3   4
ATOM      4  C   UNL     1     -17.875  11.891  14.378  1.00  0.00     0.006 C 
BRANCH   4   5
ATOM      5  C   UNL     1     -19.267  11.367  13.997  1.00  0.00     0.053 C 
BRANCH   5   6
ATOM      6  C   UNL     1     -19.180  10.475  12.800  1.00  0.00     0.041 C 
ATOM      7  O   UNL     1     -20.010   9.542  12.642  1.00  0.00    -0.550 OA
ATOM      8  O   UNL     1     -18.150  10.642  11.882  1.00  0.00    -0.550 OA
ENDBRANCH   5   6
ENDBRANCH   4   5
ENDBRANCH   3   4
ENDBRANCH   2   3
ENDBRANCH   1   2
BRANCH   1   9
ATOM      9  C   UNL     1     -18.860  13.076  18.005  1.00  0.00     0.000 C 
BRANCH   9  10
ATOM     10  C   UNL     1     -19.418  11.887  18.808  1.00  0.00    -0.000 C 
BRANCH  10  11
ATOM     11  C   UNL     1     -19.538  10.600  17.973  1.00  0.00    -0.000 C 
BRANCH  11  12
ATOM     12  C   UNL     1     -21.006  10.177  17.753  1.00  0.00    -0.000 C 
BRANCH  12  13
ATOM     13  C   UNL     1     -22.030  11.130  18.391  1.00  0.00    -0.003 C 
ATOM     14  C   UNL     1     -23.120  10.406  19.179  1.00  0.00     0.004 C 
ENDBRANCH  12  13
ENDBRANCH  11  12
ENDBRANCH  10  11
ENDBRANCH   9  10
ENDBRANCH   1   9
TORSDOF 10
ENDMDL
MODEL 4
REMARK VINA RESULT:    -4.127      1.065      2.067
REMARK INTER + INTRA:          -7.472
REMARK INTER:                  -6.598
REMARK INTRA:                  -0.874
REMARK UNBOUND:                -0.932
REMARK SMILES CCCCCCCCCCCC(=O)[O-]
REMARK SMILES IDX 7 1 8 2 9 3 10 4 11 5 12 6 13 7 14 8 6 9 5 10 4 11 3 12 2 13
REMARK SMILES IDX 1 14
REMARK H PARENT
REMARK Flexibility Score: inf
ROOT
ATOM      1  C   UNL     1     -19.919  12.661  17.605  1.00  0.00     0.000 C 
ENDROOT
BRANCH   1   2
ATOM      2  C   UNL     1     -19.611  11.616  18.692  1.00  0.00     0.000 C 
BRANCH   2   3
ATOM      3  C   UNL     1     -20.095  10.205  18.319  1.00  0.00     0.000 C 
BRANCH   3   4
ATOM      4  C   UNL     1     -18.945   9.290  17.868  1.00  0.00     0.006 C 
BRANCH   4   5
ATOM      5  C   UNL     1     -19.218   7.810  18.171  1.00  0.00     0.053 C 
BRANCH   5   6
ATOM      6  C   UNL     1     -18.074   7.212  18.926  1.00  0.00     0.041 C 
ATOM      7  O   UNL     1     -18.213   6.885  20.134  1.00  0.00    -0.550 OA
ATOM      8  O   UNL     1     -16.837   7.062  18.312  1.00  0.00    -0.550 OA
ENDBRANCH   5   6
ENDBRANCH   4   5
ENDBRANCH   3   4
ENDBRANCH   2   3
ENDBRANCH   1   2
BRANCH   1   9
ATOM      9  C   UNL     1     -18.683  13.333  16.973  1.00  0.00     0.000 C 
BRANCH   9  10
ATOM     10  C   UNL     1     -18.355  12.887  15.537  1.00  0.00    -0.000 C 
BRANCH  10  11
ATOM     11  C   UNL     1     -19.566  12.280  14.805  1.00  0.00    -0.000 C 
BRANCH  11  12
ATOM     12  C   UNL     1     -19.353  10.794  14.448  1.00  0.00    -0.000 C 
BRANCH  12  13
ATOM     13  C   UNL     1     -18.898  10.562  12.997  1.00  0.00    -0.003 C 
ATOM     14  C   UNL     1     -17.382  10.608  12.825  1.00  0.00     0.004 C 
ENDBRANCH  12  13
ENDBRANCH  11  12
ENDBRANCH  10  11
ENDBRANCH   9  10
ENDBRANCH   1   9
TORSDOF 10
ENDMDL
MODEL 5
REMARK VINA RESULT:    -4.096      4.447      6.361
REMARK INTER + INTRA:          -7.423
REMARK INTER:                  -6.087
REMARK INTRA:                  -1.337
REMARK UNBOUND:                -0.932
REMARK SMILES CCCCCCCCCCCC(=O)[O-]
REMARK SMILES IDX 7 1 8 2 9 3 10 4 11 5 12 6 13 7 14 8 6 9 5 10 4 11 3 12 2 13
REMARK SMILES IDX 1 14
REMARK H PARENT
REMARK Flexibility Score: inf
ROOT
ATOM      1  C   UNL     1     -19.074  12.283  18.721  1.00  0.00     0.000 C 
ENDROOT
BRANCH   1   2
ATOM      2  C   UNL     1     -18.866  13.207  17.507  1.00  0.00     0.000 C 
BRANCH   2   3
ATOM      3  C   UNL     1     -20.185  13.591  16.816  1.00  0.00     0.000 C 
BRANCH   3   4
ATOM      4  C   UNL     1     -20.043  14.842  15.934  1.00  0.00     0.006 C 
BRANCH   4   5
ATOM      5  C   UNL     1     -18.779  14.807  15.064  1.00  0.00     0.053 C 
BRANCH   5   6
ATOM      6  C   UNL     1     -19.131  15.001  13.623  1.00  0.00     0.041 C 
ATOM      7  O   UNL     1     -19.895  14.186  13.042  1.00  0.00    -0.550 OA
ATOM      8  O   UNL     1     -18.575  16.053  12.906  1.00  0.00    -0.550 OA
ENDBRANCH   5   6
ENDBRANCH   4   5
ENDBRANCH   3   4
ENDBRANCH   2   3
ENDBRANCH   1   2
BRANCH   1   9
ATOM      9  C   UNL     1     -20.129  11.175  18.528  1.00  0.00     0.000 C 
BRANCH   9  10
ATOM     10  C   UNL     1     -19.612   9.885  17.865  1.00  0.00    -0.000 C 
BRANCH  10  11
ATOM     11  C   UNL     1     -20.197   9.654  16.461  1.00  0.00    -0.000 C 
BRANCH  11  12
ATOM     12  C   UNL     1     -19.116   9.686  15.360  1.00  0.00    -0.000 C 
BRANCH  12  13
ATOM     13  C   UNL     1     -19.126  10.973  14.517  1.00  0.00    -0.003 C 
ATOM     14  C   UNL     1     -17.731  11.430  14.097  1.00  0.00     0.004 C 
ENDBRANCH  12  13
ENDBRANCH  11  12
ENDBRANCH  10  11
ENDBRANCH   9  10
ENDBRANCH   1   9
TORSDOF 10
ENDMDL
MODEL 6
REMARK VINA RESULT:    -3.989      3.650      4.946
REMARK INTER + INTRA:          -7.253
REMARK INTER:                  -5.896
REMARK INTRA:                  -1.357
REMARK UNBOUND:                -0.932
REMARK SMILES CCCCCCCCCCCC(=O)[O-]
REMARK SMILES IDX 7 1 8 2 9 3 10 4 11 5 12 6 13 7 14 8 6 9 5 10 4 11 3 12 2 13
REMARK SMILES IDX 1 14
REMARK H PARENT
REMARK Flexibility Score: inf
ROOT
ATOM      1  C   UNL     1     -20.343   9.765  18.022  1.00  0.00     0.000 C 
ENDROOT
BRANCH   1   2
ATOM      2  C   UNL     1     -19.154   9.270  17.181  1.00  0.00     0.000 C 
BRANCH   2   3
ATOM      3  C   UNL     1     -18.951  10.085  15.893  1.00  0.00     0.000 C 
BRANCH   3   4
ATOM      4  C   UNL     1     -19.853   9.604  14.745  1.00  0.00     0.006 C 
BRANCH   4   5
ATOM      5  C   UNL     1     -20.739  10.725  14.183  1.00  0.00     0.053 C 
BRANCH   5   6
ATOM      6  C   UNL     1     -20.220  11.188  12.859  1.00  0.00     0.041 C 
ATOM      7  O   UNL     1     -19.050  10.891  12.498  1.00  0.00    -0.550 OA
ATOM      8  O   UNL     1     -21.008  11.990  12.044  1.00  0.00    -0.550 OA
ENDBRANCH   5   6
ENDBRANCH   4   5
ENDBRANCH   3   4
ENDBRANCH   2   3
ENDBRANCH   1   2
BRANCH   1   9
ATOM      9  C   UNL     1     -20.491  11.298  18.108  1.00  0.00     0.000 C 
BRANCH   9  10
ATOM     10  C   UNL     1     -19.279  12.042  18.698  1.00  0.00    -0.000 C 
BRANCH  10  11
ATOM     11  C   UNL     1     -18.886  13.289  17.886  1.00  0.00    -0.000 C 
BRANCH  11  12
ATOM     12  C   UNL     1     -19.905  13.611  16.773  1.00  0.00    -0.000 C 
BRANCH  12  13
ATOM     13  C   UNL     1     -19.269  13.810  15.387  1.00  0.00    -0.003 C 
ATOM     14  C   UNL     1     -17.786  13.449  15.346  1.00  0.00     0.004 C 
ENDBRANCH  12  13
ENDBRANCH  11  12
ENDBRANCH  10  11
ENDBRANCH   9  10
ENDBRANCH   1   9
TORSDOF 10
ENDMDL
MODEL 7
REMARK VINA RESULT:    -3.949      3.751      5.109
REMARK INTER + INTRA:          -7.190
REMARK INTER:                  -6.299
REMARK INTRA:                  -0.891
REMARK UNBOUND:                -0.932
REMARK SMILES CCCCCCCCCCCC(=O)[O-]
REMARK SMILES IDX 7 1 8 2 9 3 10 4 11 5 12 6 13 7 14 8 6 9 5 10 4 11 3 12 2 13
REMARK SMILES IDX 1 14
REMARK H PARENT
REMARK Flexibility Score: inf
ROOT
ATOM      1  C   UNL     1     -19.504  11.366  18.522  1.00  0.00     0.000 C 
ENDROOT
BRANCH   1   2
ATOM      2  C   UNL     1     -20.218  10.405  17.555  1.00  0.00     0.000 C 
BRANCH   2   3
ATOM      3  C   UNL     1     -19.244   9.656  16.629  1.00  0.00     0.000 C 
BRANCH   3   4
ATOM      4  C   UNL     1     -19.465   9.995  15.147  1.00  0.00     0.006 C 
BRANCH   4   5
ATOM      5  C   UNL     1     -18.222  10.616  14.494  1.00  0.00     0.053 C 
BRANCH   5   6
ATOM      6  C   UNL     1     -18.514  11.006  13.080  1.00  0.00     0.041 C 
ATOM      7  O   UNL     1     -17.699  10.723  12.163  1.00  0.00    -0.550 OA
ATOM      8  O   UNL     1     -19.663  11.727  12.780  1.00  0.00    -0.550 OA
ENDBRANCH   5   6
ENDBRANCH   4   5
ENDBRANCH   3   4
ENDBRANCH   2   3
ENDBRANCH   1   2
BRANCH   1   9
ATOM      9  C   UNL     1     -19.126  12.737  17.925  1.00  0.00     0.000 C 
BRANCH   9  10
ATOM     10  C   UNL     1     -20.176  13.354  16.983  1.00  0.00    -0.000 C 
BRANCH  10  11
ATOM     11  C   UNL     1     -19.550  14.142  15.819  1.00  0.00    -0.000 C 
BRANCH  11  12
ATOM     12  C   UNL     1     -19.670  15.668  16.010  1.00  0.00    -0.000 C 
BRANCH  12  13
ATOM     13  C   UNL     1     -20.255  16.080  17.372  1.00  0.00    -0.003 C 
ATOM     14  C   UNL     1     -19.740  17.429  17.867  1.00  0.00     0.004 C 
ENDBRANCH  12  13
ENDBRANCH  11  12
ENDBRANCH  10  11
ENDBRANCH   9  10
ENDBRANCH   1   9
TORSDOF 10
ENDMDL
MODEL 8
REMARK VINA RESULT:    -3.939      1.306      3.034
REMARK INTER + INTRA:          -7.174
REMARK INTER:                  -6.190
REMARK INTRA:                  -0.984
REMARK UNBOUND:                -0.932
REMARK SMILES CCCCCCCCCCCC(=O)[O-]
REMARK SMILES IDX 7 1 8 2 9 3 10 4 11 5 12 6 13 7 14 8 6 9 5 10 4 11 3 12 2 13
REMARK SMILES IDX 1 14
REMARK H PARENT
REMARK Flexibility Score: inf
ROOT
ATOM      1  C   UNL     1     -19.448  10.059  14.287  1.00  0.00     0.000 C 
ENDROOT
BRANCH   1   2
ATOM      2  C   UNL     1     -19.075   9.454  15.652  1.00  0.00     0.000 C 
BRANCH   2   3
ATOM      3  C   UNL     1     -19.915  10.024  16.808  1.00  0.00     0.000 C 
BRANCH   3   4
ATOM      4  C   UNL     1     -19.490   9.463  18.175  1.00  0.00     0.006 C 
BRANCH   4   5
ATOM      5  C   UNL     1     -19.352   7.934  18.166  1.00  0.00     0.053 C 
BRANCH   5   6
ATOM      6  C   UNL     1     -18.083   7.520  18.839  1.00  0.00     0.041 C 
ATOM      7  O   UNL     1     -16.970   7.777  18.307  1.00  0.00    -0.550 OA
ATOM      8  O   UNL     1     -18.127   6.806  20.030  1.00  0.00    -0.550 OA
ENDBRANCH   5   6
ENDBRANCH   4   5
ENDBRANCH   3   4
ENDBRANCH   2   3
ENDBRANCH   1   2
BRANCH   1   9
ATOM      9  C   UNL     1     -18.611  11.283  13.863  1.00  0.00     0.000 C 
BRANCH   9  10
ATOM     10  C   UNL     1     -19.394  12.604  13.746  1.00  0.00    -0.000 C 
BRANCH  10  11
ATOM     11  C   UNL     1     -18.780  13.741  14.582  1.00  0.00    -0.000 C 
BRANCH  11  12
ATOM     12  C   UNL     1     -18.221  13.244  15.932  1.00  0.00    -0.000 C 
BRANCH  12  13
ATOM     13  C   UNL     1     -19.150  13.516  17.127  1.00  0.00    -0.003 C 
ATOM     14  C   UNL     1     -19.827  14.883  17.067  1.00  0.00     0.004 C 
ENDBRANCH  12  13
ENDBRANCH  11  12
ENDBRANCH  10  11
ENDBRANCH   9  10
ENDBRANCH   1   9
TORSDOF 10
ENDMDL
MODEL 9
REMARK VINA RESULT:    -3.890      3.880      5.901
REMARK INTER + INTRA:          -7.096
REMARK INTER:                  -5.644
REMARK INTRA:                  -1.452
REMARK UNBOUND:                -0.932
REMARK SMILES CCCCCCCCCCCC(=O)[O-]
REMARK SMILES IDX 7 1 8 2 9 3 10 4 11 5 12 6 13 7 14 8 6 9 5 10 4 11 3 12 2 13
REMARK SMILES IDX 1 14
REMARK H PARENT
REMARK Flexibility Score: inf
ROOT
ATOM      1  C   UNL     1     -21.597  12.613  16.428  1.00  0.00     0.000 C 
ENDROOT
BRANCH   1   2
ATOM      2  C   UNL     1     -21.116  14.058  16.650  1.00  0.00     0.000 C 
BRANCH   2   3
ATOM      3  C   UNL     1     -19.629  14.141  17.033  1.00  0.00     0.000 C 
BRANCH   3   4
ATOM      4  C   UNL     1     -18.762  13.152  16.237  1.00  0.00     0.006 C 
BRANCH   4   5
ATOM      5  C   UNL     1     -18.127  13.794  14.995  1.00  0.00     0.053 C 
BRANCH   5   6
ATOM      6  C   UNL     1     -18.993  13.579  13.795  1.00  0.00     0.041 C 
ATOM      7  O   UNL     1     -19.526  14.560  13.213  1.00  0.00    -0.550 OA
ATOM      8  O   UNL     1     -19.254  12.289  13.347  1.00  0.00    -0.550 OA
ENDBRANCH   5   6
ENDBRANCH   4   5
ENDBRANCH   3   4
ENDBRANCH   2   3
ENDBRANCH   1   2
BRANCH   1   9
ATOM      9  C   UNL     1     -22.443  12.021  17.574  1.00  0.00     0.000 C 
BRANCH   9  10
ATOM     10  C   UNL     1     -21.861  10.759  18.236  1.00  0.00    -0.000 C 
BRANCH  10  11
ATOM     11  C   UNL     1     -20.422  10.958  18.745  1.00  0.00    -0.000 C 
BRANCH  11  12
ATOM     12  C   UNL     1     -19.423   9.990  18.077  1.00  0.00    -0.000 C 
BRANCH  12  13
ATOM     13  C   UNL     1     -20.023   9.183  16.913  1.00  0.00    -0.003 C 
ATOM     14  C   UNL     1     -19.473   9.590  15.548  1.00  0.00     0.004 C 
ENDBRANCH  12  13
ENDBRANCH  11  12
ENDBRANCH  10  11
ENDBRANCH   9  10
ENDBRANCH   1   9
TORSDOF 10
ENDMDL
