MODEL 1
REMARK VINA RESULT:    -6.200      0.000      0.000
REMARK INTER + INTRA:         -13.471
REMARK INTER:                 -12.000
REMARK INTRA:                  -1.471
REMARK UNBOUND:                -1.471
REMARK SMILES CCCCCCCCCCCCCCCCCC(=O)[O-]
REMARK SMILES IDX 10 1 11 2 12 3 13 4 14 5 15 6 16 7 17 8 18 9 19 10 20 11
REMARK SMILES IDX 9 12 8 13 7 14 6 15 5 16 4 17 3 18 2 19 1 20
REMARK H PARENT
REMARK Flexibility Score: inf
ROOT
ATOM      1  C   UNL     1     -13.637  -9.300  -7.145  1.00  0.00     0.000 C 
ENDROOT
BRANCH   1   2
ATOM      2  C   UNL     1     -12.428  -9.994  -6.496  1.00  0.00     0.000 C 
BRANCH   2   3
ATOM      3  C   UNL     1     -12.840 -11.004  -5.414  1.00  0.00     0.000 C 
BRANCH   3   4
ATOM      4  C   UNL     1     -11.634 -11.551  -4.628  1.00  0.00     0.000 C 
BRANCH   4   5
ATOM      5  C   UNL     1     -11.951 -11.784  -3.142  1.00  0.00     0.000 C 
BRANCH   5   6
ATOM      6  C   UNL     1     -10.842 -12.568  -2.420  1.00  0.00     0.000 C 
BRANCH   6   7
ATOM      7  C   UNL     1     -10.782 -12.262  -0.912  1.00  0.00     0.006 C 
BRANCH   7   8
ATOM      8  C   UNL     1      -9.905 -13.230  -0.100  1.00  0.00     0.053 C 
BRANCH   8   9
ATOM      9  C   UNL     1      -8.577 -13.466  -0.751  1.00  0.00     0.041 C 
ATOM     10  O   UNL     1      -7.710 -12.553  -0.774  1.00  0.00    -0.550 OA
ATOM     11  O   UNL     1      -8.310 -14.683  -1.364  1.00  0.00    -0.550 OA
ENDBRANCH   8   9
ENDBRANCH   7   8
ENDBRANCH   6   7
ENDBRANCH   5   6
ENDBRANCH   4   5
ENDBRANCH   3   4
ENDBRANCH   2   3
ENDBRANCH   1   2
BRANCH   1  12
ATOM     12  C   UNL     1     -14.982  -9.841  -6.629  1.00  0.00     0.000 C 
BRANCH  12  13
ATOM     13  C   UNL     1     -16.049  -8.745  -6.424  1.00  0.00    -0.000 C 
BRANCH  13  14
ATOM     14  C   UNL     1     -17.217  -8.879  -7.417  1.00  0.00    -0.000 C 
BRANCH  14  15
ATOM     15  C   UNL     1     -16.970  -8.117  -8.728  1.00  0.00    -0.000 C 
BRANCH  15  16
ATOM     16  C   UNL     1     -16.527  -9.042  -9.875  1.00  0.00    -0.000 C 
BRANCH  16  17
ATOM     17  C   UNL     1     -17.344 -10.341  -9.936  1.00  0.00    -0.000 C 
BRANCH  17  18
ATOM     18  C   UNL     1     -16.575 -11.493 -10.599  1.00  0.00    -0.000 C 
BRANCH  18  19
ATOM     19  C   UNL     1     -15.090 -11.448 -10.224  1.00  0.00    -0.003 C 
ATOM     20  C   UNL     1     -14.776 -12.431  -9.098  1.00  0.00     0.004 C 
ENDBRANCH  18  19
ENDBRANCH  17  18
ENDBRANCH  16  17
ENDBRANCH  15  16
ENDBRANCH  14  15
ENDBRANCH  13  14
ENDBRANCH  12  13
ENDBRANCH   1  12
TORSDOF 16
ENDMDL
MODEL 2
REMARK VINA RESULT:    -6.151      0.972      1.541
REMARK INTER + INTRA:         -13.375
REMARK INTER:                 -11.570
REMARK INTRA:                  -1.806
REMARK UNBOUND:                -1.471
REMARK SMILES CCCCCCCCCCCCCCCCCC(=O)[O-]
REMARK SMILES IDX 10 1 11 2 12 3 13 4 14 5 15 6 16 7 17 8 18 9 19 10 20 11
REMARK SMILES IDX 9 12 8 13 7 14 6 15 5 16 4 17 3 18 2 19 1 20
REMARK H PARENT
REMARK Flexibility Score: inf
ROOT
ATOM      1  C   UNL     1     -15.112  -8.895  -6.808  1.00  0.00     0.000 C 
ENDROOT
BRANCH   1   2
ATOM      2  C   UNL     1     -13.766  -9.549  -7.166  1.00  0.00     0.000 C 
BRANCH   2   3
ATOM      3  C   UNL     1     -13.442 -10.755  -6.270  1.00  0.00     0.000 C 
BRANCH   3   4
ATOM      4  C   UNL     1     -12.256 -10.485  -5.325  1.00  0.00     0.000 C 
BRANCH   4   5
ATOM      5  C   UNL     1     -11.789 -11.748  -4.585  1.00  0.00     0.000 C 
BRANCH   5   6
ATOM      6  C   UNL     1     -12.132 -11.713  -3.086  1.00  0.00     0.000 C 
BRANCH   6   7
ATOM      7  C   UNL     1     -11.075 -12.418  -2.216  1.00  0.00     0.006 C 
BRANCH   7   8
ATOM      8  C   UNL     1     -10.834 -11.760  -0.847  1.00  0.00     0.053 C 
BRANCH   8   9
ATOM      9  C   UNL     1      -9.695 -12.396  -0.110  1.00  0.00     0.041 C 
ATOM     10  O   UNL     1      -8.565 -11.842  -0.091  1.00  0.00    -0.550 OA
ATOM     11  O   UNL     1      -9.874 -13.617   0.525  1.00  0.00    -0.550 OA
ENDBRANCH   8   9
ENDBRANCH   7   8
ENDBRANCH   6   7
ENDBRANCH   5   6
ENDBRANCH   4   5
ENDBRANCH   3   4
ENDBRANCH   2   3
ENDBRANCH   1   2
BRANCH   1  12
ATOM     12  C   UNL     1     -16.258  -9.915  -6.696  1.00  0.00     0.000 C 
BRANCH  12  13
ATOM     13  C   UNL     1     -17.538  -9.489  -7.446  1.00  0.00    -0.000 C 
BRANCH  13  14
ATOM     14  C   UNL     1     -17.268  -8.371  -8.468  1.00  0.00    -0.000 C 
BRANCH  14  15
ATOM     15  C   UNL     1     -16.824  -8.914  -9.835  1.00  0.00    -0.000 C 
BRANCH  15  16
ATOM     16  C   UNL     1     -17.607 -10.170 -10.255  1.00  0.00    -0.000 C 
BRANCH  16  17
ATOM     17  C   UNL     1     -16.721 -11.423 -10.324  1.00  0.00    -0.000 C 
BRANCH  17  18
ATOM     18  C   UNL     1     -15.225 -11.097 -10.210  1.00  0.00    -0.000 C 
BRANCH  18  19
ATOM     19  C   UNL     1     -14.447 -12.285  -9.633  1.00  0.00    -0.003 C 
ATOM     20  C   UNL     1     -15.252 -12.997  -8.549  1.00  0.00     0.004 C 
ENDBRANCH  18  19
ENDBRANCH  17  18
ENDBRANCH  16  17
ENDBRANCH  15  16
ENDBRANCH  14  15
ENDBRANCH  13  14
ENDBRANCH  12  13
ENDBRANCH   1  12
TORSDOF 16
ENDMDL
MODEL 3
REMARK VINA RESULT:    -6.065      0.889      2.534
REMARK INTER + INTRA:         -13.210
REMARK INTER:                 -11.722
REMARK INTRA:                  -1.488
REMARK UNBOUND:                -1.471
REMARK SMILES CCCCCCCCCCCCCCCCCC(=O)[O-]
REMARK SMILES IDX 10 1 11 2 12 3 13 4 14 5 15 6 16 7 17 8 18 9 19 10 20 11
REMARK SMILES IDX 9 12 8 13 7 14 6 15 5 16 4 17 3 18 2 19 1 20
REMARK H PARENT
REMARK Flexibility Score: inf
ROOT
ATOM      1  C   UNL     1     -13.909 -10.343  -6.402  1.00  0.00     0.000 C 
ENDROOT
BRANCH   1   2
ATOM      2  C   UNL     1     -12.509 -10.253  -5.773  1.00  0.00     0.000 C 
BRANCH   2   3
ATOM      3  C   UNL     1     -12.125 -11.529  -5.007  1.00  0.00     0.000 C 
BRANCH   3   4
ATOM      4  C   UNL     1     -12.104 -11.318  -3.483  1.00  0.00     0.000 C 
BRANCH   4   5
ATOM      5  C   UNL     1     -11.361 -12.440  -2.739  1.00  0.00     0.000 C 
BRANCH   5   6
ATOM      6  C   UNL     1     -11.365 -12.238  -1.214  1.00  0.00     0.000 C 
BRANCH   6   7
ATOM      7  C   UNL     1     -10.168 -12.913  -0.521  1.00  0.00     0.006 C 
BRANCH   7   8
ATOM      8  C   UNL     1      -9.161 -13.567  -1.482  1.00  0.00     0.053 C 
BRANCH   8   9
ATOM      9  C   UNL     1      -7.753 -13.451  -0.986  1.00  0.00     0.041 C 
ATOM     10  O   UNL     1      -6.990 -14.452  -1.004  1.00  0.00    -0.550 OA
ATOM     11  O   UNL     1      -7.294 -12.245  -0.472  1.00  0.00    -0.550 OA
ENDBRANCH   8   9
ENDBRANCH   7   8
ENDBRANCH   6   7
ENDBRANCH   5   6
ENDBRANCH   4   5
ENDBRANCH   3   4
ENDBRANCH   2   3
ENDBRANCH   1   2
BRANCH   1  12
ATOM     12  C   UNL     1     -13.896 -10.994  -7.796  1.00  0.00     0.000 C 
BRANCH  12  13
ATOM     13  C   UNL     1     -14.988 -12.066  -7.986  1.00  0.00    -0.000 C 
BRANCH  13  14
ATOM     14  C   UNL     1     -15.238 -12.385  -9.471  1.00  0.00    -0.000 C 
BRANCH  14  15
ATOM     15  C   UNL     1     -15.603 -11.138 -10.290  1.00  0.00    -0.000 C 
BRANCH  15  16
ATOM     16  C   UNL     1     -17.121 -10.987 -10.494  1.00  0.00    -0.000 C 
BRANCH  16  17
ATOM     17  C   UNL     1     -17.639  -9.604 -10.071  1.00  0.00    -0.000 C 
BRANCH  17  18
ATOM     18  C   UNL     1     -16.542  -8.724  -9.456  1.00  0.00    -0.000 C 
BRANCH  18  19
ATOM     19  C   UNL     1     -16.929  -8.270  -8.044  1.00  0.00    -0.003 C 
ATOM     20  C   UNL     1     -17.491  -9.430  -7.227  1.00  0.00     0.004 C 
ENDBRANCH  18  19
ENDBRANCH  17  18
ENDBRANCH  16  17
ENDBRANCH  15  16
ENDBRANCH  14  15
ENDBRANCH  13  14
ENDBRANCH  12  13
ENDBRANCH   1  12
TORSDOF 16
ENDMDL
MODEL 4
REMARK VINA RESULT:    -5.976      1.307      2.038
REMARK INTER + INTRA:         -13.037
REMARK INTER:                 -12.186
REMARK INTRA:                  -0.851
REMARK UNBOUND:                -1.471
REMARK SMILES CCCCCCCCCCCCCCCCCC(=O)[O-]
REMARK SMILES IDX 10 1 11 2 12 3 13 4 14 5 15 6 16 7 17 8 18 9 19 10 20 11
REMARK SMILES IDX 9 12 8 13 7 14 6 15 5 16 4 17 3 18 2 19 1 20
REMARK H PARENT
REMARK Flexibility Score: inf
ROOT
ATOM      1  C   UNL     1     -13.721 -10.964  -6.425  1.00  0.00     0.000 C 
ENDROOT
BRANCH   1   2
ATOM      2  C   UNL     1     -12.483 -10.586  -5.595  1.00  0.00     0.000 C 
BRANCH   2   3
ATOM      3  C   UNL     1     -12.007 -11.735  -4.692  1.00  0.00     0.000 C 
BRANCH   3   4
ATOM      4  C   UNL     1     -11.954 -11.334  -3.206  1.00  0.00     0.000 C 
BRANCH   4   5
ATOM      5  C   UNL     1     -11.601 -12.514  -2.286  1.00  0.00     0.000 C 
BRANCH   5   6
ATOM      6  C   UNL     1     -11.036 -12.055  -0.931  1.00  0.00     0.000 C 
BRANCH   6   7
ATOM      7  C   UNL     1      -9.664 -12.679  -0.616  1.00  0.00     0.006 C 
BRANCH   7   8
ATOM      8  C   UNL     1      -9.107 -13.586  -1.726  1.00  0.00     0.053 C 
BRANCH   8   9
ATOM      9  C   UNL     1      -7.954 -14.415  -1.249  1.00  0.00     0.041 C 
ATOM     10  O   UNL     1      -6.928 -13.860  -0.775  1.00  0.00    -0.550 OA
ATOM     11  O   UNL     1      -8.000 -15.798  -1.360  1.00  0.00    -0.550 OA
ENDBRANCH   8   9
ENDBRANCH   7   8
ENDBRANCH   6   7
ENDBRANCH   5   6
ENDBRANCH   4   5
ENDBRANCH   3   4
ENDBRANCH   2   3
ENDBRANCH   1   2
BRANCH   1  12
ATOM     12  C   UNL     1     -13.923 -10.047  -7.643  1.00  0.00     0.000 C 
BRANCH  12  13
ATOM     13  C   UNL     1     -14.509  -8.665  -7.285  1.00  0.00    -0.000 C 
BRANCH  13  14
ATOM     14  C   UNL     1     -15.788  -8.778  -6.437  1.00  0.00    -0.000 C 
BRANCH  14  15
ATOM     15  C   UNL     1     -17.063  -8.816  -7.292  1.00  0.00    -0.000 C 
BRANCH  15  16
ATOM     16  C   UNL     1     -16.837  -8.277  -8.715  1.00  0.00    -0.000 C 
BRANCH  16  17
ATOM     17  C   UNL     1     -17.286  -9.268  -9.800  1.00  0.00    -0.000 C 
BRANCH  17  18
ATOM     18  C   UNL     1     -18.812  -9.428  -9.860  1.00  0.00    -0.000 C 
BRANCH  18  19
ATOM     19  C   UNL     1     -19.225 -10.311 -11.043  1.00  0.00    -0.003 C 
ATOM     20  C   UNL     1     -18.146 -11.342 -11.364  1.00  0.00     0.004 C 
ENDBRANCH  18  19
ENDBRANCH  17  18
ENDBRANCH  16  17
ENDBRANCH  15  16
ENDBRANCH  14  15
ENDBRANCH  13  14
ENDBRANCH  12  13
ENDBRANCH   1  12
TORSDOF 16
ENDMDL
MODEL 5
REMARK VINA RESULT:    -5.964      1.039      2.836
REMARK INTER + INTRA:         -13.014
REMARK INTER:                 -11.428
REMARK INTRA:                  -1.586
REMARK UNBOUND:                -1.471
REMARK SMILES CCCCCCCCCCCCCCCCCC(=O)[O-]
REMARK SMILES IDX 10 1 11 2 12 3 13 4 14 5 15 6 16 7 17 8 18 9 19 10 20 11
REMARK SMILES IDX 9 12 8 13 7 14 6 15 5 16 4 17 3 18 2 19 1 20
REMARK H PARENT
REMARK Flexibility Score: inf
ROOT
ATOM      1  C   UNL     1     -14.801 -11.868  -7.197  1.00  0.00     0.000 C 
ENDROOT
BRANCH   1   2
ATOM      2  C   UNL     1     -13.842 -10.717  -7.544  1.00  0.00     0.000 C 
BRANCH   2   3
ATOM      3  C   UNL     1     -13.086 -10.189  -6.315  1.00  0.00     0.000 C 
BRANCH   3   4
ATOM      4  C   UNL     1     -12.478 -11.321  -5.467  1.00  0.00     0.000 C 
BRANCH   4   5
ATOM      5  C   UNL     1     -12.118 -10.868  -4.043  1.00  0.00     0.000 C 
BRANCH   5   6
ATOM      6  C   UNL     1     -11.738 -12.045  -3.128  1.00  0.00     0.000 C 
BRANCH   6   7
ATOM      7  C   UNL     1     -11.543 -11.620  -1.661  1.00  0.00     0.006 C 
BRANCH   7   8
ATOM      8  C   UNL     1     -10.920 -12.701  -0.762  1.00  0.00     0.053 C 
BRANCH   8   9
ATOM      9  C   UNL     1      -9.464 -12.904  -1.053  1.00  0.00     0.041 C 
ATOM     10  O   UNL     1      -9.095 -13.821  -1.832  1.00  0.00    -0.550 OA
ATOM     11  O   UNL     1      -8.514 -12.101  -0.435  1.00  0.00    -0.550 OA
ENDBRANCH   8   9
ENDBRANCH   7   8
ENDBRANCH   6   7
ENDBRANCH   5   6
ENDBRANCH   4   5
ENDBRANCH   3   4
ENDBRANCH   2   3
ENDBRANCH   1   2
BRANCH   1  12
ATOM     12  C   UNL     1     -15.044 -12.819  -8.382  1.00  0.00     0.000 C 
BRANCH  12  13
ATOM     13  C   UNL     1     -14.629 -12.225  -9.745  1.00  0.00    -0.000 C 
BRANCH  13  14
ATOM     14  C   UNL     1     -15.844 -11.778 -10.577  1.00  0.00    -0.000 C 
BRANCH  14  15
ATOM     15  C   UNL     1     -16.203 -10.301 -10.354  1.00  0.00    -0.000 C 
BRANCH  15  16
ATOM     16  C   UNL     1     -17.720 -10.070 -10.253  1.00  0.00    -0.000 C 
BRANCH  16  17
ATOM     17  C   UNL     1     -18.087  -9.003  -9.211  1.00  0.00    -0.000 C 
BRANCH  17  18
ATOM     18  C   UNL     1     -16.852  -8.364  -8.559  1.00  0.00    -0.000 C 
BRANCH  18  19
ATOM     19  C   UNL     1     -16.847  -8.603  -7.044  1.00  0.00    -0.003 C 
ATOM     20  C   UNL     1     -17.579  -9.894  -6.687  1.00  0.00     0.004 C 
ENDBRANCH  18  19
ENDBRANCH  17  18
ENDBRANCH  16  17
ENDBRANCH  15  16
ENDBRANCH  14  15
ENDBRANCH  13  14
ENDBRANCH  12  13
ENDBRANCH   1  12
TORSDOF 16
ENDMDL
MODEL 6
REMARK VINA RESULT:    -5.910      4.635      9.568
REMARK INTER + INTRA:         -12.910
REMARK INTER:                 -11.601
REMARK INTRA:                  -1.308
REMARK UNBOUND:                -1.471
REMARK SMILES CCCCCCCCCCCCCCCCCC(=O)[O-]
REMARK SMILES IDX 10 1 11 2 12 3 13 4 14 5 15 6 16 7 17 8 18 9 19 10 20 11
REMARK SMILES IDX 9 12 8 13 7 14 6 15 5 16 4 17 3 18 2 19 1 20
REMARK H PARENT
REMARK Flexibility Score: inf
ROOT
ATOM      1  C   UNL     1     -14.097 -11.569  -7.297  1.00  0.00     0.000 C 
ENDROOT
BRANCH   1   2
ATOM      2  C   UNL     1     -15.561 -11.371  -7.722  1.00  0.00     0.000 C 
BRANCH   2   3
ATOM      3  C   UNL     1     -16.494 -11.131  -6.524  1.00  0.00     0.000 C 
BRANCH   3   4
ATOM      4  C   UNL     1     -17.371  -9.878  -6.702  1.00  0.00     0.000 C 
BRANCH   4   5
ATOM      5  C   UNL     1     -16.623  -8.725  -7.390  1.00  0.00     0.000 C 
BRANCH   5   6
ATOM      6  C   UNL     1     -17.369  -8.195  -8.627  1.00  0.00     0.000 C 
BRANCH   6   7
ATOM      7  C   UNL     1     -17.139  -9.062  -9.878  1.00  0.00     0.006 C 
BRANCH   7   8
ATOM      8  C   UNL     1     -18.383  -9.826 -10.362  1.00  0.00     0.053 C 
BRANCH   8   9
ATOM      9  C   UNL     1     -18.024 -11.118 -11.029  1.00  0.00     0.041 C 
ATOM     10  O   UNL     1     -16.864 -11.592 -10.912  1.00  0.00    -0.550 OA
ATOM     11  O   UNL     1     -18.962 -11.780 -11.810  1.00  0.00    -0.550 OA
ENDBRANCH   8   9
ENDBRANCH   7   8
ENDBRANCH   6   7
ENDBRANCH   5   6
ENDBRANCH   4   5
ENDBRANCH   3   4
ENDBRANCH   2   3
ENDBRANCH   1   2
BRANCH   1  12
ATOM     12  C   UNL     1     -13.342 -10.239  -7.123  1.00  0.00     0.000 C 
BRANCH  12  13
ATOM     13  C   UNL     1     -12.462 -10.191  -5.856  1.00  0.00    -0.000 C 
BRANCH  13  14
ATOM     14  C   UNL     1     -12.570 -11.481  -5.024  1.00  0.00    -0.000 C 
BRANCH  14  15
ATOM     15  C   UNL     1     -11.362 -11.691  -4.099  1.00  0.00    -0.000 C 
BRANCH  15  16
ATOM     16  C   UNL     1     -11.730 -12.442  -2.807  1.00  0.00    -0.000 C 
BRANCH  16  17
ATOM     17  C   UNL     1     -11.560 -11.574  -1.550  1.00  0.00    -0.000 C 
BRANCH  17  18
ATOM     18  C   UNL     1     -10.591 -12.191  -0.532  1.00  0.00    -0.000 C 
BRANCH  18  19
ATOM     19  C   UNL     1      -9.608 -13.146  -1.219  1.00  0.00    -0.003 C 
ATOM     20  C   UNL     1      -8.163 -12.722  -0.971  1.00  0.00     0.004 C 
ENDBRANCH  18  19
ENDBRANCH  17  18
ENDBRANCH  16  17
ENDBRANCH  15  16
ENDBRANCH  14  15
ENDBRANCH  13  14
ENDBRANCH  12  13
ENDBRANCH   1  12
TORSDOF 16
ENDMDL
MODEL 7
REMARK VINA RESULT:    -5.884      1.391      2.938
REMARK INTER + INTRA:         -12.859
REMARK INTER:                 -11.712
REMARK INTRA:                  -1.147
REMARK UNBOUND:                -1.471
REMARK SMILES CCCCCCCCCCCCCCCCCC(=O)[O-]
REMARK SMILES IDX 10 1 11 2 12 3 13 4 14 5 15 6 16 7 17 8 18 9 19 10 20 11
REMARK SMILES IDX 9 12 8 13 7 14 6 15 5 16 4 17 3 18 2 19 1 20
REMARK H PARENT
REMARK Flexibility Score: inf
ROOT
ATOM      1  C   UNL     1     -12.419 -10.335  -5.675  1.00  0.00     0.000 C 
ENDROOT
BRANCH   1   2
ATOM      2  C   UNL     1     -12.120 -11.600  -4.853  1.00  0.00     0.000 C 
BRANCH   2   3
ATOM      3  C   UNL     1     -12.119 -11.333  -3.340  1.00  0.00     0.000 C 
BRANCH   3   4
ATOM      4  C   UNL     1     -11.563 -12.520  -2.533  1.00  0.00     0.000 C 
BRANCH   4   5
ATOM      5  C   UNL     1     -11.007 -12.097  -1.163  1.00  0.00     0.000 C 
BRANCH   5   6
ATOM      6  C   UNL     1      -9.951 -13.080  -0.628  1.00  0.00     0.000 C 
BRANCH   6   7
ATOM      7  C   UNL     1      -9.057 -13.657  -1.740  1.00  0.00     0.006 C 
BRANCH   7   8
ATOM      8  C   UNL     1      -7.886 -14.517  -1.235  1.00  0.00     0.053 C 
BRANCH   8   9
ATOM      9  C   UNL     1      -8.010 -15.946  -1.666  1.00  0.00     0.041 C 
ATOM     10  O   UNL     1      -8.015 -16.868  -0.809  1.00  0.00    -0.550 OA
ATOM     11  O   UNL     1      -8.085 -16.261  -3.016  1.00  0.00    -0.550 OA
ENDBRANCH   8   9
ENDBRANCH   7   8
ENDBRANCH   6   7
ENDBRANCH   5   6
ENDBRANCH   4   5
ENDBRANCH   3   4
ENDBRANCH   2   3
ENDBRANCH   1   2
BRANCH   1  12
ATOM     12  C   UNL     1     -13.860 -10.299  -6.212  1.00  0.00     0.000 C 
BRANCH  12  13
ATOM     13  C   UNL     1     -13.988 -10.800  -7.666  1.00  0.00    -0.000 C 
BRANCH  13  14
ATOM     14  C   UNL     1     -14.717 -12.152  -7.754  1.00  0.00    -0.000 C 
BRANCH  14  15
ATOM     15  C   UNL     1     -14.858 -12.655  -9.198  1.00  0.00    -0.000 C 
BRANCH  15  16
ATOM     16  C   UNL     1     -15.061 -11.511 -10.206  1.00  0.00    -0.000 C 
BRANCH  16  17
ATOM     17  C   UNL     1     -16.538 -11.299 -10.571  1.00  0.00    -0.000 C 
BRANCH  17  18
ATOM     18  C   UNL     1     -17.244 -10.315  -9.627  1.00  0.00    -0.000 C 
BRANCH  18  19
ATOM     19  C   UNL     1     -16.574  -8.936  -9.670  1.00  0.00    -0.003 C 
ATOM     20  C   UNL     1     -16.871  -8.139  -8.403  1.00  0.00     0.004 C 
ENDBRANCH  18  19
ENDBRANCH  17  18
ENDBRANCH  16  17
ENDBRANCH  15  16
ENDBRANCH  14  15
ENDBRANCH  13  14
ENDBRANCH  12  13
ENDBRANCH   1  12
TORSDOF 16
ENDMDL
MODEL 8
REMARK VINA RESULT:    -5.848      1.678      3.483
REMARK INTER + INTRA:         -12.789
REMARK INTER:                 -11.910
REMARK INTRA:                  -0.879
REMARK UNBOUND:                -1.471
REMARK SMILES CCCCCCCCCCCCCCCCCC(=O)[O-]
REMARK SMILES IDX 10 1 11 2 12 3 13 4 14 5 15 6 16 7 17 8 18 9 19 10 20 11
REMARK SMILES IDX 9 12 8 13 7 14 6 15 5 16 4 17 3 18 2 19 1 20
REMARK H PARENT
REMARK Flexibility Score: inf
ROOT
ATOM      1  C   UNL     1     -11.846 -11.759  -4.678  1.00  0.00     0.000 C 
ENDROOT
BRANCH   1   2
ATOM      2  C   UNL     1     -11.986 -11.718  -3.148  1.00  0.00     0.000 C 
BRANCH   2   3
ATOM      3  C   UNL     1     -10.933 -12.583  -2.436  1.00  0.00     0.000 C 
BRANCH   3   4
ATOM      4  C   UNL     1     -10.893 -12.333  -0.918  1.00  0.00     0.000 C 
BRANCH   4   5
ATOM      5  C   UNL     1      -9.667 -12.969  -0.245  1.00  0.00     0.000 C 
BRANCH   5   6
ATOM      6  C   UNL     1      -8.491 -13.157  -1.219  1.00  0.00     0.000 C 
BRANCH   6   7
ATOM      7  C   UNL     1      -7.867 -14.562  -1.135  1.00  0.00     0.006 C 
BRANCH   7   8
ATOM      8  C   UNL     1      -8.319 -15.527  -2.244  1.00  0.00     0.053 C 
BRANCH   8   9
ATOM      9  C   UNL     1      -7.901 -16.938  -1.965  1.00  0.00     0.041 C 
ATOM     10  O   UNL     1      -7.376 -17.635  -2.873  1.00  0.00    -0.550 OA
ATOM     11  O   UNL     1      -8.124 -17.495  -0.713  1.00  0.00    -0.550 OA
ENDBRANCH   8   9
ENDBRANCH   7   8
ENDBRANCH   6   7
ENDBRANCH   5   6
ENDBRANCH   4   5
ENDBRANCH   3   4
ENDBRANCH   2   3
ENDBRANCH   1   2
BRANCH   1  12
ATOM     12  C   UNL     1     -12.570 -10.594  -5.375  1.00  0.00     0.000 C 
BRANCH  12  13
ATOM     13  C   UNL     1     -13.670 -11.050  -6.356  1.00  0.00    -0.000 C 
BRANCH  13  14
ATOM     14  C   UNL     1     -13.802 -10.102  -7.562  1.00  0.00    -0.000 C 
BRANCH  14  15
ATOM     15  C   UNL     1     -14.588  -8.826  -7.227  1.00  0.00    -0.000 C 
BRANCH  15  16
ATOM     16  C   UNL     1     -16.111  -9.035  -7.288  1.00  0.00    -0.000 C 
BRANCH  16  17
ATOM     17  C   UNL     1     -16.788  -8.148  -8.344  1.00  0.00    -0.000 C 
BRANCH  17  18
ATOM     18  C   UNL     1     -16.895  -8.837  -9.712  1.00  0.00    -0.000 C 
BRANCH  18  19
ATOM     19  C   UNL     1     -17.100 -10.347  -9.552  1.00  0.00    -0.003 C 
ATOM     20  C   UNL     1     -17.583 -10.980 -10.855  1.00  0.00     0.004 C 
ENDBRANCH  18  19
ENDBRANCH  17  18
ENDBRANCH  16  17
ENDBRANCH  15  16
ENDBRANCH  14  15
ENDBRANCH  13  14
ENDBRANCH  12  13
ENDBRANCH   1  12
TORSDOF 16
ENDMDL
MODEL 9
REMARK VINA RESULT:    -5.822      4.843     10.270
REMARK INTER + INTRA:         -12.739
REMARK INTER:                 -11.929
REMARK INTRA:                  -0.810
REMARK UNBOUND:                -1.471
REMARK SMILES CCCCCCCCCCCCCCCCCC(=O)[O-]
REMARK SMILES IDX 10 1 11 2 12 3 13 4 14 5 15 6 16 7 17 8 18 9 19 10 20 11
REMARK SMILES IDX 9 12 8 13 7 14 6 15 5 16 4 17 3 18 2 19 1 20
REMARK H PARENT
REMARK Flexibility Score: inf
ROOT
ATOM      1  C   UNL     1     -11.920 -11.691  -4.755  1.00  0.00     0.000 C 
ENDROOT
BRANCH   1   2
ATOM      2  C   UNL     1     -12.501 -10.546  -5.601  1.00  0.00     0.000 C 
BRANCH   2   3
ATOM      3  C   UNL     1     -13.702 -10.992  -6.450  1.00  0.00     0.000 C 
BRANCH   3   4
ATOM      4  C   UNL     1     -13.977 -10.041  -7.628  1.00  0.00     0.000 C 
BRANCH   4   5
ATOM      5  C   UNL     1     -14.673  -8.741  -7.191  1.00  0.00     0.000 C 
BRANCH   5   6
ATOM      6  C   UNL     1     -16.200  -8.804  -7.366  1.00  0.00     0.000 C 
BRANCH   6   7
ATOM      7  C   UNL     1     -16.671  -8.208  -8.705  1.00  0.00     0.006 C 
BRANCH   7   8
ATOM      8  C   UNL     1     -16.789  -9.228  -9.850  1.00  0.00     0.053 C 
BRANCH   8   9
ATOM      9  C   UNL     1     -18.215  -9.570 -10.154  1.00  0.00     0.041 C 
ATOM     10  O   UNL     1     -18.502 -10.236 -11.183  1.00  0.00    -0.550 OA
ATOM     11  O   UNL     1     -19.230  -9.122  -9.319  1.00  0.00    -0.550 OA
ENDBRANCH   8   9
ENDBRANCH   7   8
ENDBRANCH   6   7
ENDBRANCH   5   6
ENDBRANCH   4   5
ENDBRANCH   3   4
ENDBRANCH   2   3
ENDBRANCH   1   2
BRANCH   1  12
ATOM     12  C   UNL     1     -11.982 -11.408  -3.244  1.00  0.00     0.000 C 
BRANCH  12  13
ATOM     13  C   UNL     1     -11.359 -12.525  -2.381  1.00  0.00    -0.000 C 
BRANCH  13  14
ATOM     14  C   UNL     1     -11.165 -12.089  -0.918  1.00  0.00    -0.000 C 
BRANCH  14  15
ATOM     15  C   UNL     1     -10.082 -12.905  -0.197  1.00  0.00    -0.000 C 
BRANCH  15  16
ATOM     16  C   UNL     1      -8.659 -12.419  -0.522  1.00  0.00    -0.000 C 
BRANCH  16  17
ATOM     17  C   UNL     1      -7.762 -13.540  -1.067  1.00  0.00    -0.000 C 
BRANCH  17  18
ATOM     18  C   UNL     1      -8.467 -14.904  -1.091  1.00  0.00    -0.000 C 
BRANCH  18  19
ATOM     19  C   UNL     1      -8.126 -15.676  -2.370  1.00  0.00    -0.003 C 
ATOM     20  C   UNL     1      -7.866 -17.151  -2.071  1.00  0.00     0.004 C 
ENDBRANCH  18  19
ENDBRANCH  17  18
ENDBRANCH  16  17
ENDBRANCH  15  16
ENDBRANCH  14  15
ENDBRANCH  13  14
ENDBRANCH  12  13
ENDBRANCH   1  12
TORSDOF 16
ENDMDL
