MODEL 1
REMARK VINA RESULT:    -4.106      0.000      0.000
REMARK INTER + INTRA:          -7.619
REMARK INTER:                  -6.986
REMARK INTRA:                  -0.634
REMARK UNBOUND:                -0.634
REMARK SMILES CCCCCCCCCCCCCC(=O)[O-]
REMARK SMILES IDX 8 1 9 2 10 3 11 4 12 5 13 6 14 7 15 8 16 9 7 10 6 11 5 12
REMARK SMILES IDX 4 13 3 14 2 15 1 16
REMARK H PARENT
REMARK Flexibility Score: inf
ROOT
ATOM      1  C   UNL     1     -32.509 -22.455 -35.082  1.00  0.00     0.000 C 
ENDROOT
BRANCH   1   2
ATOM      2  C   UNL     1     -31.235 -21.617 -34.927  1.00  0.00     0.000 C 
BRANCH   2   3
ATOM      3  C   UNL     1     -31.083 -21.102 -33.491  1.00  0.00     0.000 C 
BRANCH   3   4
ATOM      4  C   UNL     1     -29.652 -20.608 -33.232  1.00  0.00     0.000 C 
BRANCH   4   5
ATOM      5  C   UNL     1     -29.567 -19.638 -32.043  1.00  0.00     0.006 C 
BRANCH   5   6
ATOM      6  C   UNL     1     -30.943 -19.124 -31.600  1.00  0.00     0.053 C 
BRANCH   6   7
ATOM      7  C   UNL     1     -31.313 -19.705 -30.272  1.00  0.00     0.041 C 
ATOM      8  O   UNL     1     -32.106 -19.090 -29.510  1.00  0.00    -0.550 OA
ATOM      9  O   UNL     1     -30.745 -20.902 -29.853  1.00  0.00    -0.550 OA
ENDBRANCH   6   7
ENDBRANCH   5   6
ENDBRANCH   4   5
ENDBRANCH   3   4
ENDBRANCH   2   3
ENDBRANCH   1   2
BRANCH   1  10
ATOM     10  C   UNL     1     -33.240 -22.110 -36.387  1.00  0.00     0.000 C 
BRANCH  10  11
ATOM     11  C   UNL     1     -32.279 -21.862 -37.563  1.00  0.00    -0.000 C 
BRANCH  11  12
ATOM     12  C   UNL     1     -32.480 -22.788 -38.780  1.00  0.00    -0.000 C 
BRANCH  12  13
ATOM     13  C   UNL     1     -31.581 -24.037 -38.803  1.00  0.00    -0.000 C 
BRANCH  13  14
ATOM     14  C   UNL     1     -32.203 -25.233 -38.062  1.00  0.00    -0.000 C 
BRANCH  14  15
ATOM     15  C   UNL     1     -32.432 -26.440 -38.984  1.00  0.00    -0.003 C 
ATOM     16  C   UNL     1     -33.336 -27.499 -38.354  1.00  0.00     0.004 C 
ENDBRANCH  14  15
ENDBRANCH  13  14
ENDBRANCH  12  13
ENDBRANCH  11  12
ENDBRANCH  10  11
ENDBRANCH   1  10
TORSDOF 12
ENDMDL
MODEL 2
REMARK VINA RESULT:    -3.975      0.787      1.319
REMARK INTER + INTRA:          -7.396
REMARK INTER:                  -6.456
REMARK INTRA:                  -0.941
REMARK UNBOUND:                -0.634
REMARK SMILES CCCCCCCCCCCCCC(=O)[O-]
REMARK SMILES IDX 8 1 9 2 10 3 11 4 12 5 13 6 14 7 15 8 16 9 7 10 6 11 5 12
REMARK SMILES IDX 4 13 3 14 2 15 1 16
REMARK H PARENT
REMARK Flexibility Score: inf
ROOT
ATOM      1  C   UNL     1     -32.719 -22.288 -35.011  1.00  0.00     0.000 C 
ENDROOT
BRANCH   1   2
ATOM      2  C   UNL     1     -31.326 -21.690 -34.779  1.00  0.00     0.000 C 
BRANCH   2   3
ATOM      3  C   UNL     1     -31.309 -20.800 -33.531  1.00  0.00     0.000 C 
BRANCH   3   4
ATOM      4  C   UNL     1     -29.869 -20.490 -33.096  1.00  0.00     0.000 C 
BRANCH   4   5
ATOM      5  C   UNL     1     -29.800 -19.416 -31.999  1.00  0.00     0.006 C 
BRANCH   5   6
ATOM      6  C   UNL     1     -31.181 -19.057 -31.436  1.00  0.00     0.053 C 
BRANCH   6   7
ATOM      7  C   UNL     1     -31.387 -19.708 -30.105  1.00  0.00     0.041 C 
ATOM      8  O   UNL     1     -32.224 -19.235 -29.291  1.00  0.00    -0.550 OA
ATOM      9  O   UNL     1     -30.620 -20.808 -29.742  1.00  0.00    -0.550 OA
ENDBRANCH   6   7
ENDBRANCH   5   6
ENDBRANCH   4   5
ENDBRANCH   3   4
ENDBRANCH   2   3
ENDBRANCH   1   2
BRANCH   1  10
ATOM     10  C   UNL     1     -33.614 -21.313 -35.789  1.00  0.00     0.000 C 
BRANCH  10  11
ATOM     11  C   UNL     1     -34.125 -21.899 -37.117  1.00  0.00    -0.000 C 
BRANCH  11  12
ATOM     12  C   UNL     1     -33.382 -21.409 -38.377  1.00  0.00    -0.000 C 
BRANCH  12  13
ATOM     13  C   UNL     1     -31.934 -21.914 -38.515  1.00  0.00    -0.000 C 
BRANCH  13  14
ATOM     14  C   UNL     1     -31.853 -23.334 -39.101  1.00  0.00    -0.000 C 
BRANCH  14  15
ATOM     15  C   UNL     1     -31.589 -24.399 -38.025  1.00  0.00    -0.003 C 
ATOM     16  C   UNL     1     -32.398 -25.677 -38.249  1.00  0.00     0.004 C 
ENDBRANCH  14  15
ENDBRANCH  13  14
ENDBRANCH  12  13
ENDBRANCH  11  12
ENDBRANCH  10  11
ENDBRANCH   1  10
TORSDOF 12
ENDMDL
MODEL 3
REMARK VINA RESULT:    -3.938      1.717      2.887
REMARK INTER + INTRA:          -7.334
REMARK INTER:                  -6.363
REMARK INTRA:                  -0.971
REMARK UNBOUND:                -0.634
REMARK SMILES CCCCCCCCCCCCCC(=O)[O-]
REMARK SMILES IDX 8 1 9 2 10 3 11 4 12 5 13 6 14 7 15 8 16 9 7 10 6 11 5 12
REMARK SMILES IDX 4 13 3 14 2 15 1 16
REMARK H PARENT
REMARK Flexibility Score: inf
ROOT
ATOM      1  C   UNL     1     -31.537 -21.384 -33.807  1.00  0.00     0.000 C 
ENDROOT
BRANCH   1   2
ATOM      2  C   UNL     1     -30.064 -21.090 -34.117  1.00  0.00     0.000 C 
BRANCH   2   3
ATOM      3  C   UNL     1     -29.500 -20.030 -33.165  1.00  0.00     0.000 C 
BRANCH   3   4
ATOM      4  C   UNL     1     -30.496 -18.876 -32.975  1.00  0.00     0.000 C 
BRANCH   4   5
ATOM      5  C   UNL     1     -31.184 -18.908 -31.601  1.00  0.00     0.006 C 
BRANCH   5   6
ATOM      6  C   UNL     1     -30.296 -19.517 -30.509  1.00  0.00     0.053 C 
BRANCH   6   7
ATOM      7  C   UNL     1     -30.965 -20.705 -29.894  1.00  0.00     0.041 C 
ATOM      8  O   UNL     1     -30.805 -21.851 -30.392  1.00  0.00    -0.550 OA
ATOM      9  O   UNL     1     -31.805 -20.542 -28.800  1.00  0.00    -0.550 OA
ENDBRANCH   6   7
ENDBRANCH   5   6
ENDBRANCH   4   5
ENDBRANCH   3   4
ENDBRANCH   2   3
ENDBRANCH   1   2
BRANCH   1  10
ATOM     10  C   UNL     1     -32.280 -21.857 -35.063  1.00  0.00     0.000 C 
BRANCH  10  11
ATOM     11  C   UNL     1     -31.331 -22.233 -36.215  1.00  0.00    -0.000 C 
BRANCH  11  12
ATOM     12  C   UNL     1     -31.691 -23.535 -36.961  1.00  0.00    -0.000 C 
BRANCH  12  13
ATOM     13  C   UNL     1     -32.061 -23.353 -38.444  1.00  0.00    -0.000 C 
BRANCH  13  14
ATOM     14  C   UNL     1     -32.198 -21.874 -38.846  1.00  0.00    -0.000 C 
BRANCH  14  15
ATOM     15  C   UNL     1     -33.663 -21.444 -39.014  1.00  0.00    -0.003 C 
ATOM     16  C   UNL     1     -34.076 -20.357 -38.022  1.00  0.00     0.004 C 
ENDBRANCH  14  15
ENDBRANCH  13  14
ENDBRANCH  12  13
ENDBRANCH  11  12
ENDBRANCH  10  11
ENDBRANCH   1  10
TORSDOF 12
ENDMDL
MODEL 4
REMARK VINA RESULT:    -3.768      1.060      2.100
REMARK INTER + INTRA:          -7.045
REMARK INTER:                  -6.032
REMARK INTRA:                  -1.014
REMARK UNBOUND:                -0.634
REMARK SMILES CCCCCCCCCCCCCC(=O)[O-]
REMARK SMILES IDX 8 1 9 2 10 3 11 4 12 5 13 6 14 7 15 8 16 9 7 10 6 11 5 12
REMARK SMILES IDX 4 13 3 14 2 15 1 16
REMARK H PARENT
REMARK Flexibility Score: inf
ROOT
ATOM      1  C   UNL     1     -31.446 -21.487 -33.831  1.00  0.00     0.000 C 
ENDROOT
BRANCH   1   2
ATOM      2  C   UNL     1     -30.101 -20.758 -33.722  1.00  0.00     0.000 C 
BRANCH   2   3
ATOM      3  C   UNL     1     -30.284 -19.340 -33.169  1.00  0.00     0.000 C 
BRANCH   3   4
ATOM      4  C   UNL     1     -31.751 -19.083 -32.791  1.00  0.00     0.000 C 
BRANCH   4   5
ATOM      5  C   UNL     1     -31.946 -18.882 -31.280  1.00  0.00     0.006 C 
BRANCH   5   6
ATOM      6  C   UNL     1     -30.726 -19.325 -30.463  1.00  0.00     0.053 C 
BRANCH   6   7
ATOM      7  C   UNL     1     -30.979 -20.656 -29.827  1.00  0.00     0.041 C 
ATOM      8  O   UNL     1     -30.633 -21.715 -30.415  1.00  0.00    -0.550 OA
ATOM      9  O   UNL     1     -31.641 -20.730 -28.608  1.00  0.00    -0.550 OA
ENDBRANCH   6   7
ENDBRANCH   5   6
ENDBRANCH   4   5
ENDBRANCH   3   4
ENDBRANCH   2   3
ENDBRANCH   1   2
BRANCH   1  10
ATOM     10  C   UNL     1     -31.732 -21.899 -35.282  1.00  0.00     0.000 C 
BRANCH  10  11
ATOM     11  C   UNL     1     -33.133 -21.476 -35.759  1.00  0.00    -0.000 C 
BRANCH  11  12
ATOM     12  C   UNL     1     -33.502 -21.928 -37.187  1.00  0.00    -0.000 C 
BRANCH  12  13
ATOM     13  C   UNL     1     -32.322 -21.991 -38.174  1.00  0.00    -0.000 C 
BRANCH  13  14
ATOM     14  C   UNL     1     -32.257 -23.323 -38.941  1.00  0.00    -0.000 C 
BRANCH  14  15
ATOM     15  C   UNL     1     -31.590 -24.439 -38.124  1.00  0.00    -0.003 C 
ATOM     16  C   UNL     1     -32.266 -25.797 -38.318  1.00  0.00     0.004 C 
ENDBRANCH  14  15
ENDBRANCH  13  14
ENDBRANCH  12  13
ENDBRANCH  11  12
ENDBRANCH  10  11
ENDBRANCH   1  10
TORSDOF 12
ENDMDL
MODEL 5
REMARK VINA RESULT:    -3.719      3.704      7.860
REMARK INTER + INTRA:          -6.961
REMARK INTER:                  -6.052
REMARK INTRA:                  -0.909
REMARK UNBOUND:                -0.634
REMARK SMILES CCCCCCCCCCCCCC(=O)[O-]
REMARK SMILES IDX 8 1 9 2 10 3 11 4 12 5 13 6 14 7 15 8 16 9 7 10 6 11 5 12
REMARK SMILES IDX 4 13 3 14 2 15 1 16
REMARK H PARENT
REMARK Flexibility Score: inf
ROOT
ATOM      1  C   UNL     1     -29.762 -20.685 -33.808  1.00  0.00     0.000 C 
ENDROOT
BRANCH   1   2
ATOM      2  C   UNL     1     -31.259 -20.943 -33.593  1.00  0.00     0.000 C 
BRANCH   2   3
ATOM      3  C   UNL     1     -31.794 -21.961 -34.606  1.00  0.00     0.000 C 
BRANCH   3   4
ATOM      4  C   UNL     1     -33.096 -21.462 -35.252  1.00  0.00     0.000 C 
BRANCH   4   5
ATOM      5  C   UNL     1     -33.444 -22.220 -36.543  1.00  0.00     0.006 C 
BRANCH   5   6
ATOM      6  C   UNL     1     -32.802 -23.612 -36.602  1.00  0.00     0.053 C 
BRANCH   6   7
ATOM      7  C   UNL     1     -31.997 -23.762 -37.855  1.00  0.00     0.041 C 
ATOM      8  O   UNL     1     -31.290 -24.788 -38.035  1.00  0.00    -0.550 OA
ATOM      9  O   UNL     1     -31.988 -22.745 -38.802  1.00  0.00    -0.550 OA
ENDBRANCH   6   7
ENDBRANCH   5   6
ENDBRANCH   4   5
ENDBRANCH   3   4
ENDBRANCH   2   3
ENDBRANCH   1   2
BRANCH   1  10
ATOM     10  C   UNL     1     -29.377 -19.270 -33.356  1.00  0.00     0.000 C 
BRANCH  10  11
ATOM     11  C   UNL     1     -28.349 -19.266 -32.210  1.00  0.00    -0.000 C 
BRANCH  11  12
ATOM     12  C   UNL     1     -28.952 -19.251 -30.790  1.00  0.00    -0.000 C 
BRANCH  12  13
ATOM     13  C   UNL     1     -30.443 -18.875 -30.720  1.00  0.00    -0.000 C 
BRANCH  13  14
ATOM     14  C   UNL     1     -31.278 -19.899 -29.932  1.00  0.00    -0.000 C 
BRANCH  14  15
ATOM     15  C   UNL     1     -30.785 -21.340 -30.132  1.00  0.00    -0.003 C 
ATOM     16  C   UNL     1     -30.089 -21.902 -28.892  1.00  0.00     0.004 C 
ENDBRANCH  14  15
ENDBRANCH  13  14
ENDBRANCH  12  13
ENDBRANCH  11  12
ENDBRANCH  10  11
ENDBRANCH   1  10
TORSDOF 12
ENDMDL
MODEL 6
REMARK VINA RESULT:    -3.654      3.508      7.706
REMARK INTER + INTRA:          -6.851
REMARK INTER:                  -5.708
REMARK INTRA:                  -1.144
REMARK UNBOUND:                -0.634
REMARK SMILES CCCCCCCCCCCCCC(=O)[O-]
REMARK SMILES IDX 8 1 9 2 10 3 11 4 12 5 13 6 14 7 15 8 16 9 7 10 6 11 5 12
REMARK SMILES IDX 4 13 3 14 2 15 1 16
REMARK H PARENT
REMARK Flexibility Score: inf
ROOT
ATOM      1  C   UNL     1     -31.634 -21.661 -33.966  1.00  0.00     0.000 C 
ENDROOT
BRANCH   1   2
ATOM      2  C   UNL     1     -32.200 -22.263 -35.258  1.00  0.00     0.000 C 
BRANCH   2   3
ATOM      3  C   UNL     1     -33.376 -21.433 -35.784  1.00  0.00     0.000 C 
BRANCH   3   4
ATOM      4  C   UNL     1     -33.380 -21.397 -37.320  1.00  0.00     0.000 C 
BRANCH   4   5
ATOM      5  C   UNL     1     -32.085 -21.957 -37.929  1.00  0.00     0.006 C 
BRANCH   5   6
ATOM      6  C   UNL     1     -32.349 -22.995 -39.027  1.00  0.00     0.053 C 
BRANCH   6   7
ATOM      7  C   UNL     1     -31.854 -24.342 -38.603  1.00  0.00     0.041 C 
ATOM      8  O   UNL     1     -32.329 -25.385 -39.125  1.00  0.00    -0.550 OA
ATOM      9  O   UNL     1     -30.903 -24.448 -37.596  1.00  0.00    -0.550 OA
ENDBRANCH   6   7
ENDBRANCH   5   6
ENDBRANCH   4   5
ENDBRANCH   3   4
ENDBRANCH   2   3
ENDBRANCH   1   2
BRANCH   1  10
ATOM     10  C   UNL     1     -30.255 -21.034 -34.209  1.00  0.00     0.000 C 
BRANCH  10  11
ATOM     11  C   UNL     1     -29.885 -19.973 -33.158  1.00  0.00    -0.000 C 
BRANCH  11  12
ATOM     12  C   UNL     1     -30.989 -18.938 -32.856  1.00  0.00    -0.000 C 
BRANCH  12  13
ATOM     13  C   UNL     1     -31.494 -18.931 -31.402  1.00  0.00    -0.000 C 
BRANCH  13  14
ATOM     14  C   UNL     1     -30.495 -19.571 -30.423  1.00  0.00    -0.000 C 
BRANCH  14  15
ATOM     15  C   UNL     1     -31.087 -20.784 -29.688  1.00  0.00    -0.003 C 
ATOM     16  C   UNL     1     -30.732 -22.110 -30.359  1.00  0.00     0.004 C 
ENDBRANCH  14  15
ENDBRANCH  13  14
ENDBRANCH  12  13
ENDBRANCH  11  12
ENDBRANCH  10  11
ENDBRANCH   1  10
TORSDOF 12
ENDMDL
MODEL 7
REMARK VINA RESULT:    -3.304      3.499      7.616
REMARK INTER + INTRA:          -6.256
REMARK INTER:                  -5.096
REMARK INTRA:                  -1.159
REMARK UNBOUND:                -0.634
REMARK SMILES CCCCCCCCCCCCCC(=O)[O-]
REMARK SMILES IDX 8 1 9 2 10 3 11 4 12 5 13 6 14 7 15 8 16 9 7 10 6 11 5 12
REMARK SMILES IDX 4 13 3 14 2 15 1 16
REMARK H PARENT
REMARK Flexibility Score: inf
ROOT
ATOM      1  C   UNL     1     -29.618 -20.718 -33.378  1.00  0.00     0.000 C 
ENDROOT
BRANCH   1   2
ATOM      2  C   UNL     1     -31.036 -21.264 -33.170  1.00  0.00     0.000 C 
BRANCH   2   3
ATOM      3  C   UNL     1     -32.081 -20.342 -33.808  1.00  0.00     0.000 C 
BRANCH   3   4
ATOM      4  C   UNL     1     -32.775 -21.033 -34.991  1.00  0.00     0.000 C 
BRANCH   4   5
ATOM      5  C   UNL     1     -32.218 -22.439 -35.265  1.00  0.00     0.006 C 
BRANCH   5   6
ATOM      6  C   UNL     1     -31.598 -22.567 -36.662  1.00  0.00     0.053 C 
BRANCH   6   7
ATOM      7  C   UNL     1     -32.102 -23.799 -37.346  1.00  0.00     0.041 C 
ATOM      8  O   UNL     1     -33.170 -24.345 -36.962  1.00  0.00    -0.550 OA
ATOM      9  O   UNL     1     -31.367 -24.373 -38.375  1.00  0.00    -0.550 OA
ENDBRANCH   6   7
ENDBRANCH   5   6
ENDBRANCH   4   5
ENDBRANCH   3   4
ENDBRANCH   2   3
ENDBRANCH   1   2
BRANCH   1  10
ATOM     10  C   UNL     1     -29.519 -19.256 -32.923  1.00  0.00     0.000 C 
BRANCH  10  11
ATOM     11  C   UNL     1     -28.579 -19.065 -31.721  1.00  0.00    -0.000 C 
BRANCH  11  12
ATOM     12  C   UNL     1     -29.284 -18.875 -30.361  1.00  0.00    -0.000 C 
BRANCH  12  13
ATOM     13  C   UNL     1     -30.822 -18.906 -30.417  1.00  0.00    -0.000 C 
BRANCH  13  14
ATOM     14  C   UNL     1     -31.420 -20.115 -29.678  1.00  0.00    -0.000 C 
BRANCH  14  15
ATOM     15  C   UNL     1     -30.422 -21.275 -29.543  1.00  0.00    -0.003 C 
ATOM     16  C   UNL     1     -30.868 -22.527 -30.298  1.00  0.00     0.004 C 
ENDBRANCH  14  15
ENDBRANCH  13  14
ENDBRANCH  12  13
ENDBRANCH  11  12
ENDBRANCH  10  11
ENDBRANCH   1  10
TORSDOF 12
ENDMDL
MODEL 8
REMARK VINA RESULT:    -2.651      3.661      8.123
REMARK INTER + INTRA:          -5.144
REMARK INTER:                  -4.459
REMARK INTRA:                  -0.685
REMARK UNBOUND:                -0.634
REMARK SMILES CCCCCCCCCCCCCC(=O)[O-]
REMARK SMILES IDX 8 1 9 2 10 3 11 4 12 5 13 6 14 7 15 8 16 9 7 10 6 11 5 12
REMARK SMILES IDX 4 13 3 14 2 15 1 16
REMARK H PARENT
REMARK Flexibility Score: inf
ROOT
ATOM      1  C   UNL     1     -29.891 -20.633 -33.633  1.00  0.00     0.000 C 
ENDROOT
BRANCH   1   2
ATOM      2  C   UNL     1     -31.404 -20.879 -33.576  1.00  0.00     0.000 C 
BRANCH   2   3
ATOM      3  C   UNL     1     -31.841 -21.882 -34.649  1.00  0.00     0.000 C 
BRANCH   3   4
ATOM      4  C   UNL     1     -33.169 -21.456 -35.291  1.00  0.00     0.000 C 
BRANCH   4   5
ATOM      5  C   UNL     1     -33.411 -22.128 -36.653  1.00  0.00     0.006 C 
BRANCH   5   6
ATOM      6  C   UNL     1     -32.984 -23.601 -36.669  1.00  0.00     0.053 C 
BRANCH   6   7
ATOM      7  C   UNL     1     -32.040 -23.859 -37.801  1.00  0.00     0.041 C 
ATOM      8  O   UNL     1     -31.190 -24.784 -37.718  1.00  0.00    -0.550 OA
ATOM      9  O   UNL     1     -32.066 -23.045 -38.927  1.00  0.00    -0.550 OA
ENDBRANCH   6   7
ENDBRANCH   5   6
ENDBRANCH   4   5
ENDBRANCH   3   4
ENDBRANCH   2   3
ENDBRANCH   1   2
BRANCH   1  10
ATOM     10  C   UNL     1     -29.555 -19.184 -33.255  1.00  0.00     0.000 C 
BRANCH  10  11
ATOM     11  C   UNL     1     -28.482 -19.085 -32.156  1.00  0.00    -0.000 C 
BRANCH  11  12
ATOM     12  C   UNL     1     -28.964 -19.449 -30.736  1.00  0.00    -0.000 C 
BRANCH  12  13
ATOM     13  C   UNL     1     -30.339 -18.875 -30.349  1.00  0.00    -0.000 C 
BRANCH  13  14
ATOM     14  C   UNL     1     -31.413 -19.963 -30.183  1.00  0.00    -0.000 C 
BRANCH  14  15
ATOM     15  C   UNL     1     -32.166 -19.848 -28.849  1.00  0.00    -0.003 C 
ATOM     16  C   UNL     1     -33.518 -19.150 -28.995  1.00  0.00     0.004 C 
ENDBRANCH  14  15
ENDBRANCH  13  14
ENDBRANCH  12  13
ENDBRANCH  11  12
ENDBRANCH  10  11
ENDBRANCH   1  10
TORSDOF 12
ENDMDL
