MODEL 1
REMARK VINA RESULT:    -2.713      0.000      0.000
REMARK INTER + INTRA:          -7.271
REMARK INTER:                  -6.837
REMARK INTRA:                  -0.434
REMARK UNBOUND:                -0.434
REMARK SMILES CCCCCCCCCCCCCCCCCCCCCCCCCCCC(=O)[O-]
REMARK SMILES IDX 15 1 16 2 17 3 18 4 19 5 20 6 21 7 22 8 23 9 24 10 25 11
REMARK SMILES IDX 26 12 27 13 28 14 29 15 30 16 14 17 13 18 12 19 11 20 10 21
REMARK SMILES IDX 9 22 8 23 7 24 6 25 5 26 4 27 3 28 2 29 1 30
REMARK H PARENT
REMARK Flexibility Score: inf
ROOT
ATOM      1  C   UNL     1      -1.503 -31.268  23.785  1.00  0.00     0.000 C 
ENDROOT
BRANCH   1   2
ATOM      2  C   UNL     1      -1.941 -32.257  24.877  1.00  0.00     0.000 C 
BRANCH   2   3
ATOM      3  C   UNL     1      -1.580 -33.712  24.536  1.00  0.00     0.000 C 
BRANCH   3   4
ATOM      4  C   UNL     1      -2.338 -34.234  23.302  1.00  0.00     0.000 C 
BRANCH   4   5
ATOM      5  C   UNL     1      -1.499 -34.171  22.017  1.00  0.00     0.000 C 
BRANCH   5   6
ATOM      6  C   UNL     1      -1.124 -35.566  21.487  1.00  0.00     0.000 C 
BRANCH   6   7
ATOM      7  C   UNL     1       0.001 -35.510  20.441  1.00  0.00     0.000 C 
BRANCH   7   8
ATOM      8  C   UNL     1       1.192 -36.411  20.804  1.00  0.00     0.000 C 
BRANCH   8   9
ATOM      9  C   UNL     1       0.753 -37.881  20.909  1.00  0.00     0.000 C 
BRANCH   9  10
ATOM     10  C   UNL     1      -0.768 -38.041  21.067  1.00  0.00     0.000 C 
BRANCH  10  11
ATOM     11  C   UNL     1      -1.501 -38.125  19.716  1.00  0.00     0.000 C 
BRANCH  11  12
ATOM     12  C   UNL     1      -3.026 -38.012  19.871  1.00  0.00     0.006 C 
BRANCH  12  13
ATOM     13  C   UNL     1      -3.556 -36.643  19.422  1.00  0.00     0.053 C 
BRANCH  13  14
ATOM     14  C   UNL     1      -4.041 -36.706  18.007  1.00  0.00     0.041 C 
ATOM     15  O   UNL     1      -4.231 -37.819  17.451  1.00  0.00    -0.550 OA
ATOM     16  O   UNL     1      -4.300 -35.534  17.307  1.00  0.00    -0.550 OA
ENDBRANCH  13  14
ENDBRANCH  12  13
ENDBRANCH  11  12
ENDBRANCH  10  11
ENDBRANCH   9  10
ENDBRANCH   8   9
ENDBRANCH   7   8
ENDBRANCH   6   7
ENDBRANCH   5   6
ENDBRANCH   4   5
ENDBRANCH   3   4
ENDBRANCH   2   3
ENDBRANCH   1   2
BRANCH   1  17
ATOM     17  C   UNL     1       0.026 -31.177  23.639  1.00  0.00     0.000 C 
BRANCH  17  18
ATOM     18  C   UNL     1       0.816 -32.259  24.401  1.00  0.00     0.000 C 
BRANCH  18  19
ATOM     19  C   UNL     1       2.127 -32.707  23.726  1.00  0.00     0.000 C 
BRANCH  19  20
ATOM     20  C   UNL     1       2.413 -34.219  23.801  1.00  0.00     0.000 C 
BRANCH  20  21
ATOM     21  C   UNL     1       3.262 -34.784  22.648  1.00  0.00     0.000 C 
BRANCH  21  22
ATOM     22  C   UNL     1       4.407 -35.687  23.136  1.00  0.00    -0.000 C 
BRANCH  22  23
ATOM     23  C   UNL     1       4.039 -37.183  23.115  1.00  0.00    -0.000 C 
BRANCH  23  24
ATOM     24  C   UNL     1       4.500 -37.960  21.864  1.00  0.00    -0.000 C 
BRANCH  24  25
ATOM     25  C   UNL     1       5.787 -37.435  21.205  1.00  0.00    -0.000 C 
BRANCH  25  26
ATOM     26  C   UNL     1       5.590 -37.049  19.731  1.00  0.00    -0.000 C 
BRANCH  26  27
ATOM     27  C   UNL     1       4.505 -35.973  19.586  1.00  0.00    -0.000 C 
BRANCH  27  28
ATOM     28  C   UNL     1       3.921 -35.900  18.163  1.00  0.00    -0.000 C 
BRANCH  28  29
ATOM     29  C   UNL     1       3.570 -37.264  17.541  1.00  0.00    -0.003 C 
ATOM     30  C   UNL     1       2.138 -37.707  17.843  1.00  0.00     0.004 C 
ENDBRANCH  28  29
ENDBRANCH  27  28
ENDBRANCH  26  27
ENDBRANCH  25  26
ENDBRANCH  24  25
ENDBRANCH  23  24
ENDBRANCH  22  23
ENDBRANCH  21  22
ENDBRANCH  20  21
ENDBRANCH  19  20
ENDBRANCH  18  19
ENDBRANCH  17  18
ENDBRANCH   1  17
TORSDOF 26
ENDMDL
MODEL 2
REMARK VINA RESULT:    -2.670      1.974      6.244
REMARK INTER + INTRA:          -7.162
REMARK INTER:                  -5.311
REMARK INTRA:                  -1.852
REMARK UNBOUND:                -0.434
REMARK SMILES CCCCCCCCCCCCCCCCCCCCCCCCCCCC(=O)[O-]
REMARK SMILES IDX 15 1 16 2 17 3 18 4 19 5 20 6 21 7 22 8 23 9 24 10 25 11
REMARK SMILES IDX 26 12 27 13 28 14 29 15 30 16 14 17 13 18 12 19 11 20 10 21
REMARK SMILES IDX 9 22 8 23 7 24 6 25 5 26 4 27 3 28 2 29 1 30
REMARK H PARENT
REMARK Flexibility Score: inf
ROOT
ATOM      1  C   UNL     1       0.915 -31.877  23.922  1.00  0.00     0.000 C 
ENDROOT
BRANCH   1   2
ATOM      2  C   UNL     1       1.558 -33.189  24.398  1.00  0.00     0.000 C 
BRANCH   2   3
ATOM      3  C   UNL     1       2.794 -33.576  23.571  1.00  0.00     0.000 C 
BRANCH   3   4
ATOM      4  C   UNL     1       3.363 -34.950  23.967  1.00  0.00     0.000 C 
BRANCH   4   5
ATOM      5  C   UNL     1       4.738 -35.228  23.342  1.00  0.00     0.000 C 
BRANCH   5   6
ATOM      6  C   UNL     1       4.656 -36.169  22.126  1.00  0.00     0.000 C 
BRANCH   6   7
ATOM      7  C   UNL     1       6.045 -36.579  21.611  1.00  0.00     0.000 C 
BRANCH   7   8
ATOM      8  C   UNL     1       6.053 -37.983  20.986  1.00  0.00     0.000 C 
BRANCH   8   9
ATOM      9  C   UNL     1       5.882 -37.903  19.460  1.00  0.00     0.000 C 
BRANCH   9  10
ATOM     10  C   UNL     1       4.679 -37.042  19.038  1.00  0.00     0.000 C 
BRANCH  10  11
ATOM     11  C   UNL     1       3.752 -37.762  18.043  1.00  0.00     0.000 C 
BRANCH  11  12
ATOM     12  C   UNL     1       2.287 -37.765  18.507  1.00  0.00     0.006 C 
BRANCH  12  13
ATOM     13  C   UNL     1       2.148 -37.428  19.998  1.00  0.00     0.053 C 
BRANCH  13  14
ATOM     14  C   UNL     1       1.538 -36.072  20.175  1.00  0.00     0.041 C 
ATOM     15  O   UNL     1       1.250 -35.371  19.170  1.00  0.00    -0.550 OA
ATOM     16  O   UNL     1       1.271 -35.590  21.450  1.00  0.00    -0.550 OA
ENDBRANCH  13  14
ENDBRANCH  12  13
ENDBRANCH  11  12
ENDBRANCH  10  11
ENDBRANCH   9  10
ENDBRANCH   8   9
ENDBRANCH   7   8
ENDBRANCH   6   7
ENDBRANCH   5   6
ENDBRANCH   4   5
ENDBRANCH   3   4
ENDBRANCH   2   3
ENDBRANCH   1   2
BRANCH   1  17
ATOM     17  C   UNL     1      -0.343 -31.502  24.724  1.00  0.00     0.000 C 
BRANCH  17  18
ATOM     18  C   UNL     1      -1.548 -31.056  23.872  1.00  0.00     0.000 C 
BRANCH  18  19
ATOM     19  C   UNL     1      -2.573 -32.163  23.562  1.00  0.00     0.000 C 
BRANCH  19  20
ATOM     20  C   UNL     1      -2.096 -33.596  23.868  1.00  0.00     0.000 C 
BRANCH  20  21
ATOM     21  C   UNL     1      -1.360 -34.302  22.715  1.00  0.00     0.000 C 
BRANCH  21  22
ATOM     22  C   UNL     1      -2.020 -35.631  22.311  1.00  0.00    -0.000 C 
BRANCH  22  23
ATOM     23  C   UNL     1      -2.054 -35.843  20.786  1.00  0.00    -0.000 C 
BRANCH  23  24
ATOM     24  C   UNL     1      -2.156 -37.312  20.324  1.00  0.00    -0.000 C 
BRANCH  24  25
ATOM     25  C   UNL     1      -3.472 -38.021  20.687  1.00  0.00    -0.000 C 
BRANCH  25  26
ATOM     26  C   UNL     1      -4.442 -38.125  19.500  1.00  0.00    -0.000 C 
BRANCH  26  27
ATOM     27  C   UNL     1      -3.763 -37.682  18.196  1.00  0.00    -0.000 C 
BRANCH  27  28
ATOM     28  C   UNL     1      -4.767 -37.210  17.129  1.00  0.00    -0.000 C 
BRANCH  28  29
ATOM     29  C   UNL     1      -4.774 -35.692  16.879  1.00  0.00    -0.003 C 
ATOM     30  C   UNL     1      -4.753 -34.874  18.170  1.00  0.00     0.004 C 
ENDBRANCH  28  29
ENDBRANCH  27  28
ENDBRANCH  26  27
ENDBRANCH  25  26
ENDBRANCH  24  25
ENDBRANCH  23  24
ENDBRANCH  22  23
ENDBRANCH  21  22
ENDBRANCH  20  21
ENDBRANCH  19  20
ENDBRANCH  18  19
ENDBRANCH  17  18
ENDBRANCH   1  17
TORSDOF 26
ENDMDL
MODEL 3
REMARK VINA RESULT:    -2.592      1.882      6.415
REMARK INTER + INTRA:          -6.967
REMARK INTER:                  -4.978
REMARK INTRA:                  -1.988
REMARK UNBOUND:                -0.434
REMARK SMILES CCCCCCCCCCCCCCCCCCCCCCCCCCCC(=O)[O-]
REMARK SMILES IDX 15 1 16 2 17 3 18 4 19 5 20 6 21 7 22 8 23 9 24 10 25 11
REMARK SMILES IDX 26 12 27 13 28 14 29 15 30 16 14 17 13 18 12 19 11 20 10 21
REMARK SMILES IDX 9 22 8 23 7 24 6 25 5 26 4 27 3 28 2 29 1 30
REMARK H PARENT
REMARK Flexibility Score: inf
ROOT
ATOM      1  C   UNL     1       2.247 -33.818  23.542  1.00  0.00     0.000 C 
ENDROOT
BRANCH   1   2
ATOM      2  C   UNL     1       3.197 -34.824  24.210  1.00  0.00     0.000 C 
BRANCH   2   3
ATOM      3  C   UNL     1       4.285 -35.336  23.252  1.00  0.00     0.000 C 
BRANCH   3   4
ATOM      4  C   UNL     1       3.765 -36.427  22.300  1.00  0.00     0.000 C 
BRANCH   4   5
ATOM      5  C   UNL     1       4.318 -37.821  22.635  1.00  0.00     0.000 C 
BRANCH   5   6
ATOM      6  C   UNL     1       5.677 -38.095  21.965  1.00  0.00     0.000 C 
BRANCH   6   7
ATOM      7  C   UNL     1       5.976 -37.104  20.828  1.00  0.00     0.000 C 
BRANCH   7   8
ATOM      8  C   UNL     1       6.120 -37.796  19.463  1.00  0.00     0.000 C 
BRANCH   8   9
ATOM      9  C   UNL     1       5.874 -36.801  18.317  1.00  0.00     0.000 C 
BRANCH   9  10
ATOM     10  C   UNL     1       4.419 -36.810  17.820  1.00  0.00     0.000 C 
BRANCH  10  11
ATOM     11  C   UNL     1       3.645 -38.062  18.269  1.00  0.00     0.000 C 
BRANCH  11  12
ATOM     12  C   UNL     1       2.165 -37.760  18.560  1.00  0.00     0.006 C 
BRANCH  12  13
ATOM     13  C   UNL     1       1.970 -36.384  19.212  1.00  0.00     0.053 C 
BRANCH  13  14
ATOM     14  C   UNL     1       0.849 -36.428  20.204  1.00  0.00     0.041 C 
ATOM     15  O   UNL     1       0.086 -35.437  20.342  1.00  0.00    -0.550 OA
ATOM     16  O   UNL     1       0.637 -37.572  20.963  1.00  0.00    -0.550 OA
ENDBRANCH  13  14
ENDBRANCH  12  13
ENDBRANCH  11  12
ENDBRANCH  10  11
ENDBRANCH   9  10
ENDBRANCH   8   9
ENDBRANCH   7   8
ENDBRANCH   6   7
ENDBRANCH   5   6
ENDBRANCH   4   5
ENDBRANCH   3   4
ENDBRANCH   2   3
ENDBRANCH   1   2
BRANCH   1  17
ATOM     17  C   UNL     1       2.086 -32.519  24.351  1.00  0.00     0.000 C 
BRANCH  17  18
ATOM     18  C   UNL     1       0.688 -31.874  24.275  1.00  0.00     0.000 C 
BRANCH  18  19
ATOM     19  C   UNL     1      -0.237 -32.450  23.185  1.00  0.00     0.000 C 
BRANCH  19  20
ATOM     20  C   UNL     1      -1.689 -32.708  23.634  1.00  0.00     0.000 C 
BRANCH  20  21
ATOM     21  C   UNL     1      -2.112 -34.188  23.662  1.00  0.00     0.000 C 
BRANCH  21  22
ATOM     22  C   UNL     1      -1.802 -34.922  22.347  1.00  0.00    -0.000 C 
BRANCH  22  23
ATOM     23  C   UNL     1      -3.055 -35.541  21.698  1.00  0.00    -0.000 C 
BRANCH  23  24
ATOM     24  C   UNL     1      -3.392 -36.977  22.149  1.00  0.00    -0.000 C 
BRANCH  24  25
ATOM     25  C   UNL     1      -3.698 -37.966  21.011  1.00  0.00    -0.000 C 
BRANCH  25  26
ATOM     26  C   UNL     1      -3.242 -37.454  19.636  1.00  0.00    -0.000 C 
BRANCH  26  27
ATOM     27  C   UNL     1      -4.041 -38.125  18.509  1.00  0.00    -0.000 C 
BRANCH  27  28
ATOM     28  C   UNL     1      -3.988 -37.338  17.188  1.00  0.00    -0.000 C 
BRANCH  28  29
ATOM     29  C   UNL     1      -4.382 -35.854  17.306  1.00  0.00    -0.003 C 
ATOM     30  C   UNL     1      -5.887 -35.624  17.173  1.00  0.00     0.004 C 
ENDBRANCH  28  29
ENDBRANCH  27  28
ENDBRANCH  26  27
ENDBRANCH  25  26
ENDBRANCH  24  25
ENDBRANCH  23  24
ENDBRANCH  22  23
ENDBRANCH  21  22
ENDBRANCH  20  21
ENDBRANCH  19  20
ENDBRANCH  18  19
ENDBRANCH  17  18
ENDBRANCH   1  17
TORSDOF 26
ENDMDL
MODEL 4
REMARK VINA RESULT:    -2.305      1.203      2.554
REMARK INTER + INTRA:          -6.243
REMARK INTER:                  -4.252
REMARK INTRA:                  -1.991
REMARK UNBOUND:                -0.434
REMARK SMILES CCCCCCCCCCCCCCCCCCCCCCCCCCCC(=O)[O-]
REMARK SMILES IDX 15 1 16 2 17 3 18 4 19 5 20 6 21 7 22 8 23 9 24 10 25 11
REMARK SMILES IDX 26 12 27 13 28 14 29 15 30 16 14 17 13 18 12 19 11 20 10 21
REMARK SMILES IDX 9 22 8 23 7 24 6 25 5 26 4 27 3 28 2 29 1 30
REMARK H PARENT
REMARK Flexibility Score: inf
ROOT
ATOM      1  C   UNL     1       0.335 -30.931  24.220  1.00  0.00     0.000 C 
ENDROOT
BRANCH   1   2
ATOM      2  C   UNL     1      -1.103 -31.474  24.188  1.00  0.00     0.000 C 
BRANCH   2   3
ATOM      3  C   UNL     1      -1.239 -32.735  23.319  1.00  0.00     0.000 C 
BRANCH   3   4
ATOM      4  C   UNL     1      -2.048 -33.845  24.014  1.00  0.00     0.000 C 
BRANCH   4   5
ATOM      5  C   UNL     1      -2.663 -34.842  23.020  1.00  0.00     0.000 C 
BRANCH   5   6
ATOM      6  C   UNL     1      -2.179 -34.614  21.577  1.00  0.00     0.000 C 
BRANCH   6   7
ATOM      7  C   UNL     1      -1.150 -35.666  21.133  1.00  0.00     0.000 C 
BRANCH   7   8
ATOM      8  C   UNL     1      -1.326 -37.008  21.860  1.00  0.00     0.000 C 
BRANCH   8   9
ATOM      9  C   UNL     1      -2.169 -37.980  21.017  1.00  0.00     0.000 C 
BRANCH   9  10
ATOM     10  C   UNL     1      -3.606 -37.482  20.790  1.00  0.00     0.000 C 
BRANCH  10  11
ATOM     11  C   UNL     1      -4.271 -38.125  19.561  1.00  0.00     0.000 C 
BRANCH  11  12
ATOM     12  C   UNL     1      -3.418 -37.979  18.291  1.00  0.00     0.006 C 
BRANCH  12  13
ATOM     13  C   UNL     1      -4.264 -37.634  17.058  1.00  0.00     0.053 C 
BRANCH  13  14
ATOM     14  C   UNL     1      -4.801 -36.240  17.163  1.00  0.00     0.041 C 
ATOM     15  O   UNL     1      -6.030 -36.020  17.007  1.00  0.00    -0.550 OA
ATOM     16  O   UNL     1      -3.944 -35.185  17.451  1.00  0.00    -0.550 OA
ENDBRANCH  13  14
ENDBRANCH  12  13
ENDBRANCH  11  12
ENDBRANCH  10  11
ENDBRANCH   9  10
ENDBRANCH   8   9
ENDBRANCH   7   8
ENDBRANCH   6   7
ENDBRANCH   5   6
ENDBRANCH   4   5
ENDBRANCH   3   4
ENDBRANCH   2   3
ENDBRANCH   1   2
BRANCH   1  17
ATOM     17  C   UNL     1       1.368 -31.997  24.626  1.00  0.00     0.000 C 
BRANCH  17  18
ATOM     18  C   UNL     1       1.647 -33.071  23.556  1.00  0.00     0.000 C 
BRANCH  18  19
ATOM     19  C   UNL     1       3.057 -33.691  23.606  1.00  0.00     0.000 C 
BRANCH  19  20
ATOM     20  C   UNL     1       3.140 -35.157  23.138  1.00  0.00     0.000 C 
BRANCH  20  21
ATOM     21  C   UNL     1       2.424 -35.462  21.810  1.00  0.00     0.000 C 
BRANCH  21  22
ATOM     22  C   UNL     1       2.375 -36.966  21.490  1.00  0.00    -0.000 C 
BRANCH  22  23
ATOM     23  C   UNL     1       1.627 -37.275  20.180  1.00  0.00    -0.000 C 
BRANCH  23  24
ATOM     24  C   UNL     1       2.525 -37.564  18.959  1.00  0.00    -0.000 C 
BRANCH  24  25
ATOM     25  C   UNL     1       3.443 -36.405  18.533  1.00  0.00    -0.000 C 
BRANCH  25  26
ATOM     26  C   UNL     1       4.549 -36.844  17.561  1.00  0.00    -0.000 C 
BRANCH  26  27
ATOM     27  C   UNL     1       5.532 -37.803  18.246  1.00  0.00    -0.000 C 
BRANCH  27  28
ATOM     28  C   UNL     1       6.075 -37.253  19.578  1.00  0.00    -0.000 C 
BRANCH  28  29
ATOM     29  C   UNL     1       5.583 -38.000  20.830  1.00  0.00    -0.003 C 
ATOM     30  C   UNL     1       5.993 -37.315  22.134  1.00  0.00     0.004 C 
ENDBRANCH  28  29
ENDBRANCH  27  28
ENDBRANCH  26  27
ENDBRANCH  25  26
ENDBRANCH  24  25
ENDBRANCH  23  24
ENDBRANCH  22  23
ENDBRANCH  21  22
ENDBRANCH  20  21
ENDBRANCH  19  20
ENDBRANCH  18  19
ENDBRANCH  17  18
ENDBRANCH   1  17
TORSDOF 26
ENDMDL
MODEL 5
REMARK VINA RESULT:    -2.131      2.446      5.859
REMARK INTER + INTRA:          -5.806
REMARK INTER:                  -3.368
REMARK INTRA:                  -2.438
REMARK UNBOUND:                -0.434
REMARK SMILES CCCCCCCCCCCCCCCCCCCCCCCCCCCC(=O)[O-]
REMARK SMILES IDX 15 1 16 2 17 3 18 4 19 5 20 6 21 7 22 8 23 9 24 10 25 11
REMARK SMILES IDX 26 12 27 13 28 14 29 15 30 16 14 17 13 18 12 19 11 20 10 21
REMARK SMILES IDX 9 22 8 23 7 24 6 25 5 26 4 27 3 28 2 29 1 30
REMARK H PARENT
REMARK Flexibility Score: inf
ROOT
ATOM      1  C   UNL     1       0.048 -35.955  20.915  1.00  0.00     0.000 C 
ENDROOT
BRANCH   1   2
ATOM      2  C   UNL     1      -0.092 -37.442  21.276  1.00  0.00     0.000 C 
BRANCH   2   3
ATOM      3  C   UNL     1      -1.338 -38.088  20.649  1.00  0.00     0.000 C 
BRANCH   3   4
ATOM      4  C   UNL     1      -1.276 -38.118  19.112  1.00  0.00     0.000 C 
BRANCH   4   5
ATOM      5  C   UNL     1      -2.667 -38.125  18.460  1.00  0.00     0.000 C 
BRANCH   5   6
ATOM      6  C   UNL     1      -3.799 -37.914  19.482  1.00  0.00     0.000 C 
BRANCH   6   7
ATOM      7  C   UNL     1      -4.173 -36.432  19.641  1.00  0.00     0.000 C 
BRANCH   7   8
ATOM      8  C   UNL     1      -3.290 -35.707  20.668  1.00  0.00     0.000 C 
BRANCH   8   9
ATOM      9  C   UNL     1      -3.815 -35.931  22.096  1.00  0.00     0.000 C 
BRANCH   9  10
ATOM     10  C   UNL     1      -2.791 -35.547  23.177  1.00  0.00     0.000 C 
BRANCH  10  11
ATOM     11  C   UNL     1      -2.032 -34.251  22.844  1.00  0.00     0.000 C 
BRANCH  11  12
ATOM     12  C   UNL     1      -1.831 -33.358  24.079  1.00  0.00     0.006 C 
BRANCH  12  13
ATOM     13  C   UNL     1      -1.299 -31.966  23.710  1.00  0.00     0.053 C 
BRANCH  13  14
ATOM     14  C   UNL     1      -2.346 -30.923  23.949  1.00  0.00     0.041 C 
ATOM     15  O   UNL     1      -2.089 -29.919  24.664  1.00  0.00    -0.550 OA
ATOM     16  O   UNL     1      -3.601 -31.050  23.367  1.00  0.00    -0.550 OA
ENDBRANCH  13  14
ENDBRANCH  12  13
ENDBRANCH  11  12
ENDBRANCH  10  11
ENDBRANCH   9  10
ENDBRANCH   8   9
ENDBRANCH   7   8
ENDBRANCH   6   7
ENDBRANCH   5   6
ENDBRANCH   4   5
ENDBRANCH   3   4
ENDBRANCH   2   3
ENDBRANCH   1   2
BRANCH   1  17
ATOM     17  C   UNL     1       1.123 -35.698  19.845  1.00  0.00     0.000 C 
BRANCH  17  18
ATOM     18  C   UNL     1       2.308 -36.683  19.865  1.00  0.00     0.000 C 
BRANCH  18  19
ATOM     19  C   UNL     1       2.350 -37.678  18.690  1.00  0.00     0.000 C 
BRANCH  19  20
ATOM     20  C   UNL     1       3.740 -37.877  18.055  1.00  0.00     0.000 C 
BRANCH  20  21
ATOM     21  C   UNL     1       4.612 -36.612  17.978  1.00  0.00     0.000 C 
BRANCH  21  22
ATOM     22  C   UNL     1       5.658 -36.538  19.103  1.00  0.00    -0.000 C 
BRANCH  22  23
ATOM     23  C   UNL     1       5.699 -37.813  19.967  1.00  0.00    -0.000 C 
BRANCH  23  24
ATOM     24  C   UNL     1       5.618 -37.582  21.490  1.00  0.00    -0.000 C 
BRANCH  24  25
ATOM     25  C   UNL     1       6.122 -36.210  21.971  1.00  0.00    -0.000 C 
BRANCH  25  26
ATOM     26  C   UNL     1       5.096 -35.467  22.841  1.00  0.00    -0.000 C 
BRANCH  26  27
ATOM     27  C   UNL     1       3.684 -36.029  22.624  1.00  0.00    -0.000 C 
BRANCH  27  28
ATOM     28  C   UNL     1       2.578 -35.054  23.063  1.00  0.00    -0.000 C 
BRANCH  28  29
ATOM     29  C   UNL     1       3.076 -33.654  23.464  1.00  0.00    -0.003 C 
ATOM     30  C   UNL     1       2.000 -32.809  24.146  1.00  0.00     0.004 C 
ENDBRANCH  28  29
ENDBRANCH  27  28
ENDBRANCH  26  27
ENDBRANCH  25  26
ENDBRANCH  24  25
ENDBRANCH  23  24
ENDBRANCH  22  23
ENDBRANCH  21  22
ENDBRANCH  20  21
ENDBRANCH  19  20
ENDBRANCH  18  19
ENDBRANCH  17  18
ENDBRANCH   1  17
TORSDOF 26
ENDMDL
MODEL 6
REMARK VINA RESULT:    -1.664      2.723      8.084
REMARK INTER + INTRA:          -4.627
REMARK INTER:                  -2.715
REMARK INTRA:                  -1.912
REMARK UNBOUND:                -0.434
REMARK SMILES CCCCCCCCCCCCCCCCCCCCCCCCCCCC(=O)[O-]
REMARK SMILES IDX 15 1 16 2 17 3 18 4 19 5 20 6 21 7 22 8 23 9 24 10 25 11
REMARK SMILES IDX 26 12 27 13 28 14 29 15 30 16 14 17 13 18 12 19 11 20 10 21
REMARK SMILES IDX 9 22 8 23 7 24 6 25 5 26 4 27 3 28 2 29 1 30
REMARK H PARENT
REMARK Flexibility Score: inf
ROOT
ATOM      1  C   UNL     1       0.693 -35.717  20.927  1.00  0.00     0.000 C 
ENDROOT
BRANCH   1   2
ATOM      2  C   UNL     1       1.892 -35.848  19.974  1.00  0.00     0.000 C 
BRANCH   2   3
ATOM      3  C   UNL     1       2.417 -37.290  19.881  1.00  0.00     0.000 C 
BRANCH   3   4
ATOM      4  C   UNL     1       2.498 -37.795  18.429  1.00  0.00     0.000 C 
BRANCH   4   5
ATOM      5  C   UNL     1       3.543 -37.040  17.594  1.00  0.00     0.000 C 
BRANCH   5   6
ATOM      6  C   UNL     1       4.810 -36.699  18.400  1.00  0.00     0.000 C 
BRANCH   6   7
ATOM      7  C   UNL     1       5.680 -37.938  18.671  1.00  0.00     0.000 C 
BRANCH   7   8
ATOM      8  C   UNL     1       6.053 -38.086  20.154  1.00  0.00     0.000 C 
BRANCH   8   9
ATOM      9  C   UNL     1       5.953 -36.734  20.880  1.00  0.00     0.000 C 
BRANCH   9  10
ATOM     10  C   UNL     1       5.896 -36.880  22.410  1.00  0.00     0.000 C 
BRANCH  10  11
ATOM     11  C   UNL     1       5.422 -35.596  23.113  1.00  0.00     0.000 C 
BRANCH  11  12
ATOM     12  C   UNL     1       3.910 -35.605  23.390  1.00  0.00     0.006 C 
BRANCH  12  13
ATOM     13  C   UNL     1       3.172 -34.499  22.622  1.00  0.00     0.053 C 
BRANCH  13  14
ATOM     14  C   UNL     1       2.287 -33.720  23.545  1.00  0.00     0.041 C 
ATOM     15  O   UNL     1       1.047 -33.666  23.338  1.00  0.00    -0.550 OA
ATOM     16  O   UNL     1       2.831 -33.068  24.645  1.00  0.00    -0.550 OA
ENDBRANCH  13  14
ENDBRANCH  12  13
ENDBRANCH  11  12
ENDBRANCH  10  11
ENDBRANCH   9  10
ENDBRANCH   8   9
ENDBRANCH   7   8
ENDBRANCH   6   7
ENDBRANCH   5   6
ENDBRANCH   4   5
ENDBRANCH   3   4
ENDBRANCH   2   3
ENDBRANCH   1   2
BRANCH   1  17
ATOM     17  C   UNL     1      -0.287 -36.899  20.822  1.00  0.00     0.000 C 
BRANCH  17  18
ATOM     18  C   UNL     1      -1.287 -36.811  19.652  1.00  0.00     0.000 C 
BRANCH  18  19
ATOM     19  C   UNL     1      -2.030 -38.122  19.329  1.00  0.00     0.000 C 
BRANCH  19  20
ATOM     20  C   UNL     1      -3.486 -37.944  18.854  1.00  0.00     0.000 C 
BRANCH  20  21
ATOM     21  C   UNL     1      -4.492 -37.565  19.955  1.00  0.00     0.000 C 
BRANCH  21  22
ATOM     22  C   UNL     1      -3.912 -37.714  21.371  1.00  0.00    -0.000 C 
BRANCH  22  23
ATOM     23  C   UNL     1      -4.251 -36.522  22.286  1.00  0.00    -0.000 C 
BRANCH  23  24
ATOM     24  C   UNL     1      -3.477 -35.221  21.991  1.00  0.00    -0.000 C 
BRANCH  24  25
ATOM     25  C   UNL     1      -2.309 -34.924  22.947  1.00  0.00    -0.000 C 
BRANCH  25  26
ATOM     26  C   UNL     1      -1.855 -33.456  22.900  1.00  0.00    -0.000 C 
BRANCH  26  27
ATOM     27  C   UNL     1      -2.020 -32.788  24.272  1.00  0.00    -0.000 C 
BRANCH  27  28
ATOM     28  C   UNL     1      -2.687 -31.403  24.186  1.00  0.00    -0.000 C 
BRANCH  28  29
ATOM     29  C   UNL     1      -1.705 -30.219  24.117  1.00  0.00    -0.003 C 
ATOM     30  C   UNL     1      -0.273 -30.648  23.803  1.00  0.00     0.004 C 
ENDBRANCH  28  29
ENDBRANCH  27  28
ENDBRANCH  26  27
ENDBRANCH  25  26
ENDBRANCH  24  25
ENDBRANCH  23  24
ENDBRANCH  22  23
ENDBRANCH  21  22
ENDBRANCH  20  21
ENDBRANCH  19  20
ENDBRANCH  18  19
ENDBRANCH  17  18
ENDBRANCH   1  17
TORSDOF 26
ENDMDL
MODEL 7
REMARK VINA RESULT:    -1.565      2.827      5.141
REMARK INTER + INTRA:          -4.379
REMARK INTER:                  -2.955
REMARK INTRA:                  -1.424
REMARK UNBOUND:                -0.434
REMARK SMILES CCCCCCCCCCCCCCCCCCCCCCCCCCCC(=O)[O-]
REMARK SMILES IDX 15 1 16 2 17 3 18 4 19 5 20 6 21 7 22 8 23 9 24 10 25 11
REMARK SMILES IDX 26 12 27 13 28 14 29 15 30 16 14 17 13 18 12 19 11 20 10 21
REMARK SMILES IDX 9 22 8 23 7 24 6 25 5 26 4 27 3 28 2 29 1 30
REMARK H PARENT
REMARK Flexibility Score: inf
ROOT
ATOM      1  C   UNL     1      -0.344 -35.821  21.256  1.00  0.00     0.000 C 
ENDROOT
BRANCH   1   2
ATOM      2  C   UNL     1      -0.686 -37.306  21.457  1.00  0.00     0.000 C 
BRANCH   2   3
ATOM      3  C   UNL     1      -0.544 -38.125  20.164  1.00  0.00     0.000 C 
BRANCH   3   4
ATOM      4  C   UNL     1      -1.827 -38.113  19.314  1.00  0.00     0.000 C 
BRANCH   4   5
ATOM      5  C   UNL     1      -2.484 -36.725  19.250  1.00  0.00     0.000 C 
BRANCH   5   6
ATOM      6  C   UNL     1      -3.982 -36.764  19.604  1.00  0.00     0.000 C 
BRANCH   6   7
ATOM      7  C   UNL     1      -4.256 -37.554  20.894  1.00  0.00     0.000 C 
BRANCH   7   8
ATOM      8  C   UNL     1      -3.559 -36.943  22.120  1.00  0.00     0.000 C 
BRANCH   8   9
ATOM      9  C   UNL     1      -3.543 -35.409  22.032  1.00  0.00     0.000 C 
BRANCH   9  10
ATOM     10  C   UNL     1      -2.863 -34.747  23.242  1.00  0.00     0.000 C 
BRANCH  10  11
ATOM     11  C   UNL     1      -2.099 -33.465  22.869  1.00  0.00     0.000 C 
BRANCH  11  12
ATOM     12  C   UNL     1      -1.540 -32.737  24.102  1.00  0.00     0.006 C 
BRANCH  12  13
ATOM     13  C   UNL     1      -0.418 -31.755  23.739  1.00  0.00     0.053 C 
BRANCH  13  14
ATOM     14  C   UNL     1       0.863 -32.152  24.403  1.00  0.00     0.041 C 
ATOM     15  O   UNL     1       0.867 -32.507  25.611  1.00  0.00    -0.550 OA
ATOM     16  O   UNL     1       2.051 -32.148  23.683  1.00  0.00    -0.550 OA
ENDBRANCH  13  14
ENDBRANCH  12  13
ENDBRANCH  11  12
ENDBRANCH  10  11
ENDBRANCH   9  10
ENDBRANCH   8   9
ENDBRANCH   7   8
ENDBRANCH   6   7
ENDBRANCH   5   6
ENDBRANCH   4   5
ENDBRANCH   3   4
ENDBRANCH   2   3
ENDBRANCH   1   2
BRANCH   1  17
ATOM     17  C   UNL     1       0.636 -35.585  20.093  1.00  0.00     0.000 C 
BRANCH  17  18
ATOM     18  C   UNL     1       2.123 -35.550  20.495  1.00  0.00     0.000 C 
BRANCH  18  19
ATOM     19  C   UNL     1       2.394 -35.661  22.007  1.00  0.00     0.000 C 
BRANCH  19  20
ATOM     20  C   UNL     1       3.580 -34.820  22.519  1.00  0.00     0.000 C 
BRANCH  20  21
ATOM     21  C   UNL     1       4.247 -35.343  23.804  1.00  0.00     0.000 C 
BRANCH  21  22
ATOM     22  C   UNL     1       5.582 -36.057  23.535  1.00  0.00    -0.000 C 
BRANCH  22  23
ATOM     23  C   UNL     1       5.415 -37.570  23.300  1.00  0.00    -0.000 C 
BRANCH  23  24
ATOM     24  C   UNL     1       6.037 -38.109  21.994  1.00  0.00    -0.000 C 
BRANCH  24  25
ATOM     25  C   UNL     1       5.766 -37.259  20.741  1.00  0.00    -0.000 C 
BRANCH  25  26
ATOM     26  C   UNL     1       4.907 -37.990  19.697  1.00  0.00    -0.000 C 
BRANCH  26  27
ATOM     27  C   UNL     1       5.583 -37.969  18.319  1.00  0.00    -0.000 C 
BRANCH  27  28
ATOM     28  C   UNL     1       4.580 -38.101  17.159  1.00  0.00    -0.000 C 
BRANCH  28  29
ATOM     29  C   UNL     1       3.139 -37.684  17.503  1.00  0.00    -0.003 C 
ATOM     30  C   UNL     1       2.870 -36.201  17.248  1.00  0.00     0.004 C 
ENDBRANCH  28  29
ENDBRANCH  27  28
ENDBRANCH  26  27
ENDBRANCH  25  26
ENDBRANCH  24  25
ENDBRANCH  23  24
ENDBRANCH  22  23
ENDBRANCH  21  22
ENDBRANCH  20  21
ENDBRANCH  19  20
ENDBRANCH  18  19
ENDBRANCH  17  18
ENDBRANCH   1  17
TORSDOF 26
ENDMDL
