MODEL 1
REMARK VINA RESULT:     2.671      0.000      0.000
REMARK INTER + INTRA:           5.953
REMARK INTER:                   3.530
REMARK INTRA:                   2.423
REMARK UNBOUND:                 2.423
REMARK SMILES CC[C@@H](C=C[C@H](C)[C@@H]1CC[C@@H]2[C@@H]3CC=C4C[C@@H](O)CC[C@]4(C)[C@H]3CC[C@@]21C)C(C)C
REMARK SMILES IDX 6 1 7 2 5 3 4 4 3 5 2 6 1 7 28 8 29 9 30 10 8 11 9 12 26 13
REMARK SMILES IDX 10 14 11 15 25 16 27 17 12 18 24 19 23 20 13 21 21 22 14 23
REMARK SMILES IDX 15 24 20 25 22 26 16 27 19 28 17 29 18 30
REMARK H PARENT 18 31
REMARK Flexibility Score: inf
ROOT
ATOM      1  C   UNL     1      -2.889  21.873   2.932  1.00  0.00     0.012 C 
ATOM      2  C   UNL     1      -3.497  20.929   1.875  1.00  0.00     0.012 C 
ENDROOT
BRANCH   1   3
ATOM      3  C   UNL     1      -3.080  21.242   4.293  1.00  0.00    -0.028 C 
ATOM      4  C   UNL     1      -4.279  20.921   4.846  1.00  0.00    -0.027 C 
BRANCH   4   5
ATOM      5  C   UNL     1      -5.639  21.060   4.158  1.00  0.00     0.014 C 
BRANCH   5   6
ATOM      6  C   UNL     1      -5.583  21.926   2.864  1.00  0.00     0.004 C 
ATOM      7  C   UNL     1      -6.826  21.882   1.966  1.00  0.00     0.004 C 
ENDBRANCH   5   6
BRANCH   5   8
ATOM      8  C   UNL     1      -6.787  21.494   5.134  1.00  0.00    -0.011 C 
ATOM      9  C   UNL     1      -8.157  21.050   4.600  1.00  0.00     0.008 C 
ATOM     10  C   UNL     1      -6.641  21.016   6.592  1.00  0.00     0.008 C 
ENDBRANCH   5   8
ENDBRANCH   4   5
ENDBRANCH   1   3
BRANCH   1  11
ATOM     11  C   UNL     1      -1.403  22.239   2.597  1.00  0.00     0.002 C 
ATOM     12  C   UNL     1      -0.502  21.093   2.190  1.00  0.00     0.005 C 
ATOM     13  C   UNL     1      -0.559  23.148   3.548  1.00  0.00    -0.026 C 
ATOM     14  C   UNL     1       0.888  21.721   2.091  1.00  0.00     0.005 C 
ATOM     15  C   UNL     1       0.841  23.065   2.862  1.00  0.00    -0.001 C 
ATOM     16  C   UNL     1      -0.453  22.729   5.067  1.00  0.00     0.007 C 
ATOM     17  C   UNL     1      -1.096  24.604   3.511  1.00  0.00     0.012 C 
ATOM     18  C   UNL     1       1.996  23.262   3.878  1.00  0.00     0.000 C 
ATOM     19  C   UNL     1       0.631  21.683   5.380  1.00  0.00     0.005 C 
ATOM     20  C   UNL     1       2.051  22.131   4.936  1.00  0.00     0.003 C 
ATOM     21  C   UNL     1       3.371  23.402   3.214  1.00  0.00     0.031 C 
ATOM     22  C   UNL     1       3.044  22.500   6.100  1.00  0.00    -0.008 C 
ATOM     23  C   UNL     1       4.455  23.550   4.250  1.00  0.00    -0.027 C 
ATOM     24  C   UNL     1       4.346  23.094   5.527  1.00  0.00    -0.065 C 
ATOM     25  C   UNL     1       3.421  21.196   6.875  1.00  0.00     0.014 C 
ATOM     26  C   UNL     1       2.408  23.519   7.082  1.00  0.00     0.016 C 
ATOM     27  C   UNL     1       5.536  23.237   6.453  1.00  0.00     0.063 C 
ATOM     28  C   UNL     1       4.590  21.368   7.859  1.00  0.00     0.033 C 
ATOM     29  C   UNL     1       5.839  21.907   7.157  1.00  0.00     0.118 C 
BRANCH  29  30
ATOM     30  O   UNL     1       6.853  22.113   8.102  1.00  0.00    -0.393 OA
ATOM     31  H   UNL     1       7.490  22.770   7.711  1.00  0.00     0.210 HD
ENDBRANCH  29  30
ENDBRANCH   1  11
TORSDOF 6
ENDMDL
