MODEL 1
REMARK VINA RESULT:    -3.045      0.000      0.000
REMARK INTER + INTRA:         -14.354
REMARK INTER:                  -8.029
REMARK INTRA:                  -6.325
REMARK UNBOUND:                -6.325
REMARK SMILES CCCCCCCCCCCCCCCCCCCCCCCCCCCCCC(=O)[O-]
REMARK SMILES IDX 16 1 17 2 18 3 19 4 20 5 21 6 22 7 23 8 24 9 25 10 26 11
REMARK SMILES IDX 27 12 28 13 29 14 30 15 31 16 32 17 15 18 14 19 13 20 12 21
REMARK SMILES IDX 11 22 10 23 9 24 8 25 7 26 6 27 5 28 4 29 3 30 2 31 1 32
REMARK H PARENT
REMARK Flexibility Score: inf
ROOT
ATOM      1  C   UNL     1     -32.468   3.132 -38.470  1.00  0.00     0.000 C 
ENDROOT
BRANCH   1   2
ATOM      2  C   UNL     1     -32.717   1.888 -39.348  1.00  0.00     0.000 C 
BRANCH   2   3
ATOM      3  C   UNL     1     -33.110   0.611 -38.577  1.00  0.00     0.000 C 
BRANCH   3   4
ATOM      4  C   UNL     1     -32.028  -0.487 -38.539  1.00  0.00     0.000 C 
BRANCH   4   5
ATOM      5  C   UNL     1     -30.829  -0.253 -39.476  1.00  0.00     0.000 C 
BRANCH   5   6
ATOM      6  C   UNL     1     -29.990  -1.525 -39.696  1.00  0.00     0.000 C 
BRANCH   6   7
ATOM      7  C   UNL     1     -28.548  -1.394 -39.172  1.00  0.00     0.000 C 
BRANCH   7   8
ATOM      8  C   UNL     1     -28.180  -0.022 -38.568  1.00  0.00     0.000 C 
BRANCH   8   9
ATOM      9  C   UNL     1     -27.900  -0.023 -37.053  1.00  0.00     0.000 C 
BRANCH   9  10
ATOM     10  C   UNL     1     -29.154   0.090 -36.164  1.00  0.00     0.000 C 
BRANCH  10  11
ATOM     11  C   UNL     1     -29.874   1.451 -36.280  1.00  0.00     0.000 C 
BRANCH  11  12
ATOM     12  C   UNL     1     -31.205   1.483 -35.508  1.00  0.00     0.000 C 
BRANCH  12  13
ATOM     13  C   UNL     1     -31.257   2.622 -34.478  1.00  0.00     0.006 C 
BRANCH  13  14
ATOM     14  C   UNL     1     -31.407   4.000 -35.141  1.00  0.00     0.053 C 
BRANCH  14  15
ATOM     15  C   UNL     1     -32.718   4.620 -34.774  1.00  0.00     0.041 C 
ATOM     16  O   UNL     1     -33.255   5.467 -35.540  1.00  0.00    -0.550 OA
ATOM     17  O   UNL     1     -33.354   4.258 -33.588  1.00  0.00    -0.550 OA
ENDBRANCH  14  15
ENDBRANCH  13  14
ENDBRANCH  12  13
ENDBRANCH  11  12
ENDBRANCH  10  11
ENDBRANCH   9  10
ENDBRANCH   8   9
ENDBRANCH   7   8
ENDBRANCH   6   7
ENDBRANCH   5   6
ENDBRANCH   4   5
ENDBRANCH   3   4
ENDBRANCH   2   3
ENDBRANCH   1   2
BRANCH   1  18
ATOM     18  C   UNL     1     -31.254   3.989 -38.872  1.00  0.00     0.000 C 
BRANCH  18  19
ATOM     19  C   UNL     1     -30.179   3.188 -39.626  1.00  0.00     0.000 C 
BRANCH  19  20
ATOM     20  C   UNL     1     -28.756   3.712 -39.363  1.00  0.00     0.000 C 
BRANCH  20  21
ATOM     21  C   UNL     1     -28.674   4.999 -38.516  1.00  0.00     0.000 C 
BRANCH  21  22
ATOM     22  C   UNL     1     -27.795   4.894 -37.257  1.00  0.00     0.000 C 
BRANCH  22  23
ATOM     23  C   UNL     1     -27.092   3.535 -37.132  1.00  0.00     0.000 C 
BRANCH  23  24
ATOM     24  C   UNL     1     -25.614   3.709 -36.748  1.00  0.00    -0.000 C 
BRANCH  24  25
ATOM     25  C   UNL     1     -24.889   2.366 -36.564  1.00  0.00    -0.000 C 
BRANCH  25  26
ATOM     26  C   UNL     1     -23.664   2.478 -35.644  1.00  0.00    -0.000 C 
BRANCH  26  27
ATOM     27  C   UNL     1     -23.765   3.711 -34.737  1.00  0.00    -0.000 C 
BRANCH  27  28
ATOM     28  C   UNL     1     -23.887   3.299 -33.261  1.00  0.00    -0.000 C 
BRANCH  28  29
ATOM     29  C   UNL     1     -25.334   3.359 -32.746  1.00  0.00    -0.000 C 
BRANCH  29  30
ATOM     30  C   UNL     1     -26.089   2.035 -32.950  1.00  0.00    -0.000 C 
BRANCH  30  31
ATOM     31  C   UNL     1     -27.505   2.248 -33.509  1.00  0.00    -0.003 C 
ATOM     32  C   UNL     1     -27.875   3.726 -33.638  1.00  0.00     0.004 C 
ENDBRANCH  30  31
ENDBRANCH  29  30
ENDBRANCH  28  29
ENDBRANCH  27  28
ENDBRANCH  26  27
ENDBRANCH  25  26
ENDBRANCH  24  25
ENDBRANCH  23  24
ENDBRANCH  22  23
ENDBRANCH  21  22
ENDBRANCH  20  21
ENDBRANCH  19  20
ENDBRANCH  18  19
ENDBRANCH   1  18
TORSDOF 28
ENDMDL
MODEL 2
REMARK VINA RESULT:    -3.035      4.002      5.429
REMARK INTER + INTRA:         -14.327
REMARK INTER:                  -8.812
REMARK INTRA:                  -5.515
REMARK UNBOUND:                -6.325
REMARK SMILES CCCCCCCCCCCCCCCCCCCCCCCCCCCCCC(=O)[O-]
REMARK SMILES IDX 16 1 17 2 18 3 19 4 20 5 21 6 22 7 23 8 24 9 25 10 26 11
REMARK SMILES IDX 27 12 28 13 29 14 30 15 31 16 32 17 15 18 14 19 13 20 12 21
REMARK SMILES IDX 11 22 10 23 9 24 8 25 7 26 6 27 5 28 4 29 3 30 2 31 1 32
REMARK H PARENT
REMARK Flexibility Score: inf
ROOT
ATOM      1  C   UNL     1     -31.042   0.020 -38.688  1.00  0.00     0.000 C 
ENDROOT
BRANCH   1   2
ATOM      2  C   UNL     1     -30.638  -1.148 -39.612  1.00  0.00     0.000 C 
BRANCH   2   3
ATOM      3  C   UNL     1     -29.139  -1.212 -39.968  1.00  0.00     0.000 C 
BRANCH   3   4
ATOM      4  C   UNL     1     -28.249  -0.193 -39.228  1.00  0.00     0.000 C 
BRANCH   4   5
ATOM      5  C   UNL     1     -27.191  -0.809 -38.294  1.00  0.00     0.000 C 
BRANCH   5   6
ATOM      6  C   UNL     1     -27.532  -2.251 -37.879  1.00  0.00     0.000 C 
BRANCH   6   7
ATOM      7  C   UNL     1     -27.581  -2.444 -36.352  1.00  0.00     0.000 C 
BRANCH   7   8
ATOM      8  C   UNL     1     -28.686  -1.655 -35.616  1.00  0.00     0.000 C 
BRANCH   8   9
ATOM      9  C   UNL     1     -30.129  -2.080 -35.946  1.00  0.00     0.000 C 
BRANCH   9  10
ATOM     10  C   UNL     1     -31.184  -1.647 -34.909  1.00  0.00     0.000 C 
BRANCH  10  11
ATOM     11  C   UNL     1     -31.470  -2.718 -33.834  1.00  0.00     0.000 C 
BRANCH  11  12
ATOM     12  C   UNL     1     -32.949  -3.142 -33.801  1.00  0.00     0.000 C 
BRANCH  12  13
ATOM     13  C   UNL     1     -33.152  -4.506 -33.125  1.00  0.00     0.006 C 
BRANCH  13  14
ATOM     14  C   UNL     1     -34.636  -4.893 -33.027  1.00  0.00     0.053 C 
BRANCH  14  15
ATOM     15  C   UNL     1     -34.875  -5.763 -31.834  1.00  0.00     0.041 C 
ATOM     16  O   UNL     1     -35.858  -6.555 -31.814  1.00  0.00    -0.550 OA
ATOM     17  O   UNL     1     -34.009  -5.708 -30.744  1.00  0.00    -0.550 OA
ENDBRANCH  14  15
ENDBRANCH  13  14
ENDBRANCH  12  13
ENDBRANCH  11  12
ENDBRANCH  10  11
ENDBRANCH   9  10
ENDBRANCH   8   9
ENDBRANCH   7   8
ENDBRANCH   6   7
ENDBRANCH   5   6
ENDBRANCH   4   5
ENDBRANCH   3   4
ENDBRANCH   2   3
ENDBRANCH   1   2
BRANCH   1  18
ATOM     18  C   UNL     1     -32.424   0.636 -38.972  1.00  0.00     0.000 C 
BRANCH  18  19
ATOM     19  C   UNL     1     -32.355   2.139 -39.292  1.00  0.00     0.000 C 
BRANCH  19  20
ATOM     20  C   UNL     1     -30.915   2.629 -39.527  1.00  0.00     0.000 C 
BRANCH  20  21
ATOM     21  C   UNL     1     -30.786   4.094 -39.994  1.00  0.00     0.000 C 
BRANCH  21  22
ATOM     22  C   UNL     1     -29.853   4.971 -39.140  1.00  0.00     0.000 C 
BRANCH  22  23
ATOM     23  C   UNL     1     -28.553   4.252 -38.749  1.00  0.00     0.000 C 
BRANCH  23  24
ATOM     24  C   UNL     1     -27.859   4.965 -37.578  1.00  0.00    -0.000 C 
BRANCH  24  25
ATOM     25  C   UNL     1     -26.659   4.173 -37.032  1.00  0.00    -0.000 C 
BRANCH  25  26
ATOM     26  C   UNL     1     -26.858   2.654 -37.135  1.00  0.00    -0.000 C 
BRANCH  26  27
ATOM     27  C   UNL     1     -26.942   2.011 -35.745  1.00  0.00    -0.000 C 
BRANCH  27  28
ATOM     28  C   UNL     1     -28.366   2.113 -35.177  1.00  0.00    -0.000 C 
BRANCH  28  29
ATOM     29  C   UNL     1     -29.445   1.753 -36.213  1.00  0.00    -0.000 C 
BRANCH  29  30
ATOM     30  C   UNL     1     -30.837   2.277 -35.821  1.00  0.00    -0.000 C 
BRANCH  30  31
ATOM     31  C   UNL     1     -30.906   3.812 -35.821  1.00  0.00    -0.003 C 
ATOM     32  C   UNL     1     -32.276   4.344 -36.243  1.00  0.00     0.004 C 
ENDBRANCH  30  31
ENDBRANCH  29  30
ENDBRANCH  28  29
ENDBRANCH  27  28
ENDBRANCH  26  27
ENDBRANCH  25  26
ENDBRANCH  24  25
ENDBRANCH  23  24
ENDBRANCH  22  23
ENDBRANCH  21  22
ENDBRANCH  20  21
ENDBRANCH  19  20
ENDBRANCH  18  19
ENDBRANCH   1  18
TORSDOF 28
ENDMDL
MODEL 3
REMARK VINA RESULT:    -3.006      2.753      5.715
REMARK INTER + INTRA:         -14.252
REMARK INTER:                  -7.688
REMARK INTRA:                  -6.563
REMARK UNBOUND:                -6.325
REMARK SMILES CCCCCCCCCCCCCCCCCCCCCCCCCCCCCC(=O)[O-]
REMARK SMILES IDX 16 1 17 2 18 3 19 4 20 5 21 6 22 7 23 8 24 9 25 10 26 11
REMARK SMILES IDX 27 12 28 13 29 14 30 15 31 16 32 17 15 18 14 19 13 20 12 21
REMARK SMILES IDX 11 22 10 23 9 24 8 25 7 26 6 27 5 28 4 29 3 30 2 31 1 32
REMARK H PARENT
REMARK Flexibility Score: inf
ROOT
ATOM      1  C   UNL     1     -32.108  -0.038 -37.205  1.00  0.00     0.000 C 
ENDROOT
BRANCH   1   2
ATOM      2  C   UNL     1     -33.097   0.489 -38.265  1.00  0.00     0.000 C 
BRANCH   2   3
ATOM      3  C   UNL     1     -33.145   2.025 -38.409  1.00  0.00     0.000 C 
BRANCH   3   4
ATOM      4  C   UNL     1     -32.210   2.608 -39.488  1.00  0.00     0.000 C 
BRANCH   4   5
ATOM      5  C   UNL     1     -31.261   3.716 -38.999  1.00  0.00     0.000 C 
BRANCH   5   6
ATOM      6  C   UNL     1     -29.777   3.339 -39.155  1.00  0.00     0.000 C 
BRANCH   6   7
ATOM      7  C   UNL     1     -29.188   2.672 -37.898  1.00  0.00     0.000 C 
BRANCH   7   8
ATOM      8  C   UNL     1     -29.918   2.986 -36.574  1.00  0.00     0.000 C 
BRANCH   8   9
ATOM      9  C   UNL     1     -29.561   2.065 -35.392  1.00  0.00     0.000 C 
BRANCH   9  10
ATOM     10  C   UNL     1     -28.459   1.029 -35.689  1.00  0.00     0.000 C 
BRANCH  10  11
ATOM     11  C   UNL     1     -27.240   1.135 -34.747  1.00  0.00     0.000 C 
BRANCH  11  12
ATOM     12  C   UNL     1     -25.920   1.340 -35.510  1.00  0.00     0.000 C 
BRANCH  12  13
ATOM     13  C   UNL     1     -25.389   2.776 -35.389  1.00  0.00     0.006 C 
BRANCH  13  14
ATOM     14  C   UNL     1     -25.855   3.669 -36.550  1.00  0.00     0.053 C 
BRANCH  14  15
ATOM     15  C   UNL     1     -26.695   4.797 -36.042  1.00  0.00     0.041 C 
ATOM     16  O   UNL     1     -27.197   4.742 -34.885  1.00  0.00    -0.550 OA
ATOM     17  O   UNL     1     -26.921   5.917 -36.841  1.00  0.00    -0.550 OA
ENDBRANCH  14  15
ENDBRANCH  13  14
ENDBRANCH  12  13
ENDBRANCH  11  12
ENDBRANCH  10  11
ENDBRANCH   9  10
ENDBRANCH   8   9
ENDBRANCH   7   8
ENDBRANCH   6   7
ENDBRANCH   5   6
ENDBRANCH   4   5
ENDBRANCH   3   4
ENDBRANCH   2   3
ENDBRANCH   1   2
BRANCH   1  18
ATOM     18  C   UNL     1     -30.827  -0.684 -37.764  1.00  0.00     0.000 C 
BRANCH  18  19
ATOM     19  C   UNL     1     -30.872  -0.883 -39.287  1.00  0.00     0.000 C 
BRANCH  19  20
ATOM     20  C   UNL     1     -29.673  -0.240 -40.006  1.00  0.00     0.000 C 
BRANCH  20  21
ATOM     21  C   UNL     1     -28.357  -1.041 -39.937  1.00  0.00     0.000 C 
BRANCH  21  22
ATOM     22  C   UNL     1     -27.402  -0.630 -38.802  1.00  0.00     0.000 C 
BRANCH  22  23
ATOM     23  C   UNL     1     -27.151  -1.762 -37.795  1.00  0.00     0.000 C 
BRANCH  23  24
ATOM     24  C   UNL     1     -27.948  -3.022 -38.170  1.00  0.00    -0.000 C 
BRANCH  24  25
ATOM     25  C   UNL     1     -28.611  -3.685 -36.952  1.00  0.00    -0.000 C 
BRANCH  25  26
ATOM     26  C   UNL     1     -28.549  -2.807 -35.694  1.00  0.00    -0.000 C 
BRANCH  26  27
ATOM     27  C   UNL     1     -29.903  -2.775 -34.973  1.00  0.00    -0.000 C 
BRANCH  27  28
ATOM     28  C   UNL     1     -29.893  -1.748 -33.829  1.00  0.00    -0.000 C 
BRANCH  28  29
ATOM     29  C   UNL     1     -31.297  -1.223 -33.491  1.00  0.00    -0.000 C 
BRANCH  29  30
ATOM     30  C   UNL     1     -32.414  -2.066 -34.131  1.00  0.00    -0.000 C 
BRANCH  30  31
ATOM     31  C   UNL     1     -33.281  -2.781 -33.084  1.00  0.00    -0.003 C 
ATOM     32  C   UNL     1     -33.490  -1.949 -31.818  1.00  0.00     0.004 C 
ENDBRANCH  30  31
ENDBRANCH  29  30
ENDBRANCH  28  29
ENDBRANCH  27  28
ENDBRANCH  26  27
ENDBRANCH  25  26
ENDBRANCH  24  25
ENDBRANCH  23  24
ENDBRANCH  22  23
ENDBRANCH  21  22
ENDBRANCH  20  21
ENDBRANCH  19  20
ENDBRANCH  18  19
ENDBRANCH   1  18
TORSDOF 28
ENDMDL
MODEL 4
REMARK VINA RESULT:    -2.994      2.826      5.766
REMARK INTER + INTRA:         -14.219
REMARK INTER:                  -8.359
REMARK INTRA:                  -5.860
REMARK UNBOUND:                -6.325
REMARK SMILES CCCCCCCCCCCCCCCCCCCCCCCCCCCCCC(=O)[O-]
REMARK SMILES IDX 16 1 17 2 18 3 19 4 20 5 21 6 22 7 23 8 24 9 25 10 26 11
REMARK SMILES IDX 27 12 28 13 29 14 30 15 31 16 32 17 15 18 14 19 13 20 12 21
REMARK SMILES IDX 11 22 10 23 9 24 8 25 7 26 6 27 5 28 4 29 3 30 2 31 1 32
REMARK H PARENT
REMARK Flexibility Score: inf
ROOT
ATOM      1  C   UNL     1     -33.203   2.682 -38.155  1.00  0.00     0.000 C 
ENDROOT
BRANCH   1   2
ATOM      2  C   UNL     1     -32.578   2.815 -36.751  1.00  0.00     0.000 C 
BRANCH   2   3
ATOM      3  C   UNL     1     -31.674   4.049 -36.551  1.00  0.00     0.000 C 
BRANCH   3   4
ATOM      4  C   UNL     1     -30.171   3.802 -36.790  1.00  0.00     0.000 C 
BRANCH   4   5
ATOM      5  C   UNL     1     -29.740   3.787 -38.268  1.00  0.00     0.000 C 
BRANCH   5   6
ATOM      6  C   UNL     1     -28.246   4.109 -38.454  1.00  0.00     0.000 C 
BRANCH   6   7
ATOM      7  C   UNL     1     -27.798   5.363 -37.681  1.00  0.00     0.000 C 
BRANCH   7   8
ATOM      8  C   UNL     1     -26.504   5.207 -36.852  1.00  0.00     0.000 C 
BRANCH   8   9
ATOM      9  C   UNL     1     -25.932   3.778 -36.790  1.00  0.00     0.000 C 
BRANCH   9  10
ATOM     10  C   UNL     1     -25.832   3.184 -35.371  1.00  0.00     0.000 C 
BRANCH  10  11
ATOM     11  C   UNL     1     -27.195   2.761 -34.780  1.00  0.00     0.000 C 
BRANCH  11  12
ATOM     12  C   UNL     1     -27.678   3.711 -33.671  1.00  0.00     0.000 C 
BRANCH  12  13
ATOM     13  C   UNL     1     -26.677   4.843 -33.392  1.00  0.00     0.006 C 
BRANCH  13  14
ATOM     14  C   UNL     1     -25.928   4.643 -32.064  1.00  0.00     0.053 C 
BRANCH  14  15
ATOM     15  C   UNL     1     -24.579   5.287 -32.120  1.00  0.00     0.041 C 
ATOM     16  O   UNL     1     -23.771   4.987 -33.041  1.00  0.00    -0.550 OA
ATOM     17  O   UNL     1     -24.214   6.228 -31.159  1.00  0.00    -0.550 OA
ENDBRANCH  14  15
ENDBRANCH  13  14
ENDBRANCH  12  13
ENDBRANCH  11  12
ENDBRANCH  10  11
ENDBRANCH   9  10
ENDBRANCH   8   9
ENDBRANCH   7   8
ENDBRANCH   6   7
ENDBRANCH   5   6
ENDBRANCH   4   5
ENDBRANCH   3   4
ENDBRANCH   2   3
ENDBRANCH   1   2
BRANCH   1  18
ATOM     18  C   UNL     1     -32.674   1.511 -39.003  1.00  0.00     0.000 C 
BRANCH  18  19
ATOM     19  C   UNL     1     -31.596   0.688 -38.280  1.00  0.00     0.000 C 
BRANCH  19  20
ATOM     20  C   UNL     1     -31.561  -0.780 -38.743  1.00  0.00     0.000 C 
BRANCH  20  21
ATOM     21  C   UNL     1     -30.471  -1.116 -39.782  1.00  0.00     0.000 C 
BRANCH  21  22
ATOM     22  C   UNL     1     -29.444   0.002 -40.034  1.00  0.00     0.000 C 
BRANCH  22  23
ATOM     23  C   UNL     1     -28.067  -0.305 -39.426  1.00  0.00     0.000 C 
BRANCH  23  24
ATOM     24  C   UNL     1     -27.814   0.547 -38.173  1.00  0.00    -0.000 C 
BRANCH  24  25
ATOM     25  C   UNL     1     -27.697  -0.301 -36.896  1.00  0.00    -0.000 C 
BRANCH  25  26
ATOM     26  C   UNL     1     -27.756  -1.809 -37.181  1.00  0.00    -0.000 C 
BRANCH  26  27
ATOM     27  C   UNL     1     -29.025  -2.435 -36.587  1.00  0.00    -0.000 C 
BRANCH  27  28
ATOM     28  C   UNL     1     -29.523  -1.625 -35.380  1.00  0.00    -0.000 C 
BRANCH  28  29
ATOM     29  C   UNL     1     -31.047  -1.712 -35.195  1.00  0.00    -0.000 C 
BRANCH  29  30
ATOM     30  C   UNL     1     -31.660  -0.384 -34.715  1.00  0.00    -0.000 C 
BRANCH  30  31
ATOM     31  C   UNL     1     -30.609   0.727 -34.571  1.00  0.00    -0.003 C 
ATOM     32  C   UNL     1     -30.189   0.962 -33.119  1.00  0.00     0.004 C 
ENDBRANCH  30  31
ENDBRANCH  29  30
ENDBRANCH  28  29
ENDBRANCH  27  28
ENDBRANCH  26  27
ENDBRANCH  25  26
ENDBRANCH  24  25
ENDBRANCH  23  24
ENDBRANCH  22  23
ENDBRANCH  21  22
ENDBRANCH  20  21
ENDBRANCH  19  20
ENDBRANCH  18  19
ENDBRANCH   1  18
TORSDOF 28
ENDMDL
MODEL 5
REMARK VINA RESULT:    -2.990      3.878      7.174
REMARK INTER + INTRA:         -14.208
REMARK INTER:                  -7.972
REMARK INTRA:                  -6.237
REMARK UNBOUND:                -6.325
REMARK SMILES CCCCCCCCCCCCCCCCCCCCCCCCCCCCCC(=O)[O-]
REMARK SMILES IDX 16 1 17 2 18 3 19 4 20 5 21 6 22 7 23 8 24 9 25 10 26 11
REMARK SMILES IDX 27 12 28 13 29 14 30 15 31 16 32 17 15 18 14 19 13 20 12 21
REMARK SMILES IDX 11 22 10 23 9 24 8 25 7 26 6 27 5 28 4 29 3 30 2 31 1 32
REMARK H PARENT
REMARK Flexibility Score: inf
ROOT
ATOM      1  C   UNL     1     -29.982   3.363 -39.960  1.00  0.00     0.000 C 
ENDROOT
BRANCH   1   2
ATOM      2  C   UNL     1     -28.635   3.963 -39.506  1.00  0.00     0.000 C 
BRANCH   2   3
ATOM      3  C   UNL     1     -28.685   4.752 -38.181  1.00  0.00     0.000 C 
BRANCH   3   4
ATOM      4  C   UNL     1     -27.351   4.814 -37.409  1.00  0.00     0.000 C 
BRANCH   4   5
ATOM      5  C   UNL     1     -27.488   4.922 -35.879  1.00  0.00     0.000 C 
BRANCH   5   6
ATOM      6  C   UNL     1     -26.154   4.694 -35.146  1.00  0.00     0.000 C 
BRANCH   6   7
ATOM      7  C   UNL     1     -26.289   3.767 -33.923  1.00  0.00     0.000 C 
BRANCH   7   8
ATOM      8  C   UNL     1     -25.120   2.783 -33.702  1.00  0.00     0.000 C 
BRANCH   8   9
ATOM      9  C   UNL     1     -23.896   3.002 -34.611  1.00  0.00     0.000 C 
BRANCH   9  10
ATOM     10  C   UNL     1     -23.643   1.878 -35.636  1.00  0.00     0.000 C 
BRANCH  10  11
ATOM     11  C   UNL     1     -23.553   2.380 -37.094  1.00  0.00     0.000 C 
BRANCH  11  12
ATOM     12  C   UNL     1     -23.233   1.250 -38.089  1.00  0.00     0.000 C 
BRANCH  12  13
ATOM     13  C   UNL     1     -23.388  -0.143 -37.461  1.00  0.00     0.006 C 
BRANCH  13  14
ATOM     14  C   UNL     1     -22.150  -1.025 -37.689  1.00  0.00     0.053 C 
BRANCH  14  15
ATOM     15  C   UNL     1     -20.906  -0.300 -37.285  1.00  0.00     0.041 C 
ATOM     16  O   UNL     1     -20.701  -0.020 -36.071  1.00  0.00    -0.550 OA
ATOM     17  O   UNL     1     -19.964   0.063 -38.246  1.00  0.00    -0.550 OA
ENDBRANCH  14  15
ENDBRANCH  13  14
ENDBRANCH  12  13
ENDBRANCH  11  12
ENDBRANCH  10  11
ENDBRANCH   9  10
ENDBRANCH   8   9
ENDBRANCH   7   8
ENDBRANCH   6   7
ENDBRANCH   5   6
ENDBRANCH   4   5
ENDBRANCH   3   4
ENDBRANCH   2   3
ENDBRANCH   1   2
BRANCH   1  18
ATOM     18  C   UNL     1     -31.080   3.320 -38.882  1.00  0.00     0.000 C 
BRANCH  18  19
ATOM     19  C   UNL     1     -32.265   2.420 -39.270  1.00  0.00     0.000 C 
BRANCH  19  20
ATOM     20  C   UNL     1     -32.678   1.463 -38.138  1.00  0.00     0.000 C 
BRANCH  20  21
ATOM     21  C   UNL     1     -32.518  -0.039 -38.454  1.00  0.00     0.000 C 
BRANCH  21  22
ATOM     22  C   UNL     1     -31.100  -0.601 -38.245  1.00  0.00     0.000 C 
BRANCH  22  23
ATOM     23  C   UNL     1     -30.471  -1.129 -39.543  1.00  0.00     0.000 C 
BRANCH  23  24
ATOM     24  C   UNL     1     -29.250  -0.288 -39.947  1.00  0.00    -0.000 C 
BRANCH  24  25
ATOM     25  C   UNL     1     -28.041  -0.521 -39.026  1.00  0.00    -0.000 C 
BRANCH  25  26
ATOM     26  C   UNL     1     -27.032   0.636 -39.073  1.00  0.00    -0.000 C 
BRANCH  26  27
ATOM     27  C   UNL     1     -26.952   1.356 -37.721  1.00  0.00    -0.000 C 
BRANCH  27  28
ATOM     28  C   UNL     1     -27.092   0.361 -36.559  1.00  0.00    -0.000 C 
BRANCH  28  29
ATOM     29  C   UNL     1     -28.054   0.855 -35.466  1.00  0.00    -0.000 C 
BRANCH  29  30
ATOM     30  C   UNL     1     -29.211   1.696 -36.033  1.00  0.00    -0.000 C 
BRANCH  30  31
ATOM     31  C   UNL     1     -30.081   2.316 -34.929  1.00  0.00    -0.003 C 
ATOM     32  C   UNL     1     -30.876   3.530 -35.411  1.00  0.00     0.004 C 
ENDBRANCH  30  31
ENDBRANCH  29  30
ENDBRANCH  28  29
ENDBRANCH  27  28
ENDBRANCH  26  27
ENDBRANCH  25  26
ENDBRANCH  24  25
ENDBRANCH  23  24
ENDBRANCH  22  23
ENDBRANCH  21  22
ENDBRANCH  20  21
ENDBRANCH  19  20
ENDBRANCH  18  19
ENDBRANCH   1  18
TORSDOF 28
ENDMDL
MODEL 6
REMARK VINA RESULT:    -2.973      4.701      7.764
REMARK INTER + INTRA:         -14.165
REMARK INTER:                  -9.754
REMARK INTRA:                  -4.411
REMARK UNBOUND:                -6.325
REMARK SMILES CCCCCCCCCCCCCCCCCCCCCCCCCCCCCC(=O)[O-]
REMARK SMILES IDX 16 1 17 2 18 3 19 4 20 5 21 6 22 7 23 8 24 9 25 10 26 11
REMARK SMILES IDX 27 12 28 13 29 14 30 15 31 16 32 17 15 18 14 19 13 20 12 21
REMARK SMILES IDX 11 22 10 23 9 24 8 25 7 26 6 27 5 28 4 29 3 30 2 31 1 32
REMARK H PARENT
REMARK Flexibility Score: inf
ROOT
ATOM      1  C   UNL     1     -29.822  -0.907 -38.540  1.00  0.00     0.000 C 
ENDROOT
BRANCH   1   2
ATOM      2  C   UNL     1     -31.260  -0.834 -39.094  1.00  0.00     0.000 C 
BRANCH   2   3
ATOM      3  C   UNL     1     -32.291  -0.179 -38.152  1.00  0.00     0.000 C 
BRANCH   3   4
ATOM      4  C   UNL     1     -32.956   1.099 -38.702  1.00  0.00     0.000 C 
BRANCH   4   5
ATOM      5  C   UNL     1     -32.138   2.391 -38.518  1.00  0.00     0.000 C 
BRANCH   5   6
ATOM      6  C   UNL     1     -31.465   2.857 -39.821  1.00  0.00     0.000 C 
BRANCH   6   7
ATOM      7  C   UNL     1     -30.231   3.747 -39.578  1.00  0.00     0.000 C 
BRANCH   7   8
ATOM      8  C   UNL     1     -30.331   4.709 -38.375  1.00  0.00     0.000 C 
BRANCH   8   9
ATOM      9  C   UNL     1     -29.251   4.521 -37.292  1.00  0.00     0.000 C 
BRANCH   9  10
ATOM     10  C   UNL     1     -27.801   4.532 -37.817  1.00  0.00     0.000 C 
BRANCH  10  11
ATOM     11  C   UNL     1     -26.840   5.385 -36.961  1.00  0.00     0.000 C 
BRANCH  11  12
ATOM     12  C   UNL     1     -26.688   4.843 -35.528  1.00  0.00     0.000 C 
BRANCH  12  13
ATOM     13  C   UNL     1     -26.225   3.379 -35.502  1.00  0.00     0.006 C 
BRANCH  13  14
ATOM     14  C   UNL     1     -24.778   3.216 -35.994  1.00  0.00     0.053 C 
BRANCH  14  15
ATOM     15  C   UNL     1     -23.834   3.144 -34.835  1.00  0.00     0.041 C 
ATOM     16  O   UNL     1     -23.541   4.189 -34.192  1.00  0.00    -0.550 OA
ATOM     17  O   UNL     1     -23.283   1.921 -34.457  1.00  0.00    -0.550 OA
ENDBRANCH  14  15
ENDBRANCH  13  14
ENDBRANCH  12  13
ENDBRANCH  11  12
ENDBRANCH  10  11
ENDBRANCH   9  10
ENDBRANCH   8   9
ENDBRANCH   7   8
ENDBRANCH   6   7
ENDBRANCH   5   6
ENDBRANCH   4   5
ENDBRANCH   3   4
ENDBRANCH   2   3
ENDBRANCH   1   2
BRANCH   1  18
ATOM     18  C   UNL     1     -28.957   0.342 -38.789  1.00  0.00     0.000 C 
BRANCH  18  19
ATOM     19  C   UNL     1     -28.333   0.905 -37.501  1.00  0.00     0.000 C 
BRANCH  19  20
ATOM     20  C   UNL     1     -29.083   0.455 -36.234  1.00  0.00     0.000 C 
BRANCH  20  21
ATOM     21  C   UNL     1     -30.006   1.518 -35.603  1.00  0.00     0.000 C 
BRANCH  21  22
ATOM     22  C   UNL     1     -31.192   0.956 -34.798  1.00  0.00     0.000 C 
BRANCH  22  23
ATOM     23  C   UNL     1     -30.880  -0.400 -34.146  1.00  0.00     0.000 C 
BRANCH  23  24
ATOM     24  C   UNL     1     -31.767  -1.510 -34.730  1.00  0.00    -0.000 C 
BRANCH  24  25
ATOM     25  C   UNL     1     -33.103  -1.654 -33.981  1.00  0.00    -0.000 C 
BRANCH  25  26
ATOM     26  C   UNL     1     -32.931  -2.258 -32.579  1.00  0.00    -0.000 C 
BRANCH  26  27
ATOM     27  C   UNL     1     -32.916  -3.791 -32.635  1.00  0.00    -0.000 C 
BRANCH  27  28
ATOM     28  C   UNL     1     -33.899  -4.312 -33.695  1.00  0.00    -0.000 C 
BRANCH  28  29
ATOM     29  C   UNL     1     -34.857  -5.380 -33.142  1.00  0.00    -0.000 C 
BRANCH  29  30
ATOM     30  C   UNL     1     -34.942  -5.359 -31.606  1.00  0.00    -0.000 C 
BRANCH  30  31
ATOM     31  C   UNL     1     -34.992  -6.771 -31.003  1.00  0.00    -0.003 C 
ATOM     32  C   UNL     1     -33.797  -7.633 -31.411  1.00  0.00     0.004 C 
ENDBRANCH  30  31
ENDBRANCH  29  30
ENDBRANCH  28  29
ENDBRANCH  27  28
ENDBRANCH  26  27
ENDBRANCH  25  26
ENDBRANCH  24  25
ENDBRANCH  23  24
ENDBRANCH  22  23
ENDBRANCH  21  22
ENDBRANCH  20  21
ENDBRANCH  19  20
ENDBRANCH  18  19
ENDBRANCH   1  18
TORSDOF 28
ENDMDL
MODEL 7
REMARK VINA RESULT:    -2.953      3.077      5.966
REMARK INTER + INTRA:         -14.111
REMARK INTER:                  -7.769
REMARK INTRA:                  -6.342
REMARK UNBOUND:                -6.325
REMARK SMILES CCCCCCCCCCCCCCCCCCCCCCCCCCCCCC(=O)[O-]
REMARK SMILES IDX 16 1 17 2 18 3 19 4 20 5 21 6 22 7 23 8 24 9 25 10 26 11
REMARK SMILES IDX 27 12 28 13 29 14 30 15 31 16 32 17 15 18 14 19 13 20 12 21
REMARK SMILES IDX 11 22 10 23 9 24 8 25 7 26 6 27 5 28 4 29 3 30 2 31 1 32
REMARK H PARENT
REMARK Flexibility Score: inf
ROOT
ATOM      1  C   UNL     1     -29.420   0.438 -38.864  1.00  0.00     0.000 C 
ENDROOT
BRANCH   1   2
ATOM      2  C   UNL     1     -30.387   1.434 -39.538  1.00  0.00     0.000 C 
BRANCH   2   3
ATOM      3  C   UNL     1     -31.875   1.246 -39.178  1.00  0.00     0.000 C 
BRANCH   3   4
ATOM      4  C   UNL     1     -32.653   2.552 -38.920  1.00  0.00     0.000 C 
BRANCH   4   5
ATOM      5  C   UNL     1     -32.217   3.752 -39.780  1.00  0.00     0.000 C 
BRANCH   5   6
ATOM      6  C   UNL     1     -31.981   5.025 -38.947  1.00  0.00     0.000 C 
BRANCH   6   7
ATOM      7  C   UNL     1     -30.662   4.991 -38.152  1.00  0.00     0.000 C 
BRANCH   7   8
ATOM      8  C   UNL     1     -29.374   4.953 -39.003  1.00  0.00     0.000 C 
BRANCH   8   9
ATOM      9  C   UNL     1     -28.118   4.442 -38.271  1.00  0.00     0.000 C 
BRANCH   9  10
ATOM     10  C   UNL     1     -27.474   5.458 -37.307  1.00  0.00     0.000 C 
BRANCH  10  11
ATOM     11  C   UNL     1     -26.479   4.822 -36.312  1.00  0.00     0.000 C 
BRANCH  11  12
ATOM     12  C   UNL     1     -26.785   5.193 -34.851  1.00  0.00     0.000 C 
BRANCH  12  13
ATOM     13  C   UNL     1     -26.019   4.313 -33.851  1.00  0.00     0.006 C 
BRANCH  13  14
ATOM     14  C   UNL     1     -24.520   4.648 -33.810  1.00  0.00     0.053 C 
BRANCH  14  15
ATOM     15  C   UNL     1     -23.701   3.424 -34.074  1.00  0.00     0.041 C 
ATOM     16  O   UNL     1     -23.669   2.920 -35.231  1.00  0.00    -0.550 OA
ATOM     17  O   UNL     1     -22.963   2.841 -33.046  1.00  0.00    -0.550 OA
ENDBRANCH  14  15
ENDBRANCH  13  14
ENDBRANCH  12  13
ENDBRANCH  11  12
ENDBRANCH  10  11
ENDBRANCH   9  10
ENDBRANCH   8   9
ENDBRANCH   7   8
ENDBRANCH   6   7
ENDBRANCH   5   6
ENDBRANCH   4   5
ENDBRANCH   3   4
ENDBRANCH   2   3
ENDBRANCH   1   2
BRANCH   1  18
ATOM     18  C   UNL     1     -30.049  -0.899 -38.433  1.00  0.00     0.000 C 
BRANCH  18  19
ATOM     19  C   UNL     1     -29.455  -1.446 -37.124  1.00  0.00     0.000 C 
BRANCH  19  20
ATOM     20  C   UNL     1     -30.502  -1.569 -36.004  1.00  0.00     0.000 C 
BRANCH  20  21
ATOM     21  C   UNL     1     -31.500  -0.397 -35.903  1.00  0.00     0.000 C 
BRANCH  21  22
ATOM     22  C   UNL     1     -31.065   0.751 -34.974  1.00  0.00     0.000 C 
BRANCH  22  23
ATOM     23  C   UNL     1     -30.679   2.024 -35.741  1.00  0.00     0.000 C 
BRANCH  23  24
ATOM     24  C   UNL     1     -29.164   2.271 -35.675  1.00  0.00    -0.000 C 
BRANCH  24  25
ATOM     25  C   UNL     1     -28.444   1.281 -34.745  1.00  0.00    -0.000 C 
BRANCH  25  26
ATOM     26  C   UNL     1     -26.990   1.025 -35.168  1.00  0.00    -0.000 C 
BRANCH  26  27
ATOM     27  C   UNL     1     -26.774   1.371 -36.647  1.00  0.00    -0.000 C 
BRANCH  27  28
ATOM     28  C   UNL     1     -25.566   0.612 -37.219  1.00  0.00    -0.000 C 
BRANCH  28  29
ATOM     29  C   UNL     1     -25.885  -0.099 -38.544  1.00  0.00    -0.000 C 
BRANCH  29  30
ATOM     30  C   UNL     1     -25.403  -1.560 -38.561  1.00  0.00    -0.000 C 
BRANCH  30  31
ATOM     31  C   UNL     1     -25.899  -2.354 -37.342  1.00  0.00    -0.003 C 
ATOM     32  C   UNL     1     -26.529  -3.694 -37.724  1.00  0.00     0.004 C 
ENDBRANCH  30  31
ENDBRANCH  29  30
ENDBRANCH  28  29
ENDBRANCH  27  28
ENDBRANCH  26  27
ENDBRANCH  25  26
ENDBRANCH  24  25
ENDBRANCH  23  24
ENDBRANCH  22  23
ENDBRANCH  21  22
ENDBRANCH  20  21
ENDBRANCH  19  20
ENDBRANCH  18  19
ENDBRANCH   1  18
TORSDOF 28
ENDMDL
MODEL 8
REMARK VINA RESULT:    -2.942      3.758      4.686
REMARK INTER + INTRA:         -14.084
REMARK INTER:                  -8.956
REMARK INTRA:                  -5.128
REMARK UNBOUND:                -6.325
REMARK SMILES CCCCCCCCCCCCCCCCCCCCCCCCCCCCCC(=O)[O-]
REMARK SMILES IDX 16 1 17 2 18 3 19 4 20 5 21 6 22 7 23 8 24 9 25 10 26 11
REMARK SMILES IDX 27 12 28 13 29 14 30 15 31 16 32 17 15 18 14 19 13 20 12 21
REMARK SMILES IDX 11 22 10 23 9 24 8 25 7 26 6 27 5 28 4 29 3 30 2 31 1 32
REMARK H PARENT
REMARK Flexibility Score: inf
ROOT
ATOM      1  C   UNL     1     -31.378   3.588 -36.153  1.00  0.00     0.000 C 
ENDROOT
BRANCH   1   2
ATOM      2  C   UNL     1     -31.476   2.108 -36.577  1.00  0.00     0.000 C 
BRANCH   2   3
ATOM      3  C   UNL     1     -32.736   1.742 -37.388  1.00  0.00     0.000 C 
BRANCH   3   4
ATOM      4  C   UNL     1     -32.528   0.652 -38.460  1.00  0.00     0.000 C 
BRANCH   4   5
ATOM      5  C   UNL     1     -31.127   0.625 -39.098  1.00  0.00     0.000 C 
BRANCH   5   6
ATOM      6  C   UNL     1     -30.447  -0.750 -38.978  1.00  0.00     0.000 C 
BRANCH   6   7
ATOM      7  C   UNL     1     -29.500  -0.851 -37.767  1.00  0.00     0.000 C 
BRANCH   7   8
ATOM      8  C   UNL     1     -29.993  -1.745 -36.609  1.00  0.00     0.000 C 
BRANCH   8   9
ATOM      9  C   UNL     1     -30.390  -0.996 -35.323  1.00  0.00     0.000 C 
BRANCH   9  10
ATOM     10  C   UNL     1     -31.847  -1.217 -34.870  1.00  0.00     0.000 C 
BRANCH  10  11
ATOM     11  C   UNL     1     -31.987  -1.505 -33.360  1.00  0.00     0.000 C 
BRANCH  11  12
ATOM     12  C   UNL     1     -31.675  -2.969 -33.006  1.00  0.00     0.000 C 
BRANCH  12  13
ATOM     13  C   UNL     1     -32.762  -3.936 -33.499  1.00  0.00     0.006 C 
BRANCH  13  14
ATOM     14  C   UNL     1     -33.762  -4.303 -32.390  1.00  0.00     0.053 C 
BRANCH  14  15
ATOM     15  C   UNL     1     -34.755  -5.303 -32.888  1.00  0.00     0.041 C 
ATOM     16  O   UNL     1     -34.974  -5.418 -34.126  1.00  0.00    -0.550 OA
ATOM     17  O   UNL     1     -35.437  -6.120 -31.987  1.00  0.00    -0.550 OA
ENDBRANCH  14  15
ENDBRANCH  13  14
ENDBRANCH  12  13
ENDBRANCH  11  12
ENDBRANCH  10  11
ENDBRANCH   9  10
ENDBRANCH   8   9
ENDBRANCH   7   8
ENDBRANCH   6   7
ENDBRANCH   5   6
ENDBRANCH   4   5
ENDBRANCH   3   4
ENDBRANCH   2   3
ENDBRANCH   1   2
BRANCH   1  18
ATOM     18  C   UNL     1     -32.351   4.543 -36.869  1.00  0.00     0.000 C 
BRANCH  18  19
ATOM     19  C   UNL     1     -31.688   5.327 -38.013  1.00  0.00     0.000 C 
BRANCH  19  20
ATOM     20  C   UNL     1     -32.040   4.761 -39.401  1.00  0.00     0.000 C 
BRANCH  20  21
ATOM     21  C   UNL     1     -30.890   4.031 -40.125  1.00  0.00     0.000 C 
BRANCH  21  22
ATOM     22  C   UNL     1     -29.475   4.434 -39.673  1.00  0.00     0.000 C 
BRANCH  22  23
ATOM     23  C   UNL     1     -28.653   3.243 -39.158  1.00  0.00     0.000 C 
BRANCH  23  24
ATOM     24  C   UNL     1     -27.977   3.577 -37.818  1.00  0.00    -0.000 C 
BRANCH  24  25
ATOM     25  C   UNL     1     -28.037   5.076 -37.483  1.00  0.00    -0.000 C 
BRANCH  25  26
ATOM     26  C   UNL     1     -26.773   5.571 -36.765  1.00  0.00    -0.000 C 
BRANCH  26  27
ATOM     27  C   UNL     1     -26.117   4.443 -35.958  1.00  0.00    -0.000 C 
BRANCH  27  28
ATOM     28  C   UNL     1     -25.997   4.827 -34.475  1.00  0.00    -0.000 C 
BRANCH  28  29
ATOM     29  C   UNL     1     -26.249   3.639 -33.531  1.00  0.00    -0.000 C 
BRANCH  29  30
ATOM     30  C   UNL     1     -27.630   3.702 -32.858  1.00  0.00    -0.000 C 
BRANCH  30  31
ATOM     31  C   UNL     1     -28.735   3.086 -33.730  1.00  0.00    -0.003 C 
ATOM     32  C   UNL     1     -28.270   1.839 -34.484  1.00  0.00     0.004 C 
ENDBRANCH  30  31
ENDBRANCH  29  30
ENDBRANCH  28  29
ENDBRANCH  27  28
ENDBRANCH  26  27
ENDBRANCH  25  26
ENDBRANCH  24  25
ENDBRANCH  23  24
ENDBRANCH  22  23
ENDBRANCH  21  22
ENDBRANCH  20  21
ENDBRANCH  19  20
ENDBRANCH  18  19
ENDBRANCH   1  18
TORSDOF 28
ENDMDL
MODEL 9
REMARK VINA RESULT:    -2.900      3.927      7.491
REMARK INTER + INTRA:         -13.973
REMARK INTER:                  -8.046
REMARK INTRA:                  -5.927
REMARK UNBOUND:                -6.325
REMARK SMILES CCCCCCCCCCCCCCCCCCCCCCCCCCCCCC(=O)[O-]
REMARK SMILES IDX 16 1 17 2 18 3 19 4 20 5 21 6 22 7 23 8 24 9 25 10 26 11
REMARK SMILES IDX 27 12 28 13 29 14 30 15 31 16 32 17 15 18 14 19 13 20 12 21
REMARK SMILES IDX 11 22 10 23 9 24 8 25 7 26 6 27 5 28 4 29 3 30 2 31 1 32
REMARK H PARENT
REMARK Flexibility Score: inf
ROOT
ATOM      1  C   UNL     1     -27.794   1.702 -38.614  1.00  0.00     0.000 C 
ENDROOT
BRANCH   1   2
ATOM      2  C   UNL     1     -28.631   2.861 -39.195  1.00  0.00     0.000 C 
BRANCH   2   3
ATOM      3  C   UNL     1     -28.800   4.078 -38.262  1.00  0.00     0.000 C 
BRANCH   3   4
ATOM      4  C   UNL     1     -27.813   4.133 -37.078  1.00  0.00     0.000 C 
BRANCH   4   5
ATOM      5  C   UNL     1     -26.841   5.327 -37.095  1.00  0.00     0.000 C 
BRANCH   5   6
ATOM      6  C   UNL     1     -26.512   5.845 -35.684  1.00  0.00     0.000 C 
BRANCH   6   7
ATOM      7  C   UNL     1     -26.681   4.772 -34.592  1.00  0.00     0.000 C 
BRANCH   7   8
ATOM      8  C   UNL     1     -25.650   4.823 -33.443  1.00  0.00     0.000 C 
BRANCH   8   9
ATOM      9  C   UNL     1     -25.521   3.529 -32.618  1.00  0.00     0.000 C 
BRANCH   9  10
ATOM     10  C   UNL     1     -24.762   3.685 -31.285  1.00  0.00     0.000 C 
BRANCH  10  11
ATOM     11  C   UNL     1     -23.371   3.016 -31.284  1.00  0.00     0.000 C 
BRANCH  11  12
ATOM     12  C   UNL     1     -23.382   1.629 -31.951  1.00  0.00     0.000 C 
BRANCH  12  13
ATOM     13  C   UNL     1     -22.354   1.517 -33.087  1.00  0.00     0.006 C 
BRANCH  13  14
ATOM     14  C   UNL     1     -20.907   1.532 -32.567  1.00  0.00     0.053 C 
BRANCH  14  15
ATOM     15  C   UNL     1     -20.336   0.149 -32.564  1.00  0.00     0.041 C 
ATOM     16  O   UNL     1     -20.239  -0.494 -31.482  1.00  0.00    -0.550 OA
ATOM     17  O   UNL     1     -19.916  -0.436 -33.757  1.00  0.00    -0.550 OA
ENDBRANCH  14  15
ENDBRANCH  13  14
ENDBRANCH  12  13
ENDBRANCH  11  12
ENDBRANCH  10  11
ENDBRANCH   9  10
ENDBRANCH   8   9
ENDBRANCH   7   8
ENDBRANCH   6   7
ENDBRANCH   5   6
ENDBRANCH   4   5
ENDBRANCH   3   4
ENDBRANCH   2   3
ENDBRANCH   1   2
BRANCH   1  18
ATOM     18  C   UNL     1     -28.393   0.297 -38.807  1.00  0.00     0.000 C 
BRANCH  18  19
ATOM     19  C   UNL     1     -29.562   0.276 -39.806  1.00  0.00     0.000 C 
BRANCH  19  20
ATOM     20  C   UNL     1     -30.691  -0.679 -39.378  1.00  0.00     0.000 C 
BRANCH  20  21
ATOM     21  C   UNL     1     -31.847  -0.023 -38.595  1.00  0.00     0.000 C 
BRANCH  21  22
ATOM     22  C   UNL     1     -32.122   1.449 -38.951  1.00  0.00     0.000 C 
BRANCH  22  23
ATOM     23  C   UNL     1     -32.172   2.360 -37.715  1.00  0.00     0.000 C 
BRANCH  23  24
ATOM     24  C   UNL     1     -31.276   1.818 -36.592  1.00  0.00    -0.000 C 
BRANCH  24  25
ATOM     25  C   UNL     1     -31.079   2.831 -35.451  1.00  0.00    -0.000 C 
BRANCH  25  26
ATOM     26  C   UNL     1     -29.782   2.590 -34.665  1.00  0.00    -0.000 C 
BRANCH  26  27
ATOM     27  C   UNL     1     -29.080   1.309 -35.135  1.00  0.00    -0.000 C 
BRANCH  27  28
ATOM     28  C   UNL     1     -27.675   1.197 -34.522  1.00  0.00    -0.000 C 
BRANCH  28  29
ATOM     29  C   UNL     1     -26.639   0.640 -35.512  1.00  0.00    -0.000 C 
BRANCH  29  30
ATOM     30  C   UNL     1     -25.246   1.267 -35.323  1.00  0.00    -0.000 C 
BRANCH  30  31
ATOM     31  C   UNL     1     -24.775   2.033 -36.569  1.00  0.00    -0.003 C 
ATOM     32  C   UNL     1     -23.746   3.117 -36.245  1.00  0.00     0.004 C 
ENDBRANCH  30  31
ENDBRANCH  29  30
ENDBRANCH  28  29
ENDBRANCH  27  28
ENDBRANCH  26  27
ENDBRANCH  25  26
ENDBRANCH  24  25
ENDBRANCH  23  24
ENDBRANCH  22  23
ENDBRANCH  21  22
ENDBRANCH  20  21
ENDBRANCH  19  20
ENDBRANCH  18  19
ENDBRANCH   1  18
TORSDOF 28
ENDMDL
