MODEL 1
REMARK VINA RESULT:    -4.401      0.000      0.000
REMARK INTER + INTRA:          -9.465
REMARK INTER:                  -8.002
REMARK INTRA:                  -1.463
REMARK UNBOUND:                -1.463
REMARK SMILES CCCCCCCCCCCCCCCC(=O)[O-]
REMARK SMILES IDX 9 1 10 2 11 3 12 4 13 5 14 6 15 7 16 8 17 9 18 10 8 11 7 12
REMARK SMILES IDX 6 13 5 14 4 15 3 16 2 17 1 18
REMARK H PARENT
REMARK Flexibility Score: inf
ROOT
ATOM      1  C   UNL     1      -5.192  -3.762  -3.278  1.00  0.00     0.000 C 
ENDROOT
BRANCH   1   2
ATOM      2  C   UNL     1      -5.483  -3.328  -4.724  1.00  0.00     0.000 C 
BRANCH   2   3
ATOM      3  C   UNL     1      -4.254  -3.449  -5.642  1.00  0.00     0.000 C 
BRANCH   3   4
ATOM      4  C   UNL     1      -3.987  -2.187  -6.489  1.00  0.00     0.000 C 
BRANCH   4   5
ATOM      5  C   UNL     1      -5.001  -1.070  -6.204  1.00  0.00     0.000 C 
BRANCH   5   6
ATOM      6  C   UNL     1      -4.356   0.067  -5.397  1.00  0.00     0.006 C 
BRANCH   6   7
ATOM      7  C   UNL     1      -4.938   1.439  -5.755  1.00  0.00     0.053 C 
BRANCH   7   8
ATOM      8  C   UNL     1      -3.993   2.246  -6.590  1.00  0.00     0.041 C 
ATOM      9  O   UNL     1      -4.364   3.341  -7.091  1.00  0.00    -0.550 OA
ATOM     10  O   UNL     1      -2.708   1.779  -6.838  1.00  0.00    -0.550 OA
ENDBRANCH   7   8
ENDBRANCH   6   7
ENDBRANCH   5   6
ENDBRANCH   4   5
ENDBRANCH   3   4
ENDBRANCH   2   3
ENDBRANCH   1   2
BRANCH   1  11
ATOM     11  C   UNL     1      -3.693  -3.690  -2.938  1.00  0.00     0.000 C 
BRANCH  11  12
ATOM     12  C   UNL     1      -3.327  -2.402  -2.178  1.00  0.00    -0.000 C 
BRANCH  12  13
ATOM     13  C   UNL     1      -4.179  -2.196  -0.918  1.00  0.00    -0.000 C 
BRANCH  13  14
ATOM     14  C   UNL     1      -4.126  -3.397   0.042  1.00  0.00    -0.000 C 
BRANCH  14  15
ATOM     15  C   UNL     1      -5.507  -3.710   0.658  1.00  0.00    -0.000 C 
BRANCH  15  16
ATOM     16  C   UNL     1      -6.591  -2.683   0.291  1.00  0.00    -0.000 C 
BRANCH  16  17
ATOM     17  C   UNL     1      -7.852  -3.332  -0.296  1.00  0.00    -0.003 C 
ATOM     18  C   UNL     1      -8.051  -4.742   0.255  1.00  0.00     0.004 C 
ENDBRANCH  16  17
ENDBRANCH  15  16
ENDBRANCH  14  15
ENDBRANCH  13  14
ENDBRANCH  12  13
ENDBRANCH  11  12
ENDBRANCH   1  11
TORSDOF 14
ENDMDL
MODEL 2
REMARK VINA RESULT:    -4.378      1.140      2.168
REMARK INTER + INTRA:          -9.424
REMARK INTER:                  -7.697
REMARK INTRA:                  -1.727
REMARK UNBOUND:                -1.463
REMARK SMILES CCCCCCCCCCCCCCCC(=O)[O-]
REMARK SMILES IDX 9 1 10 2 11 3 12 4 13 5 14 6 15 7 16 8 17 9 18 10 8 11 7 12
REMARK SMILES IDX 6 13 5 14 4 15 3 16 2 17 1 18
REMARK H PARENT
REMARK Flexibility Score: inf
ROOT
ATOM      1  C   UNL     1      -3.629  -2.164  -2.466  1.00  0.00     0.000 C 
ENDROOT
BRANCH   1   2
ATOM      2  C   UNL     1      -3.499  -3.646  -2.853  1.00  0.00     0.000 C 
BRANCH   2   3
ATOM      3  C   UNL     1      -4.766  -4.200  -3.527  1.00  0.00     0.000 C 
BRANCH   3   4
ATOM      4  C   UNL     1      -5.241  -3.365  -4.735  1.00  0.00     0.000 C 
BRANCH   4   5
ATOM      5  C   UNL     1      -4.280  -3.468  -5.927  1.00  0.00     0.000 C 
BRANCH   5   6
ATOM      6  C   UNL     1      -4.057  -2.093  -6.576  1.00  0.00     0.006 C 
BRANCH   6   7
ATOM      7  C   UNL     1      -5.187  -1.108  -6.255  1.00  0.00     0.053 C 
BRANCH   7   8
ATOM      8  C   UNL     1      -4.659   0.241  -5.874  1.00  0.00     0.041 C 
ATOM      9  O   UNL     1      -5.440   1.224  -5.779  1.00  0.00    -0.550 OA
ATOM     10  O   UNL     1      -3.300   0.419  -5.646  1.00  0.00    -0.550 OA
ENDBRANCH   7   8
ENDBRANCH   6   7
ENDBRANCH   5   6
ENDBRANCH   4   5
ENDBRANCH   3   4
ENDBRANCH   2   3
ENDBRANCH   1   2
BRANCH   1  11
ATOM     11  C   UNL     1      -3.631  -1.956  -0.941  1.00  0.00     0.000 C 
BRANCH  11  12
ATOM     12  C   UNL     1      -3.182  -3.215  -0.179  1.00  0.00    -0.000 C 
BRANCH  12  13
ATOM     13  C   UNL     1      -4.223  -3.691   0.844  1.00  0.00    -0.000 C 
BRANCH  13  14
ATOM     14  C   UNL     1      -4.912  -5.003   0.429  1.00  0.00    -0.000 C 
BRANCH  14  15
ATOM     15  C   UNL     1      -6.207  -4.751  -0.372  1.00  0.00    -0.000 C 
BRANCH  15  16
ATOM     16  C   UNL     1      -6.855  -3.386  -0.082  1.00  0.00    -0.000 C 
BRANCH  16  17
ATOM     17  C   UNL     1      -8.357  -3.491   0.211  1.00  0.00    -0.003 C 
ATOM     18  C   UNL     1      -8.756  -4.929   0.535  1.00  0.00     0.004 C 
ENDBRANCH  16  17
ENDBRANCH  15  16
ENDBRANCH  14  15
ENDBRANCH  13  14
ENDBRANCH  12  13
ENDBRANCH  11  12
ENDBRANCH   1  11
TORSDOF 14
ENDMDL
MODEL 3
REMARK VINA RESULT:    -4.370      1.814      2.377
REMARK INTER + INTRA:          -9.409
REMARK INTER:                  -7.943
REMARK INTRA:                  -1.466
REMARK UNBOUND:                -1.463
REMARK SMILES CCCCCCCCCCCCCCCC(=O)[O-]
REMARK SMILES IDX 9 1 10 2 11 3 12 4 13 5 14 6 15 7 16 8 17 9 18 10 8 11 7 12
REMARK SMILES IDX 6 13 5 14 4 15 3 16 2 17 1 18
REMARK H PARENT
REMARK Flexibility Score: inf
ROOT
ATOM      1  C   UNL     1      -5.180  -4.205  -3.269  1.00  0.00     0.000 C 
ENDROOT
BRANCH   1   2
ATOM      2  C   UNL     1      -5.400  -3.430  -4.579  1.00  0.00     0.000 C 
BRANCH   2   3
ATOM      3  C   UNL     1      -4.177  -3.475  -5.512  1.00  0.00     0.000 C 
BRANCH   3   4
ATOM      4  C   UNL     1      -4.147  -2.333  -6.549  1.00  0.00     0.000 C 
BRANCH   4   5
ATOM      5  C   UNL     1      -4.863  -1.071  -6.046  1.00  0.00     0.000 C 
BRANCH   5   6
ATOM      6  C   UNL     1      -3.934   0.152  -6.109  1.00  0.00     0.006 C 
BRANCH   6   7
ATOM      7  C   UNL     1      -3.684   0.764  -4.726  1.00  0.00     0.053 C 
BRANCH   7   8
ATOM      8  C   UNL     1      -2.837  -0.125  -3.867  1.00  0.00     0.041 C 
ATOM      9  O   UNL     1      -1.832  -0.706  -4.354  1.00  0.00    -0.550 OA
ATOM     10  O   UNL     1      -3.172  -0.332  -2.535  1.00  0.00    -0.550 OA
ENDBRANCH   7   8
ENDBRANCH   6   7
ENDBRANCH   5   6
ENDBRANCH   4   5
ENDBRANCH   3   4
ENDBRANCH   2   3
ENDBRANCH   1   2
BRANCH   1  11
ATOM     11  C   UNL     1      -4.078  -3.578  -2.398  1.00  0.00     0.000 C 
BRANCH  11  12
ATOM     12  C   UNL     1      -4.360  -3.736  -0.894  1.00  0.00    -0.000 C 
BRANCH  12  13
ATOM     13  C   UNL     1      -4.929  -2.458  -0.261  1.00  0.00    -0.000 C 
BRANCH  13  14
ATOM     14  C   UNL     1      -6.276  -2.690   0.446  1.00  0.00    -0.000 C 
BRANCH  14  15
ATOM     15  C   UNL     1      -7.334  -3.295  -0.501  1.00  0.00    -0.000 C 
BRANCH  15  16
ATOM     16  C   UNL     1      -8.492  -3.992   0.233  1.00  0.00    -0.000 C 
BRANCH  16  17
ATOM     17  C   UNL     1      -8.097  -5.361   0.803  1.00  0.00    -0.003 C 
ATOM     18  C   UNL     1      -7.299  -6.171  -0.216  1.00  0.00     0.004 C 
ENDBRANCH  16  17
ENDBRANCH  15  16
ENDBRANCH  14  15
ENDBRANCH  13  14
ENDBRANCH  12  13
ENDBRANCH  11  12
ENDBRANCH   1  11
TORSDOF 14
ENDMDL
MODEL 4
REMARK VINA RESULT:    -4.353      1.424      3.368
REMARK INTER + INTRA:          -9.378
REMARK INTER:                  -7.349
REMARK INTRA:                  -2.029
REMARK UNBOUND:                -1.463
REMARK SMILES CCCCCCCCCCCCCCCC(=O)[O-]
REMARK SMILES IDX 9 1 10 2 11 3 12 4 13 5 14 6 15 7 16 8 17 9 18 10 8 11 7 12
REMARK SMILES IDX 6 13 5 14 4 15 3 16 2 17 1 18
REMARK H PARENT
REMARK Flexibility Score: inf
ROOT
ATOM      1  C   UNL     1      -5.193  -3.438  -4.249  1.00  0.00     0.000 C 
ENDROOT
BRANCH   1   2
ATOM      2  C   UNL     1      -4.162  -3.690  -5.362  1.00  0.00     0.000 C 
BRANCH   2   3
ATOM      3  C   UNL     1      -4.227  -2.640  -6.484  1.00  0.00     0.000 C 
BRANCH   3   4
ATOM      4  C   UNL     1      -5.055  -1.390  -6.116  1.00  0.00     0.000 C 
BRANCH   4   5
ATOM      5  C   UNL     1      -4.238  -0.096  -6.236  1.00  0.00     0.000 C 
BRANCH   5   6
ATOM      6  C   UNL     1      -5.094   1.131  -5.886  1.00  0.00     0.006 C 
BRANCH   6   7
ATOM      7  C   UNL     1      -4.260   2.273  -5.292  1.00  0.00     0.053 C 
BRANCH   7   8
ATOM      8  C   UNL     1      -3.764   3.210  -6.350  1.00  0.00     0.041 C 
ATOM      9  O   UNL     1      -2.685   3.838  -6.185  1.00  0.00    -0.550 OA
ATOM     10  O   UNL     1      -4.504   3.409  -7.509  1.00  0.00    -0.550 OA
ENDBRANCH   7   8
ENDBRANCH   6   7
ENDBRANCH   5   6
ENDBRANCH   4   5
ENDBRANCH   3   4
ENDBRANCH   2   3
ENDBRANCH   1   2
BRANCH   1  11
ATOM     11  C   UNL     1      -4.820  -4.149  -2.936  1.00  0.00     0.000 C 
BRANCH  11  12
ATOM     12  C   UNL     1      -5.691  -3.690  -1.754  1.00  0.00    -0.000 C 
BRANCH  12  13
ATOM     13  C   UNL     1      -4.866  -3.079  -0.612  1.00  0.00    -0.000 C 
BRANCH  13  14
ATOM     14  C   UNL     1      -3.495  -2.558  -1.078  1.00  0.00    -0.000 C 
BRANCH  14  15
ATOM     15  C   UNL     1      -3.491  -1.026  -1.271  1.00  0.00    -0.000 C 
BRANCH  15  16
ATOM     16  C   UNL     1      -2.793  -0.571  -2.564  1.00  0.00    -0.000 C 
BRANCH  16  17
ATOM     17  C   UNL     1      -2.020  -1.702  -3.254  1.00  0.00    -0.003 C 
ATOM     18  C   UNL     1      -1.217  -1.175  -4.441  1.00  0.00     0.004 C 
ENDBRANCH  16  17
ENDBRANCH  15  16
ENDBRANCH  14  15
ENDBRANCH  13  14
ENDBRANCH  12  13
ENDBRANCH  11  12
ENDBRANCH   1  11
TORSDOF 14
ENDMDL
MODEL 5
REMARK VINA RESULT:    -4.333      1.152      2.587
REMARK INTER + INTRA:          -9.342
REMARK INTER:                  -8.091
REMARK INTRA:                  -1.251
REMARK UNBOUND:                -1.463
REMARK SMILES CCCCCCCCCCCCCCCC(=O)[O-]
REMARK SMILES IDX 9 1 10 2 11 3 12 4 13 5 14 6 15 7 16 8 17 9 18 10 8 11 7 12
REMARK SMILES IDX 6 13 5 14 4 15 3 16 2 17 1 18
REMARK H PARENT
REMARK Flexibility Score: inf
ROOT
ATOM      1  C   UNL     1      -4.053  -2.660  -2.020  1.00  0.00     0.000 C 
ENDROOT
BRANCH   1   2
ATOM      2  C   UNL     1      -4.910  -3.805  -2.584  1.00  0.00     0.000 C 
BRANCH   2   3
ATOM      3  C   UNL     1      -4.461  -4.251  -3.986  1.00  0.00     0.000 C 
BRANCH   3   4
ATOM      4  C   UNL     1      -5.183  -3.512  -5.133  1.00  0.00     0.000 C 
BRANCH   4   5
ATOM      5  C   UNL     1      -4.200  -2.943  -6.166  1.00  0.00     0.000 C 
BRANCH   5   6
ATOM      6  C   UNL     1      -4.498  -1.464  -6.454  1.00  0.00     0.006 C 
BRANCH   6   7
ATOM      7  C   UNL     1      -3.966  -0.538  -5.353  1.00  0.00     0.053 C 
BRANCH   7   8
ATOM      8  C   UNL     1      -4.052   0.904  -5.747  1.00  0.00     0.041 C 
ATOM      9  O   UNL     1      -3.213   1.394  -6.548  1.00  0.00    -0.550 OA
ATOM     10  O   UNL     1      -5.045   1.715  -5.210  1.00  0.00    -0.550 OA
ENDBRANCH   7   8
ENDBRANCH   6   7
ENDBRANCH   5   6
ENDBRANCH   4   5
ENDBRANCH   3   4
ENDBRANCH   2   3
ENDBRANCH   1   2
BRANCH   1  11
ATOM     11  C   UNL     1      -4.243  -2.481  -0.503  1.00  0.00     0.000 C 
BRANCH  11  12
ATOM     12  C   UNL     1      -5.204  -3.524   0.093  1.00  0.00    -0.000 C 
BRANCH  12  13
ATOM     13  C   UNL     1      -6.465  -2.890   0.697  1.00  0.00    -0.000 C 
BRANCH  13  14
ATOM     14  C   UNL     1      -7.702  -3.042  -0.206  1.00  0.00    -0.000 C 
BRANCH  14  15
ATOM     15  C   UNL     1      -8.560  -4.264   0.184  1.00  0.00    -0.000 C 
BRANCH  15  16
ATOM     16  C   UNL     1      -8.147  -4.904   1.521  1.00  0.00    -0.000 C 
BRANCH  16  17
ATOM     17  C   UNL     1      -7.731  -6.374   1.374  1.00  0.00    -0.003 C 
ATOM     18  C   UNL     1      -7.453  -6.723  -0.086  1.00  0.00     0.004 C 
ENDBRANCH  16  17
ENDBRANCH  15  16
ENDBRANCH  14  15
ENDBRANCH  13  14
ENDBRANCH  12  13
ENDBRANCH  11  12
ENDBRANCH   1  11
TORSDOF 14
ENDMDL
MODEL 6
REMARK VINA RESULT:    -4.292      4.126      7.405
REMARK INTER + INTRA:          -9.268
REMARK INTER:                  -7.479
REMARK INTRA:                  -1.789
REMARK UNBOUND:                -1.463
REMARK SMILES CCCCCCCCCCCCCCCC(=O)[O-]
REMARK SMILES IDX 9 1 10 2 11 3 12 4 13 5 14 6 15 7 16 8 17 9 18 10 8 11 7 12
REMARK SMILES IDX 6 13 5 14 4 15 3 16 2 17 1 18
REMARK H PARENT
REMARK Flexibility Score: inf
ROOT
ATOM      1  C   UNL     1      -3.161  -1.323  -2.123  1.00  0.00     0.000 C 
ENDROOT
BRANCH   1   2
ATOM      2  C   UNL     1      -3.521  -1.488  -0.637  1.00  0.00     0.000 C 
BRANCH   2   3
ATOM      3  C   UNL     1      -3.302  -2.923  -0.127  1.00  0.00     0.000 C 
BRANCH   3   4
ATOM      4  C   UNL     1      -4.609  -3.652   0.252  1.00  0.00     0.000 C 
BRANCH   4   5
ATOM      5  C   UNL     1      -5.844  -3.000  -0.386  1.00  0.00     0.000 C 
BRANCH   5   6
ATOM      6  C   UNL     1      -7.024  -2.976   0.598  1.00  0.00     0.006 C 
BRANCH   6   7
ATOM      7  C   UNL     1      -8.246  -3.730   0.060  1.00  0.00     0.053 C 
BRANCH   7   8
ATOM      8  C   UNL     1      -8.295  -5.141   0.558  1.00  0.00     0.041 C 
ATOM      9  O   UNL     1      -8.919  -5.419   1.616  1.00  0.00    -0.550 OA
ATOM     10  O   UNL     1      -7.631  -6.148  -0.132  1.00  0.00    -0.550 OA
ENDBRANCH   7   8
ENDBRANCH   6   7
ENDBRANCH   5   6
ENDBRANCH   4   5
ENDBRANCH   3   4
ENDBRANCH   2   3
ENDBRANCH   1   2
BRANCH   1  11
ATOM     11  C   UNL     1      -2.262  -2.460  -2.636  1.00  0.00     0.000 C 
BRANCH  11  12
ATOM     12  C   UNL     1      -2.878  -3.195  -3.840  1.00  0.00    -0.000 C 
BRANCH  12  13
ATOM     13  C   UNL     1      -4.393  -3.402  -3.696  1.00  0.00    -0.000 C 
BRANCH  13  14
ATOM     14  C   UNL     1      -5.131  -3.376  -5.046  1.00  0.00    -0.000 C 
BRANCH  14  15
ATOM     15  C   UNL     1      -4.272  -2.750  -6.165  1.00  0.00    -0.000 C 
BRANCH  15  16
ATOM     16  C   UNL     1      -4.680  -1.310  -6.520  1.00  0.00    -0.000 C 
BRANCH  16  17
ATOM     17  C   UNL     1      -3.590  -0.283  -6.183  1.00  0.00    -0.003 C 
ATOM     18  C   UNL     1      -4.062   0.684  -5.100  1.00  0.00     0.004 C 
ENDBRANCH  16  17
ENDBRANCH  15  16
ENDBRANCH  14  15
ENDBRANCH  13  14
ENDBRANCH  12  13
ENDBRANCH  11  12
ENDBRANCH   1  11
TORSDOF 14
ENDMDL
MODEL 7
REMARK VINA RESULT:    -4.249      4.035      7.448
REMARK INTER + INTRA:          -9.189
REMARK INTER:                  -7.854
REMARK INTRA:                  -1.335
REMARK UNBOUND:                -1.463
REMARK SMILES CCCCCCCCCCCCCCCC(=O)[O-]
REMARK SMILES IDX 9 1 10 2 11 3 12 4 13 5 14 6 15 7 16 8 17 9 18 10 8 11 7 12
REMARK SMILES IDX 6 13 5 14 4 15 3 16 2 17 1 18
REMARK H PARENT
REMARK Flexibility Score: inf
ROOT
ATOM      1  C   UNL     1      -5.126  -3.742  -4.752  1.00  0.00     0.000 C 
ENDROOT
BRANCH   1   2
ATOM      2  C   UNL     1      -3.831  -4.011  -3.969  1.00  0.00     0.000 C 
BRANCH   2   3
ATOM      3  C   UNL     1      -3.805  -3.310  -2.599  1.00  0.00     0.000 C 
BRANCH   3   4
ATOM      4  C   UNL     1      -5.087  -3.528  -1.767  1.00  0.00     0.000 C 
BRANCH   4   5
ATOM      5  C   UNL     1      -5.099  -2.681  -0.486  1.00  0.00     0.000 C 
BRANCH   5   6
ATOM      6  C   UNL     1      -6.329  -3.003   0.376  1.00  0.00     0.006 C 
BRANCH   6   7
ATOM      7  C   UNL     1      -7.523  -3.471  -0.465  1.00  0.00     0.053 C 
BRANCH   7   8
ATOM      8  C   UNL     1      -8.259  -4.599   0.190  1.00  0.00     0.041 C 
ATOM      9  O   UNL     1      -9.156  -4.361   1.042  1.00  0.00    -0.550 OA
ATOM     10  O   UNL     1      -7.939  -5.914  -0.121  1.00  0.00    -0.550 OA
ENDBRANCH   7   8
ENDBRANCH   6   7
ENDBRANCH   5   6
ENDBRANCH   4   5
ENDBRANCH   3   4
ENDBRANCH   2   3
ENDBRANCH   1   2
BRANCH   1  11
ATOM     11  C   UNL     1      -5.161  -2.326  -5.353  1.00  0.00     0.000 C 
BRANCH  11  12
ATOM     12  C   UNL     1      -4.125  -2.141  -6.476  1.00  0.00    -0.000 C 
BRANCH  12  13
ATOM     13  C   UNL     1      -3.248  -0.897  -6.272  1.00  0.00    -0.000 C 
BRANCH  13  14
ATOM     14  C   UNL     1      -3.345  -0.324  -4.847  1.00  0.00    -0.000 C 
BRANCH  14  15
ATOM     15  C   UNL     1      -3.732   1.170  -4.847  1.00  0.00    -0.000 C 
BRANCH  15  16
ATOM     16  C   UNL     1      -4.964   1.486  -5.713  1.00  0.00    -0.000 C 
BRANCH  16  17
ATOM     17  C   UNL     1      -4.672   2.524  -6.806  1.00  0.00    -0.003 C 
ATOM     18  C   UNL     1      -3.552   3.470  -6.380  1.00  0.00     0.004 C 
ENDBRANCH  16  17
ENDBRANCH  15  16
ENDBRANCH  14  15
ENDBRANCH  13  14
ENDBRANCH  12  13
ENDBRANCH  11  12
ENDBRANCH   1  11
TORSDOF 14
ENDMDL
MODEL 8
REMARK VINA RESULT:    -4.231      1.249      2.170
REMARK INTER + INTRA:          -9.157
REMARK INTER:                  -8.013
REMARK INTRA:                  -1.143
REMARK UNBOUND:                -1.463
REMARK SMILES CCCCCCCCCCCCCCCC(=O)[O-]
REMARK SMILES IDX 9 1 10 2 11 3 12 4 13 5 14 6 15 7 16 8 17 9 18 10 8 11 7 12
REMARK SMILES IDX 6 13 5 14 4 15 3 16 2 17 1 18
REMARK H PARENT
REMARK Flexibility Score: inf
ROOT
ATOM      1  C   UNL     1      -4.381  -3.361  -6.056  1.00  0.00     0.000 C 
ENDROOT
BRANCH   1   2
ATOM      2  C   UNL     1      -4.068  -1.913  -6.466  1.00  0.00     0.000 C 
BRANCH   2   3
ATOM      3  C   UNL     1      -5.257  -0.961  -6.248  1.00  0.00     0.000 C 
BRANCH   3   4
ATOM      4  C   UNL     1      -4.839   0.484  -5.902  1.00  0.00     0.000 C 
BRANCH   4   5
ATOM      5  C   UNL     1      -3.752   0.531  -4.819  1.00  0.00     0.000 C 
BRANCH   5   6
ATOM      6  C   UNL     1      -2.535   1.339  -5.295  1.00  0.00     0.006 C 
BRANCH   6   7
ATOM      7  C   UNL     1      -2.526   1.539  -6.815  1.00  0.00     0.053 C 
BRANCH   7   8
ATOM      8  C   UNL     1      -2.479   2.989  -7.186  1.00  0.00     0.041 C 
ATOM      9  O   UNL     1      -2.420   3.872  -6.290  1.00  0.00    -0.550 OA
ATOM     10  O   UNL     1      -2.524   3.368  -8.522  1.00  0.00    -0.550 OA
ENDBRANCH   7   8
ENDBRANCH   6   7
ENDBRANCH   5   6
ENDBRANCH   4   5
ENDBRANCH   3   4
ENDBRANCH   2   3
ENDBRANCH   1   2
BRANCH   1  11
ATOM     11  C   UNL     1      -5.298  -3.434  -4.824  1.00  0.00     0.000 C 
BRANCH  11  12
ATOM     12  C   UNL     1      -4.632  -4.158  -3.641  1.00  0.00    -0.000 C 
BRANCH  12  13
ATOM     13  C   UNL     1      -4.131  -3.190  -2.560  1.00  0.00    -0.000 C 
BRANCH  13  14
ATOM     14  C   UNL     1      -4.422  -3.684  -1.132  1.00  0.00    -0.000 C 
BRANCH  14  15
ATOM     15  C   UNL     1      -4.996  -2.566  -0.235  1.00  0.00    -0.000 C 
BRANCH  15  16
ATOM     16  C   UNL     1      -6.313  -2.951   0.461  1.00  0.00    -0.000 C 
BRANCH  16  17
ATOM     17  C   UNL     1      -7.375  -3.467  -0.519  1.00  0.00    -0.003 C 
ATOM     18  C   UNL     1      -8.628  -3.929   0.223  1.00  0.00     0.004 C 
ENDBRANCH  16  17
ENDBRANCH  15  16
ENDBRANCH  14  15
ENDBRANCH  13  14
ENDBRANCH  12  13
ENDBRANCH  11  12
ENDBRANCH   1  11
TORSDOF 14
ENDMDL
MODEL 9
REMARK VINA RESULT:    -4.219      3.758      6.724
REMARK INTER + INTRA:          -9.134
REMARK INTER:                  -7.260
REMARK INTRA:                  -1.874
REMARK UNBOUND:                -1.463
REMARK SMILES CCCCCCCCCCCCCCCC(=O)[O-]
REMARK SMILES IDX 9 1 10 2 11 3 12 4 13 5 14 6 15 7 16 8 17 9 18 10 8 11 7 12
REMARK SMILES IDX 6 13 5 14 4 15 3 16 2 17 1 18
REMARK H PARENT
REMARK Flexibility Score: inf
ROOT
ATOM      1  C   UNL     1      -5.473  -3.355  -4.794  1.00  0.00     0.000 C 
ENDROOT
BRANCH   1   2
ATOM      2  C   UNL     1      -5.122  -3.853  -3.383  1.00  0.00     0.000 C 
BRANCH   2   3
ATOM      3  C   UNL     1      -3.629  -3.691  -3.047  1.00  0.00     0.000 C 
BRANCH   3   4
ATOM      4  C   UNL     1      -3.356  -3.418  -1.553  1.00  0.00     0.000 C 
BRANCH   4   5
ATOM      5  C   UNL     1      -4.394  -2.469  -0.936  1.00  0.00     0.000 C 
BRANCH   5   6
ATOM      6  C   UNL     1      -5.143  -3.149   0.221  1.00  0.00     0.006 C 
BRANCH   6   7
ATOM      7  C   UNL     1      -6.616  -2.729   0.287  1.00  0.00     0.053 C 
BRANCH   7   8
ATOM      8  C   UNL     1      -7.538  -3.894   0.099  1.00  0.00     0.041 C 
ATOM      9  O   UNL     1      -8.749  -3.804   0.432  1.00  0.00    -0.550 OA
ATOM     10  O   UNL     1      -7.055  -5.088  -0.421  1.00  0.00    -0.550 OA
ENDBRANCH   7   8
ENDBRANCH   6   7
ENDBRANCH   5   6
ENDBRANCH   4   5
ENDBRANCH   3   4
ENDBRANCH   2   3
ENDBRANCH   1   2
BRANCH   1  11
ATOM     11  C   UNL     1      -4.256  -3.365  -5.736  1.00  0.00     0.000 C 
BRANCH  11  12
ATOM     12  C   UNL     1      -4.129  -2.060  -6.541  1.00  0.00    -0.000 C 
BRANCH  12  13
ATOM     13  C   UNL     1      -4.816  -0.871  -5.853  1.00  0.00    -0.000 C 
BRANCH  13  14
ATOM     14  C   UNL     1      -4.099   0.466  -6.115  1.00  0.00    -0.000 C 
BRANCH  14  15
ATOM     15  C   UNL     1      -3.031   0.772  -5.044  1.00  0.00    -0.000 C 
BRANCH  15  16
ATOM     16  C   UNL     1      -3.213  -0.034  -3.746  1.00  0.00    -0.000 C 
BRANCH  16  17
ATOM     17  C   UNL     1      -1.897  -0.240  -2.985  1.00  0.00    -0.003 C 
ATOM     18  C   UNL     1      -2.026   0.208  -1.531  1.00  0.00     0.004 C 
ENDBRANCH  16  17
ENDBRANCH  15  16
ENDBRANCH  14  15
ENDBRANCH  13  14
ENDBRANCH  12  13
ENDBRANCH  11  12
ENDBRANCH   1  11
TORSDOF 14
ENDMDL
