MODEL 1
REMARK VINA RESULT:    13.893      0.000      0.000
REMARK INTER + INTRA:          16.566
REMARK INTER:                  16.736
REMARK INTRA:                  -0.171
REMARK UNBOUND:                -0.171
REMARK SMILES O=c1c(O)c(-c2ccc(O)cc2O)oc2cc(O)cc(O)c12
REMARK SMILES IDX 5 1 3 2 2 3 1 4 22 5 20 6 19 7 17 8 16 9 15 10 14 11 6 12
REMARK SMILES IDX 8 13 7 14 9 15 11 16 12 17 10 18 13 20 4 22 21 24 18 26
REMARK H PARENT 10 19 13 21 4 23 21 25 18 27
REMARK Flexibility Score: inf
ROOT
ATOM      1  C   UNL     1      -1.651  16.264 -21.810  1.00  0.00     0.184 A 
ATOM      2  C   UNL     1      -0.697  17.265 -21.569  1.00  0.00     0.208 A 
ATOM      3  C   UNL     1      -0.925  18.189 -20.537  1.00  0.00     0.238 A 
ATOM      4  O   UNL     1      -0.033  19.038 -20.280  1.00  0.00    -0.285 OA
ATOM      5  C   UNL     1      -2.131  18.134 -19.797  1.00  0.00     0.111 A 
ATOM      6  C   UNL     1      -2.489  19.046 -18.758  1.00  0.00     0.134 A 
ATOM      7  C   UNL     1      -3.661  18.830 -18.022  1.00  0.00     0.093 A 
ATOM      8  C   UNL     1      -4.518  17.775 -18.327  1.00  0.00     0.123 A 
ATOM      9  C   UNL     1      -4.207  16.909 -19.375  1.00  0.00     0.094 A 
ATOM     10  C   UNL     1      -3.026  17.075 -20.103  1.00  0.00     0.146 A 
ATOM     11  O   UNL     1      -2.758  16.216 -21.079  1.00  0.00    -0.451 OA
ENDROOT
BRANCH   1  12
ATOM     12  C   UNL     1      -1.469  15.256 -22.874  1.00  0.00     0.063 A 
ATOM     13  C   UNL     1      -2.315  14.182 -24.884  1.00  0.00     0.047 A 
ATOM     14  C   UNL     1      -2.453  15.129 -23.867  1.00  0.00     0.020 A 
ATOM     15  C   UNL     1      -1.200  13.341 -24.916  1.00  0.00     0.119 A 
ATOM     16  C   UNL     1      -0.223  13.445 -23.917  1.00  0.00     0.093 A 
ATOM     17  C   UNL     1      -0.356  14.389 -22.888  1.00  0.00     0.130 A 
BRANCH  15  18
ATOM     18  O   UNL     1      -1.074  12.405 -25.940  1.00  0.00    -0.508 OA
ATOM     19  H   UNL     1      -0.242  11.833 -26.034  1.00  0.00     0.293 HD
ENDBRANCH  15  18
BRANCH  17  20
ATOM     20  O   UNL     1       0.597  14.449 -21.873  1.00  0.00    -0.507 OA
ATOM     21  H   UNL     1       1.162  13.644 -21.625  1.00  0.00     0.293 HD
ENDBRANCH  17  20
ENDBRANCH   1  12
BRANCH   2  22
ATOM     22  O   UNL     1       0.451  17.341 -22.362  1.00  0.00    -0.502 OA
ATOM     23  H   UNL     1       1.320  16.889 -22.105  1.00  0.00     0.293 HD
ENDBRANCH   2  22
BRANCH   6  24
ATOM     24  O   UNL     1      -1.749  20.186 -18.427  1.00  0.00    -0.507 OA
ATOM     25  H   UNL     1      -0.873  20.449 -18.850  1.00  0.00     0.293 HD
ENDBRANCH   6  24
BRANCH   8  26
ATOM     26  O   UNL     1      -5.685  17.600 -17.584  1.00  0.00    -0.508 OA
ATOM     27  H   UNL     1      -6.595  17.557 -18.029  1.00  0.00     0.293 HD
ENDBRANCH   8  26
TORSDOF 6
ENDMDL
