MODEL 1
REMARK VINA RESULT:    -6.179      0.000      0.000
REMARK INTER + INTRA:         -10.254
REMARK INTER:                  -9.792
REMARK INTRA:                  -0.462
REMARK UNBOUND:                -0.462
REMARK SMILES CCCCCCCCCCCC(=O)[O-]
REMARK SMILES IDX 7 1 8 2 9 3 10 4 11 5 12 6 13 7 14 8 6 9 5 10 4 11 3 12 2 13
REMARK SMILES IDX 1 14
REMARK H PARENT
REMARK Flexibility Score: inf
ROOT
ATOM      1  C   UNL     1      30.359  -9.476  22.167  1.00  0.00     0.000 C 
ENDROOT
BRANCH   1   2
ATOM      2  C   UNL     1      31.627  -8.828  21.581  1.00  0.00     0.000 C 
BRANCH   2   3
ATOM      3  C   UNL     1      31.978  -9.361  20.185  1.00  0.00     0.000 C 
BRANCH   3   4
ATOM      4  C   UNL     1      33.479  -9.226  19.907  1.00  0.00     0.006 C 
BRANCH   4   5
ATOM      5  C   UNL     1      34.266  -9.051  21.210  1.00  0.00     0.053 C 
BRANCH   5   6
ATOM      6  C   UNL     1      35.647  -9.607  21.066  1.00  0.00     0.041 C 
ATOM      7  O   UNL     1      35.851 -10.616  20.341  1.00  0.00    -0.550 OA
ATOM      8  O   UNL     1      36.717  -8.983  21.695  1.00  0.00    -0.550 OA
ENDBRANCH   5   6
ENDBRANCH   4   5
ENDBRANCH   3   4
ENDBRANCH   2   3
ENDBRANCH   1   2
BRANCH   1   9
ATOM      9  C   UNL     1      29.212  -9.696  21.160  1.00  0.00     0.000 C 
BRANCH   9  10
ATOM     10  C   UNL     1      28.134 -10.699  21.608  1.00  0.00    -0.000 C 
BRANCH  10  11
ATOM     11  C   UNL     1      27.421 -11.376  20.428  1.00  0.00    -0.000 C 
BRANCH  11  12
ATOM     12  C   UNL     1      28.071 -12.728  20.098  1.00  0.00    -0.000 C 
BRANCH  12  13
ATOM     13  C   UNL     1      27.420 -13.417  18.888  1.00  0.00    -0.003 C 
ATOM     14  C   UNL     1      26.314 -12.575  18.253  1.00  0.00     0.004 C 
ENDBRANCH  12  13
ENDBRANCH  11  12
ENDBRANCH  10  11
ENDBRANCH   9  10
ENDBRANCH   1   9
TORSDOF 10
ENDMDL
MODEL 2
REMARK VINA RESULT:    -6.072      5.159      6.326
REMARK INTER + INTRA:         -10.084
REMARK INTER:                  -9.374
REMARK INTRA:                  -0.710
REMARK UNBOUND:                -0.462
REMARK SMILES CCCCCCCCCCCC(=O)[O-]
REMARK SMILES IDX 7 1 8 2 9 3 10 4 11 5 12 6 13 7 14 8 6 9 5 10 4 11 3 12 2 13
REMARK SMILES IDX 1 14
REMARK H PARENT
REMARK Flexibility Score: inf
ROOT
ATOM      1  C   UNL     1      26.783  -8.773  20.335  1.00  0.00     0.000 C 
ENDROOT
BRANCH   1   2
ATOM      2  C   UNL     1      26.473  -8.352  18.888  1.00  0.00     0.000 C 
BRANCH   2   3
ATOM      3  C   UNL     1      25.580  -7.106  18.808  1.00  0.00     0.000 C 
BRANCH   3   4
ATOM      4  C   UNL     1      26.296  -5.880  19.384  1.00  0.00     0.006 C 
BRANCH   4   5
ATOM      5  C   UNL     1      27.503  -5.493  18.524  1.00  0.00     0.053 C 
BRANCH   5   6
ATOM      6  C   UNL     1      27.813  -4.038  18.680  1.00  0.00     0.041 C 
ATOM      7  O   UNL     1      26.937  -3.172  18.417  1.00  0.00    -0.550 OA
ATOM      8  O   UNL     1      29.053  -3.639  19.162  1.00  0.00    -0.550 OA
ENDBRANCH   5   6
ENDBRANCH   4   5
ENDBRANCH   3   4
ENDBRANCH   2   3
ENDBRANCH   1   2
BRANCH   1   9
ATOM      9  C   UNL     1      28.272  -9.045  20.633  1.00  0.00     0.000 C 
BRANCH   9  10
ATOM     10  C   UNL     1      28.570 -10.411  21.278  1.00  0.00    -0.000 C 
BRANCH  10  11
ATOM     11  C   UNL     1      27.519 -11.476  20.935  1.00  0.00    -0.000 C 
BRANCH  11  12
ATOM     12  C   UNL     1      28.115 -12.561  20.025  1.00  0.00    -0.000 C 
BRANCH  12  13
ATOM     13  C   UNL     1      27.037 -13.372  19.289  1.00  0.00    -0.003 C 
ATOM     14  C   UNL     1      26.365 -12.582  18.167  1.00  0.00     0.004 C 
ENDBRANCH  12  13
ENDBRANCH  11  12
ENDBRANCH  10  11
ENDBRANCH   9  10
ENDBRANCH   1   9
TORSDOF 10
ENDMDL
MODEL 3
REMARK VINA RESULT:    -5.760      2.115      2.362
REMARK INTER + INTRA:          -9.589
REMARK INTER:                  -9.235
REMARK INTRA:                  -0.354
REMARK UNBOUND:                -0.462
REMARK SMILES CCCCCCCCCCCC(=O)[O-]
REMARK SMILES IDX 7 1 8 2 9 3 10 4 11 5 12 6 13 7 14 8 6 9 5 10 4 11 3 12 2 13
REMARK SMILES IDX 1 14
REMARK H PARENT
REMARK Flexibility Score: inf
ROOT
ATOM      1  C   UNL     1      29.900  -9.269  22.181  1.00  0.00     0.000 C 
ENDROOT
BRANCH   1   2
ATOM      2  C   UNL     1      31.019  -8.375  21.618  1.00  0.00     0.000 C 
BRANCH   2   3
ATOM      3  C   UNL     1      32.409  -9.017  21.731  1.00  0.00     0.000 C 
BRANCH   3   4
ATOM      4  C   UNL     1      33.418  -8.306  20.822  1.00  0.00     0.006 C 
BRANCH   4   5
ATOM      5  C   UNL     1      34.535  -7.655  21.644  1.00  0.00     0.053 C 
BRANCH   5   6
ATOM      6  C   UNL     1      34.194  -6.233  21.959  1.00  0.00     0.041 C 
ATOM      7  O   UNL     1      34.385  -5.778  23.117  1.00  0.00    -0.550 OA
ATOM      8  O   UNL     1      33.710  -5.397  20.961  1.00  0.00    -0.550 OA
ENDBRANCH   5   6
ENDBRANCH   4   5
ENDBRANCH   3   4
ENDBRANCH   2   3
ENDBRANCH   1   2
BRANCH   1   9
ATOM      9  C   UNL     1      28.709  -9.503  21.229  1.00  0.00     0.000 C 
BRANCH   9  10
ATOM     10  C   UNL     1      27.875 -10.762  21.525  1.00  0.00    -0.000 C 
BRANCH  10  11
ATOM     11  C   UNL     1      27.307 -11.414  20.256  1.00  0.00    -0.000 C 
BRANCH  11  12
ATOM     12  C   UNL     1      27.877 -12.827  20.063  1.00  0.00    -0.000 C 
BRANCH  12  13
ATOM     13  C   UNL     1      27.103 -13.638  19.012  1.00  0.00    -0.003 C 
ATOM     14  C   UNL     1      26.294 -12.756  18.062  1.00  0.00     0.004 C 
ENDBRANCH  12  13
ENDBRANCH  11  12
ENDBRANCH  10  11
ENDBRANCH   9  10
ENDBRANCH   1   9
TORSDOF 10
ENDMDL
MODEL 4
REMARK VINA RESULT:    -5.735      4.551      5.765
REMARK INTER + INTRA:          -9.549
REMARK INTER:                  -8.741
REMARK INTRA:                  -0.808
REMARK UNBOUND:                -0.462
REMARK SMILES CCCCCCCCCCCC(=O)[O-]
REMARK SMILES IDX 7 1 8 2 9 3 10 4 11 5 12 6 13 7 14 8 6 9 5 10 4 11 3 12 2 13
REMARK SMILES IDX 1 14
REMARK H PARENT
REMARK Flexibility Score: inf
ROOT
ATOM      1  C   UNL     1      29.607  -9.368  22.062  1.00  0.00     0.000 C 
ENDROOT
BRANCH   1   2
ATOM      2  C   UNL     1      29.187  -7.962  21.598  1.00  0.00     0.000 C 
BRANCH   2   3
ATOM      3  C   UNL     1      27.721  -7.640  21.921  1.00  0.00     0.000 C 
BRANCH   3   4
ATOM      4  C   UNL     1      27.303  -6.303  21.299  1.00  0.00     0.006 C 
BRANCH   4   5
ATOM      5  C   UNL     1      26.118  -6.485  20.347  1.00  0.00     0.053 C 
BRANCH   5   6
ATOM      6  C   UNL     1      26.584  -7.006  19.024  1.00  0.00     0.041 C 
ATOM      7  O   UNL     1      26.003  -7.986  18.488  1.00  0.00    -0.550 OA
ATOM      8  O   UNL     1      27.629  -6.378  18.359  1.00  0.00    -0.550 OA
ENDBRANCH   5   6
ENDBRANCH   4   5
ENDBRANCH   3   4
ENDBRANCH   2   3
ENDBRANCH   1   2
BRANCH   1   9
ATOM      9  C   UNL     1      28.455 -10.387  22.187  1.00  0.00     0.000 C 
BRANCH   9  10
ATOM     10  C   UNL     1      28.177 -11.217  20.920  1.00  0.00    -0.000 C 
BRANCH  10  11
ATOM     11  C   UNL     1      26.858 -10.834  20.233  1.00  0.00    -0.000 C 
BRANCH  11  12
ATOM     12  C   UNL     1      26.253 -12.040  19.500  1.00  0.00    -0.000 C 
BRANCH  12  13
ATOM     13  C   UNL     1      27.222 -13.230  19.419  1.00  0.00    -0.003 C 
ATOM     14  C   UNL     1      27.342 -13.801  18.006  1.00  0.00     0.004 C 
ENDBRANCH  12  13
ENDBRANCH  11  12
ENDBRANCH  10  11
ENDBRANCH   9  10
ENDBRANCH   1   9
TORSDOF 10
ENDMDL
MODEL 5
REMARK VINA RESULT:    -5.731      1.286      1.901
REMARK INTER + INTRA:          -9.544
REMARK INTER:                  -9.180
REMARK INTRA:                  -0.364
REMARK UNBOUND:                -0.462
REMARK SMILES CCCCCCCCCCCC(=O)[O-]
REMARK SMILES IDX 7 1 8 2 9 3 10 4 11 5 12 6 13 7 14 8 6 9 5 10 4 11 3 12 2 13
REMARK SMILES IDX 1 14
REMARK H PARENT
REMARK Flexibility Score: inf
ROOT
ATOM      1  C   UNL     1      29.574  -9.576  21.249  1.00  0.00     0.000 C 
ENDROOT
BRANCH   1   2
ATOM      2  C   UNL     1      30.219  -8.621  22.269  1.00  0.00     0.000 C 
BRANCH   2   3
ATOM      3  C   UNL     1      31.476  -7.928  21.725  1.00  0.00     0.000 C 
BRANCH   3   4
ATOM      4  C   UNL     1      32.705  -8.834  21.859  1.00  0.00     0.006 C 
BRANCH   4   5
ATOM      5  C   UNL     1      33.779  -8.460  20.834  1.00  0.00     0.053 C 
BRANCH   5   6
ATOM      6  C   UNL     1      33.955  -9.558  19.833  1.00  0.00     0.041 C 
ATOM      7  O   UNL     1      33.130  -9.696  18.893  1.00  0.00    -0.550 OA
ATOM      8  O   UNL     1      35.057 -10.400  19.912  1.00  0.00    -0.550 OA
ENDBRANCH   5   6
ENDBRANCH   4   5
ENDBRANCH   3   4
ENDBRANCH   2   3
ENDBRANCH   1   2
BRANCH   1   9
ATOM      9  C   UNL     1      28.445 -10.465  21.808  1.00  0.00     0.000 C 
BRANCH   9  10
ATOM     10  C   UNL     1      27.925 -11.545  20.842  1.00  0.00    -0.000 C 
BRANCH  10  11
ATOM     11  C   UNL     1      26.720 -11.074  20.013  1.00  0.00    -0.000 C 
BRANCH  11  12
ATOM     12  C   UNL     1      25.916 -12.273  19.487  1.00  0.00    -0.000 C 
BRANCH  12  13
ATOM     13  C   UNL     1      26.330 -12.683  18.065  1.00  0.00    -0.003 C 
ATOM     14  C   UNL     1      27.366 -13.806  18.051  1.00  0.00     0.004 C 
ENDBRANCH  12  13
ENDBRANCH  11  12
ENDBRANCH  10  11
ENDBRANCH   9  10
ENDBRANCH   1   9
TORSDOF 10
ENDMDL
MODEL 6
REMARK VINA RESULT:    -5.644      5.199      6.888
REMARK INTER + INTRA:          -9.405
REMARK INTER:                  -8.500
REMARK INTRA:                  -0.905
REMARK UNBOUND:                -0.462
REMARK SMILES CCCCCCCCCCCC(=O)[O-]
REMARK SMILES IDX 7 1 8 2 9 3 10 4 11 5 12 6 13 7 14 8 6 9 5 10 4 11 3 12 2 13
REMARK SMILES IDX 1 14
REMARK H PARENT
REMARK Flexibility Score: inf
ROOT
ATOM      1  C   UNL     1      26.155  -9.359  20.129  1.00  0.00     0.000 C 
ENDROOT
BRANCH   1   2
ATOM      2  C   UNL     1      26.589  -8.494  18.933  1.00  0.00     0.000 C 
BRANCH   2   3
ATOM      3  C   UNL     1      27.548  -7.363  19.332  1.00  0.00     0.000 C 
BRANCH   3   4
ATOM      4  C   UNL     1      27.372  -6.146  18.418  1.00  0.00     0.006 C 
BRANCH   4   5
ATOM      5  C   UNL     1      26.747  -4.972  19.180  1.00  0.00     0.053 C 
BRANCH   5   6
ATOM      6  C   UNL     1      27.519  -3.715  18.931  1.00  0.00     0.041 C 
ATOM      7  O   UNL     1      28.770  -3.702  19.075  1.00  0.00    -0.550 OA
ATOM      8  O   UNL     1      26.864  -2.572  18.493  1.00  0.00    -0.550 OA
ENDBRANCH   5   6
ENDBRANCH   4   5
ENDBRANCH   3   4
ENDBRANCH   2   3
ENDBRANCH   1   2
BRANCH   1   9
ATOM      9  C   UNL     1      26.614 -10.831  20.073  1.00  0.00     0.000 C 
BRANCH   9  10
ATOM     10  C   UNL     1      27.980 -11.114  20.724  1.00  0.00    -0.000 C 
BRANCH  10  11
ATOM     11  C   UNL     1      28.089 -10.556  22.150  1.00  0.00    -0.000 C 
BRANCH  11  12
ATOM     12  C   UNL     1      29.287  -9.602  22.275  1.00  0.00    -0.000 C 
BRANCH  12  13
ATOM     13  C   UNL     1      30.073  -9.466  20.962  1.00  0.00    -0.003 C 
ATOM     14  C   UNL     1      31.485  -8.921  21.172  1.00  0.00     0.004 C 
ENDBRANCH  12  13
ENDBRANCH  11  12
ENDBRANCH  10  11
ENDBRANCH   9  10
ENDBRANCH   1   9
TORSDOF 10
ENDMDL
MODEL 7
REMARK VINA RESULT:    -5.639      3.941      7.485
REMARK INTER + INTRA:          -9.398
REMARK INTER:                  -9.080
REMARK INTRA:                  -0.317
REMARK UNBOUND:                -0.462
REMARK SMILES CCCCCCCCCCCC(=O)[O-]
REMARK SMILES IDX 7 1 8 2 9 3 10 4 11 5 12 6 13 7 14 8 6 9 5 10 4 11 3 12 2 13
REMARK SMILES IDX 1 14
REMARK H PARENT
REMARK Flexibility Score: inf
ROOT
ATOM      1  C   UNL     1      29.799  -8.849  22.015  1.00  0.00     0.000 C 
ENDROOT
BRANCH   1   2
ATOM      2  C   UNL     1      28.414  -9.311  21.529  1.00  0.00     0.000 C 
BRANCH   2   3
ATOM      3  C   UNL     1      28.093 -10.758  21.928  1.00  0.00     0.000 C 
BRANCH   3   4
ATOM      4  C   UNL     1      28.123 -11.683  20.706  1.00  0.00     0.006 C 
BRANCH   4   5
ATOM      5  C   UNL     1      26.840 -11.548  19.881  1.00  0.00     0.053 C 
BRANCH   5   6
ATOM      6  C   UNL     1      26.725 -12.673  18.902  1.00  0.00     0.041 C 
ATOM      7  O   UNL     1      27.156 -13.817  19.200  1.00  0.00    -0.550 OA
ATOM      8  O   UNL     1      26.098 -12.469  17.680  1.00  0.00    -0.550 OA
ENDBRANCH   5   6
ENDBRANCH   4   5
ENDBRANCH   3   4
ENDBRANCH   2   3
ENDBRANCH   1   2
BRANCH   1   9
ATOM      9  C   UNL     1      30.947  -9.048  21.004  1.00  0.00     0.000 C 
BRANCH   9  10
ATOM     10  C   UNL     1      32.313  -8.495  21.450  1.00  0.00    -0.000 C 
BRANCH  10  11
ATOM     11  C   UNL     1      33.459  -8.912  20.517  1.00  0.00    -0.000 C 
BRANCH  11  12
ATOM     12  C   UNL     1      34.744  -9.179  21.314  1.00  0.00    -0.000 C 
BRANCH  12  13
ATOM     13  C   UNL     1      35.649 -10.224  20.643  1.00  0.00    -0.003 C 
ATOM     14  C   UNL     1      36.816 -10.654  21.531  1.00  0.00     0.004 C 
ENDBRANCH  12  13
ENDBRANCH  11  12
ENDBRANCH  10  11
ENDBRANCH   9  10
ENDBRANCH   1   9
TORSDOF 10
ENDMDL
MODEL 8
REMARK VINA RESULT:    -5.586      4.782      6.549
REMARK INTER + INTRA:          -9.314
REMARK INTER:                  -8.097
REMARK INTRA:                  -1.217
REMARK UNBOUND:                -0.462
REMARK SMILES CCCCCCCCCCCC(=O)[O-]
REMARK SMILES IDX 7 1 8 2 9 3 10 4 11 5 12 6 13 7 14 8 6 9 5 10 4 11 3 12 2 13
REMARK SMILES IDX 1 14
REMARK H PARENT
REMARK Flexibility Score: inf
ROOT
ATOM      1  C   UNL     1      29.063  -8.083  21.442  1.00  0.00     0.000 C 
ENDROOT
BRANCH   1   2
ATOM      2  C   UNL     1      29.331  -9.599  21.430  1.00  0.00     0.000 C 
BRANCH   2   3
ATOM      3  C   UNL     1      28.056 -10.432  21.625  1.00  0.00     0.000 C 
BRANCH   3   4
ATOM      4  C   UNL     1      27.992 -11.581  20.614  1.00  0.00     0.006 C 
BRANCH   4   5
ATOM      5  C   UNL     1      26.644 -11.599  19.886  1.00  0.00     0.053 C 
BRANCH   5   6
ATOM      6  C   UNL     1      26.604 -12.707  18.882  1.00  0.00     0.041 C 
ATOM      7  O   UNL     1      26.242 -12.476  17.699  1.00  0.00    -0.550 OA
ATOM      8  O   UNL     1      27.014 -13.984  19.241  1.00  0.00    -0.550 OA
ENDBRANCH   5   6
ENDBRANCH   4   5
ENDBRANCH   3   4
ENDBRANCH   2   3
ENDBRANCH   1   2
BRANCH   1   9
ATOM      9  C   UNL     1      28.471  -7.534  22.756  1.00  0.00     0.000 C 
BRANCH   9  10
ATOM     10  C   UNL     1      27.165  -6.733  22.600  1.00  0.00    -0.000 C 
BRANCH  10  11
ATOM     11  C   UNL     1      26.809  -6.452  21.133  1.00  0.00    -0.000 C 
BRANCH  11  12
ATOM     12  C   UNL     1      25.380  -6.917  20.818  1.00  0.00    -0.000 C 
BRANCH  12  13
ATOM     13  C   UNL     1      25.349  -8.167  19.924  1.00  0.00    -0.003 C 
ATOM     14  C   UNL     1      26.370  -8.108  18.789  1.00  0.00     0.004 C 
ENDBRANCH  12  13
ENDBRANCH  11  12
ENDBRANCH  10  11
ENDBRANCH   9  10
ENDBRANCH   1   9
TORSDOF 10
ENDMDL
MODEL 9
REMARK VINA RESULT:    -5.573      6.034      7.039
REMARK INTER + INTRA:          -9.293
REMARK INTER:                  -8.822
REMARK INTRA:                  -0.471
REMARK UNBOUND:                -0.462
REMARK SMILES CCCCCCCCCCCC(=O)[O-]
REMARK SMILES IDX 7 1 8 2 9 3 10 4 11 5 12 6 13 7 14 8 6 9 5 10 4 11 3 12 2 13
REMARK SMILES IDX 1 14
REMARK H PARENT
REMARK Flexibility Score: inf
ROOT
ATOM      1  C   UNL     1      25.378  -7.919  19.489  1.00  0.00     0.000 C 
ENDROOT
BRANCH   1   2
ATOM      2  C   UNL     1      26.175  -6.679  19.932  1.00  0.00     0.000 C 
BRANCH   2   3
ATOM      3  C   UNL     1      27.192  -6.217  18.879  1.00  0.00     0.000 C 
BRANCH   3   4
ATOM      4  C   UNL     1      27.932  -4.958  19.347  1.00  0.00     0.006 C 
BRANCH   4   5
ATOM      5  C   UNL     1      27.575  -3.753  18.471  1.00  0.00     0.053 C 
BRANCH   5   6
ATOM      6  C   UNL     1      26.928  -2.682  19.291  1.00  0.00     0.041 C 
ATOM      7  O   UNL     1      26.230  -2.987  20.294  1.00  0.00    -0.550 OA
ATOM      8  O   UNL     1      27.135  -1.345  18.977  1.00  0.00    -0.550 OA
ENDBRANCH   5   6
ENDBRANCH   4   5
ENDBRANCH   3   4
ENDBRANCH   2   3
ENDBRANCH   1   2
BRANCH   1   9
ATOM      9  C   UNL     1      26.229  -9.167  19.177  1.00  0.00     0.000 C 
BRANCH   9  10
ATOM     10  C   UNL     1      26.230 -10.248  20.272  1.00  0.00    -0.000 C 
BRANCH  10  11
ATOM     11  C   UNL     1      27.636 -10.780  20.586  1.00  0.00    -0.000 C 
BRANCH  11  12
ATOM     12  C   UNL     1      27.770 -12.253  20.171  1.00  0.00    -0.000 C 
BRANCH  12  13
ATOM     13  C   UNL     1      26.686 -12.687  19.173  1.00  0.00    -0.003 C 
ATOM     14  C   UNL     1      27.196 -13.699  18.148  1.00  0.00     0.004 C 
ENDBRANCH  12  13
ENDBRANCH  11  12
ENDBRANCH  10  11
ENDBRANCH   9  10
ENDBRANCH   1   9
TORSDOF 10
ENDMDL
