MODEL 1
REMARK VINA RESULT:     8.064      0.000      0.000
REMARK INTER + INTRA:          16.421
REMARK INTER:                  13.250
REMARK INTRA:                   3.171
REMARK UNBOUND:                 3.171
REMARK SMILES C[C@H]1O[C@@H](OC[C@H]2O[C@H](Oc3c(-c4ccc(O)c(O)c4)oc4cc(O)cc(O)c4c3=O)[C@@H](O)[C@H](O)[C@H]2O)[C@H](O)[C@@H](O)[C@H]1O
REMARK SMILES IDX 7 1 36 2 34 3 32 4 9 5 8 6 6 7 5 8 4 9 1 10 2 11 42 12 3 13
REMARK SMILES IDX 40 14 38 15 43 16 41 18 39 20 37 22 35 24 10 26 11 27 12 28
REMARK SMILES IDX 30 29 21 30 29 31 31 32 22 33 27 34 23 35 26 36 24 37 13 38
REMARK SMILES IDX 20 39 14 40 18 41 15 42 16 43 19 44 17 46 28 48 25 50 33 52
REMARK H PARENT 43 17 41 19 39 21 37 23 35 25 19 45 17 47 28 49 25 51 33 53
REMARK Flexibility Score: inf
ROOT
ATOM      1  C   UNL     1      37.800 -30.801   9.507  1.00  0.00     0.180 C 
ATOM      2  C   UNL     1      36.955 -30.415   8.264  1.00  0.00     0.177 C 
ATOM      3  C   UNL     1      35.623 -31.182   8.329  1.00  0.00     0.180 C 
ATOM      4  C   UNL     1      35.083 -31.234   9.784  1.00  0.00     0.214 C 
ATOM      5  C   UNL     1      35.825 -30.241  10.734  1.00  0.00     0.339 C 
ATOM      6  O   UNL     1      37.237 -30.418  10.764  1.00  0.00    -0.332 OA
ENDROOT
BRANCH   1   7
ATOM      7  C   UNL     1      39.259 -30.312   9.378  1.00  0.00     0.198 C 
BRANCH   7   8
ATOM      8  O   UNL     1      40.188 -31.242   9.929  1.00  0.00    -0.347 OA
BRANCH   8   9
ATOM      9  C   UNL     1      40.931 -30.722  11.032  1.00  0.00     0.281 C 
ATOM     10  C   UNL     1      42.234 -29.321   8.421  1.00  0.00     0.041 C 
ATOM     11  C   UNL     1      42.607 -29.369   9.916  1.00  0.00     0.150 C 
ATOM     12  C   UNL     1      43.703 -30.411  10.269  1.00  0.00     0.174 C 
ATOM     13  O   UNL     1      41.451 -29.428  10.746  1.00  0.00    -0.344 OA
ATOM     14  C   UNL     1      43.131 -31.818  10.436  1.00  0.00     0.179 C 
ATOM     15  C   UNL     1      42.008 -31.735  11.477  1.00  0.00     0.202 C 
BRANCH  12  16
ATOM     16  O   UNL     1      44.759 -30.371   9.341  1.00  0.00    -0.388 OA
ATOM     17  H   UNL     1      44.371 -30.061   8.481  1.00  0.00     0.211 HD
ENDBRANCH  12  16
BRANCH  14  18
ATOM     18  O   UNL     1      42.640 -32.304   9.212  1.00  0.00    -0.387 OA
ATOM     19  H   UNL     1      42.216 -31.532   8.745  1.00  0.00     0.211 HD
ENDBRANCH  14  18
BRANCH  15  20
ATOM     20  O   UNL     1      42.528 -31.339  12.723  1.00  0.00    -0.385 OA
ATOM     21  H   UNL     1      43.361 -31.863  12.852  1.00  0.00     0.211 HD
ENDBRANCH  15  20
ENDBRANCH   8   9
ENDBRANCH   7   8
ENDBRANCH   1   7
BRANCH   2  22
ATOM     22  O   UNL     1      36.728 -29.030   8.285  1.00  0.00    -0.387 OA
ATOM     23  H   UNL     1      36.956 -28.671   9.177  1.00  0.00     0.211 HD
ENDBRANCH   2  22
BRANCH   3  24
ATOM     24  O   UNL     1      35.779 -32.495   7.856  1.00  0.00    -0.387 OA
ATOM     25  H   UNL     1      35.030 -32.694   7.225  1.00  0.00     0.211 HD
ENDBRANCH   3  24
BRANCH   5  26
ATOM     26  O   UNL     1      35.296 -30.349  12.060  1.00  0.00    -0.454 OA
BRANCH  26  27
ATOM     27  C   UNL     1      34.520 -31.468  12.409  1.00  0.00     0.214 A 
ATOM     28  C   UNL     1      35.114 -32.735  12.564  1.00  0.00     0.180 A 
ATOM     29  C   UNL     1      33.119 -31.365  12.407  1.00  0.00     0.239 A 
ATOM     30  O   UNL     1      34.365 -33.825  12.402  1.00  0.00    -0.452 OA
ATOM     31  C   UNL     1      32.346 -32.541  12.354  1.00  0.00     0.111 A 
ATOM     32  O   UNL     1      32.581 -30.226  12.437  1.00  0.00    -0.285 OA
ATOM     33  C   UNL     1      33.047 -33.775  12.233  1.00  0.00     0.146 A 
ATOM     34  C   UNL     1      30.927 -32.572  12.360  1.00  0.00     0.134 A 
ATOM     35  C   UNL     1      32.357 -34.950  11.912  1.00  0.00     0.094 A 
ATOM     36  C   UNL     1      30.256 -33.774  12.050  1.00  0.00     0.093 A 
ATOM     37  C   UNL     1      30.962 -34.942  11.772  1.00  0.00     0.123 A 
BRANCH  28  38
ATOM     38  C   UNL     1      36.568 -32.920  12.831  1.00  0.00     0.025 A 
ATOM     39  C   UNL     1      37.393 -31.801  12.952  1.00  0.00     0.062 A 
ATOM     40  C   UNL     1      37.162 -34.195  12.808  1.00  0.00     0.016 A 
ATOM     41  C   UNL     1      38.786 -31.922  13.050  1.00  0.00     0.158 A 
ATOM     42  C   UNL     1      38.550 -34.338  12.896  1.00  0.00     0.051 A 
ATOM     43  C   UNL     1      39.376 -33.212  13.024  1.00  0.00     0.157 A 
BRANCH  41  44
ATOM     44  O   UNL     1      39.549 -30.758  13.125  1.00  0.00    -0.504 OA
ATOM     45  H   UNL     1      39.576 -30.151  13.949  1.00  0.00     0.293 HD
ENDBRANCH  41  44
BRANCH  43  46
ATOM     46  O   UNL     1      40.755 -33.414  13.121  1.00  0.00    -0.504 OA
ATOM     47  H   UNL     1      41.189 -34.303  13.308  1.00  0.00     0.293 HD
ENDBRANCH  43  46
ENDBRANCH  28  38
BRANCH  34  48
ATOM     48  O   UNL     1      30.138 -31.474  12.702  1.00  0.00    -0.507 OA
ATOM     49  H   UNL     1      30.479 -30.522  12.724  1.00  0.00     0.293 HD
ENDBRANCH  34  48
BRANCH  37  50
ATOM     50  O   UNL     1      30.289 -36.081  11.336  1.00  0.00    -0.508 OA
ATOM     51  H   UNL     1      30.754 -36.755  10.738  1.00  0.00     0.293 HD
ENDBRANCH  37  50
ENDBRANCH  26  27
ENDBRANCH   5  26
BRANCH   4  52
ATOM     52  O   UNL     1      33.692 -30.997   9.762  1.00  0.00    -0.384 OA
ATOM     53  H   UNL     1      33.387 -30.984  10.701  1.00  0.00     0.211 HD
ENDBRANCH   4  52
TORSDOF 16
ENDMDL
MODEL 2
REMARK VINA RESULT:     9.088      1.715      9.403
REMARK INTER + INTRA:          18.103
REMARK INTER:                  13.382
REMARK INTRA:                   4.721
REMARK UNBOUND:                 3.171
REMARK SMILES C[C@H]1O[C@@H](OC[C@H]2O[C@H](Oc3c(-c4ccc(O)c(O)c4)oc4cc(O)cc(O)c4c3=O)[C@@H](O)[C@H](O)[C@H]2O)[C@H](O)[C@@H](O)[C@H]1O
REMARK SMILES IDX 7 1 36 2 34 3 32 4 9 5 8 6 6 7 5 8 4 9 1 10 2 11 42 12 3 13
REMARK SMILES IDX 40 14 38 15 43 16 41 18 39 20 37 22 35 24 10 26 11 27 12 28
REMARK SMILES IDX 30 29 21 30 29 31 31 32 22 33 27 34 23 35 26 36 24 37 13 38
REMARK SMILES IDX 20 39 14 40 18 41 15 42 16 43 19 44 17 46 28 48 25 50 33 52
REMARK H PARENT 43 17 41 19 39 21 37 23 35 25 19 45 17 47 28 49 25 51 33 53
REMARK Flexibility Score: inf
ROOT
ATOM      1  C   UNL     1      35.942 -32.152  12.700  1.00  0.00     0.180 C 
ATOM      2  C   UNL     1      35.290 -31.172  11.688  1.00  0.00     0.177 C 
ATOM      3  C   UNL     1      35.948 -29.792  11.862  1.00  0.00     0.180 C 
ATOM      4  C   UNL     1      37.477 -29.931  12.099  1.00  0.00     0.214 C 
ATOM      5  C   UNL     1      38.004 -31.366  11.778  1.00  0.00     0.339 C 
ATOM      6  O   UNL     1      37.335 -32.400  12.491  1.00  0.00    -0.332 OA
ENDROOT
BRANCH   1   7
ATOM      7  C   UNL     1      35.151 -33.475  12.802  1.00  0.00     0.198 C 
BRANCH   7   8
ATOM      8  O   UNL     1      33.746 -33.270  12.681  1.00  0.00    -0.347 OA
BRANCH   8   9
ATOM      9  C   UNL     1      33.270 -33.357  11.337  1.00  0.00     0.281 C 
ATOM     10  C   UNL     1      30.619 -32.854  13.125  1.00  0.00     0.041 C 
ATOM     11  C   UNL     1      30.869 -33.200  11.643  1.00  0.00     0.150 C 
ATOM     12  C   UNL     1      30.713 -34.708  11.303  1.00  0.00     0.174 C 
ATOM     13  O   UNL     1      32.071 -32.609  11.161  1.00  0.00    -0.344 OA
ATOM     14  C   UNL     1      31.972 -35.508  11.633  1.00  0.00     0.179 C 
ATOM     15  C   UNL     1      33.144 -34.836  10.908  1.00  0.00     0.202 C 
BRANCH  12  16
ATOM     16  O   UNL     1      29.563 -35.247  11.908  1.00  0.00    -0.388 OA
ATOM     17  H   UNL     1      28.793 -34.706  11.591  1.00  0.00     0.211 HD
ENDBRANCH  12  16
BRANCH  14  18
ATOM     18  O   UNL     1      32.194 -35.536  13.020  1.00  0.00    -0.387 OA
ATOM     19  H   UNL     1      33.171 -35.396  13.158  1.00  0.00     0.211 HD
ENDBRANCH  14  18
BRANCH  15  20
ATOM     20  O   UNL     1      32.956 -34.897   9.515  1.00  0.00    -0.385 OA
ATOM     21  H   UNL     1      32.896 -35.862   9.289  1.00  0.00     0.211 HD
ENDBRANCH  15  20
ENDBRANCH   8   9
ENDBRANCH   7   8
ENDBRANCH   1   7
BRANCH   2  22
ATOM     22  O   UNL     1      35.501 -31.658  10.388  1.00  0.00    -0.387 OA
ATOM     23  H   UNL     1      35.084 -31.046   9.734  1.00  0.00     0.211 HD
ENDBRANCH   2  22
BRANCH   3  24
ATOM     24  O   UNL     1      35.383 -29.102  12.946  1.00  0.00    -0.387 OA
ATOM     25  H   UNL     1      35.061 -28.214  12.621  1.00  0.00     0.211 HD
ENDBRANCH   3  24
BRANCH   5  26
ATOM     26  O   UNL     1      39.412 -31.436  12.033  1.00  0.00    -0.454 OA
BRANCH  26  27
ATOM     27  C   UNL     1      40.294 -30.641  11.282  1.00  0.00     0.214 A 
ATOM     28  C   UNL     1      40.100 -30.463   9.899  1.00  0.00     0.180 A 
ATOM     29  C   UNL     1      41.486 -30.187  11.870  1.00  0.00     0.239 A 
ATOM     30  O   UNL     1      41.146 -30.153   9.134  1.00  0.00    -0.452 OA
ATOM     31  C   UNL     1      42.537 -29.752  11.040  1.00  0.00     0.111 A 
ATOM     32  O   UNL     1      41.599 -30.190  13.125  1.00  0.00    -0.285 OA
ATOM     33  C   UNL     1      42.345 -29.871   9.633  1.00  0.00     0.146 A 
ATOM     34  C   UNL     1      43.782 -29.260  11.509  1.00  0.00     0.134 A 
ATOM     35  C   UNL     1      43.426 -29.712   8.758  1.00  0.00     0.094 A 
ATOM     36  C   UNL     1      44.851 -29.092  10.603  1.00  0.00     0.093 A 
ATOM     37  C   UNL     1      44.695 -29.369   9.247  1.00  0.00     0.123 A 
BRANCH  28  38
ATOM     38  C   UNL     1      38.785 -30.675   9.232  1.00  0.00     0.025 A 
ATOM     39  C   UNL     1      38.540 -31.876   8.563  1.00  0.00     0.062 A 
ATOM     40  C   UNL     1      37.841 -29.638   9.121  1.00  0.00     0.016 A 
ATOM     41  C   UNL     1      37.385 -32.065   7.792  1.00  0.00     0.158 A 
ATOM     42  C   UNL     1      36.687 -29.803   8.351  1.00  0.00     0.051 A 
ATOM     43  C   UNL     1      36.440 -31.012   7.685  1.00  0.00     0.157 A 
BRANCH  41  44
ATOM     44  O   UNL     1      37.228 -33.275   7.118  1.00  0.00    -0.504 OA
ATOM     45  H   UNL     1      37.926 -33.659   6.475  1.00  0.00     0.293 HD
ENDBRANCH  41  44
BRANCH  43  46
ATOM     46  O   UNL     1      35.263 -31.126   6.939  1.00  0.00    -0.504 OA
ATOM     47  H   UNL     1      34.467 -31.678   7.212  1.00  0.00     0.293 HD
ENDBRANCH  43  46
ENDBRANCH  28  38
BRANCH  34  48
ATOM     48  O   UNL     1      44.007 -28.883  12.833  1.00  0.00    -0.507 OA
ATOM     49  H   UNL     1      44.472 -28.026  13.102  1.00  0.00     0.293 HD
ENDBRANCH  34  48
BRANCH  37  50
ATOM     50  O   UNL     1      45.795 -29.328   8.392  1.00  0.00    -0.508 OA
ATOM     51  H   UNL     1      46.547 -28.667   8.553  1.00  0.00     0.293 HD
ENDBRANCH  37  50
ENDBRANCH  26  27
ENDBRANCH   5  26
BRANCH   4  52
ATOM     52  O   UNL     1      38.147 -28.946  11.343  1.00  0.00    -0.384 OA
ATOM     53  H   UNL     1      37.542 -28.168  11.284  1.00  0.00     0.211 HD
ENDBRANCH   4  52
TORSDOF 16
ENDMDL
MODEL 3
REMARK VINA RESULT:     9.863      1.300      2.070
REMARK INTER + INTRA:          19.377
REMARK INTER:                  15.583
REMARK INTRA:                   3.794
REMARK UNBOUND:                 3.171
REMARK SMILES C[C@H]1O[C@@H](OC[C@H]2O[C@H](Oc3c(-c4ccc(O)c(O)c4)oc4cc(O)cc(O)c4c3=O)[C@@H](O)[C@H](O)[C@H]2O)[C@H](O)[C@@H](O)[C@H]1O
REMARK SMILES IDX 7 1 36 2 34 3 32 4 9 5 8 6 6 7 5 8 4 9 1 10 2 11 42 12 3 13
REMARK SMILES IDX 40 14 38 15 43 16 41 18 39 20 37 22 35 24 10 26 11 27 12 28
REMARK SMILES IDX 30 29 21 30 29 31 31 32 22 33 27 34 23 35 26 36 24 37 13 38
REMARK SMILES IDX 20 39 14 40 18 41 15 42 16 43 19 44 17 46 28 48 25 50 33 52
REMARK H PARENT 43 17 41 19 39 21 37 23 35 25 19 45 17 47 28 49 25 51 33 53
REMARK Flexibility Score: inf
ROOT
ATOM      1  C   UNL     1      36.505 -30.557   9.937  1.00  0.00     0.180 C 
ATOM      2  C   UNL     1      35.573 -30.183   8.754  1.00  0.00     0.177 C 
ATOM      3  C   UNL     1      34.402 -31.182   8.729  1.00  0.00     0.180 C 
ATOM      4  C   UNL     1      33.918 -31.505  10.168  1.00  0.00     0.214 C 
ATOM      5  C   UNL     1      34.494 -30.515  11.230  1.00  0.00     0.339 C 
ATOM      6  O   UNL     1      35.915 -30.436  11.234  1.00  0.00    -0.332 OA
ENDROOT
BRANCH   1   7
ATOM      7  C   UNL     1      37.849 -29.799   9.864  1.00  0.00     0.198 C 
BRANCH   7   8
ATOM      8  O   UNL     1      38.903 -30.514  10.502  1.00  0.00    -0.347 OA
BRANCH   8   9
ATOM      9  C   UNL     1      40.078 -30.636   9.699  1.00  0.00     0.281 C 
ATOM     10  C   UNL     1      40.876 -31.964  12.541  1.00  0.00     0.041 C 
ATOM     11  C   UNL     1      41.661 -31.597  11.266  1.00  0.00     0.150 C 
ATOM     12  C   UNL     1      42.421 -30.245  11.349  1.00  0.00     0.174 C 
ATOM     13  O   UNL     1      40.866 -31.754  10.095  1.00  0.00    -0.344 OA
ATOM     14  C   UNL     1      41.513 -29.052  11.052  1.00  0.00     0.179 C 
ATOM     15  C   UNL     1      40.859 -29.303   9.688  1.00  0.00     0.202 C 
BRANCH  12  16
ATOM     16  O   UNL     1      43.090 -30.114  12.579  1.00  0.00    -0.388 OA
ATOM     17  H   UNL     1      42.848 -29.222  12.942  1.00  0.00     0.211 HD
ENDBRANCH  12  16
BRANCH  14  18
ATOM     18  O   UNL     1      40.538 -28.908  12.053  1.00  0.00    -0.387 OA
ATOM     19  H   UNL     1      40.943 -29.242  12.900  1.00  0.00     0.211 HD
ENDBRANCH  14  18
BRANCH  15  20
ATOM     20  O   UNL     1      41.839 -29.351   8.679  1.00  0.00    -0.385 OA
ATOM     21  H   UNL     1      42.619 -28.848   9.030  1.00  0.00     0.211 HD
ENDBRANCH  15  20
ENDBRANCH   8   9
ENDBRANCH   7   8
ENDBRANCH   1   7
BRANCH   2  22
ATOM     22  O   UNL     1      35.101 -28.876   8.945  1.00  0.00    -0.387 OA
ATOM     23  H   UNL     1      35.165 -28.638   9.902  1.00  0.00     0.211 HD
ENDBRANCH   2  22
BRANCH   3  24
ATOM     24  O   UNL     1      34.779 -32.378   8.098  1.00  0.00    -0.387 OA
ATOM     25  H   UNL     1      34.413 -33.143   8.628  1.00  0.00     0.211 HD
ENDBRANCH   3  24
BRANCH   5  26
ATOM     26  O   UNL     1      34.027 -30.876  12.536  1.00  0.00    -0.454 OA
BRANCH  26  27
ATOM     27  C   UNL     1      33.314 -32.074  12.712  1.00  0.00     0.214 A 
ATOM     28  C   UNL     1      33.976 -33.316  12.676  1.00  0.00     0.180 A 
ATOM     29  C   UNL     1      31.909 -32.047  12.721  1.00  0.00     0.239 A 
ATOM     30  O   UNL     1      33.285 -34.408  12.352  1.00  0.00    -0.452 OA
ATOM     31  C   UNL     1      31.200 -33.241  12.492  1.00  0.00     0.111 A 
ATOM     32  O   UNL     1      31.311 -30.956  12.921  1.00  0.00    -0.285 OA
ATOM     33  C   UNL     1      31.966 -34.404  12.188  1.00  0.00     0.146 A 
ATOM     34  C   UNL     1      29.785 -33.349  12.490  1.00  0.00     0.134 A 
ATOM     35  C   UNL     1      31.337 -35.553  11.694  1.00  0.00     0.094 A 
ATOM     36  C   UNL     1      29.177 -34.526  12.002  1.00  0.00     0.093 A 
ATOM     37  C   UNL     1      29.943 -35.599  11.553  1.00  0.00     0.123 A 
BRANCH  28  38
ATOM     38  C   UNL     1      35.439 -33.461  12.916  1.00  0.00     0.025 A 
ATOM     39  C   UNL     1      36.242 -32.321  12.980  1.00  0.00     0.062 A 
ATOM     40  C   UNL     1      36.061 -34.723  12.922  1.00  0.00     0.016 A 
ATOM     41  C   UNL     1      37.639 -32.408  13.050  1.00  0.00     0.158 A 
ATOM     42  C   UNL     1      37.453 -34.832  12.983  1.00  0.00     0.051 A 
ATOM     43  C   UNL     1      38.256 -33.685  13.054  1.00  0.00     0.157 A 
BRANCH  41  44
ATOM     44  O   UNL     1      38.377 -31.226  13.068  1.00  0.00    -0.504 OA
ATOM     45  H   UNL     1      37.976 -30.306  12.866  1.00  0.00     0.293 HD
ENDBRANCH  41  44
BRANCH  43  46
ATOM     46  O   UNL     1      39.642 -33.854  13.125  1.00  0.00    -0.504 OA
ATOM     47  H   UNL     1      40.243 -33.362  13.765  1.00  0.00     0.293 HD
ENDBRANCH  43  46
ENDBRANCH  28  38
BRANCH  34  48
ATOM     48  O   UNL     1      28.940 -32.359  12.990  1.00  0.00    -0.507 OA
ATOM     49  H   UNL     1      28.514 -32.394  13.906  1.00  0.00     0.293 HD
ENDBRANCH  34  48
BRANCH  37  50
ATOM     50  O   UNL     1      29.329 -36.695  10.950  1.00  0.00    -0.508 OA
ATOM     51  H   UNL     1      29.784 -37.601  10.947  1.00  0.00     0.293 HD
ENDBRANCH  37  50
ENDBRANCH  26  27
ENDBRANCH   5  26
BRANCH   4  52
ATOM     52  O   UNL     1      32.507 -31.523  10.181  1.00  0.00    -0.384 OA
ATOM     53  H   UNL     1      32.225 -31.335  11.108  1.00  0.00     0.211 HD
ENDBRANCH   4  52
TORSDOF 16
ENDMDL
MODEL 4
REMARK VINA RESULT:    10.701      1.923      9.303
REMARK INTER + INTRA:          20.754
REMARK INTER:                  20.763
REMARK INTRA:                  -0.009
REMARK UNBOUND:                 3.171
REMARK SMILES C[C@H]1O[C@@H](OC[C@H]2O[C@H](Oc3c(-c4ccc(O)c(O)c4)oc4cc(O)cc(O)c4c3=O)[C@@H](O)[C@H](O)[C@H]2O)[C@H](O)[C@@H](O)[C@H]1O
REMARK SMILES IDX 7 1 36 2 34 3 32 4 9 5 8 6 6 7 5 8 4 9 1 10 2 11 42 12 3 13
REMARK SMILES IDX 40 14 38 15 43 16 41 18 39 20 37 22 35 24 10 26 11 27 12 28
REMARK SMILES IDX 30 29 21 30 29 31 31 32 22 33 27 34 23 35 26 36 24 37 13 38
REMARK SMILES IDX 20 39 14 40 18 41 15 42 16 43 19 44 17 46 28 48 25 50 33 52
REMARK H PARENT 43 17 41 19 39 21 37 23 35 25 19 45 17 47 28 49 25 51 33 53
REMARK Flexibility Score: inf
ROOT
ATOM      1  C   UNL     1      34.250 -32.406  11.006  1.00  0.00     0.180 C 
ATOM      2  C   UNL     1      34.264 -32.563  12.550  1.00  0.00     0.177 C 
ATOM      3  C   UNL     1      35.730 -32.574  13.020  1.00  0.00     0.180 C 
ATOM      4  C   UNL     1      36.574 -31.539  12.227  1.00  0.00     0.214 C 
ATOM      5  C   UNL     1      35.689 -30.541  11.414  1.00  0.00     0.339 C 
ATOM      6  O   UNL     1      34.782 -31.173  10.518  1.00  0.00    -0.332 OA
ENDROOT
BRANCH   1   7
ATOM      7  C   UNL     1      32.847 -32.678  10.420  1.00  0.00     0.198 C 
BRANCH   7   8
ATOM      8  O   UNL     1      32.167 -33.720  11.115  1.00  0.00    -0.347 OA
BRANCH   8   9
ATOM      9  C   UNL     1      31.043 -33.265  11.868  1.00  0.00     0.281 C 
ATOM     10  C   UNL     1      31.544 -36.299  12.878  1.00  0.00     0.041 C 
ATOM     11  C   UNL     1      30.436 -35.254  13.116  1.00  0.00     0.150 C 
ATOM     12  C   UNL     1      29.175 -35.443  12.228  1.00  0.00     0.174 C 
ATOM     13  O   UNL     1      30.955 -33.928  13.125  1.00  0.00    -0.344 OA
ATOM     14  C   UNL     1      29.353 -34.839  10.836  1.00  0.00     0.179 C 
ATOM     15  C   UNL     1      29.754 -33.371  11.023  1.00  0.00     0.202 C 
BRANCH  12  16
ATOM     16  O   UNL     1      28.789 -36.795  12.178  1.00  0.00    -0.388 OA
ATOM     17  H   UNL     1      29.616 -37.323  12.031  1.00  0.00     0.211 HD
ENDBRANCH  12  16
BRANCH  14  18
ATOM     18  O   UNL     1      30.335 -35.536  10.113  1.00  0.00    -0.387 OA
ATOM     19  H   UNL     1      30.521 -36.375  10.616  1.00  0.00     0.211 HD
ENDBRANCH  14  18
BRANCH  15  20
ATOM     20  O   UNL     1      28.722 -32.661  11.664  1.00  0.00    -0.385 OA
ATOM     21  H   UNL     1      29.158 -32.127  12.378  1.00  0.00     0.211 HD
ENDBRANCH  15  20
ENDBRANCH   8   9
ENDBRANCH   7   8
ENDBRANCH   1   7
BRANCH   2  22
ATOM     22  O   UNL     1      33.572 -31.483  13.120  1.00  0.00    -0.387 OA
ATOM     23  H   UNL     1      33.616 -31.544  14.106  1.00  0.00     0.211 HD
ENDBRANCH   2  22
BRANCH   3  24
ATOM     24  O   UNL     1      36.299 -33.846  12.852  1.00  0.00    -0.387 OA
ATOM     25  H   UNL     1      37.013 -33.965  13.541  1.00  0.00     0.211 HD
ENDBRANCH   3  24
BRANCH   5  26
ATOM     26  O   UNL     1      36.523 -29.627  10.693  1.00  0.00    -0.454 OA
BRANCH  26  27
ATOM     27  C   UNL     1      37.826 -30.012  10.332  1.00  0.00     0.214 A 
ATOM     28  C   UNL     1      38.047 -30.837   9.214  1.00  0.00     0.180 A 
ATOM     29  C   UNL     1      38.893 -29.741  11.205  1.00  0.00     0.239 A 
ATOM     30  O   UNL     1      39.154 -31.578   9.165  1.00  0.00    -0.452 OA
ATOM     31  C   UNL     1      40.097 -30.456  11.057  1.00  0.00     0.111 A 
ATOM     32  O   UNL     1      38.750 -28.875  12.109  1.00  0.00    -0.285 OA
ATOM     33  C   UNL     1      40.129 -31.476  10.063  1.00  0.00     0.146 A 
ATOM     34  C   UNL     1      41.249 -30.267  11.863  1.00  0.00     0.134 A 
ATOM     35  C   UNL     1      41.182 -32.398  10.032  1.00  0.00     0.094 A 
ATOM     36  C   UNL     1      42.305 -31.202  11.800  1.00  0.00     0.093 A 
ATOM     37  C   UNL     1      42.250 -32.292  10.934  1.00  0.00     0.123 A 
BRANCH  28  38
ATOM     38  C   UNL     1      37.063 -30.979   8.104  1.00  0.00     0.025 A 
ATOM     39  C   UNL     1      36.197 -32.074   8.089  1.00  0.00     0.062 A 
ATOM     40  C   UNL     1      37.088 -30.126   6.986  1.00  0.00     0.016 A 
ATOM     41  C   UNL     1      35.362 -32.336   6.994  1.00  0.00     0.158 A 
ATOM     42  C   UNL     1      36.269 -30.373   5.881  1.00  0.00     0.051 A 
ATOM     43  C   UNL     1      35.395 -31.470   5.872  1.00  0.00     0.157 A 
BRANCH  41  44
ATOM     44  O   UNL     1      34.555 -33.471   7.033  1.00  0.00    -0.504 OA
ATOM     45  H   UNL     1      33.642 -33.533   6.575  1.00  0.00     0.293 HD
ENDBRANCH  41  44
BRANCH  43  46
ATOM     46  O   UNL     1      34.591 -31.662   4.745  1.00  0.00    -0.504 OA
ATOM     47  H   UNL     1      33.952 -32.431   4.626  1.00  0.00     0.293 HD
ENDBRANCH  43  46
ENDBRANCH  28  38
BRANCH  34  48
ATOM     48  O   UNL     1      41.426 -29.167  12.701  1.00  0.00    -0.507 OA
ATOM     49  H   UNL     1      41.995 -29.182  13.537  1.00  0.00     0.293 HD
ENDBRANCH  34  48
BRANCH  37  50
ATOM     50  O   UNL     1      43.235 -33.276  10.983  1.00  0.00    -0.508 OA
ATOM     51  H   UNL     1      43.867 -33.409  10.201  1.00  0.00     0.293 HD
ENDBRANCH  37  50
ENDBRANCH  26  27
ENDBRANCH   5  26
BRANCH   4  52
ATOM     52  O   UNL     1      37.430 -30.866  13.125  1.00  0.00    -0.384 OA
ATOM     53  H   UNL     1      37.697 -30.021  12.691  1.00  0.00     0.211 HD
ENDBRANCH   4  52
TORSDOF 16
ENDMDL
MODEL 5
REMARK VINA RESULT:    11.008      2.367      9.323
REMARK INTER + INTRA:          21.257
REMARK INTER:                  23.152
REMARK INTRA:                  -1.894
REMARK UNBOUND:                 3.171
REMARK SMILES C[C@H]1O[C@@H](OC[C@H]2O[C@H](Oc3c(-c4ccc(O)c(O)c4)oc4cc(O)cc(O)c4c3=O)[C@@H](O)[C@H](O)[C@H]2O)[C@H](O)[C@@H](O)[C@H]1O
REMARK SMILES IDX 7 1 36 2 34 3 32 4 9 5 8 6 6 7 5 8 4 9 1 10 2 11 42 12 3 13
REMARK SMILES IDX 40 14 38 15 43 16 41 18 39 20 37 22 35 24 10 26 11 27 12 28
REMARK SMILES IDX 30 29 21 30 29 31 31 32 22 33 27 34 23 35 26 36 24 37 13 38
REMARK SMILES IDX 20 39 14 40 18 41 15 42 16 43 19 44 17 46 28 48 25 50 33 52
REMARK H PARENT 43 17 41 19 39 21 37 23 35 25 19 45 17 47 28 49 25 51 33 53
REMARK Flexibility Score: inf
ROOT
ATOM      1  C   UNL     1      33.481 -34.340   8.287  1.00  0.00     0.180 C 
ATOM      2  C   UNL     1      34.154 -34.763   6.954  1.00  0.00     0.177 C 
ATOM      3  C   UNL     1      34.248 -33.524   6.047  1.00  0.00     0.180 C 
ATOM      4  C   UNL     1      34.627 -32.262   6.868  1.00  0.00     0.214 C 
ATOM      5  C   UNL     1      35.134 -32.612   8.304  1.00  0.00     0.339 C 
ATOM      6  O   UNL     1      34.218 -33.393   9.064  1.00  0.00    -0.332 OA
ENDROOT
BRANCH   1   7
ATOM      7  C   UNL     1      33.081 -35.566   9.137  1.00  0.00     0.198 C 
BRANCH   7   8
ATOM      8  O   UNL     1      31.776 -36.040   8.815  1.00  0.00    -0.347 OA
BRANCH   8   9
ATOM      9  C   UNL     1      30.768 -35.032   8.894  1.00  0.00     0.281 C 
ATOM     10  C   UNL     1      30.444 -36.742  11.623  1.00  0.00     0.041 C 
ATOM     11  C   UNL     1      29.623 -35.625  10.949  1.00  0.00     0.150 C 
ATOM     12  C   UNL     1      28.398 -36.130  10.137  1.00  0.00     0.174 C 
ATOM     13  O   UNL     1      30.457 -34.710  10.246  1.00  0.00    -0.344 OA
ATOM     14  C   UNL     1      28.788 -36.598   8.736  1.00  0.00     0.179 C 
ATOM     15  C   UNL     1      29.535 -35.443   8.059  1.00  0.00     0.202 C 
BRANCH  12  16
ATOM     16  O   UNL     1      27.689 -37.113  10.851  1.00  0.00    -0.388 OA
ATOM     17  H   UNL     1      28.204 -37.958  10.763  1.00  0.00     0.211 HD
ENDBRANCH  12  16
BRANCH  14  18
ATOM     18  O   UNL     1      29.597 -37.745   8.801  1.00  0.00    -0.387 OA
ATOM     19  H   UNL     1      30.407 -37.557   8.252  1.00  0.00     0.211 HD
ENDBRANCH  14  18
BRANCH  15  20
ATOM     20  O   UNL     1      28.684 -34.331   7.914  1.00  0.00    -0.385 OA
ATOM     21  H   UNL     1      28.472 -34.273   6.946  1.00  0.00     0.211 HD
ENDBRANCH  15  20
ENDBRANCH   8   9
ENDBRANCH   7   8
ENDBRANCH   1   7
BRANCH   2  22
ATOM     22  O   UNL     1      35.434 -35.266   7.234  1.00  0.00    -0.387 OA
ATOM     23  H   UNL     1      35.632 -36.022   6.629  1.00  0.00     0.211 HD
ENDBRANCH   2  22
BRANCH   3  24
ATOM     24  O   UNL     1      33.027 -33.289   5.394  1.00  0.00    -0.387 OA
ATOM     25  H   UNL     1      33.123 -32.469   4.831  1.00  0.00     0.211 HD
ENDBRANCH   3  24
BRANCH   5  26
ATOM     26  O   UNL     1      35.449 -31.410   9.015  1.00  0.00    -0.454 OA
BRANCH  26  27
ATOM     27  C   UNL     1      36.494 -31.414   9.956  1.00  0.00     0.214 A 
ATOM     28  C   UNL     1      36.219 -31.357  11.335  1.00  0.00     0.180 A 
ATOM     29  C   UNL     1      37.820 -31.270   9.516  1.00  0.00     0.239 A 
ATOM     30  O   UNL     1      37.147 -30.876  12.161  1.00  0.00    -0.452 OA
ATOM     31  C   UNL     1      38.808 -30.873  10.438  1.00  0.00     0.111 A 
ATOM     32  O   UNL     1      38.100 -31.484   8.306  1.00  0.00    -0.285 OA
ATOM     33  C   UNL     1      38.377 -30.569  11.761  1.00  0.00     0.146 A 
ATOM     34  C   UNL     1      40.182 -30.706  10.123  1.00  0.00     0.134 A 
ATOM     35  C   UNL     1      39.241 -29.922  12.653  1.00  0.00     0.094 A 
ATOM     36  C   UNL     1      41.035 -30.065  11.047  1.00  0.00     0.093 A 
ATOM     37  C   UNL     1      40.560 -29.624  12.280  1.00  0.00     0.123 A 
BRANCH  28  38
ATOM     38  C   UNL     1      34.903 -31.746  11.915  1.00  0.00     0.025 A 
ATOM     39  C   UNL     1      34.524 -33.090  11.921  1.00  0.00     0.062 A 
ATOM     40  C   UNL     1      33.961 -30.780  12.315  1.00  0.00     0.016 A 
ATOM     41  C   UNL     1      33.239 -33.489  12.313  1.00  0.00     0.158 A 
ATOM     42  C   UNL     1      32.672 -31.156  12.701  1.00  0.00     0.051 A 
ATOM     43  C   UNL     1      32.296 -32.507  12.712  1.00  0.00     0.157 A 
BRANCH  41  44
ATOM     44  O   UNL     1      32.919 -34.844  12.252  1.00  0.00    -0.504 OA
ATOM     45  H   UNL     1      33.613 -35.593  12.321  1.00  0.00     0.293 HD
ENDBRANCH  41  44
BRANCH  43  46
ATOM     46  O   UNL     1      30.998 -32.827  13.119  1.00  0.00    -0.504 OA
ATOM     47  H   UNL     1      30.190 -32.252  12.946  1.00  0.00     0.293 HD
ENDBRANCH  43  46
ENDBRANCH  28  38
BRANCH  34  48
ATOM     48  O   UNL     1      40.762 -31.184   8.948  1.00  0.00    -0.507 OA
ATOM     49  H   UNL     1      41.559 -30.752   8.500  1.00  0.00     0.293 HD
ENDBRANCH  34  48
BRANCH  37  50
ATOM     50  O   UNL     1      41.381 -28.875  13.121  1.00  0.00    -0.508 OA
ATOM     51  H   UNL     1      41.342 -29.005  14.125  1.00  0.00     0.293 HD
ENDBRANCH  37  50
ENDBRANCH  26  27
ENDBRANCH   5  26
BRANCH   4  52
ATOM     52  O   UNL     1      35.583 -31.517   6.144  1.00  0.00    -0.384 OA
ATOM     53  H   UNL     1      35.880 -32.084   5.392  1.00  0.00     0.211 HD
ENDBRANCH   4  52
TORSDOF 16
ENDMDL
