MODEL 1
REMARK VINA RESULT:    -6.177      0.000      0.000
REMARK INTER + INTRA:          -7.774
REMARK INTER:                  -7.441
REMARK INTRA:                  -0.333
REMARK UNBOUND:                -0.333
REMARK SMILES O=c1c(O)c(-c2ccc(O)c(O)c2)oc2cc(O)cc(O)c12
REMARK SMILES IDX 5 1 3 2 2 3 1 4 22 5 20 6 19 7 17 8 16 9 15 10 14 11 6 12
REMARK SMILES IDX 7 13 8 14 9 15 13 16 11 17 10 18 12 20 4 22 21 24 18 26
REMARK H PARENT 10 19 12 21 4 23 21 25 18 27
REMARK Flexibility Score: inf
ROOT
ATOM      1  C   UNL     1      15.162 -23.424  -6.763  1.00  0.00     0.180 A 
ATOM      2  C   UNL     1      14.904 -24.156  -5.590  1.00  0.00     0.208 A 
ATOM      3  C   UNL     1      13.625 -24.093  -5.016  1.00  0.00     0.238 A 
ATOM      4  O   UNL     1      13.384 -24.792  -3.998  1.00  0.00    -0.285 OA
ATOM      5  C   UNL     1      12.623 -23.287  -5.611  1.00  0.00     0.111 A 
ATOM      6  C   UNL     1      11.305 -23.118  -5.093  1.00  0.00     0.134 A 
ATOM      7  C   UNL     1      10.358 -22.401  -5.835  1.00  0.00     0.093 A 
ATOM      8  C   UNL     1      10.701 -21.793  -7.045  1.00  0.00     0.123 A 
ATOM      9  C   UNL     1      12.002 -21.902  -7.530  1.00  0.00     0.094 A 
ATOM     10  C   UNL     1      12.959 -22.642  -6.830  1.00  0.00     0.146 A 
ATOM     11  O   UNL     1      14.184 -22.731  -7.333  1.00  0.00    -0.452 OA
ENDROOT
BRANCH   1  12
ATOM     12  C   UNL     1      16.493 -23.421  -7.411  1.00  0.00     0.025 A 
ATOM     13  C   UNL     1      16.747 -24.307  -8.470  1.00  0.00     0.016 A 
ATOM     14  C   UNL     1      17.988 -24.306  -9.111  1.00  0.00     0.051 A 
ATOM     15  C   UNL     1      18.988 -23.413  -8.716  1.00  0.00     0.157 A 
ATOM     16  C   UNL     1      17.493 -22.508  -7.029  1.00  0.00     0.062 A 
ATOM     17  C   UNL     1      18.739 -22.506  -7.673  1.00  0.00     0.158 A 
BRANCH  15  18
ATOM     18  O   UNL     1      20.218 -23.438  -9.373  1.00  0.00    -0.504 OA
ATOM     19  H   UNL     1      20.870 -22.664  -9.324  1.00  0.00     0.293 HD
ENDBRANCH  15  18
BRANCH  17  20
ATOM     20  O   UNL     1      19.726 -21.601  -7.283  1.00  0.00    -0.504 OA
ATOM     21  H   UNL     1      20.449 -21.857  -6.622  1.00  0.00     0.293 HD
ENDBRANCH  17  20
ENDBRANCH   1  12
BRANCH   2  22
ATOM     22  O   UNL     1      15.899 -24.962  -5.031  1.00  0.00    -0.502 OA
ATOM     23  H   UNL     1      16.819 -24.608  -4.796  1.00  0.00     0.293 HD
ENDBRANCH   2  22
BRANCH   6  24
ATOM     24  O   UNL     1      10.886 -23.606  -3.851  1.00  0.00    -0.507 OA
ATOM     25  H   UNL     1      11.017 -24.554  -3.533  1.00  0.00     0.293 HD
ENDBRANCH   6  24
BRANCH   8  26
ATOM     26  O   UNL     1       9.756 -21.069  -7.769  1.00  0.00    -0.508 OA
ATOM     27  H   UNL     1       9.892 -20.089  -7.986  1.00  0.00     0.293 HD
ENDBRANCH   8  26
TORSDOF 6
ENDMDL
MODEL 2
REMARK VINA RESULT:    -6.069      2.065      3.500
REMARK INTER + INTRA:          -7.644
REMARK INTER:                  -7.352
REMARK INTRA:                  -0.292
REMARK UNBOUND:                -0.333
REMARK SMILES O=c1c(O)c(-c2ccc(O)c(O)c2)oc2cc(O)cc(O)c12
REMARK SMILES IDX 5 1 3 2 2 3 1 4 22 5 20 6 19 7 17 8 16 9 15 10 14 11 6 12
REMARK SMILES IDX 7 13 8 14 9 15 13 16 11 17 10 18 12 20 4 22 21 24 18 26
REMARK H PARENT 10 19 12 21 4 23 21 25 18 27
REMARK Flexibility Score: inf
ROOT
ATOM      1  C   UNL     1      14.640 -24.226  -5.899  1.00  0.00     0.180 A 
ATOM      2  C   UNL     1      13.872 -23.099  -5.554  1.00  0.00     0.208 A 
ATOM      3  C   UNL     1      12.749 -23.269  -4.729  1.00  0.00     0.238 A 
ATOM      4  O   UNL     1      12.098 -22.250  -4.378  1.00  0.00    -0.285 OA
ATOM      5  C   UNL     1      12.397 -24.562  -4.273  1.00  0.00     0.111 A 
ATOM      6  C   UNL     1      11.257 -24.855  -3.466  1.00  0.00     0.134 A 
ATOM      7  C   UNL     1      11.080 -26.151  -2.966  1.00  0.00     0.093 A 
ATOM      8  C   UNL     1      11.967 -27.179  -3.297  1.00  0.00     0.123 A 
ATOM      9  C   UNL     1      13.049 -26.916  -4.133  1.00  0.00     0.094 A 
ATOM     10  C   UNL     1      13.273 -25.625  -4.618  1.00  0.00     0.146 A 
ATOM     11  O   UNL     1      14.322 -25.415  -5.403  1.00  0.00    -0.452 OA
ENDROOT
BRANCH   1  12
ATOM     12  C   UNL     1      15.823 -24.130  -6.785  1.00  0.00     0.025 A 
ATOM     13  C   UNL     1      15.638 -24.031  -8.173  1.00  0.00     0.016 A 
ATOM     14  C   UNL     1      16.739 -23.917  -9.027  1.00  0.00     0.051 A 
ATOM     15  C   UNL     1      18.036 -23.886  -8.507  1.00  0.00     0.157 A 
ATOM     16  C   UNL     1      17.127 -24.077  -6.263  1.00  0.00     0.062 A 
ATOM     17  C   UNL     1      18.233 -23.961  -7.119  1.00  0.00     0.158 A 
BRANCH  15  18
ATOM     18  O   UNL     1      19.115 -23.775  -9.384  1.00  0.00    -0.504 OA
ATOM     19  H   UNL     1      19.863 -24.458  -9.406  1.00  0.00     0.293 HD
ENDBRANCH  15  18
BRANCH  17  20
ATOM     20  O   UNL     1      19.523 -23.916  -6.592  1.00  0.00    -0.504 OA
ATOM     21  H   UNL     1      19.811 -23.185  -5.953  1.00  0.00     0.293 HD
ENDBRANCH  17  20
ENDBRANCH   1  12
BRANCH   2  22
ATOM     22  O   UNL     1      14.249 -21.829  -5.996  1.00  0.00    -0.502 OA
ATOM     23  H   UNL     1      13.700 -21.000  -5.803  1.00  0.00     0.293 HD
ENDBRANCH   2  22
BRANCH   6  24
ATOM     24  O   UNL     1      10.263 -23.923  -3.152  1.00  0.00    -0.507 OA
ATOM     25  H   UNL     1      10.242 -22.971  -3.485  1.00  0.00     0.293 HD
ENDBRANCH   6  24
BRANCH   8  26
ATOM     26  O   UNL     1      11.773 -28.469  -2.807  1.00  0.00    -0.508 OA
ATOM     27  H   UNL     1      12.427 -29.216  -3.008  1.00  0.00     0.293 HD
ENDBRANCH   8  26
TORSDOF 6
ENDMDL
MODEL 3
REMARK VINA RESULT:    -6.068      2.467      4.567
REMARK INTER + INTRA:          -7.643
REMARK INTER:                  -7.330
REMARK INTRA:                  -0.313
REMARK UNBOUND:                -0.333
REMARK SMILES O=c1c(O)c(-c2ccc(O)c(O)c2)oc2cc(O)cc(O)c12
REMARK SMILES IDX 5 1 3 2 2 3 1 4 22 5 20 6 19 7 17 8 16 9 15 10 14 11 6 12
REMARK SMILES IDX 7 13 8 14 9 15 13 16 11 17 10 18 12 20 4 22 21 24 18 26
REMARK H PARENT 10 19 12 21 4 23 21 25 18 27
REMARK Flexibility Score: inf
ROOT
ATOM      1  C   UNL     1      18.541 -23.133  -6.597  1.00  0.00     0.180 A 
ATOM      2  C   UNL     1      17.986 -23.303  -7.878  1.00  0.00     0.208 A 
ATOM      3  C   UNL     1      16.641 -23.688  -7.991  1.00  0.00     0.238 A 
ATOM      4  O   UNL     1      16.134 -23.786  -9.139  1.00  0.00    -0.285 OA
ATOM      5  C   UNL     1      15.871 -23.914  -6.824  1.00  0.00     0.111 A 
ATOM      6  C   UNL     1      14.511 -24.346  -6.820  1.00  0.00     0.134 A 
ATOM      7  C   UNL     1      13.811 -24.411  -5.610  1.00  0.00     0.093 A 
ATOM      8  C   UNL     1      14.441 -24.123  -4.396  1.00  0.00     0.123 A 
ATOM      9  C   UNL     1      15.785 -23.759  -4.384  1.00  0.00     0.094 A 
ATOM     10  C   UNL     1      16.500 -23.649  -5.579  1.00  0.00     0.146 A 
ATOM     11  O   UNL     1      17.776 -23.288  -5.524  1.00  0.00    -0.452 OA
ENDROOT
BRANCH   1  12
ATOM     12  C   UNL     1      19.958 -22.753  -6.399  1.00  0.00     0.025 A 
ATOM     13  C   UNL     1      20.950 -23.745  -6.437  1.00  0.00     0.016 A 
ATOM     14  C   UNL     1      22.296 -23.407  -6.274  1.00  0.00     0.051 A 
ATOM     15  C   UNL     1      22.672 -22.074  -6.085  1.00  0.00     0.157 A 
ATOM     16  C   UNL     1      20.341 -21.410  -6.230  1.00  0.00     0.062 A 
ATOM     17  C   UNL     1      21.692 -21.069  -6.068  1.00  0.00     0.158 A 
BRANCH  15  18
ATOM     18  O   UNL     1      24.023 -21.767  -5.922  1.00  0.00    -0.504 OA
ATOM     19  H   UNL     1      24.501 -21.895  -5.038  1.00  0.00     0.293 HD
ENDBRANCH  15  18
BRANCH  17  20
ATOM     20  O   UNL     1      22.061 -19.735  -5.895  1.00  0.00    -0.504 OA
ATOM     21  H   UNL     1      21.447 -18.975  -6.163  1.00  0.00     0.293 HD
ENDBRANCH  17  20
ENDBRANCH   1  12
BRANCH   2  22
ATOM     22  O   UNL     1      18.756 -23.053  -9.017  1.00  0.00    -0.502 OA
ATOM     23  H   UNL     1      19.565 -22.445  -9.005  1.00  0.00     0.293 HD
ENDBRANCH   2  22
BRANCH   6  24
ATOM     24  O   UNL     1      13.816 -24.744  -7.966  1.00  0.00    -0.507 OA
ATOM     25  H   UNL     1      14.224 -25.248  -8.740  1.00  0.00     0.293 HD
ENDBRANCH   6  24
BRANCH   8  26
ATOM     26  O   UNL     1      13.739 -24.206  -3.195  1.00  0.00    -0.508 OA
ATOM     27  H   UNL     1      13.034 -23.524  -2.945  1.00  0.00     0.293 HD
ENDBRANCH   8  26
TORSDOF 6
ENDMDL
MODEL 4
REMARK VINA RESULT:    -6.024      3.525      7.452
REMARK INTER + INTRA:          -7.590
REMARK INTER:                  -7.299
REMARK INTRA:                  -0.291
REMARK UNBOUND:                -0.333
REMARK SMILES O=c1c(O)c(-c2ccc(O)c(O)c2)oc2cc(O)cc(O)c12
REMARK SMILES IDX 5 1 3 2 2 3 1 4 22 5 20 6 19 7 17 8 16 9 15 10 14 11 6 12
REMARK SMILES IDX 7 13 8 14 9 15 13 16 11 17 10 18 12 20 4 22 21 24 18 26
REMARK H PARENT 10 19 12 21 4 23 21 25 18 27
REMARK Flexibility Score: inf
ROOT
ATOM      1  C   UNL     1      12.883 -24.984  -3.106  1.00  0.00     0.180 A 
ATOM      2  C   UNL     1      11.803 -24.247  -3.622  1.00  0.00     0.208 A 
ATOM      3  C   UNL     1      11.912 -23.689  -4.906  1.00  0.00     0.238 A 
ATOM      4  O   UNL     1      10.921 -23.077  -5.385  1.00  0.00    -0.285 OA
ATOM      5  C   UNL     1      13.104 -23.860  -5.651  1.00  0.00     0.111 A 
ATOM      6  C   UNL     1      13.338 -23.305  -6.944  1.00  0.00     0.134 A 
ATOM      7  C   UNL     1      14.503 -23.648  -7.642  1.00  0.00     0.093 A 
ATOM      8  C   UNL     1      15.472 -24.474  -7.065  1.00  0.00     0.123 A 
ATOM      9  C   UNL     1      15.279 -24.972  -5.779  1.00  0.00     0.094 A 
ATOM     10  C   UNL     1      14.110 -24.678  -5.073  1.00  0.00     0.146 A 
ATOM     11  O   UNL     1      13.961 -25.182  -3.854  1.00  0.00    -0.452 OA
ENDROOT
BRANCH   1  12
ATOM     12  C   UNL     1      12.852 -25.580  -1.751  1.00  0.00     0.025 A 
ATOM     13  C   UNL     1      13.462 -24.902  -0.684  1.00  0.00     0.016 A 
ATOM     14  C   UNL     1      13.426 -25.435   0.607  1.00  0.00     0.051 A 
ATOM     15  C   UNL     1      12.769 -26.643   0.855  1.00  0.00     0.157 A 
ATOM     16  C   UNL     1      12.173 -26.785  -1.495  1.00  0.00     0.062 A 
ATOM     17  C   UNL     1      12.135 -27.320  -0.199  1.00  0.00     0.158 A 
BRANCH  15  18
ATOM     18  O   UNL     1      12.752 -27.152   2.153  1.00  0.00    -0.504 OA
ATOM     19  H   UNL     1      13.344 -26.778   2.886  1.00  0.00     0.293 HD
ENDBRANCH  15  18
BRANCH  17  20
ATOM     20  O   UNL     1      11.464 -28.519   0.043  1.00  0.00    -0.504 OA
ATOM     21  H   UNL     1      11.955 -29.404   0.080  1.00  0.00     0.293 HD
ENDBRANCH  17  20
ENDBRANCH   1  12
BRANCH   2  22
ATOM     22  O   UNL     1      10.627 -24.108  -2.880  1.00  0.00    -0.502 OA
ATOM     23  H   UNL     1      10.586 -23.576  -2.020  1.00  0.00     0.293 HD
ENDBRANCH   2  22
BRANCH   6  24
ATOM     24  O   UNL     1      12.479 -22.399  -7.572  1.00  0.00    -0.507 OA
ATOM     25  H   UNL     1      11.984 -22.577  -8.433  1.00  0.00     0.293 HD
ENDBRANCH   6  24
BRANCH   8  26
ATOM     26  O   UNL     1      16.635 -24.797  -7.761  1.00  0.00    -0.508 OA
ATOM     27  H   UNL     1      16.960 -25.753  -7.835  1.00  0.00     0.293 HD
ENDBRANCH   8  26
TORSDOF 6
ENDMDL
MODEL 5
REMARK VINA RESULT:    -5.993      2.495      4.640
REMARK INTER + INTRA:          -7.552
REMARK INTER:                  -7.242
REMARK INTRA:                  -0.310
REMARK UNBOUND:                -0.333
REMARK SMILES O=c1c(O)c(-c2ccc(O)c(O)c2)oc2cc(O)cc(O)c12
REMARK SMILES IDX 5 1 3 2 2 3 1 4 22 5 20 6 19 7 17 8 16 9 15 10 14 11 6 12
REMARK SMILES IDX 7 13 8 14 9 15 13 16 11 17 10 18 12 20 4 22 21 24 18 26
REMARK H PARENT 10 19 12 21 4 23 21 25 18 27
REMARK Flexibility Score: inf
ROOT
ATOM      1  C   UNL     1      18.451 -23.344  -6.689  1.00  0.00     0.180 A 
ATOM      2  C   UNL     1      17.856 -23.478  -7.956  1.00  0.00     0.208 A 
ATOM      3  C   UNL     1      16.502 -23.841  -8.036  1.00  0.00     0.238 A 
ATOM      4  O   UNL     1      15.960 -23.907  -9.170  1.00  0.00    -0.285 OA
ATOM      5  C   UNL     1      15.764 -24.081  -6.851  1.00  0.00     0.111 A 
ATOM      6  C   UNL     1      14.399 -24.493  -6.815  1.00  0.00     0.134 A 
ATOM      7  C   UNL     1      13.734 -24.574  -5.586  1.00  0.00     0.093 A 
ATOM      8  C   UNL     1      14.404 -24.321  -4.386  1.00  0.00     0.123 A 
ATOM      9  C   UNL     1      15.753 -23.977  -4.407  1.00  0.00     0.094 A 
ATOM     10  C   UNL     1      16.434 -23.853  -5.620  1.00  0.00     0.146 A 
ATOM     11  O   UNL     1      17.717 -23.511  -5.596  1.00  0.00    -0.452 OA
ENDROOT
BRANCH   1  12
ATOM     12  C   UNL     1      19.879 -22.989  -6.525  1.00  0.00     0.025 A 
ATOM     13  C   UNL     1      20.260 -21.638  -6.535  1.00  0.00     0.016 A 
ATOM     14  C   UNL     1      21.599 -21.278  -6.360  1.00  0.00     0.051 A 
ATOM     15  C   UNL     1      22.574 -22.260  -6.158  1.00  0.00     0.157 A 
ATOM     16  C   UNL     1      20.858 -23.973  -6.301  1.00  0.00     0.062 A 
ATOM     17  C   UNL     1      22.203 -23.614  -6.123  1.00  0.00     0.158 A 
BRANCH  15  18
ATOM     18  O   UNL     1      23.902 -21.871  -5.990  1.00  0.00    -0.504 OA
ATOM     19  H   UNL     1      24.604 -22.029  -6.704  1.00  0.00     0.293 HD
ENDBRANCH  15  18
BRANCH  17  20
ATOM     20  O   UNL     1      23.168 -24.598  -5.908  1.00  0.00    -0.504 OA
ATOM     21  H   UNL     1      23.667 -25.029  -6.676  1.00  0.00     0.293 HD
ENDBRANCH  17  20
ENDBRANCH   1  12
BRANCH   2  22
ATOM     22  O   UNL     1      18.595 -23.216  -9.112  1.00  0.00    -0.502 OA
ATOM     23  H   UNL     1      19.395 -22.596  -9.117  1.00  0.00     0.293 HD
ENDBRANCH   2  22
BRANCH   6  24
ATOM     24  O   UNL     1      13.664 -24.857  -7.948  1.00  0.00    -0.507 OA
ATOM     25  H   UNL     1      12.831 -25.426  -7.933  1.00  0.00     0.293 HD
ENDBRANCH   6  24
BRANCH   8  26
ATOM     26  O   UNL     1      13.738 -24.420  -3.166  1.00  0.00    -0.508 OA
ATOM     27  H   UNL     1      14.056 -23.918  -2.346  1.00  0.00     0.293 HD
ENDBRANCH   8  26
TORSDOF 6
ENDMDL
MODEL 6
REMARK VINA RESULT:    -5.956      1.911      7.550
REMARK INTER + INTRA:          -7.508
REMARK INTER:                  -7.186
REMARK INTRA:                  -0.322
REMARK UNBOUND:                -0.333
REMARK SMILES O=c1c(O)c(-c2ccc(O)c(O)c2)oc2cc(O)cc(O)c12
REMARK SMILES IDX 5 1 3 2 2 3 1 4 22 5 20 6 19 7 17 8 16 9 15 10 14 11 6 12
REMARK SMILES IDX 7 13 8 14 9 15 13 16 11 17 10 18 12 20 4 22 21 24 18 26
REMARK H PARENT 10 19 12 21 4 23 21 25 18 27
REMARK Flexibility Score: inf
ROOT
ATOM      1  C   UNL     1      16.544 -23.456  -6.803  1.00  0.00     0.180 A 
ATOM      2  C   UNL     1      16.912 -23.622  -8.150  1.00  0.00     0.208 A 
ATOM      3  C   UNL     1      18.271 -23.551  -8.497  1.00  0.00     0.238 A 
ATOM      4  O   UNL     1      18.600 -23.754  -9.695  1.00  0.00    -0.285 OA
ATOM      5  C   UNL     1      19.242 -23.301  -7.498  1.00  0.00     0.111 A 
ATOM      6  C   UNL     1      20.642 -23.169  -7.743  1.00  0.00     0.134 A 
ATOM      7  C   UNL     1      21.523 -23.052  -6.662  1.00  0.00     0.093 A 
ATOM      8  C   UNL     1      21.050 -22.996  -5.348  1.00  0.00     0.123 A 
ATOM      9  C   UNL     1      19.681 -23.063  -5.103  1.00  0.00     0.094 A 
ATOM     10  C   UNL     1      18.779 -23.217  -6.159  1.00  0.00     0.146 A 
ATOM     11  O   UNL     1      17.483 -23.288  -5.881  1.00  0.00    -0.452 OA
ENDROOT
BRANCH   1  12
ATOM     12  C   UNL     1      15.130 -23.492  -6.365  1.00  0.00     0.025 A 
ATOM     13  C   UNL     1      14.381 -22.305  -6.353  1.00  0.00     0.016 A 
ATOM     14  C   UNL     1      13.039 -22.319  -5.964  1.00  0.00     0.051 A 
ATOM     15  C   UNL     1      12.422 -23.518  -5.596  1.00  0.00     0.157 A 
ATOM     16  C   UNL     1      14.501 -24.701  -6.015  1.00  0.00     0.062 A 
ATOM     17  C   UNL     1      13.153 -24.716  -5.625  1.00  0.00     0.158 A 
BRANCH  15  18
ATOM     18  O   UNL     1      11.082 -23.500  -5.209  1.00  0.00    -0.504 OA
ATOM     19  H   UNL     1      10.798 -23.625  -4.244  1.00  0.00     0.293 HD
ENDBRANCH  15  18
BRANCH  17  20
ATOM     20  O   UNL     1      12.541 -25.919  -5.274  1.00  0.00    -0.504 OA
ATOM     21  H   UNL     1      13.054 -26.664  -4.819  1.00  0.00     0.293 HD
ENDBRANCH  17  20
ENDBRANCH   1  12
BRANCH   2  22
ATOM     22  O   UNL     1      15.940 -23.890  -9.118  1.00  0.00    -0.502 OA
ATOM     23  H   UNL     1      15.840 -24.800  -9.551  1.00  0.00     0.293 HD
ENDBRANCH   2  22
BRANCH   6  24
ATOM     24  O   UNL     1      21.210 -23.121  -9.020  1.00  0.00    -0.507 OA
ATOM     25  H   UNL     1      20.690 -23.189  -9.882  1.00  0.00     0.293 HD
ENDBRANCH   6  24
BRANCH   8  26
ATOM     26  O   UNL     1      21.935 -22.863  -4.279  1.00  0.00    -0.508 OA
ATOM     27  H   UNL     1      21.614 -22.893  -3.319  1.00  0.00     0.293 HD
ENDBRANCH   8  26
TORSDOF 6
ENDMDL
MODEL 7
REMARK VINA RESULT:    -5.956      2.808      7.542
REMARK INTER + INTRA:          -7.507
REMARK INTER:                  -7.273
REMARK INTRA:                  -0.235
REMARK UNBOUND:                -0.333
REMARK SMILES O=c1c(O)c(-c2ccc(O)c(O)c2)oc2cc(O)cc(O)c12
REMARK SMILES IDX 5 1 3 2 2 3 1 4 22 5 20 6 19 7 17 8 16 9 15 10 14 11 6 12
REMARK SMILES IDX 7 13 8 14 9 15 13 16 11 17 10 18 12 20 4 22 21 24 18 26
REMARK H PARENT 10 19 12 21 4 23 21 25 18 27
REMARK Flexibility Score: inf
ROOT
ATOM      1  C   UNL     1      18.169 -23.298  -6.256  1.00  0.00     0.180 A 
ATOM      2  C   UNL     1      19.272 -23.988  -6.790  1.00  0.00     0.208 A 
ATOM      3  C   UNL     1      20.558 -23.454  -6.614  1.00  0.00     0.238 A 
ATOM      4  O   UNL     1      21.546 -24.103  -7.046  1.00  0.00    -0.285 OA
ATOM      5  C   UNL     1      20.725 -22.231  -5.921  1.00  0.00     0.111 A 
ATOM      6  C   UNL     1      21.978 -21.578  -5.718  1.00  0.00     0.134 A 
ATOM      7  C   UNL     1      22.040 -20.439  -4.906  1.00  0.00     0.093 A 
ATOM      8  C   UNL     1      20.884 -19.893  -4.342  1.00  0.00     0.123 A 
ATOM      9  C   UNL     1      19.649 -20.488  -4.583  1.00  0.00     0.094 A 
ATOM     10  C   UNL     1      19.560 -21.646  -5.359  1.00  0.00     0.146 A 
ATOM     11  O   UNL     1      18.364 -22.188  -5.555  1.00  0.00    -0.452 OA
ENDROOT
BRANCH   1  12
ATOM     12  C   UNL     1      16.781 -23.786  -6.423  1.00  0.00     0.025 A 
ATOM     13  C   UNL     1      16.173 -23.718  -7.687  1.00  0.00     0.016 A 
ATOM     14  C   UNL     1      14.872 -24.192  -7.873  1.00  0.00     0.051 A 
ATOM     15  C   UNL     1      14.165 -24.754  -6.806  1.00  0.00     0.157 A 
ATOM     16  C   UNL     1      16.075 -24.370  -5.357  1.00  0.00     0.062 A 
ATOM     17  C   UNL     1      14.769 -24.848  -5.542  1.00  0.00     0.158 A 
BRANCH  15  18
ATOM     18  O   UNL     1      12.867 -25.215  -7.022  1.00  0.00    -0.504 OA
ATOM     19  H   UNL     1      12.677 -26.159  -7.339  1.00  0.00     0.293 HD
ENDBRANCH  15  18
BRANCH  17  20
ATOM     20  O   UNL     1      14.075 -25.421  -4.477  1.00  0.00    -0.504 OA
ATOM     21  H   UNL     1      14.450 -26.208  -3.960  1.00  0.00     0.293 HD
ENDBRANCH  17  20
ENDBRANCH   1  12
BRANCH   2  22
ATOM     22  O   UNL     1      19.088 -25.205  -7.452  1.00  0.00    -0.502 OA
ATOM     23  H   UNL     1      18.400 -25.327  -8.185  1.00  0.00     0.293 HD
ENDBRANCH   2  22
BRANCH   6  24
ATOM     24  O   UNL     1      23.176 -21.989  -6.310  1.00  0.00    -0.507 OA
ATOM     25  H   UNL     1      24.096 -21.762  -5.963  1.00  0.00     0.293 HD
ENDBRANCH   6  24
BRANCH   8  26
ATOM     26  O   UNL     1      20.954 -18.750  -3.547  1.00  0.00    -0.508 OA
ATOM     27  H   UNL     1      20.386 -18.647  -2.715  1.00  0.00     0.293 HD
ENDBRANCH   8  26
TORSDOF 6
ENDMDL
MODEL 8
REMARK VINA RESULT:    -5.952      3.037      4.700
REMARK INTER + INTRA:          -7.503
REMARK INTER:                  -7.258
REMARK INTRA:                  -0.244
REMARK UNBOUND:                -0.333
REMARK SMILES O=c1c(O)c(-c2ccc(O)c(O)c2)oc2cc(O)cc(O)c12
REMARK SMILES IDX 5 1 3 2 2 3 1 4 22 5 20 6 19 7 17 8 16 9 15 10 14 11 6 12
REMARK SMILES IDX 7 13 8 14 9 15 13 16 11 17 10 18 12 20 4 22 21 24 18 26
REMARK H PARENT 10 19 12 21 4 23 21 25 18 27
REMARK Flexibility Score: inf
ROOT
ATOM      1  C   UNL     1      13.347 -24.920  -4.904  1.00  0.00     0.180 A 
ATOM      2  C   UNL     1      12.586 -23.891  -4.322  1.00  0.00     0.208 A 
ATOM      3  C   UNL     1      11.623 -24.221  -3.354  1.00  0.00     0.238 A 
ATOM      4  O   UNL     1      10.983 -23.291  -2.797  1.00  0.00    -0.285 OA
ATOM      5  C   UNL     1      11.422 -25.575  -2.992  1.00  0.00     0.111 A 
ATOM      6  C   UNL     1      10.447 -26.027  -2.054  1.00  0.00     0.134 A 
ATOM      7  C   UNL     1      10.425 -27.375  -1.676  1.00  0.00     0.093 A 
ATOM      8  C   UNL     1      11.301 -28.299  -2.253  1.00  0.00     0.123 A 
ATOM      9  C   UNL     1      12.215 -27.878  -3.214  1.00  0.00     0.094 A 
ATOM     10  C   UNL     1      12.286 -26.533  -3.585  1.00  0.00     0.146 A 
ATOM     11  O   UNL     1      13.180 -26.172  -4.497  1.00  0.00    -0.452 OA
ENDROOT
BRANCH   1  12
ATOM     12  C   UNL     1      14.362 -24.652  -5.949  1.00  0.00     0.025 A 
ATOM     13  C   UNL     1      13.944 -24.295  -7.241  1.00  0.00     0.016 A 
ATOM     14  C   UNL     1      14.884 -24.017  -8.236  1.00  0.00     0.051 A 
ATOM     15  C   UNL     1      16.252 -24.076  -7.954  1.00  0.00     0.157 A 
ATOM     16  C   UNL     1      15.738 -24.691  -5.661  1.00  0.00     0.062 A 
ATOM     17  C   UNL     1      16.682 -24.410  -6.660  1.00  0.00     0.158 A 
BRANCH  15  18
ATOM     18  O   UNL     1      17.167 -23.796  -8.969  1.00  0.00    -0.504 OA
ATOM     19  H   UNL     1      17.550 -24.522  -9.564  1.00  0.00     0.293 HD
ENDBRANCH  15  18
BRANCH  17  20
ATOM     20  O   UNL     1      18.045 -24.458  -6.366  1.00  0.00    -0.504 OA
ATOM     21  H   UNL     1      18.594 -23.614  -6.255  1.00  0.00     0.293 HD
ENDBRANCH  17  20
ENDBRANCH   1  12
BRANCH   2  22
ATOM     22  O   UNL     1      12.815 -22.559  -4.677  1.00  0.00    -0.502 OA
ATOM     23  H   UNL     1      12.150 -21.821  -4.479  1.00  0.00     0.293 HD
ENDBRANCH   2  22
BRANCH   6  24
ATOM     24  O   UNL     1       9.468 -25.204  -1.488  1.00  0.00    -0.507 OA
ATOM     25  H   UNL     1       8.869 -25.469  -0.720  1.00  0.00     0.293 HD
ENDBRANCH   6  24
BRANCH   8  26
ATOM     26  O   UNL     1      11.261 -29.642  -1.882  1.00  0.00    -0.508 OA
ATOM     27  H   UNL     1      12.054 -30.095  -1.446  1.00  0.00     0.293 HD
ENDBRANCH   8  26
TORSDOF 6
ENDMDL
MODEL 9
REMARK VINA RESULT:    -5.882      4.100      5.985
REMARK INTER + INTRA:          -7.419
REMARK INTER:                  -7.245
REMARK INTRA:                  -0.174
REMARK UNBOUND:                -0.333
REMARK SMILES O=c1c(O)c(-c2ccc(O)c(O)c2)oc2cc(O)cc(O)c12
REMARK SMILES IDX 5 1 3 2 2 3 1 4 22 5 20 6 19 7 17 8 16 9 15 10 14 11 6 12
REMARK SMILES IDX 7 13 8 14 9 15 13 16 11 17 10 18 12 20 4 22 21 24 18 26
REMARK H PARENT 10 19 12 21 4 23 21 25 18 27
REMARK Flexibility Score: inf
ROOT
ATOM      1  C   UNL     1      13.389 -25.538  -3.304  1.00  0.00     0.180 A 
ATOM      2  C   UNL     1      13.656 -24.828  -2.120  1.00  0.00     0.208 A 
ATOM      3  C   UNL     1      13.126 -25.301  -0.909  1.00  0.00     0.238 A 
ATOM      4  O   UNL     1      13.413 -24.693   0.155  1.00  0.00    -0.285 OA
ATOM      5  C   UNL     1      12.323 -26.468  -0.898  1.00  0.00     0.111 A 
ATOM      6  C   UNL     1      11.703 -27.015   0.264  1.00  0.00     0.134 A 
ATOM      7  C   UNL     1      11.039 -28.245   0.179  1.00  0.00     0.093 A 
ATOM      8  C   UNL     1      10.918 -28.916  -1.041  1.00  0.00     0.123 A 
ATOM      9  C   UNL     1      11.469 -28.360  -2.193  1.00  0.00     0.094 A 
ATOM     10  C   UNL     1      12.169 -27.152  -2.133  1.00  0.00     0.146 A 
ATOM     11  O   UNL     1      12.689 -26.664  -3.252  1.00  0.00    -0.452 OA
ENDROOT
BRANCH   1  12
ATOM     12  C   UNL     1      13.892 -25.086  -4.621  1.00  0.00     0.025 A 
ATOM     13  C   UNL     1      12.984 -24.611  -5.581  1.00  0.00     0.016 A 
ATOM     14  C   UNL     1      13.438 -24.159  -6.822  1.00  0.00     0.051 A 
ATOM     15  C   UNL     1      14.803 -24.161  -7.119  1.00  0.00     0.157 A 
ATOM     16  C   UNL     1      15.267 -25.067  -4.914  1.00  0.00     0.062 A 
ATOM     17  C   UNL     1      15.725 -24.612  -6.160  1.00  0.00     0.158 A 
BRANCH  15  18
ATOM     18  O   UNL     1      15.227 -23.707  -8.368  1.00  0.00    -0.504 OA
ATOM     19  H   UNL     1      14.572 -23.415  -9.085  1.00  0.00     0.293 HD
ENDBRANCH  15  18
BRANCH  17  20
ATOM     20  O   UNL     1      17.090 -24.603  -6.443  1.00  0.00    -0.504 OA
ATOM     21  H   UNL     1      17.663 -25.430  -6.325  1.00  0.00     0.293 HD
ENDBRANCH  17  20
ENDBRANCH   1  12
BRANCH   2  22
ATOM     22  O   UNL     1      14.468 -23.691  -2.148  1.00  0.00    -0.502 OA
ATOM     23  H   UNL     1      14.175 -22.824  -2.580  1.00  0.00     0.293 HD
ENDBRANCH   2  22
BRANCH   6  24
ATOM     24  O   UNL     1      11.685 -26.381   1.511  1.00  0.00    -0.507 OA
ATOM     25  H   UNL     1      12.492 -25.971   1.958  1.00  0.00     0.293 HD
ENDBRANCH   6  24
BRANCH   8  26
ATOM     26  O   UNL     1      10.242 -30.132  -1.118  1.00  0.00    -0.508 OA
ATOM     27  H   UNL     1      10.649 -30.988  -0.763  1.00  0.00     0.293 HD
ENDBRANCH   8  26
TORSDOF 6
ENDMDL
