MODEL 1
REMARK VINA RESULT:    -1.622      0.000      0.000
REMARK INTER + INTRA:          -5.937
REMARK INTER:                  -3.708
REMARK INTRA:                  -2.229
REMARK UNBOUND:                -2.229
REMARK SMILES CCCCCCCCCCCCCCCCCCCCCCCC(=O)[O-]
REMARK SMILES IDX 13 1 14 2 15 3 16 4 17 5 18 6 19 7 20 8 21 9 22 10 23 11
REMARK SMILES IDX 24 12 25 13 26 14 12 15 11 16 10 17 9 18 8 19 7 20 6 21 5 22
REMARK SMILES IDX 4 23 3 24 2 25 1 26
REMARK H PARENT
REMARK Flexibility Score: inf
ROOT
ATOM      1  C   UNL     1      -6.125  35.749  24.321  1.00  0.00     0.000 C 
ENDROOT
BRANCH   1   2
ATOM      2  C   UNL     1      -4.783  35.531  23.603  1.00  0.00     0.000 C 
BRANCH   2   3
ATOM      3  C   UNL     1      -4.724  36.311  22.281  1.00  0.00     0.000 C 
BRANCH   3   4
ATOM      4  C   UNL     1      -6.080  36.347  21.554  1.00  0.00     0.000 C 
BRANCH   4   5
ATOM      5  C   UNL     1      -6.019  35.722  20.149  1.00  0.00     0.000 C 
BRANCH   5   6
ATOM      6  C   UNL     1      -4.583  35.634  19.607  1.00  0.00     0.000 C 
BRANCH   6   7
ATOM      7  C   UNL     1      -4.534  35.438  18.081  1.00  0.00     0.000 C 
BRANCH   7   8
ATOM      8  C   UNL     1      -3.125  35.655  17.506  1.00  0.00     0.000 C 
BRANCH   8   9
ATOM      9  C   UNL     1      -3.151  36.129  16.042  1.00  0.00     0.000 C 
BRANCH   9  10
ATOM     10  C   UNL     1      -2.421  37.466  15.839  1.00  0.00     0.006 C 
BRANCH  10  11
ATOM     11  C   UNL     1      -2.515  37.978  14.395  1.00  0.00     0.053 C 
BRANCH  11  12
ATOM     12  C   UNL     1      -3.847  38.617  14.155  1.00  0.00     0.041 C 
ATOM     13  O   UNL     1      -4.849  37.908  13.875  1.00  0.00    -0.550 OA
ATOM     14  O   UNL     1      -3.965  40.001  14.168  1.00  0.00    -0.550 OA
ENDBRANCH  11  12
ENDBRANCH  10  11
ENDBRANCH   9  10
ENDBRANCH   8   9
ENDBRANCH   7   8
ENDBRANCH   6   7
ENDBRANCH   5   6
ENDBRANCH   4   5
ENDBRANCH   3   4
ENDBRANCH   2   3
ENDBRANCH   1   2
BRANCH   1  15
ATOM     15  C   UNL     1      -6.046  36.867  25.378  1.00  0.00     0.000 C 
BRANCH  15  16
ATOM     16  C   UNL     1      -6.020  38.296  24.794  1.00  0.00     0.000 C 
BRANCH  16  17
ATOM     17  C   UNL     1      -4.641  38.999  24.814  1.00  0.00     0.000 C 
BRANCH  17  18
ATOM     18  C   UNL     1      -4.527  40.225  23.889  1.00  0.00    -0.000 C 
BRANCH  18  19
ATOM     19  C   UNL     1      -5.247  40.027  22.540  1.00  0.00    -0.000 C 
BRANCH  19  20
ATOM     20  C   UNL     1      -4.332  39.383  21.482  1.00  0.00    -0.000 C 
BRANCH  20  21
ATOM     21  C   UNL     1      -4.990  39.290  20.091  1.00  0.00    -0.000 C 
BRANCH  21  22
ATOM     22  C   UNL     1      -4.087  38.588  19.059  1.00  0.00    -0.000 C 
BRANCH  22  23
ATOM     23  C   UNL     1      -2.606  38.970  19.217  1.00  0.00    -0.000 C 
BRANCH  23  24
ATOM     24  C   UNL     1      -1.730  37.774  19.629  1.00  0.00    -0.000 C 
BRANCH  24  25
ATOM     25  C   UNL     1      -0.244  37.998  19.305  1.00  0.00    -0.003 C 
ATOM     26  C   UNL     1      -0.040  38.918  18.104  1.00  0.00     0.004 C 
ENDBRANCH  24  25
ENDBRANCH  23  24
ENDBRANCH  22  23
ENDBRANCH  21  22
ENDBRANCH  20  21
ENDBRANCH  19  20
ENDBRANCH  18  19
ENDBRANCH  17  18
ENDBRANCH  16  17
ENDBRANCH  15  16
ENDBRANCH   1  15
TORSDOF 22
ENDMDL
MODEL 2
REMARK VINA RESULT:    -1.506      1.871      5.168
REMARK INTER + INTRA:          -5.672
REMARK INTER:                  -4.936
REMARK INTRA:                  -0.736
REMARK UNBOUND:                -2.229
REMARK SMILES CCCCCCCCCCCCCCCCCCCCCCCC(=O)[O-]
REMARK SMILES IDX 13 1 14 2 15 3 16 4 17 5 18 6 19 7 20 8 21 9 22 10 23 11
REMARK SMILES IDX 24 12 25 13 26 14 12 15 11 16 10 17 9 18 8 19 7 20 6 21 5 22
REMARK SMILES IDX 4 23 3 24 2 25 1 26
REMARK H PARENT
REMARK Flexibility Score: inf
ROOT
ATOM      1  C   UNL     1      -6.124  35.869  23.653  1.00  0.00     0.000 C 
ENDROOT
BRANCH   1   2
ATOM      2  C   UNL     1      -6.007  36.262  25.134  1.00  0.00     0.000 C 
BRANCH   2   3
ATOM      3  C   UNL     1      -6.038  37.787  25.312  1.00  0.00     0.000 C 
BRANCH   3   4
ATOM      4  C   UNL     1      -4.696  38.453  24.959  1.00  0.00     0.000 C 
BRANCH   4   5
ATOM      5  C   UNL     1      -4.866  39.714  24.094  1.00  0.00     0.000 C 
BRANCH   5   6
ATOM      6  C   UNL     1      -5.672  39.445  22.814  1.00  0.00     0.000 C 
BRANCH   6   7
ATOM      7  C   UNL     1      -5.745  40.671  21.887  1.00  0.00     0.000 C 
BRANCH   7   8
ATOM      8  C   UNL     1      -5.552  40.300  20.407  1.00  0.00     0.000 C 
BRANCH   8   9
ATOM      9  C   UNL     1      -4.846  38.944  20.225  1.00  0.00     0.000 C 
BRANCH   9  10
ATOM     10  C   UNL     1      -3.619  39.035  19.305  1.00  0.00     0.006 C 
BRANCH  10  11
ATOM     11  C   UNL     1      -2.409  38.269  19.856  1.00  0.00     0.053 C 
BRANCH  11  12
ATOM     12  C   UNL     1      -1.179  38.609  19.075  1.00  0.00     0.041 C 
ATOM     13  O   UNL     1      -0.880  39.812  18.855  1.00  0.00    -0.550 OA
ATOM     14  O   UNL     1      -0.403  37.596  18.526  1.00  0.00    -0.550 OA
ENDBRANCH  11  12
ENDBRANCH  10  11
ENDBRANCH   9  10
ENDBRANCH   8   9
ENDBRANCH   7   8
ENDBRANCH   6   7
ENDBRANCH   5   6
ENDBRANCH   4   5
ENDBRANCH   3   4
ENDBRANCH   2   3
ENDBRANCH   1   2
BRANCH   1  15
ATOM     15  C   UNL     1      -4.752  35.818  22.953  1.00  0.00     0.000 C 
BRANCH  15  16
ATOM     16  C   UNL     1      -4.750  36.372  21.512  1.00  0.00     0.000 C 
BRANCH  16  17
ATOM     17  C   UNL     1      -5.874  35.840  20.592  1.00  0.00     0.000 C 
BRANCH  17  18
ATOM     18  C   UNL     1      -5.523  35.812  19.093  1.00  0.00    -0.000 C 
BRANCH  18  19
ATOM     19  C   UNL     1      -4.006  35.724  18.833  1.00  0.00    -0.000 C 
BRANCH  19  20
ATOM     20  C   UNL     1      -3.686  35.409  17.359  1.00  0.00    -0.000 C 
BRANCH  20  21
ATOM     21  C   UNL     1      -3.655  36.667  16.467  1.00  0.00    -0.000 C 
BRANCH  21  22
ATOM     22  C   UNL     1      -2.228  37.035  16.021  1.00  0.00    -0.000 C 
BRANCH  22  23
ATOM     23  C   UNL     1      -2.114  37.207  14.497  1.00  0.00    -0.000 C 
BRANCH  23  24
ATOM     24  C   UNL     1      -3.315  37.958  13.898  1.00  0.00    -0.000 C 
BRANCH  24  25
ATOM     25  C   UNL     1      -3.777  39.126  14.785  1.00  0.00    -0.003 C 
ATOM     26  C   UNL     1      -4.264  40.322  13.971  1.00  0.00     0.004 C 
ENDBRANCH  24  25
ENDBRANCH  23  24
ENDBRANCH  22  23
ENDBRANCH  21  22
ENDBRANCH  20  21
ENDBRANCH  19  20
ENDBRANCH  18  19
ENDBRANCH  17  18
ENDBRANCH  16  17
ENDBRANCH  15  16
ENDBRANCH   1  15
TORSDOF 22
ENDMDL
MODEL 3
REMARK VINA RESULT:    -0.443      2.045      4.062
REMARK INTER + INTRA:          -3.242
REMARK INTER:                  -1.448
REMARK INTRA:                  -1.793
REMARK UNBOUND:                -2.229
REMARK SMILES CCCCCCCCCCCCCCCCCCCCCCCC(=O)[O-]
REMARK SMILES IDX 13 1 14 2 15 3 16 4 17 5 18 6 19 7 20 8 21 9 22 10 23 11
REMARK SMILES IDX 24 12 25 13 26 14 12 15 11 16 10 17 9 18 8 19 7 20 6 21 5 22
REMARK SMILES IDX 4 23 3 24 2 25 1 26
REMARK H PARENT
REMARK Flexibility Score: inf
ROOT
ATOM      1  C   UNL     1      -4.147  36.103  22.110  1.00  0.00     0.000 C 
ENDROOT
BRANCH   1   2
ATOM      2  C   UNL     1      -4.190  35.991  20.578  1.00  0.00     0.000 C 
BRANCH   2   3
ATOM      3  C   UNL     1      -5.581  36.345  20.031  1.00  0.00     0.000 C 
BRANCH   3   4
ATOM      4  C   UNL     1      -5.823  35.782  18.618  1.00  0.00     0.000 C 
BRANCH   4   5
ATOM      5  C   UNL     1      -4.733  34.788  18.179  1.00  0.00     0.000 C 
BRANCH   5   6
ATOM      6  C   UNL     1      -3.524  35.486  17.538  1.00  0.00     0.000 C 
BRANCH   6   7
ATOM      7  C   UNL     1      -3.760  36.989  17.302  1.00  0.00     0.000 C 
BRANCH   7   8
ATOM      8  C   UNL     1      -3.454  37.412  15.856  1.00  0.00     0.000 C 
BRANCH   8   9
ATOM      9  C   UNL     1      -1.963  37.725  15.635  1.00  0.00     0.000 C 
BRANCH   9  10
ATOM     10  C   UNL     1      -1.072  37.184  16.763  1.00  0.00     0.006 C 
BRANCH  10  11
ATOM     11  C   UNL     1      -0.306  38.293  17.496  1.00  0.00     0.053 C 
BRANCH  11  12
ATOM     12  C   UNL     1      -0.767  38.393  18.916  1.00  0.00     0.041 C 
ATOM     13  O   UNL     1      -0.069  37.907  19.845  1.00  0.00    -0.550 OA
ATOM     14  O   UNL     1      -2.003  38.957  19.206  1.00  0.00    -0.550 OA
ENDBRANCH  11  12
ENDBRANCH  10  11
ENDBRANCH   9  10
ENDBRANCH   8   9
ENDBRANCH   7   8
ENDBRANCH   6   7
ENDBRANCH   5   6
ENDBRANCH   4   5
ENDBRANCH   3   4
ENDBRANCH   2   3
ENDBRANCH   1   2
BRANCH   1  15
ATOM     15  C   UNL     1      -4.821  34.902  22.801  1.00  0.00     0.000 C 
BRANCH  15  16
ATOM     16  C   UNL     1      -5.951  35.281  23.782  1.00  0.00     0.000 C 
BRANCH  16  17
ATOM     17  C   UNL     1      -6.116  36.795  24.054  1.00  0.00     0.000 C 
BRANCH  17  18
ATOM     18  C   UNL     1      -6.042  37.197  25.539  1.00  0.00    -0.000 C 
BRANCH  18  19
ATOM     19  C   UNL     1      -5.107  38.396  25.790  1.00  0.00    -0.000 C 
BRANCH  19  20
ATOM     20  C   UNL     1      -3.936  38.438  24.790  1.00  0.00    -0.000 C 
BRANCH  20  21
ATOM     21  C   UNL     1      -4.029  39.617  23.801  1.00  0.00    -0.000 C 
BRANCH  21  22
ATOM     22  C   UNL     1      -5.419  40.281  23.806  1.00  0.00    -0.000 C 
BRANCH  22  23
ATOM     23  C   UNL     1      -6.092  40.247  22.424  1.00  0.00    -0.000 C 
BRANCH  23  24
ATOM     24  C   UNL     1      -5.221  39.557  21.361  1.00  0.00    -0.000 C 
BRANCH  24  25
ATOM     25  C   UNL     1      -5.832  39.649  19.954  1.00  0.00    -0.003 C 
ATOM     26  C   UNL     1      -6.125  41.089  19.536  1.00  0.00     0.004 C 
ENDBRANCH  24  25
ENDBRANCH  23  24
ENDBRANCH  22  23
ENDBRANCH  21  22
ENDBRANCH  20  21
ENDBRANCH  19  20
ENDBRANCH  18  19
ENDBRANCH  17  18
ENDBRANCH  16  17
ENDBRANCH  15  16
ENDBRANCH   1  15
TORSDOF 22
ENDMDL
MODEL 4
REMARK VINA RESULT:    -0.431      0.986      3.739
REMARK INTER + INTRA:          -3.214
REMARK INTER:                  -2.674
REMARK INTRA:                  -0.540
REMARK UNBOUND:                -2.229
REMARK SMILES CCCCCCCCCCCCCCCCCCCCCCCC(=O)[O-]
REMARK SMILES IDX 13 1 14 2 15 3 16 4 17 5 18 6 19 7 20 8 21 9 22 10 23 11
REMARK SMILES IDX 24 12 25 13 26 14 12 15 11 16 10 17 9 18 8 19 7 20 6 21 5 22
REMARK SMILES IDX 4 23 3 24 2 25 1 26
REMARK H PARENT
REMARK Flexibility Score: inf
ROOT
ATOM      1  C   UNL     1      -4.746  40.290  22.625  1.00  0.00     0.000 C 
ENDROOT
BRANCH   1   2
ATOM      2  C   UNL     1      -4.321  38.987  21.928  1.00  0.00     0.000 C 
BRANCH   2   3
ATOM      3  C   UNL     1      -5.346  38.563  20.864  1.00  0.00     0.000 C 
BRANCH   3   4
ATOM      4  C   UNL     1      -5.113  39.256  19.509  1.00  0.00     0.000 C 
BRANCH   4   5
ATOM      5  C   UNL     1      -4.040  38.554  18.659  1.00  0.00     0.000 C 
BRANCH   5   6
ATOM      6  C   UNL     1      -2.792  38.183  19.476  1.00  0.00     0.000 C 
BRANCH   6   7
ATOM      7  C   UNL     1      -1.536  38.952  19.026  1.00  0.00     0.000 C 
BRANCH   7   8
ATOM      8  C   UNL     1      -0.710  38.171  17.991  1.00  0.00     0.000 C 
BRANCH   8   9
ATOM      9  C   UNL     1      -1.484  36.984  17.391  1.00  0.00     0.000 C 
BRANCH   9  10
ATOM     10  C   UNL     1      -1.919  37.234  15.938  1.00  0.00     0.006 C 
BRANCH  10  11
ATOM     11  C   UNL     1      -2.745  38.518  15.781  1.00  0.00     0.053 C 
BRANCH  11  12
ATOM     12  C   UNL     1      -3.557  38.463  14.525  1.00  0.00     0.041 C 
ATOM     13  O   UNL     1      -3.987  39.525  14.001  1.00  0.00    -0.550 OA
ATOM     14  O   UNL     1      -3.902  37.235  13.975  1.00  0.00    -0.550 OA
ENDBRANCH  11  12
ENDBRANCH  10  11
ENDBRANCH   9  10
ENDBRANCH   8   9
ENDBRANCH   7   8
ENDBRANCH   6   7
ENDBRANCH   5   6
ENDBRANCH   4   5
ENDBRANCH   3   4
ENDBRANCH   2   3
ENDBRANCH   1   2
BRANCH   1  15
ATOM     15  C   UNL     1      -4.210  40.381  24.066  1.00  0.00     0.000 C 
BRANCH  15  16
ATOM     16  C   UNL     1      -4.195  39.038  24.828  1.00  0.00     0.000 C 
BRANCH  16  17
ATOM     17  C   UNL     1      -4.825  39.066  26.240  1.00  0.00     0.000 C 
BRANCH  17  18
ATOM     18  C   UNL     1      -6.124  38.251  26.385  1.00  0.00    -0.000 C 
BRANCH  18  19
ATOM     19  C   UNL     1      -5.979  36.799  25.889  1.00  0.00    -0.000 C 
BRANCH  19  20
ATOM     20  C   UNL     1      -5.905  36.715  24.352  1.00  0.00    -0.000 C 
BRANCH  20  21
ATOM     21  C   UNL     1      -5.227  35.424  23.851  1.00  0.00    -0.000 C 
BRANCH  21  22
ATOM     22  C   UNL     1      -5.258  35.303  22.316  1.00  0.00    -0.000 C 
BRANCH  22  23
ATOM     23  C   UNL     1      -3.870  35.014  21.720  1.00  0.00    -0.000 C 
BRANCH  23  24
ATOM     24  C   UNL     1      -3.707  35.589  20.302  1.00  0.00    -0.000 C 
BRANCH  24  25
ATOM     25  C   UNL     1      -4.959  35.375  19.436  1.00  0.00    -0.003 C 
ATOM     26  C   UNL     1      -4.628  35.243  17.952  1.00  0.00     0.004 C 
ENDBRANCH  24  25
ENDBRANCH  23  24
ENDBRANCH  22  23
ENDBRANCH  21  22
ENDBRANCH  20  21
ENDBRANCH  19  20
ENDBRANCH  18  19
ENDBRANCH  17  18
ENDBRANCH  16  17
ENDBRANCH  15  16
ENDBRANCH   1  15
TORSDOF 22
ENDMDL
MODEL 5
REMARK VINA RESULT:    -0.228      2.563      6.494
REMARK INTER + INTRA:          -2.751
REMARK INTER:                  -2.395
REMARK INTRA:                  -0.356
REMARK UNBOUND:                -2.229
REMARK SMILES CCCCCCCCCCCCCCCCCCCCCCCC(=O)[O-]
REMARK SMILES IDX 13 1 14 2 15 3 16 4 17 5 18 6 19 7 20 8 21 9 22 10 23 11
REMARK SMILES IDX 24 12 25 13 26 14 12 15 11 16 10 17 9 18 8 19 7 20 6 21 5 22
REMARK SMILES IDX 4 23 3 24 2 25 1 26
REMARK H PARENT
REMARK Flexibility Score: inf
ROOT
ATOM      1  C   UNL     1      -5.673  36.819  19.941  1.00  0.00     0.000 C 
ENDROOT
BRANCH   1   2
ATOM      2  C   UNL     1      -4.485  35.908  19.594  1.00  0.00     0.000 C 
BRANCH   2   3
ATOM      3  C   UNL     1      -3.828  35.339  20.861  1.00  0.00     0.000 C 
BRANCH   3   4
ATOM      4  C   UNL     1      -4.605  35.695  22.141  1.00  0.00     0.000 C 
BRANCH   4   5
ATOM      5  C   UNL     1      -4.855  34.474  23.045  1.00  0.00     0.000 C 
BRANCH   5   6
ATOM      6  C   UNL     1      -6.124  34.624  23.898  1.00  0.00     0.000 C 
BRANCH   6   7
ATOM      7  C   UNL     1      -5.919  35.548  25.112  1.00  0.00     0.000 C 
BRANCH   7   8
ATOM      8  C   UNL     1      -6.121  37.032  24.761  1.00  0.00     0.000 C 
BRANCH   8   9
ATOM      9  C   UNL     1      -4.809  37.836  24.818  1.00  0.00     0.000 C 
BRANCH   9  10
ATOM     10  C   UNL     1      -4.999  39.236  25.422  1.00  0.00     0.006 C 
BRANCH  10  11
ATOM     11  C   UNL     1      -4.372  40.341  24.561  1.00  0.00     0.053 C 
BRANCH  11  12
ATOM     12  C   UNL     1      -4.672  40.107  23.114  1.00  0.00     0.041 C 
ATOM     13  O   UNL     1      -5.865  40.021  22.720  1.00  0.00    -0.550 OA
ATOM     14  O   UNL     1      -3.633  39.909  22.214  1.00  0.00    -0.550 OA
ENDBRANCH  11  12
ENDBRANCH  10  11
ENDBRANCH   9  10
ENDBRANCH   8   9
ENDBRANCH   7   8
ENDBRANCH   6   7
ENDBRANCH   5   6
ENDBRANCH   4   5
ENDBRANCH   3   4
ENDBRANCH   2   3
ENDBRANCH   1   2
BRANCH   1  15
ATOM     15  C   UNL     1      -5.351  38.308  19.714  1.00  0.00     0.000 C 
BRANCH  15  16
ATOM     16  C   UNL     1      -3.990  38.570  19.033  1.00  0.00     0.000 C 
BRANCH  16  17
ATOM     17  C   UNL     1      -2.781  38.701  19.989  1.00  0.00     0.000 C 
BRANCH  17  18
ATOM     18  C   UNL     1      -1.603  37.760  19.675  1.00  0.00    -0.000 C 
BRANCH  18  19
ATOM     19  C   UNL     1      -0.432  38.479  18.976  1.00  0.00    -0.000 C 
BRANCH  19  20
ATOM     20  C   UNL     1      -0.511  38.362  17.442  1.00  0.00    -0.000 C 
BRANCH  20  21
ATOM     21  C   UNL     1      -1.832  37.734  16.952  1.00  0.00    -0.000 C 
BRANCH  21  22
ATOM     22  C   UNL     1      -1.601  36.586  15.952  1.00  0.00    -0.000 C 
BRANCH  22  23
ATOM     23  C   UNL     1      -1.994  36.969  14.515  1.00  0.00    -0.000 C 
BRANCH  23  24
ATOM     24  C   UNL     1      -3.388  37.614  14.438  1.00  0.00    -0.000 C 
BRANCH  24  25
ATOM     25  C   UNL     1      -3.341  39.044  13.876  1.00  0.00    -0.003 C 
ATOM     26  C   UNL     1      -4.584  39.855  14.235  1.00  0.00     0.004 C 
ENDBRANCH  24  25
ENDBRANCH  23  24
ENDBRANCH  22  23
ENDBRANCH  21  22
ENDBRANCH  20  21
ENDBRANCH  19  20
ENDBRANCH  18  19
ENDBRANCH  17  18
ENDBRANCH  16  17
ENDBRANCH  15  16
ENDBRANCH   1  15
TORSDOF 22
ENDMDL
MODEL 6
REMARK VINA RESULT:     0.136      2.052      5.939
REMARK INTER + INTRA:          -1.918
REMARK INTER:                  -2.267
REMARK INTRA:                   0.348
REMARK UNBOUND:                -2.229
REMARK SMILES CCCCCCCCCCCCCCCCCCCCCCCC(=O)[O-]
REMARK SMILES IDX 13 1 14 2 15 3 16 4 17 5 18 6 19 7 20 8 21 9 22 10 23 11
REMARK SMILES IDX 24 12 25 13 26 14 12 15 11 16 10 17 9 18 8 19 7 20 6 21 5 22
REMARK SMILES IDX 4 23 3 24 2 25 1 26
REMARK H PARENT
REMARK Flexibility Score: inf
ROOT
ATOM      1  C   UNL     1      -4.783  36.469  22.283  1.00  0.00     0.000 C 
ENDROOT
BRANCH   1   2
ATOM      2  C   UNL     1      -6.115  35.840  22.726  1.00  0.00     0.000 C 
BRANCH   2   3
ATOM      3  C   UNL     1      -5.946  35.029  24.020  1.00  0.00     0.000 C 
BRANCH   3   4
ATOM      4  C   UNL     1      -6.125  35.889  25.285  1.00  0.00     0.000 C 
BRANCH   4   5
ATOM      5  C   UNL     1      -5.041  36.971  25.427  1.00  0.00     0.000 C 
BRANCH   5   6
ATOM      6  C   UNL     1      -5.560  38.234  26.131  1.00  0.00     0.000 C 
BRANCH   6   7
ATOM      7  C   UNL     1      -4.891  39.521  25.616  1.00  0.00     0.000 C 
BRANCH   7   8
ATOM      8  C   UNL     1      -4.557  39.450  24.117  1.00  0.00     0.000 C 
BRANCH   8   9
ATOM      9  C   UNL     1      -5.793  39.664  23.226  1.00  0.00     0.000 C 
BRANCH   9  10
ATOM     10  C   UNL     1      -5.429  40.142  21.812  1.00  0.00     0.006 C 
BRANCH  10  11
ATOM     11  C   UNL     1      -3.997  39.763  21.410  1.00  0.00     0.053 C 
BRANCH  11  12
ATOM     12  C   UNL     1      -4.015  38.815  20.252  1.00  0.00     0.041 C 
ATOM     13  O   UNL     1      -2.965  38.209  19.912  1.00  0.00    -0.550 OA
ATOM     14  O   UNL     1      -5.174  38.658  19.502  1.00  0.00    -0.550 OA
ENDBRANCH  11  12
ENDBRANCH  10  11
ENDBRANCH   9  10
ENDBRANCH   8   9
ENDBRANCH   7   8
ENDBRANCH   6   7
ENDBRANCH   5   6
ENDBRANCH   4   5
ENDBRANCH   3   4
ENDBRANCH   2   3
ENDBRANCH   1   2
BRANCH   1  15
ATOM     15  C   UNL     1      -3.741  35.406  21.887  1.00  0.00     0.000 C 
BRANCH  15  16
ATOM     16  C   UNL     1      -3.880  34.884  20.440  1.00  0.00     0.000 C 
BRANCH  16  17
ATOM     17  C   UNL     1      -5.263  35.105  19.783  1.00  0.00     0.000 C 
BRANCH  17  18
ATOM     18  C   UNL     1      -5.215  35.675  18.353  1.00  0.00    -0.000 C 
BRANCH  18  19
ATOM     19  C   UNL     1      -3.815  35.576  17.714  1.00  0.00    -0.000 C 
BRANCH  19  20
ATOM     20  C   UNL     1      -3.548  36.723  16.720  1.00  0.00    -0.000 C 
BRANCH  20  21
ATOM     21  C   UNL     1      -2.269  37.519  17.047  1.00  0.00    -0.000 C 
BRANCH  21  22
ATOM     22  C   UNL     1      -1.223  37.439  15.919  1.00  0.00    -0.000 C 
BRANCH  22  23
ATOM     23  C   UNL     1      -1.866  37.391  14.523  1.00  0.00    -0.000 C 
BRANCH  23  24
ATOM     24  C   UNL     1      -3.403  37.443  14.580  1.00  0.00    -0.000 C 
BRANCH  24  25
ATOM     25  C   UNL     1      -3.973  38.686  13.878  1.00  0.00    -0.003 C 
ATOM     26  C   UNL     1      -3.914  39.933  14.757  1.00  0.00     0.004 C 
ENDBRANCH  24  25
ENDBRANCH  23  24
ENDBRANCH  22  23
ENDBRANCH  21  22
ENDBRANCH  20  21
ENDBRANCH  19  20
ENDBRANCH  18  19
ENDBRANCH  17  18
ENDBRANCH  16  17
ENDBRANCH  15  16
ENDBRANCH   1  15
TORSDOF 22
ENDMDL
MODEL 7
REMARK VINA RESULT:     0.179      4.016      7.510
REMARK INTER + INTRA:          -1.820
REMARK INTER:                  -1.815
REMARK INTRA:                  -0.005
REMARK UNBOUND:                -2.229
REMARK SMILES CCCCCCCCCCCCCCCCCCCCCCCC(=O)[O-]
REMARK SMILES IDX 13 1 14 2 15 3 16 4 17 5 18 6 19 7 20 8 21 9 22 10 23 11
REMARK SMILES IDX 24 12 25 13 26 14 12 15 11 16 10 17 9 18 8 19 7 20 6 21 5 22
REMARK SMILES IDX 4 23 3 24 2 25 1 26
REMARK H PARENT
REMARK Flexibility Score: inf
ROOT
ATOM      1  C   UNL     1      -5.315  36.493  22.175  1.00  0.00     0.000 C 
ENDROOT
BRANCH   1   2
ATOM      2  C   UNL     1      -5.834  37.202  20.913  1.00  0.00     0.000 C 
BRANCH   2   3
ATOM      3  C   UNL     1      -4.978  38.431  20.571  1.00  0.00     0.000 C 
BRANCH   3   4
ATOM      4  C   UNL     1      -5.796  39.734  20.549  1.00  0.00     0.000 C 
BRANCH   4   5
ATOM      5  C   UNL     1      -5.626  40.566  21.833  1.00  0.00     0.000 C 
BRANCH   5   6
ATOM      6  C   UNL     1      -4.392  40.145  22.646  1.00  0.00     0.000 C 
BRANCH   6   7
ATOM      7  C   UNL     1      -4.722  39.859  24.123  1.00  0.00     0.000 C 
BRANCH   7   8
ATOM      8  C   UNL     1      -5.965  38.968  24.285  1.00  0.00     0.000 C 
BRANCH   8   9
ATOM      9  C   UNL     1      -5.797  37.918  25.398  1.00  0.00     0.000 C 
BRANCH   9  10
ATOM     10  C   UNL     1      -4.324  37.591  25.687  1.00  0.00     0.006 C 
BRANCH  10  11
ATOM     11  C   UNL     1      -3.643  38.649  26.565  1.00  0.00     0.053 C 
BRANCH  11  12
ATOM     12  C   UNL     1      -2.372  38.108  27.139  1.00  0.00     0.041 C 
ATOM     13  O   UNL     1      -2.313  36.914  27.538  1.00  0.00    -0.550 OA
ATOM     14  O   UNL     1      -1.274  38.943  27.302  1.00  0.00    -0.550 OA
ENDBRANCH  11  12
ENDBRANCH  10  11
ENDBRANCH   9  10
ENDBRANCH   8   9
ENDBRANCH   7   8
ENDBRANCH   6   7
ENDBRANCH   5   6
ENDBRANCH   4   5
ENDBRANCH   3   4
ENDBRANCH   2   3
ENDBRANCH   1   2
BRANCH   1  15
ATOM     15  C   UNL     1      -3.960  35.799  21.938  1.00  0.00     0.000 C 
BRANCH  15  16
ATOM     16  C   UNL     1      -3.463  35.852  20.477  1.00  0.00     0.000 C 
BRANCH  16  17
ATOM     17  C   UNL     1      -4.034  34.761  19.540  1.00  0.00     0.000 C 
BRANCH  17  18
ATOM     18  C   UNL     1      -4.686  35.294  18.250  1.00  0.00    -0.000 C 
BRANCH  18  19
ATOM     19  C   UNL     1      -3.718  36.133  17.392  1.00  0.00    -0.000 C 
BRANCH  19  20
ATOM     20  C   UNL     1      -3.328  37.454  18.082  1.00  0.00    -0.000 C 
BRANCH  20  21
ATOM     21  C   UNL     1      -1.833  37.798  17.926  1.00  0.00    -0.000 C 
BRANCH  21  22
ATOM     22  C   UNL     1      -1.471  38.208  16.487  1.00  0.00    -0.000 C 
BRANCH  22  23
ATOM     23  C   UNL     1      -1.583  37.038  15.495  1.00  0.00    -0.000 C 
BRANCH  23  24
ATOM     24  C   UNL     1      -2.179  37.467  14.143  1.00  0.00    -0.000 C 
BRANCH  24  25
ATOM     25  C   UNL     1      -3.659  37.868  14.258  1.00  0.00    -0.003 C 
ATOM     26  C   UNL     1      -3.864  39.379  14.167  1.00  0.00     0.004 C 
ENDBRANCH  24  25
ENDBRANCH  23  24
ENDBRANCH  22  23
ENDBRANCH  21  22
ENDBRANCH  20  21
ENDBRANCH  19  20
ENDBRANCH  18  19
ENDBRANCH  17  18
ENDBRANCH  16  17
ENDBRANCH  15  16
ENDBRANCH   1  15
TORSDOF 22
ENDMDL
MODEL 8
REMARK VINA RESULT:     0.203      3.522      7.894
REMARK INTER + INTRA:          -1.764
REMARK INTER:                  -0.383
REMARK INTRA:                  -1.381
REMARK UNBOUND:                -2.229
REMARK SMILES CCCCCCCCCCCCCCCCCCCCCCCC(=O)[O-]
REMARK SMILES IDX 13 1 14 2 15 3 16 4 17 5 18 6 19 7 20 8 21 9 22 10 23 11
REMARK SMILES IDX 24 12 25 13 26 14 12 15 11 16 10 17 9 18 8 19 7 20 6 21 5 22
REMARK SMILES IDX 4 23 3 24 2 25 1 26
REMARK H PARENT
REMARK Flexibility Score: inf
ROOT
ATOM      1  C   UNL     1      -0.372  38.174  16.703  1.00  0.00     0.000 C 
ENDROOT
BRANCH   1   2
ATOM      2  C   UNL     1      -0.964  38.948  17.892  1.00  0.00     0.000 C 
BRANCH   2   3
ATOM      3  C   UNL     1      -0.566  38.306  19.230  1.00  0.00     0.000 C 
BRANCH   3   4
ATOM      4  C   UNL     1      -1.785  37.851  20.053  1.00  0.00     0.000 C 
BRANCH   4   5
ATOM      5  C   UNL     1      -3.112  38.409  19.510  1.00  0.00     0.000 C 
BRANCH   5   6
ATOM      6  C   UNL     1      -3.917  39.159  20.582  1.00  0.00     0.000 C 
BRANCH   6   7
ATOM      7  C   UNL     1      -5.382  39.392  20.173  1.00  0.00     0.000 C 
BRANCH   7   8
ATOM      8  C   UNL     1      -6.108  40.365  21.117  1.00  0.00     0.000 C 
BRANCH   8   9
ATOM      9  C   UNL     1      -5.348  40.582  22.439  1.00  0.00     0.000 C 
BRANCH   9  10
ATOM     10  C   UNL     1      -5.460  39.380  23.390  1.00  0.00     0.006 C 
BRANCH  10  11
ATOM     11  C   UNL     1      -4.578  39.529  24.637  1.00  0.00     0.053 C 
BRANCH  11  12
ATOM     12  C   UNL     1      -4.903  38.461  25.634  1.00  0.00     0.041 C 
ATOM     13  O   UNL     1      -6.056  38.393  26.137  1.00  0.00    -0.550 OA
ATOM     14  O   UNL     1      -3.912  37.588  26.063  1.00  0.00    -0.550 OA
ENDBRANCH  11  12
ENDBRANCH  10  11
ENDBRANCH   9  10
ENDBRANCH   8   9
ENDBRANCH   7   8
ENDBRANCH   6   7
ENDBRANCH   5   6
ENDBRANCH   4   5
ENDBRANCH   3   4
ENDBRANCH   2   3
ENDBRANCH   1   2
BRANCH   1  15
ATOM     15  C   UNL     1      -1.065  36.814  16.491  1.00  0.00     0.000 C 
BRANCH  15  16
ATOM     16  C   UNL     1      -2.014  36.764  15.274  1.00  0.00     0.000 C 
BRANCH  16  17
ATOM     17  C   UNL     1      -3.448  37.286  15.528  1.00  0.00     0.000 C 
BRANCH  17  18
ATOM     18  C   UNL     1      -3.929  37.173  16.986  1.00  0.00    -0.000 C 
BRANCH  18  19
ATOM     19  C   UNL     1      -3.440  35.887  17.681  1.00  0.00    -0.000 C 
BRANCH  19  20
ATOM     20  C   UNL     1      -4.602  34.935  18.025  1.00  0.00    -0.000 C 
BRANCH  20  21
ATOM     21  C   UNL     1      -5.899  35.678  18.402  1.00  0.00    -0.000 C 
BRANCH  21  22
ATOM     22  C   UNL     1      -5.918  36.113  19.879  1.00  0.00    -0.000 C 
BRANCH  22  23
ATOM     23  C   UNL     1      -4.744  35.527  20.681  1.00  0.00    -0.000 C 
BRANCH  23  24
ATOM     24  C   UNL     1      -4.729  36.011  22.141  1.00  0.00    -0.000 C 
BRANCH  24  25
ATOM     25  C   UNL     1      -6.125  35.970  22.786  1.00  0.00    -0.003 C 
ATOM     26  C   UNL     1      -6.077  35.574  24.260  1.00  0.00     0.004 C 
ENDBRANCH  24  25
ENDBRANCH  23  24
ENDBRANCH  22  23
ENDBRANCH  21  22
ENDBRANCH  20  21
ENDBRANCH  19  20
ENDBRANCH  18  19
ENDBRANCH  17  18
ENDBRANCH  16  17
ENDBRANCH  15  16
ENDBRANCH   1  15
TORSDOF 22
ENDMDL
MODEL 9
REMARK VINA RESULT:     0.221      2.089      4.803
REMARK INTER + INTRA:          -1.724
REMARK INTER:                  -0.779
REMARK INTRA:                  -0.945
REMARK UNBOUND:                -2.229
REMARK SMILES CCCCCCCCCCCCCCCCCCCCCCCC(=O)[O-]
REMARK SMILES IDX 13 1 14 2 15 3 16 4 17 5 18 6 19 7 20 8 21 9 22 10 23 11
REMARK SMILES IDX 24 12 25 13 26 14 12 15 11 16 10 17 9 18 8 19 7 20 6 21 5 22
REMARK SMILES IDX 4 23 3 24 2 25 1 26
REMARK H PARENT
REMARK Flexibility Score: inf
ROOT
ATOM      1  C   UNL     1      -5.228  37.012  21.299  1.00  0.00     0.000 C 
ENDROOT
BRANCH   1   2
ATOM      2  C   UNL     1      -6.075  36.059  20.439  1.00  0.00     0.000 C 
BRANCH   2   3
ATOM      3  C   UNL     1      -5.747  36.214  18.946  1.00  0.00     0.000 C 
BRANCH   3   4
ATOM      4  C   UNL     1      -5.025  34.984  18.367  1.00  0.00     0.000 C 
BRANCH   4   5
ATOM      5  C   UNL     1      -3.609  35.310  17.860  1.00  0.00     0.000 C 
BRANCH   5   6
ATOM      6  C   UNL     1      -3.469  36.771  17.406  1.00  0.00     0.000 C 
BRANCH   6   7
ATOM      7  C   UNL     1      -3.999  37.005  15.980  1.00  0.00     0.000 C 
BRANCH   7   8
ATOM      8  C   UNL     1      -2.889  37.425  15.002  1.00  0.00     0.000 C 
BRANCH   8   9
ATOM      9  C   UNL     1      -1.479  37.175  15.567  1.00  0.00     0.000 C 
BRANCH   9  10
ATOM     10  C   UNL     1      -1.082  38.196  16.644  1.00  0.00     0.006 C 
BRANCH  10  11
ATOM     11  C   UNL     1      -0.387  37.547  17.848  1.00  0.00     0.053 C 
BRANCH  11  12
ATOM     12  C   UNL     1      -0.612  38.365  19.081  1.00  0.00     0.041 C 
ATOM     13  O   UNL     1       0.139  38.221  20.083  1.00  0.00    -0.550 OA
ATOM     14  O   UNL     1      -1.695  39.231  19.151  1.00  0.00    -0.550 OA
ENDBRANCH  11  12
ENDBRANCH  10  11
ENDBRANCH   9  10
ENDBRANCH   8   9
ENDBRANCH   7   8
ENDBRANCH   6   7
ENDBRANCH   5   6
ENDBRANCH   4   5
ENDBRANCH   3   4
ENDBRANCH   2   3
ENDBRANCH   1   2
BRANCH   1  15
ATOM     15  C   UNL     1      -4.653  38.181  20.478  1.00  0.00     0.000 C 
BRANCH  15  16
ATOM     16  C   UNL     1      -5.448  39.499  20.602  1.00  0.00     0.000 C 
BRANCH  16  17
ATOM     17  C   UNL     1      -5.419  40.165  21.998  1.00  0.00     0.000 C 
BRANCH  17  18
ATOM     18  C   UNL     1      -4.009  40.401  22.573  1.00  0.00    -0.000 C 
BRANCH  18  19
ATOM     19  C   UNL     1      -3.793  39.706  23.932  1.00  0.00    -0.000 C 
BRANCH  19  20
ATOM     20  C   UNL     1      -5.016  39.846  24.857  1.00  0.00    -0.000 C 
BRANCH  20  21
ATOM     21  C   UNL     1      -5.182  38.656  25.823  1.00  0.00    -0.000 C 
BRANCH  21  22
ATOM     22  C   UNL     1      -4.859  37.307  25.154  1.00  0.00    -0.000 C 
BRANCH  22  23
ATOM     23  C   UNL     1      -6.122  36.560  24.695  1.00  0.00    -0.000 C 
BRANCH  23  24
ATOM     24  C   UNL     1      -5.940  35.032  24.709  1.00  0.00    -0.000 C 
BRANCH  24  25
ATOM     25  C   UNL     1      -5.615  34.469  23.316  1.00  0.00    -0.003 C 
ATOM     26  C   UNL     1      -4.144  34.639  22.944  1.00  0.00     0.004 C 
ENDBRANCH  24  25
ENDBRANCH  23  24
ENDBRANCH  22  23
ENDBRANCH  21  22
ENDBRANCH  20  21
ENDBRANCH  19  20
ENDBRANCH  18  19
ENDBRANCH  17  18
ENDBRANCH  16  17
ENDBRANCH  15  16
ENDBRANCH   1  15
TORSDOF 22
ENDMDL
