MODEL 1
REMARK VINA RESULT:    -4.449      0.000      0.000
REMARK INTER + INTRA:         -10.911
REMARK INTER:                  -8.350
REMARK INTRA:                  -2.561
REMARK UNBOUND:                -2.561
REMARK SMILES CCCCCCCCC=CCCCCCCCC(=O)[O-]
REMARK SMILES IDX 10 1 9 2 11 3 12 4 13 5 14 6 15 7 16 8 17 9 18 10 19 11
REMARK SMILES IDX 20 12 8 13 7 14 6 15 5 16 4 17 3 18 2 19 1 20
REMARK H PARENT
REMARK Flexibility Score: inf
ROOT
ATOM      1  C   UNL     1     -32.247  91.447   6.460  1.00  0.00    -0.031 C 
ATOM      2  C   UNL     1     -31.119  91.377   5.739  1.00  0.00    -0.031 C 
ENDROOT
BRANCH   1   3
ATOM      3  C   UNL     1     -33.554  91.866   5.843  1.00  0.00     0.027 C 
BRANCH   3   4
ATOM      4  C   UNL     1     -33.878  93.333   6.158  1.00  0.00     0.004 C 
BRANCH   4   5
ATOM      5  C   UNL     1     -35.019  93.468   7.181  1.00  0.00     0.000 C 
BRANCH   5   6
ATOM      6  C   UNL     1     -34.905  94.741   8.038  1.00  0.00     0.000 C 
BRANCH   6   7
ATOM      7  C   UNL     1     -34.052  95.870   7.425  1.00  0.00     0.000 C 
BRANCH   7   8
ATOM      8  C   UNL     1     -34.288  97.270   8.028  1.00  0.00     0.006 C 
BRANCH   8   9
ATOM      9  C   UNL     1     -33.010  98.101   8.219  1.00  0.00     0.053 C 
BRANCH   9  10
ATOM     10  C   UNL     1     -32.226  98.223   6.949  1.00  0.00     0.041 C 
ATOM     11  O   UNL     1     -31.027  97.843   6.904  1.00  0.00    -0.550 OA
ATOM     12  O   UNL     1     -32.810  98.789   5.822  1.00  0.00    -0.550 OA
ENDBRANCH   9  10
ENDBRANCH   8   9
ENDBRANCH   7   8
ENDBRANCH   6   7
ENDBRANCH   5   6
ENDBRANCH   4   5
ENDBRANCH   3   4
ENDBRANCH   1   3
BRANCH   2  13
ATOM     13  C   UNL     1     -29.828  90.903   6.347  1.00  0.00     0.027 C 
BRANCH  13  14
ATOM     14  C   UNL     1     -29.975  90.703   7.863  1.00  0.00     0.004 C 
BRANCH  14  15
ATOM     15  C   UNL     1     -28.639  90.855   8.610  1.00  0.00     0.000 C 
BRANCH  15  16
ATOM     16  C   UNL     1     -27.886  92.137   8.215  1.00  0.00     0.000 C 
BRANCH  16  17
ATOM     17  C   UNL     1     -28.488  93.400   8.853  1.00  0.00    -0.000 C 
BRANCH  17  18
ATOM     18  C   UNL     1     -29.060  94.425   7.853  1.00  0.00    -0.000 C 
BRANCH  18  19
ATOM     19  C   UNL     1     -30.596  94.453   7.758  1.00  0.00    -0.003 C 
ATOM     20  C   UNL     1     -31.281  94.080   9.073  1.00  0.00     0.004 C 
ENDBRANCH  18  19
ENDBRANCH  17  18
ENDBRANCH  16  17
ENDBRANCH  15  16
ENDBRANCH  14  15
ENDBRANCH  13  14
ENDBRANCH   2  13
TORSDOF 15
ENDMDL
MODEL 2
REMARK VINA RESULT:    -4.403      1.189      1.665
REMARK INTER + INTRA:         -10.825
REMARK INTER:                  -8.062
REMARK INTRA:                  -2.763
REMARK UNBOUND:                -2.561
REMARK SMILES CCCCCCCCC=CCCCCCCCC(=O)[O-]
REMARK SMILES IDX 10 1 9 2 11 3 12 4 13 5 14 6 15 7 16 8 17 9 18 10 19 11
REMARK SMILES IDX 20 12 8 13 7 14 6 15 5 16 4 17 3 18 2 19 1 20
REMARK H PARENT
REMARK Flexibility Score: inf
ROOT
ATOM      1  C   UNL     1     -31.264  91.735   6.100  1.00  0.00    -0.031 C 
ATOM      2  C   UNL     1     -30.922  90.661   6.827  1.00  0.00    -0.031 C 
ENDROOT
BRANCH   1   3
ATOM      3  C   UNL     1     -32.696  92.181   5.974  1.00  0.00     0.027 C 
BRANCH   3   4
ATOM      4  C   UNL     1     -33.652  91.199   6.665  1.00  0.00     0.004 C 
BRANCH   4   5
ATOM      5  C   UNL     1     -34.833  91.918   7.340  1.00  0.00     0.000 C 
BRANCH   5   6
ATOM      6  C   UNL     1     -35.054  93.342   6.799  1.00  0.00     0.000 C 
BRANCH   6   7
ATOM      7  C   UNL     1     -34.855  94.472   7.828  1.00  0.00     0.000 C 
BRANCH   7   8
ATOM      8  C   UNL     1     -34.153  95.735   7.288  1.00  0.00     0.006 C 
BRANCH   8   9
ATOM      9  C   UNL     1     -34.392  97.001   8.125  1.00  0.00     0.053 C 
BRANCH   9  10
ATOM     10  C   UNL     1     -33.114  97.720   8.429  1.00  0.00     0.041 C 
ATOM     11  O   UNL     1     -32.022  97.294   7.969  1.00  0.00    -0.550 OA
ATOM     12  O   UNL     1     -33.124  98.841   9.250  1.00  0.00    -0.550 OA
ENDBRANCH   9  10
ENDBRANCH   8   9
ENDBRANCH   7   8
ENDBRANCH   6   7
ENDBRANCH   5   6
ENDBRANCH   4   5
ENDBRANCH   3   4
ENDBRANCH   1   3
BRANCH   2  13
ATOM     13  C   UNL     1     -29.486  90.251   6.995  1.00  0.00     0.027 C 
BRANCH  13  14
ATOM     14  C   UNL     1     -28.984  90.576   8.411  1.00  0.00     0.004 C 
BRANCH  14  15
ATOM     15  C   UNL     1     -27.686  91.400   8.401  1.00  0.00     0.000 C 
BRANCH  15  16
ATOM     16  C   UNL     1     -27.947  92.912   8.502  1.00  0.00     0.000 C 
BRANCH  16  17
ATOM     17  C   UNL     1     -29.142  93.250   9.410  1.00  0.00    -0.000 C 
BRANCH  17  18
ATOM     18  C   UNL     1     -30.237  94.114   8.749  1.00  0.00    -0.000 C 
BRANCH  18  19
ATOM     19  C   UNL     1     -31.651  93.922   9.325  1.00  0.00    -0.003 C 
ATOM     20  C   UNL     1     -31.907  92.497   9.815  1.00  0.00     0.004 C 
ENDBRANCH  18  19
ENDBRANCH  17  18
ENDBRANCH  16  17
ENDBRANCH  15  16
ENDBRANCH  14  15
ENDBRANCH  13  14
ENDBRANCH   2  13
TORSDOF 15
ENDMDL
MODEL 3
REMARK VINA RESULT:    -4.400      2.498      5.333
REMARK INTER + INTRA:         -10.818
REMARK INTER:                  -7.906
REMARK INTRA:                  -2.913
REMARK UNBOUND:                -2.561
REMARK SMILES CCCCCCCCC=CCCCCCCCC(=O)[O-]
REMARK SMILES IDX 10 1 9 2 11 3 12 4 13 5 14 6 15 7 16 8 17 9 18 10 19 11
REMARK SMILES IDX 20 12 8 13 7 14 6 15 5 16 4 17 3 18 2 19 1 20
REMARK H PARENT
REMARK Flexibility Score: inf
ROOT
ATOM      1  C   UNL     1     -35.360  92.560   7.637  1.00  0.00    -0.031 C 
ATOM      2  C   UNL     1     -34.416  92.821   8.553  1.00  0.00    -0.031 C 
ENDROOT
BRANCH   1   3
ATOM      3  C   UNL     1     -35.015  92.327   6.191  1.00  0.00     0.027 C 
BRANCH   3   4
ATOM      4  C   UNL     1     -33.726  93.061   5.797  1.00  0.00     0.004 C 
BRANCH   4   5
ATOM      5  C   UNL     1     -32.627  92.090   5.330  1.00  0.00     0.000 C 
BRANCH   5   6
ATOM      6  C   UNL     1     -31.872  91.436   6.500  1.00  0.00     0.000 C 
BRANCH   6   7
ATOM      7  C   UNL     1     -30.334  91.502   6.406  1.00  0.00     0.000 C 
BRANCH   7   8
ATOM      8  C   UNL     1     -29.578  90.548   7.353  1.00  0.00     0.006 C 
BRANCH   8   9
ATOM      9  C   UNL     1     -28.193  91.051   7.787  1.00  0.00     0.053 C 
BRANCH   9  10
ATOM     10  C   UNL     1     -28.288  92.141   8.809  1.00  0.00     0.041 C 
ATOM     11  O   UNL     1     -27.811  93.281   8.567  1.00  0.00    -0.550 OA
ATOM     12  O   UNL     1     -28.874  91.889  10.043  1.00  0.00    -0.550 OA
ENDBRANCH   9  10
ENDBRANCH   8   9
ENDBRANCH   7   8
ENDBRANCH   6   7
ENDBRANCH   5   6
ENDBRANCH   4   5
ENDBRANCH   3   4
ENDBRANCH   1   3
BRANCH   2  13
ATOM     13  C   UNL     1     -34.759  92.997  10.006  1.00  0.00     0.027 C 
BRANCH  13  14
ATOM     14  C   UNL     1     -33.487  93.111  10.861  1.00  0.00     0.004 C 
BRANCH  14  15
ATOM     15  C   UNL     1     -32.203  92.965  10.029  1.00  0.00     0.000 C 
BRANCH  15  16
ATOM     16  C   UNL     1     -31.490  94.310   9.805  1.00  0.00     0.000 C 
BRANCH  16  17
ATOM     17  C   UNL     1     -31.152  94.564   8.327  1.00  0.00    -0.000 C 
BRANCH  17  18
ATOM     18  C   UNL     1     -31.897  95.752   7.683  1.00  0.00    -0.000 C 
BRANCH  18  19
ATOM     19  C   UNL     1     -33.063  96.315   8.514  1.00  0.00    -0.003 C 
ATOM     20  C   UNL     1     -34.394  96.296   7.763  1.00  0.00     0.004 C 
ENDBRANCH  18  19
ENDBRANCH  17  18
ENDBRANCH  16  17
ENDBRANCH  15  16
ENDBRANCH  14  15
ENDBRANCH  13  14
ENDBRANCH   2  13
TORSDOF 15
ENDMDL
MODEL 4
REMARK VINA RESULT:    -4.385      1.368      2.823
REMARK INTER + INTRA:         -10.790
REMARK INTER:                  -8.018
REMARK INTRA:                  -2.772
REMARK UNBOUND:                -2.561
REMARK SMILES CCCCCCCCC=CCCCCCCCC(=O)[O-]
REMARK SMILES IDX 10 1 9 2 11 3 12 4 13 5 14 6 15 7 16 8 17 9 18 10 19 11
REMARK SMILES IDX 20 12 8 13 7 14 6 15 5 16 4 17 3 18 2 19 1 20
REMARK H PARENT
REMARK Flexibility Score: inf
ROOT
ATOM      1  C   UNL     1     -31.928  92.239   7.383  1.00  0.00    -0.031 C 
ATOM      2  C   UNL     1     -32.140  92.100   8.700  1.00  0.00    -0.031 C 
ENDROOT
BRANCH   1   3
ATOM      3  C   UNL     1     -32.611  91.354   6.375  1.00  0.00     0.027 C 
BRANCH   3   4
ATOM      4  C   UNL     1     -34.065  91.785   6.143  1.00  0.00     0.004 C 
BRANCH   4   5
ATOM      5  C   UNL     1     -34.219  93.316   6.119  1.00  0.00     0.000 C 
BRANCH   5   6
ATOM      6  C   UNL     1     -35.177  93.837   7.204  1.00  0.00     0.000 C 
BRANCH   6   7
ATOM      7  C   UNL     1     -34.667  95.056   7.999  1.00  0.00     0.000 C 
BRANCH   7   8
ATOM      8  C   UNL     1     -33.383  95.708   7.446  1.00  0.00     0.006 C 
BRANCH   8   9
ATOM      9  C   UNL     1     -32.587  96.519   8.480  1.00  0.00     0.053 C 
BRANCH   9  10
ATOM     10  C   UNL     1     -33.053  97.940   8.555  1.00  0.00     0.041 C 
ATOM     11  O   UNL     1     -33.793  98.414   7.654  1.00  0.00    -0.550 OA
ATOM     12  O   UNL     1     -32.641  98.754   9.604  1.00  0.00    -0.550 OA
ENDBRANCH   9  10
ENDBRANCH   8   9
ENDBRANCH   7   8
ENDBRANCH   6   7
ENDBRANCH   5   6
ENDBRANCH   4   5
ENDBRANCH   3   4
ENDBRANCH   1   3
BRANCH   2  13
ATOM     13  C   UNL     1     -31.500  93.023   9.699  1.00  0.00     0.027 C 
BRANCH  13  14
ATOM     14  C   UNL     1     -30.265  93.713   9.098  1.00  0.00     0.004 C 
BRANCH  14  15
ATOM     15  C   UNL     1     -28.947  93.151   9.655  1.00  0.00     0.000 C 
BRANCH  15  16
ATOM     16  C   UNL     1     -27.936  92.812   8.546  1.00  0.00     0.000 C 
BRANCH  16  17
ATOM     17  C   UNL     1     -27.729  91.298   8.373  1.00  0.00    -0.000 C 
BRANCH  17  18
ATOM     18  C   UNL     1     -28.685  90.621   7.369  1.00  0.00    -0.000 C 
BRANCH  18  19
ATOM     19  C   UNL     1     -29.588  89.528   7.967  1.00  0.00    -0.003 C 
ATOM     20  C   UNL     1     -29.512  89.461   9.492  1.00  0.00     0.004 C 
ENDBRANCH  18  19
ENDBRANCH  17  18
ENDBRANCH  16  17
ENDBRANCH  15  16
ENDBRANCH  14  15
ENDBRANCH  13  14
ENDBRANCH   2  13
TORSDOF 15
ENDMDL
MODEL 5
REMARK VINA RESULT:    -4.348      2.736      5.886
REMARK INTER + INTRA:         -10.722
REMARK INTER:                  -9.286
REMARK INTRA:                  -1.436
REMARK UNBOUND:                -2.561
REMARK SMILES CCCCCCCCC=CCCCCCCCC(=O)[O-]
REMARK SMILES IDX 10 1 9 2 11 3 12 4 13 5 14 6 15 7 16 8 17 9 18 10 19 11
REMARK SMILES IDX 20 12 8 13 7 14 6 15 5 16 4 17 3 18 2 19 1 20
REMARK H PARENT
REMARK Flexibility Score: inf
ROOT
ATOM      1  C   UNL     1     -33.152  97.097   6.984  1.00  0.00    -0.031 C 
ATOM      2  C   UNL     1     -34.295  96.932   7.665  1.00  0.00    -0.031 C 
ENDROOT
BRANCH   1   3
ATOM      3  C   UNL     1     -32.634  98.465   6.630  1.00  0.00     0.027 C 
BRANCH   3   4
ATOM      4  C   UNL     1     -31.641  98.978   7.682  1.00  0.00     0.004 C 
BRANCH   4   5
ATOM      5  C   UNL     1     -32.293  99.976   8.655  1.00  0.00     0.000 C 
BRANCH   5   6
ATOM      6  C   UNL     1     -32.031  99.629  10.131  1.00  0.00     0.000 C 
BRANCH   6   7
ATOM      7  C   UNL     1     -31.043 100.563  10.859  1.00  0.00     0.000 C 
BRANCH   7   8
ATOM      8  C   UNL     1     -30.322 101.586   9.957  1.00  0.00     0.006 C 
BRANCH   8   9
ATOM      9  C   UNL     1     -28.837 101.281   9.713  1.00  0.00     0.053 C 
BRANCH   9  10
ATOM     10  C   UNL     1     -28.559 100.959   8.277  1.00  0.00     0.041 C 
ATOM     11  O   UNL     1     -29.229 101.509   7.363  1.00  0.00    -0.550 OA
ATOM     12  O   UNL     1     -27.584 100.026   7.948  1.00  0.00    -0.550 OA
ENDBRANCH   9  10
ENDBRANCH   8   9
ENDBRANCH   7   8
ENDBRANCH   6   7
ENDBRANCH   5   6
ENDBRANCH   4   5
ENDBRANCH   3   4
ENDBRANCH   1   3
BRANCH   2  13
ATOM     13  C   UNL     1     -34.780  95.566   8.065  1.00  0.00     0.027 C 
BRANCH  13  14
ATOM     14  C   UNL     1     -34.161  94.480   7.171  1.00  0.00     0.004 C 
BRANCH  14  15
ATOM     15  C   UNL     1     -35.053  93.234   7.055  1.00  0.00     0.000 C 
BRANCH  15  16
ATOM     16  C   UNL     1     -34.707  92.373   5.828  1.00  0.00     0.000 C 
BRANCH  16  17
ATOM     17  C   UNL     1     -33.243  92.533   5.383  1.00  0.00    -0.000 C 
BRANCH  17  18
ATOM     18  C   UNL     1     -32.318  91.354   5.750  1.00  0.00    -0.000 C 
BRANCH  18  19
ATOM     19  C   UNL     1     -31.793  91.366   7.196  1.00  0.00    -0.003 C 
ATOM     20  C   UNL     1     -30.960  92.606   7.517  1.00  0.00     0.004 C 
ENDBRANCH  18  19
ENDBRANCH  17  18
ENDBRANCH  16  17
ENDBRANCH  15  16
ENDBRANCH  14  15
ENDBRANCH  13  14
ENDBRANCH   2  13
TORSDOF 15
ENDMDL
MODEL 6
REMARK VINA RESULT:    -4.332     17.454     19.248
REMARK INTER + INTRA:         -10.692
REMARK INTER:                  -7.835
REMARK INTRA:                  -2.857
REMARK UNBOUND:                -2.561
REMARK SMILES CCCCCCCCC=CCCCCCCCC(=O)[O-]
REMARK SMILES IDX 10 1 9 2 11 3 12 4 13 5 14 6 15 7 16 8 17 9 18 10 19 11
REMARK SMILES IDX 20 12 8 13 7 14 6 15 5 16 4 17 3 18 2 19 1 20
REMARK H PARENT
REMARK Flexibility Score: inf
ROOT
ATOM      1  C   UNL     1     -16.361  94.006  -5.927  1.00  0.00    -0.031 C 
ATOM      2  C   UNL     1     -15.878  94.730  -6.948  1.00  0.00    -0.031 C 
ENDROOT
BRANCH   1   3
ATOM      3  C   UNL     1     -15.875  94.207  -4.517  1.00  0.00     0.027 C 
BRANCH   3   4
ATOM      4  C   UNL     1     -17.006  94.686  -3.597  1.00  0.00     0.004 C 
BRANCH   4   5
ATOM      5  C   UNL     1     -17.195  96.212  -3.656  1.00  0.00     0.000 C 
BRANCH   5   6
ATOM      6  C   UNL     1     -18.420  96.631  -4.487  1.00  0.00     0.000 C 
BRANCH   6   7
ATOM      7  C   UNL     1     -18.107  97.483  -5.733  1.00  0.00     0.000 C 
BRANCH   7   8
ATOM      8  C   UNL     1     -19.153  98.566  -6.066  1.00  0.00     0.006 C 
BRANCH   8   9
ATOM      9  C   UNL     1     -20.577  98.240  -5.591  1.00  0.00     0.053 C 
BRANCH   9  10
ATOM     10  C   UNL     1     -21.543  99.336  -5.922  1.00  0.00     0.041 C 
ATOM     11  O   UNL     1     -21.957 100.111  -5.019  1.00  0.00    -0.550 OA
ATOM     12  O   UNL     1     -22.012  99.482  -7.222  1.00  0.00    -0.550 OA
ENDBRANCH   9  10
ENDBRANCH   8   9
ENDBRANCH   7   8
ENDBRANCH   6   7
ENDBRANCH   5   6
ENDBRANCH   4   5
ENDBRANCH   3   4
ENDBRANCH   1   3
BRANCH   2  13
ATOM     13  C   UNL     1     -16.406  94.564  -8.346  1.00  0.00     0.027 C 
BRANCH  13  14
ATOM     14  C   UNL     1     -17.204  93.258  -8.480  1.00  0.00     0.004 C 
BRANCH  14  15
ATOM     15  C   UNL     1     -18.652  93.497  -8.938  1.00  0.00     0.000 C 
BRANCH  15  16
ATOM     16  C   UNL     1     -19.111  94.947  -8.707  1.00  0.00     0.000 C 
BRANCH  16  17
ATOM     17  C   UNL     1     -20.016  95.094  -7.471  1.00  0.00    -0.000 C 
BRANCH  17  18
ATOM     18  C   UNL     1     -20.550  93.766  -6.894  1.00  0.00    -0.000 C 
BRANCH  18  19
ATOM     19  C   UNL     1     -20.062  93.433  -5.473  1.00  0.00    -0.003 C 
ATOM     20  C   UNL     1     -19.251  92.140  -5.409  1.00  0.00     0.004 C 
ENDBRANCH  18  19
ENDBRANCH  17  18
ENDBRANCH  16  17
ENDBRANCH  15  16
ENDBRANCH  14  15
ENDBRANCH  13  14
ENDBRANCH   2  13
TORSDOF 15
ENDMDL
MODEL 7
REMARK VINA RESULT:    -4.293     17.499     19.368
REMARK INTER + INTRA:         -10.619
REMARK INTER:                  -7.721
REMARK INTRA:                  -2.898
REMARK UNBOUND:                -2.561
REMARK SMILES CCCCCCCCC=CCCCCCCCC(=O)[O-]
REMARK SMILES IDX 10 1 9 2 11 3 12 4 13 5 14 6 15 7 16 8 17 9 18 10 19 11
REMARK SMILES IDX 20 12 8 13 7 14 6 15 5 16 4 17 3 18 2 19 1 20
REMARK H PARENT
REMARK Flexibility Score: inf
ROOT
ATOM      1  C   UNL     1     -16.179  94.615  -7.073  1.00  0.00    -0.031 C 
ATOM      2  C   UNL     1     -16.278  93.357  -6.617  1.00  0.00    -0.031 C 
ENDROOT
BRANCH   1   3
ATOM      3  C   UNL     1     -16.343  94.940  -8.533  1.00  0.00     0.027 C 
BRANCH   3   4
ATOM      4  C   UNL     1     -17.787  94.713  -9.000  1.00  0.00     0.004 C 
BRANCH   4   5
ATOM      5  C   UNL     1     -18.804  95.467  -8.124  1.00  0.00     0.000 C 
BRANCH   5   6
ATOM      6  C   UNL     1     -20.236  94.924  -8.270  1.00  0.00     0.000 C 
BRANCH   6   7
ATOM      7  C   UNL     1     -20.928  94.536  -6.948  1.00  0.00     0.000 C 
BRANCH   7   8
ATOM      8  C   UNL     1     -19.982  94.042  -5.834  1.00  0.00     0.006 C 
BRANCH   8   9
ATOM      9  C   UNL     1     -19.674  92.538  -5.885  1.00  0.00     0.053 C 
BRANCH   9  10
ATOM     10  C   UNL     1     -19.539  91.948  -4.515  1.00  0.00     0.041 C 
ATOM     11  O   UNL     1     -20.050  92.529  -3.521  1.00  0.00    -0.550 OA
ATOM     12  O   UNL     1     -18.821  90.773  -4.329  1.00  0.00    -0.550 OA
ENDBRANCH   9  10
ENDBRANCH   8   9
ENDBRANCH   7   8
ENDBRANCH   6   7
ENDBRANCH   5   6
ENDBRANCH   4   5
ENDBRANCH   3   4
ENDBRANCH   1   3
BRANCH   2  13
ATOM     13  C   UNL     1     -16.169  93.044  -5.150  1.00  0.00     0.027 C 
BRANCH  13  14
ATOM     14  C   UNL     1     -15.965  94.326  -4.328  1.00  0.00     0.004 C 
BRANCH  14  15
ATOM     15  C   UNL     1     -17.237  94.753  -3.578  1.00  0.00     0.000 C 
BRANCH  15  16
ATOM     16  C   UNL     1     -17.402  96.282  -3.522  1.00  0.00     0.000 C 
BRANCH  16  17
ATOM     17  C   UNL     1     -17.752  96.893  -4.889  1.00  0.00    -0.000 C 
BRANCH  17  18
ATOM     18  C   UNL     1     -19.209  97.379  -5.031  1.00  0.00    -0.000 C 
BRANCH  18  19
ATOM     19  C   UNL     1     -19.437  98.441  -6.121  1.00  0.00    -0.003 C 
ATOM     20  C   UNL     1     -20.799  98.315  -6.802  1.00  0.00     0.004 C 
ENDBRANCH  18  19
ENDBRANCH  17  18
ENDBRANCH  16  17
ENDBRANCH  15  16
ENDBRANCH  14  15
ENDBRANCH  13  14
ENDBRANCH   2  13
TORSDOF 15
ENDMDL
MODEL 8
REMARK VINA RESULT:    -4.278     16.411     18.469
REMARK INTER + INTRA:         -10.591
REMARK INTER:                  -7.613
REMARK INTRA:                  -2.978
REMARK UNBOUND:                -2.561
REMARK SMILES CCCCCCCCC=CCCCCCCCC(=O)[O-]
REMARK SMILES IDX 10 1 9 2 11 3 12 4 13 5 14 6 15 7 16 8 17 9 18 10 19 11
REMARK SMILES IDX 20 12 8 13 7 14 6 15 5 16 4 17 3 18 2 19 1 20
REMARK H PARENT
REMARK Flexibility Score: inf
ROOT
ATOM      1  C   UNL     1     -16.953  95.251  -6.840  1.00  0.00    -0.031 C 
ATOM      2  C   UNL     1     -18.257  95.276  -7.149  1.00  0.00    -0.031 C 
ENDROOT
BRANCH   1   3
ATOM      3  C   UNL     1     -16.468  95.485  -5.435  1.00  0.00     0.027 C 
BRANCH   3   4
ATOM      4  C   UNL     1     -17.222  96.644  -4.767  1.00  0.00     0.004 C 
BRANCH   4   5
ATOM      5  C   UNL     1     -18.075  96.170  -3.578  1.00  0.00     0.000 C 
BRANCH   5   6
ATOM      6  C   UNL     1     -17.923  94.665  -3.295  1.00  0.00     0.000 C 
BRANCH   6   7
ATOM      7  C   UNL     1     -19.241  93.914  -3.019  1.00  0.00     0.000 C 
BRANCH   7   8
ATOM      8  C   UNL     1     -19.674  92.924  -4.120  1.00  0.00     0.006 C 
BRANCH   8   9
ATOM      9  C   UNL     1     -20.642  91.830  -3.644  1.00  0.00     0.053 C 
BRANCH   9  10
ATOM     10  C   UNL     1     -21.995  91.968  -4.271  1.00  0.00     0.041 C 
ATOM     11  O   UNL     1     -22.598  93.073  -4.241  1.00  0.00    -0.550 OA
ATOM     12  O   UNL     1     -22.605  90.868  -4.861  1.00  0.00    -0.550 OA
ENDBRANCH   9  10
ENDBRANCH   8   9
ENDBRANCH   7   8
ENDBRANCH   6   7
ENDBRANCH   5   6
ENDBRANCH   4   5
ENDBRANCH   3   4
ENDBRANCH   1   3
BRANCH   2  13
ATOM     13  C   UNL     1     -18.740  94.986  -8.543  1.00  0.00     0.027 C 
BRANCH  13  14
ATOM     14  C   UNL     1     -20.272  94.872  -8.581  1.00  0.00     0.004 C 
BRANCH  14  15
ATOM     15  C   UNL     1     -20.867  94.470  -7.222  1.00  0.00     0.000 C 
BRANCH  15  16
ATOM     16  C   UNL     1     -21.822  95.536  -6.659  1.00  0.00     0.000 C 
BRANCH  16  17
ATOM     17  C   UNL     1     -21.357  96.096  -5.304  1.00  0.00    -0.000 C 
BRANCH  17  18
ATOM     18  C   UNL     1     -21.120  97.620  -5.276  1.00  0.00    -0.000 C 
BRANCH  18  19
ATOM     19  C   UNL     1     -20.605  98.222  -6.595  1.00  0.00    -0.003 C 
ATOM     20  C   UNL     1     -19.292  98.986  -6.428  1.00  0.00     0.004 C 
ENDBRANCH  18  19
ENDBRANCH  17  18
ENDBRANCH  16  17
ENDBRANCH  15  16
ENDBRANCH  14  15
ENDBRANCH  13  14
ENDBRANCH   2  13
TORSDOF 15
ENDMDL
MODEL 9
REMARK VINA RESULT:    -4.256      2.150      4.430
REMARK INTER + INTRA:         -10.549
REMARK INTER:                  -8.509
REMARK INTRA:                  -2.040
REMARK UNBOUND:                -2.561
REMARK SMILES CCCCCCCCC=CCCCCCCCC(=O)[O-]
REMARK SMILES IDX 10 1 9 2 11 3 12 4 13 5 14 6 15 7 16 8 17 9 18 10 19 11
REMARK SMILES IDX 20 12 8 13 7 14 6 15 5 16 4 17 3 18 2 19 1 20
REMARK H PARENT
REMARK Flexibility Score: inf
ROOT
ATOM      1  C   UNL     1     -34.633  94.860   7.383  1.00  0.00    -0.031 C 
ATOM      2  C   UNL     1     -35.005  93.910   8.254  1.00  0.00    -0.031 C 
ENDROOT
BRANCH   1   3
ATOM      3  C   UNL     1     -34.241  96.240   7.839  1.00  0.00     0.027 C 
BRANCH   3   4
ATOM      4  C   UNL     1     -33.119  96.821   6.969  1.00  0.00     0.004 C 
BRANCH   4   5
ATOM      5  C   UNL     1     -32.123  97.658   7.791  1.00  0.00     0.000 C 
BRANCH   5   6
ATOM      6  C   UNL     1     -32.720  98.165   9.116  1.00  0.00     0.000 C 
BRANCH   6   7
ATOM      7  C   UNL     1     -32.792  99.699   9.257  1.00  0.00     0.000 C 
BRANCH   7   8
ATOM      8  C   UNL     1     -31.588 100.349   9.968  1.00  0.00     0.006 C 
BRANCH   8   9
ATOM      9  C   UNL     1     -30.833 101.384   9.119  1.00  0.00     0.053 C 
BRANCH   9  10
ATOM     10  C   UNL     1     -29.558 100.830   8.564  1.00  0.00     0.041 C 
ATOM     11  O   UNL     1     -29.576 100.110   7.530  1.00  0.00    -0.550 OA
ATOM     12  O   UNL     1     -28.352 101.079   9.207  1.00  0.00    -0.550 OA
ENDBRANCH   9  10
ENDBRANCH   8   9
ENDBRANCH   7   8
ENDBRANCH   6   7
ENDBRANCH   5   6
ENDBRANCH   4   5
ENDBRANCH   3   4
ENDBRANCH   1   3
BRANCH   2  13
ATOM     13  C   UNL     1     -35.341  92.517   7.799  1.00  0.00     0.027 C 
BRANCH  13  14
ATOM     14  C   UNL     1     -34.937  92.306   6.331  1.00  0.00     0.004 C 
BRANCH  14  15
ATOM     15  C   UNL     1     -33.716  91.383   6.183  1.00  0.00     0.000 C 
BRANCH  15  16
ATOM     16  C   UNL     1     -32.479  92.125   5.649  1.00  0.00     0.000 C 
BRANCH  16  17
ATOM     17  C   UNL     1     -31.162  91.571   6.219  1.00  0.00    -0.000 C 
BRANCH  17  18
ATOM     18  C   UNL     1     -30.281  92.607   6.948  1.00  0.00    -0.000 C 
BRANCH  18  19
ATOM     19  C   UNL     1     -31.047  93.790   7.565  1.00  0.00    -0.003 C 
ATOM     20  C   UNL     1     -31.402  93.569   9.035  1.00  0.00     0.004 C 
ENDBRANCH  18  19
ENDBRANCH  17  18
ENDBRANCH  16  17
ENDBRANCH  15  16
ENDBRANCH  14  15
ENDBRANCH  13  14
ENDBRANCH   2  13
TORSDOF 15
ENDMDL
