MODEL 1
REMARK VINA RESULT:    -5.367      0.000      0.000
REMARK INTER + INTRA:          -6.299
REMARK INTER:                  -6.152
REMARK INTRA:                  -0.147
REMARK UNBOUND:                -0.147
REMARK SMILES O=C([O-])C=Cc1ccc(O)cc1
REMARK SMILES IDX 6 1 7 2 12 3 8 4 11 5 9 6 5 7 4 8 2 9 1 10 3 11 10 12
REMARK H PARENT 10 13
REMARK Flexibility Score: inf
ROOT
ATOM      1  C   UNL     1      -1.416 -22.549  49.285  1.00  0.00    -0.025 A 
ATOM      2  C   UNL     1      -1.143 -23.038  50.575  1.00  0.00     0.012 A 
ATOM      3  C   UNL     1      -0.399 -21.863  48.589  1.00  0.00     0.012 A 
ATOM      4  C   UNL     1       0.106 -22.825  51.166  1.00  0.00     0.047 A 
ATOM      5  C   UNL     1       0.849 -21.654  49.186  1.00  0.00     0.047 A 
ATOM      6  C   UNL     1       1.104 -22.132  50.476  1.00  0.00     0.115 A 
ENDROOT
BRANCH   1   7
ATOM      7  C   UNL     1      -2.752 -22.809  48.695  1.00  0.00     0.010 C 
ATOM      8  C   UNL     1      -3.867 -22.971  49.421  1.00  0.00     0.025 C 
BRANCH   8   9
ATOM      9  C   UNL     1      -5.171 -23.240  48.793  1.00  0.00     0.064 C 
ATOM     10  O   UNL     1      -5.862 -22.280  48.361  1.00  0.00    -0.545 OA
ATOM     11  O   UNL     1      -5.652 -24.537  48.664  1.00  0.00    -0.545 OA
ENDBRANCH   8   9
ENDBRANCH   1   7
BRANCH   6  12
ATOM     12  O   UNL     1       2.343 -21.928  51.079  1.00  0.00    -0.508 OA
ATOM     13  H   UNL     1       2.718 -22.583  51.754  1.00  0.00     0.293 HD
ENDBRANCH   6  12
TORSDOF 3
ENDMDL
MODEL 2
REMARK VINA RESULT:    -5.335      3.110      4.516
REMARK INTER + INTRA:          -6.262
REMARK INTER:                  -6.113
REMARK INTRA:                  -0.150
REMARK UNBOUND:                -0.147
REMARK SMILES O=C([O-])C=Cc1ccc(O)cc1
REMARK SMILES IDX 6 1 7 2 12 3 8 4 11 5 9 6 5 7 4 8 2 9 1 10 3 11 10 12
REMARK H PARENT 10 13
REMARK Flexibility Score: inf
ROOT
ATOM      1  C   UNL     1      -4.818 -22.279  48.448  1.00  0.00    -0.025 A 
ATOM      2  C   UNL     1      -3.612 -21.719  48.905  1.00  0.00     0.012 A 
ATOM      3  C   UNL     1      -5.193 -23.556  48.915  1.00  0.00     0.012 A 
ATOM      4  C   UNL     1      -2.788 -22.426  49.786  1.00  0.00     0.047 A 
ATOM      5  C   UNL     1      -4.365 -24.258  49.797  1.00  0.00     0.047 A 
ATOM      6  C   UNL     1      -3.160 -23.696  50.232  1.00  0.00     0.115 A 
ENDROOT
BRANCH   1   7
ATOM      7  C   UNL     1      -5.664 -21.486  47.522  1.00  0.00     0.010 C 
ATOM      8  C   UNL     1      -5.185 -20.539  46.704  1.00  0.00     0.025 C 
BRANCH   8   9
ATOM      9  C   UNL     1      -6.065 -19.767  45.811  1.00  0.00     0.064 C 
ATOM     10  O   UNL     1      -5.608 -18.760  45.208  1.00  0.00    -0.545 OA
ATOM     11  O   UNL     1      -7.392 -20.133  45.618  1.00  0.00    -0.545 OA
ENDBRANCH   8   9
ENDBRANCH   1   7
BRANCH   6  12
ATOM     12  O   UNL     1      -2.328 -24.389  51.110  1.00  0.00    -0.508 OA
ATOM     13  H   UNL     1      -1.480 -24.841  50.790  1.00  0.00     0.293 HD
ENDBRANCH   6  12
TORSDOF 3
ENDMDL
MODEL 3
REMARK VINA RESULT:    -5.118     13.016     14.178
REMARK INTER + INTRA:          -6.013
REMARK INTER:                  -5.868
REMARK INTRA:                  -0.146
REMARK UNBOUND:                -0.147
REMARK SMILES O=C([O-])C=Cc1ccc(O)cc1
REMARK SMILES IDX 6 1 7 2 12 3 8 4 11 5 9 6 5 7 4 8 2 9 1 10 3 11 10 12
REMARK H PARENT 10 13
REMARK Flexibility Score: inf
ROOT
ATOM      1  C   UNL     1      -7.739 -11.372  52.817  1.00  0.00    -0.025 A 
ATOM      2  C   UNL     1      -9.016 -11.169  52.264  1.00  0.00     0.012 A 
ATOM      3  C   UNL     1      -6.715 -11.882  51.993  1.00  0.00     0.012 A 
ATOM      4  C   UNL     1      -9.271 -11.491  50.927  1.00  0.00     0.047 A 
ATOM      5  C   UNL     1      -6.976 -12.202  50.657  1.00  0.00     0.047 A 
ATOM      6  C   UNL     1      -8.255 -12.010  50.121  1.00  0.00     0.115 A 
ENDROOT
BRANCH   1   7
ATOM      7  C   UNL     1      -7.514 -11.004  54.237  1.00  0.00     0.010 C 
ATOM      8  C   UNL     1      -8.421 -11.188  55.206  1.00  0.00     0.025 C 
BRANCH   8   9
ATOM      9  C   UNL     1      -8.159 -10.796  56.600  1.00  0.00     0.064 C 
ATOM     10  O   UNL     1      -9.116 -10.436  57.335  1.00  0.00    -0.545 OA
ATOM     11  O   UNL     1      -6.871 -10.820  57.123  1.00  0.00    -0.545 OA
ENDBRANCH   8   9
ENDBRANCH   1   7
BRANCH   6  12
ATOM     12  O   UNL     1      -8.525 -12.327  48.792  1.00  0.00    -0.508 OA
ATOM     13  H   UNL     1      -7.793 -12.338  48.091  1.00  0.00     0.293 HD
ENDBRANCH   6  12
TORSDOF 3
ENDMDL
MODEL 4
REMARK VINA RESULT:    -5.113      2.389      5.850
REMARK INTER + INTRA:          -6.008
REMARK INTER:                  -5.868
REMARK INTRA:                  -0.140
REMARK UNBOUND:                -0.147
REMARK SMILES O=C([O-])C=Cc1ccc(O)cc1
REMARK SMILES IDX 6 1 7 2 12 3 8 4 11 5 9 6 5 7 4 8 2 9 1 10 3 11 10 12
REMARK H PARENT 10 13
REMARK Flexibility Score: inf
ROOT
ATOM      1  C   UNL     1      -3.430 -21.292  48.936  1.00  0.00    -0.025 A 
ATOM      2  C   UNL     1      -3.972 -21.591  47.674  1.00  0.00     0.012 A 
ATOM      3  C   UNL     1      -4.164 -20.467  49.812  1.00  0.00     0.012 A 
ATOM      4  C   UNL     1      -5.205 -21.059  47.284  1.00  0.00     0.047 A 
ATOM      5  C   UNL     1      -5.397 -19.937  49.418  1.00  0.00     0.047 A 
ATOM      6  C   UNL     1      -5.919 -20.230  48.152  1.00  0.00     0.115 A 
ENDROOT
BRANCH   1   7
ATOM      7  C   UNL     1      -2.123 -21.890  49.308  1.00  0.00     0.010 C 
ATOM      8  C   UNL     1      -1.802 -22.258  50.555  1.00  0.00     0.025 C 
BRANCH   8   9
ATOM      9  C   UNL     1      -0.487 -22.836  50.880  1.00  0.00     0.064 C 
ATOM     10  O   UNL     1       0.480 -22.072  51.136  1.00  0.00    -0.545 OA
ATOM     11  O   UNL     1      -0.296 -24.212  50.913  1.00  0.00    -0.545 OA
ENDBRANCH   8   9
ENDBRANCH   1   7
BRANCH   6  12
ATOM     12  O   UNL     1      -7.146 -19.707  47.750  1.00  0.00    -0.508 OA
ATOM     13  H   UNL     1      -7.252 -18.728  47.512  1.00  0.00     0.293 HD
ENDBRANCH   6  12
TORSDOF 3
ENDMDL
MODEL 5
REMARK VINA RESULT:    -5.106      2.401      5.750
REMARK INTER + INTRA:          -6.000
REMARK INTER:                  -5.852
REMARK INTRA:                  -0.147
REMARK UNBOUND:                -0.147
REMARK SMILES O=C([O-])C=Cc1ccc(O)cc1
REMARK SMILES IDX 6 1 7 2 12 3 8 4 11 5 9 6 5 7 4 8 2 9 1 10 3 11 10 12
REMARK H PARENT 10 13
REMARK Flexibility Score: inf
ROOT
ATOM      1  C   UNL     1      -3.447 -21.371  48.812  1.00  0.00    -0.025 A 
ATOM      2  C   UNL     1      -4.160 -20.584  49.733  1.00  0.00     0.012 A 
ATOM      3  C   UNL     1      -3.978 -21.551  47.519  1.00  0.00     0.012 A 
ATOM      4  C   UNL     1      -5.386 -20.011  49.381  1.00  0.00     0.047 A 
ATOM      5  C   UNL     1      -5.205 -20.976  47.171  1.00  0.00     0.047 A 
ATOM      6  C   UNL     1      -5.913 -20.206  48.102  1.00  0.00     0.115 A 
ENDROOT
BRANCH   1   7
ATOM      7  C   UNL     1      -2.145 -21.949  49.229  1.00  0.00     0.010 C 
ATOM      8  C   UNL     1      -1.840 -22.257  50.497  1.00  0.00     0.025 C 
BRANCH   8   9
ATOM      9  C   UNL     1      -0.530 -22.817  50.866  1.00  0.00     0.064 C 
ATOM     10  O   UNL     1       0.409 -22.041  51.186  1.00  0.00    -0.545 OA
ATOM     11  O   UNL     1      -0.311 -24.189  50.871  1.00  0.00    -0.545 OA
ENDBRANCH   8   9
ENDBRANCH   1   7
BRANCH   6  12
ATOM     12  O   UNL     1      -7.135 -19.630  47.766  1.00  0.00    -0.508 OA
ATOM     13  H   UNL     1      -7.583 -19.819  46.876  1.00  0.00     0.293 HD
ENDBRANCH   6  12
TORSDOF 3
ENDMDL
MODEL 6
REMARK VINA RESULT:    -5.077      8.382     10.855
REMARK INTER + INTRA:          -5.966
REMARK INTER:                  -5.820
REMARK INTRA:                  -0.146
REMARK UNBOUND:                -0.147
REMARK SMILES O=C([O-])C=Cc1ccc(O)cc1
REMARK SMILES IDX 6 1 7 2 12 3 8 4 11 5 9 6 5 7 4 8 2 9 1 10 3 11 10 12
REMARK H PARENT 10 13
REMARK Flexibility Score: inf
ROOT
ATOM      1  C   UNL     1       1.716 -17.930  56.599  1.00  0.00    -0.025 A 
ATOM      2  C   UNL     1       2.485 -19.009  56.130  1.00  0.00     0.012 A 
ATOM      3  C   UNL     1       0.475 -18.197  57.213  1.00  0.00     0.012 A 
ATOM      4  C   UNL     1       2.017 -20.321  56.247  1.00  0.00     0.047 A 
ATOM      5  C   UNL     1       0.011 -19.511  57.328  1.00  0.00     0.047 A 
ATOM      6  C   UNL     1       0.779 -20.576  56.843  1.00  0.00     0.115 A 
ENDROOT
BRANCH   1   7
ATOM      7  C   UNL     1       2.261 -16.556  56.463  1.00  0.00     0.010 C 
ATOM      8  C   UNL     1       3.549 -16.244  56.661  1.00  0.00     0.025 C 
BRANCH   8   9
ATOM      9  C   UNL     1       4.043 -14.864  56.526  1.00  0.00     0.064 C 
ATOM     10  O   UNL     1       3.463 -13.934  57.146  1.00  0.00    -0.545 OA
ATOM     11  O   UNL     1       5.143 -14.570  55.729  1.00  0.00    -0.545 OA
ENDBRANCH   8   9
ENDBRANCH   1   7
BRANCH   6  12
ATOM     12  O   UNL     1       0.324 -21.888  56.952  1.00  0.00    -0.508 OA
ATOM     13  H   UNL     1      -0.595 -22.101  57.320  1.00  0.00     0.293 HD
ENDBRANCH   6  12
TORSDOF 3
ENDMDL
MODEL 7
REMARK VINA RESULT:    -5.064     12.964     14.148
REMARK INTER + INTRA:          -5.951
REMARK INTER:                  -5.809
REMARK INTRA:                  -0.142
REMARK UNBOUND:                -0.147
REMARK SMILES O=C([O-])C=Cc1ccc(O)cc1
REMARK SMILES IDX 6 1 7 2 12 3 8 4 11 5 9 6 5 7 4 8 2 9 1 10 3 11 10 12
REMARK H PARENT 10 13
REMARK Flexibility Score: inf
ROOT
ATOM      1  C   UNL     1      -7.706 -11.374  52.868  1.00  0.00    -0.025 A 
ATOM      2  C   UNL     1      -6.707 -11.887  52.022  1.00  0.00     0.012 A 
ATOM      3  C   UNL     1      -9.001 -11.176  52.347  1.00  0.00     0.012 A 
ATOM      4  C   UNL     1      -6.987 -12.173  50.682  1.00  0.00     0.047 A 
ATOM      5  C   UNL     1      -9.276 -11.464  51.006  1.00  0.00     0.047 A 
ATOM      6  C   UNL     1      -8.269 -11.960  50.170  1.00  0.00     0.115 A 
ENDROOT
BRANCH   1   7
ATOM      7  C   UNL     1      -7.363 -11.097  54.285  1.00  0.00     0.010 C 
ATOM      8  C   UNL     1      -8.206 -11.298  55.307  1.00  0.00     0.025 C 
BRANCH   8   9
ATOM      9  C   UNL     1      -7.826 -10.997  56.697  1.00  0.00     0.064 C 
ATOM     10  O   UNL     1      -6.610 -10.858  56.992  1.00  0.00    -0.545 OA
ATOM     11  O   UNL     1      -8.788 -10.859  57.690  1.00  0.00    -0.545 OA
ENDBRANCH   8   9
ENDBRANCH   1   7
BRANCH   6  12
ATOM     12  O   UNL     1      -8.533 -12.249  48.833  1.00  0.00    -0.508 OA
ATOM     13  H   UNL     1      -8.526 -11.525  48.124  1.00  0.00     0.293 HD
ENDBRANCH   6  12
TORSDOF 3
ENDMDL
MODEL 8
REMARK VINA RESULT:    -5.024      3.972      5.088
REMARK INTER + INTRA:          -5.906
REMARK INTER:                  -5.769
REMARK INTRA:                  -0.137
REMARK UNBOUND:                -0.147
REMARK SMILES O=C([O-])C=Cc1ccc(O)cc1
REMARK SMILES IDX 6 1 7 2 12 3 8 4 11 5 9 6 5 7 4 8 2 9 1 10 3 11 10 12
REMARK H PARENT 10 13
REMARK Flexibility Score: inf
ROOT
ATOM      1  C   UNL     1      -3.668 -24.941  47.135  1.00  0.00    -0.025 A 
ATOM      2  C   UNL     1      -4.550 -24.447  48.112  1.00  0.00     0.012 A 
ATOM      3  C   UNL     1      -2.333 -25.210  47.499  1.00  0.00     0.012 A 
ATOM      4  C   UNL     1      -4.104 -24.202  49.414  1.00  0.00     0.047 A 
ATOM      5  C   UNL     1      -1.892 -24.964  48.803  1.00  0.00     0.047 A 
ATOM      6  C   UNL     1      -2.776 -24.457  49.763  1.00  0.00     0.115 A 
ENDROOT
BRANCH   1   7
ATOM      7  C   UNL     1      -4.191 -25.195  45.769  1.00  0.00     0.010 C 
ATOM      8  C   UNL     1      -4.304 -26.417  45.231  1.00  0.00     0.025 C 
BRANCH   8   9
ATOM      9  C   UNL     1      -4.817 -26.620  43.867  1.00  0.00     0.064 C 
ATOM     10  O   UNL     1      -4.985 -27.791  43.435  1.00  0.00    -0.545 OA
ATOM     11  O   UNL     1      -5.123 -25.541  43.046  1.00  0.00    -0.545 OA
ENDBRANCH   8   9
ENDBRANCH   1   7
BRANCH   6  12
ATOM     12  O   UNL     1      -2.346 -24.208  51.065  1.00  0.00    -0.508 OA
ATOM     13  H   UNL     1      -2.028 -23.289  51.351  1.00  0.00     0.293 HD
ENDBRANCH   6  12
TORSDOF 3
ENDMDL
MODEL 9
REMARK VINA RESULT:    -4.938      2.606      3.152
REMARK INTER + INTRA:          -5.807
REMARK INTER:                  -5.663
REMARK INTRA:                  -0.144
REMARK UNBOUND:                -0.147
REMARK SMILES O=C([O-])C=Cc1ccc(O)cc1
REMARK SMILES IDX 6 1 7 2 12 3 8 4 11 5 9 6 5 7 4 8 2 9 1 10 3 11 10 12
REMARK H PARENT 10 13
REMARK Flexibility Score: inf
ROOT
ATOM      1  C   UNL     1      -1.086 -24.165  48.696  1.00  0.00    -0.025 A 
ATOM      2  C   UNL     1      -0.788 -22.876  48.222  1.00  0.00     0.012 A 
ATOM      3  C   UNL     1      -0.852 -24.459  50.055  1.00  0.00     0.012 A 
ATOM      4  C   UNL     1      -0.245 -21.911  49.075  1.00  0.00     0.047 A 
ATOM      5  C   UNL     1      -0.309 -23.490  50.906  1.00  0.00     0.047 A 
ATOM      6  C   UNL     1      -0.002 -22.215  50.417  1.00  0.00     0.115 A 
ENDROOT
BRANCH   1   7
ATOM      7  C   UNL     1      -1.672 -25.151  47.755  1.00  0.00     0.010 C 
ATOM      8  C   UNL     1      -2.709 -24.885  46.949  1.00  0.00     0.025 C 
BRANCH   8   9
ATOM      9  C   UNL     1      -3.266 -25.900  46.039  1.00  0.00     0.064 C 
ATOM     10  O   UNL     1      -4.396 -25.712  45.516  1.00  0.00    -0.545 OA
ATOM     11  O   UNL     1      -2.563 -27.062  45.743  1.00  0.00    -0.545 OA
ENDBRANCH   8   9
ENDBRANCH   1   7
BRANCH   6  12
ATOM     12  O   UNL     1       0.540 -21.243  51.256  1.00  0.00    -0.508 OA
ATOM     13  H   UNL     1      -0.040 -20.711  51.894  1.00  0.00     0.293 HD
ENDBRANCH   6  12
TORSDOF 3
ENDMDL
