MODEL 1
REMARK VINA RESULT:    35.063      0.000      0.000
REMARK INTER + INTRA:          38.340
REMARK INTER:                  38.138
REMARK INTRA:                   0.202
REMARK UNBOUND:                 0.202
REMARK SMILES C[C@H]1[C@H]2C3=CC[C@H]4[C@]5(C)CC[C@H](O)C(C)(C)[C@@H]5CC[C@@]4(C)[C@]3(C)CC[C@@]2(C(=O)[O-])CC[C@@H]1C
REMARK SMILES IDX 26 1 30 2 25 3 3 4 31 5 24 6 4 7 2 8 32 9 22 10 5 11 1 12
REMARK SMILES IDX 33 13 23 14 20 15 6 16 7 17 19 18 21 19 8 20 18 21 17 22
REMARK SMILES IDX 10 23 9 24 14 25 11 26 12 27 15 28 16 29 27 30 28 31 29 32
REMARK SMILES IDX 13 33
REMARK H PARENT 13 34
REMARK Flexibility Score: inf
ROOT
ATOM      1  C   UNL     1       7.290 -34.296  16.001  1.00  0.00     0.017 C 
ATOM      2  C   UNL     1       5.901 -35.000  16.032  1.00  0.00     0.014 C 
ATOM      3  C   UNL     1       7.115 -32.843  16.481  1.00  0.00     0.014 C 
ATOM      4  C   UNL     1       7.895 -34.345  14.545  1.00  0.00     0.030 C 
ATOM      5  C   UNL     1       5.894 -36.255  15.160  1.00  0.00     0.004 C 
ATOM      6  C   UNL     1       8.405 -32.016  16.347  1.00  0.00     0.013 C 
ATOM      7  C   UNL     1       8.969 -33.270  14.257  1.00  0.00    -0.063 C 
ATOM      8  C   UNL     1       6.895 -34.636  13.376  1.00  0.00    -0.003 C 
ATOM      9  C   UNL     1       6.008 -35.902  13.659  1.00  0.00    -0.011 C 
ATOM     10  C   UNL     1       8.953 -31.852  14.886  1.00  0.00    -0.006 C 
ATOM     11  C   UNL     1      10.039 -33.713  13.584  1.00  0.00    -0.027 C 
ATOM     12  C   UNL     1       6.022 -33.443  12.961  1.00  0.00     0.008 C 
ATOM     13  C   UNL     1       6.516 -37.125  12.880  1.00  0.00     0.008 C 
ATOM     14  C   UNL     1       7.938 -30.970  14.103  1.00  0.00     0.017 C 
ATOM     15  C   UNL     1      10.417 -31.109  14.870  1.00  0.00    -0.020 C 
ATOM     16  C   UNL     1      11.421 -33.219  13.832  1.00  0.00     0.032 C 
ATOM     17  C   UNL     1      11.584 -32.166  14.978  1.00  0.00     0.006 C 
ATOM     18  C   UNL     1      10.691 -30.325  13.546  1.00  0.00     0.008 C 
ATOM     19  C   UNL     1      10.440 -30.054  16.024  1.00  0.00     0.012 C 
ATOM     20  C   UNL     1      13.083 -31.587  14.967  1.00  0.00    -0.025 C 
ATOM     21  C   UNL     1      12.082 -29.671  13.471  1.00  0.00     0.005 C 
ATOM     22  C   UNL     1      13.304 -30.611  13.723  1.00  0.00     0.003 C 
ATOM     23  C   UNL     1      13.461 -30.913  16.345  1.00  0.00     0.010 C 
ATOM     24  C   UNL     1      14.066 -32.803  14.832  1.00  0.00     0.012 C 
ATOM     25  C   UNL     1      14.719 -29.833  13.720  1.00  0.00    -0.006 C 
ATOM     26  C   UNL     1      14.188 -29.566  16.215  1.00  0.00     0.033 C 
ATOM     27  C   UNL     1      15.301 -29.666  15.170  1.00  0.00     0.120 C 
ATOM     28  C   UNL     1      14.621 -28.442  13.030  1.00  0.00     0.014 C 
ATOM     29  C   UNL     1      15.753 -30.632  12.876  1.00  0.00     0.014 C 
ENDROOT
BRANCH   1  30
ATOM     30  C   UNL     1       8.212 -35.001  17.006  1.00  0.00     0.048 C 
ATOM     31  O   UNL     1       9.452 -34.774  16.989  1.00  0.00    -0.550 OA
ATOM     32  O   UNL     1       7.720 -35.916  17.932  1.00  0.00    -0.550 OA
ENDBRANCH   1  30
BRANCH  27  33
ATOM     33  O   UNL     1      16.139 -28.537  15.261  1.00  0.00    -0.393 OA
ATOM     34  H   UNL     1      16.405 -28.428  16.212  1.00  0.00     0.210 HD
ENDBRANCH  27  33
TORSDOF 2
ENDMDL
