MODEL 1
REMARK VINA RESULT:    -7.043      0.000      0.000
REMARK INTER + INTRA:          -9.579
REMARK INTER:                  -9.101
REMARK INTRA:                  -0.478
REMARK UNBOUND:                -0.478
REMARK SMILES COc1cc(-c2[o+]c3cc(O)cc(O)c3cc2O)cc(OC)c1O
REMARK SMILES IDX 6 1 7 2 8 3 9 4 10 5 12 6 13 7 15 8 16 9 17 10 5 11 3 12
REMARK SMILES IDX 4 13 23 14 20 15 19 16 2 17 1 18 24 19 21 21 22 22 18 23
REMARK SMILES IDX 11 25 14 27
REMARK H PARENT 24 20 18 24 11 26 14 28
REMARK Flexibility Score: inf
ROOT
ATOM      1  C   UNL     1     -22.002  11.802 -34.985  1.00  0.00     0.402 A 
ATOM      2  O   UNL     1     -22.065  11.613 -36.302  1.00  0.00    -0.202 OA
ATOM      3  C   UNL     1     -20.989  11.427 -37.062  1.00  0.00     0.368 A 
ATOM      4  C   UNL     1     -21.141  11.231 -38.438  1.00  0.00     0.162 A 
ATOM      5  C   UNL     1     -20.019  11.031 -39.249  1.00  0.00     0.128 A 
ATOM      6  C   UNL     1     -18.738  11.028 -38.681  1.00  0.00     0.093 A 
ATOM      7  C   UNL     1     -18.571  11.225 -37.302  1.00  0.00     0.136 A 
ATOM      8  C   UNL     1     -19.700  11.426 -36.487  1.00  0.00     0.125 A 
ATOM      9  C   UNL     1     -19.593  11.636 -35.107  1.00  0.00     0.078 A 
ATOM     10  C   UNL     1     -20.747  11.836 -34.344  1.00  0.00     0.223 A 
ENDROOT
BRANCH   1  11
ATOM     11  C   UNL     1     -23.270  11.989 -34.243  1.00  0.00     0.091 A 
ATOM     12  C   UNL     1     -25.201  13.385 -33.715  1.00  0.00     0.165 A 
ATOM     13  C   UNL     1     -23.984  13.186 -34.392  1.00  0.00     0.069 A 
ATOM     14  C   UNL     1     -25.709  12.368 -32.894  1.00  0.00     0.200 A 
ATOM     15  C   UNL     1     -25.015  11.152 -32.752  1.00  0.00     0.165 A 
ATOM     16  C   UNL     1     -23.799  10.969 -33.438  1.00  0.00     0.069 A 
BRANCH  12  17
ATOM     17  O   UNL     1     -25.934  14.577 -33.831  1.00  0.00    -0.493 OA
ATOM     18  C   UNL     1     -25.496  15.727 -34.547  1.00  0.00     0.278 C 
ENDBRANCH  12  17
BRANCH  14  19
ATOM     19  O   UNL     1     -26.915  12.581 -32.225  1.00  0.00    -0.502 OA
ATOM     20  H   UNL     1     -27.528  11.822 -31.956  1.00  0.00     0.293 HD
ENDBRANCH  14  19
BRANCH  15  21
ATOM     21  O   UNL     1     -25.563  10.153 -31.931  1.00  0.00    -0.493 OA
ATOM     22  C   UNL     1     -25.268   9.991 -30.548  1.00  0.00     0.278 C 
ENDBRANCH  15  21
ENDBRANCH   1  11
BRANCH  10  23
ATOM     23  O   UNL     1     -20.644  12.096 -32.977  1.00  0.00    -0.500 OA
ATOM     24  H   UNL     1     -20.025  11.561 -32.380  1.00  0.00     0.294 HD
ENDBRANCH  10  23
BRANCH   5  25
ATOM     25  O   UNL     1     -20.189  10.836 -40.618  1.00  0.00    -0.507 OA
ATOM     26  H   UNL     1     -19.397  10.786 -41.248  1.00  0.00     0.293 HD
ENDBRANCH   5  25
BRANCH   7  27
ATOM     27  O   UNL     1     -17.290  11.223 -36.748  1.00  0.00    -0.507 OA
ATOM     28  H   UNL     1     -17.061  10.653 -35.942  1.00  0.00     0.293 HD
ENDBRANCH   7  27
TORSDOF 7
ENDMDL
MODEL 2
REMARK VINA RESULT:    -6.915      0.255      2.634
REMARK INTER + INTRA:          -9.414
REMARK INTER:                  -9.115
REMARK INTRA:                  -0.299
REMARK UNBOUND:                -0.478
REMARK SMILES COc1cc(-c2[o+]c3cc(O)cc(O)c3cc2O)cc(OC)c1O
REMARK SMILES IDX 6 1 7 2 8 3 9 4 10 5 12 6 13 7 15 8 16 9 17 10 5 11 3 12
REMARK SMILES IDX 4 13 23 14 20 15 19 16 2 17 1 18 24 19 21 21 22 22 18 23
REMARK SMILES IDX 11 25 14 27
REMARK H PARENT 24 20 18 24 11 26 14 28
REMARK Flexibility Score: inf
ROOT
ATOM      1  C   UNL     1     -21.974  11.689 -34.996  1.00  0.00     0.402 A 
ATOM      2  O   UNL     1     -22.030  11.521 -36.316  1.00  0.00    -0.202 OA
ATOM      3  C   UNL     1     -20.949  11.396 -37.080  1.00  0.00     0.368 A 
ATOM      4  C   UNL     1     -21.094  11.218 -38.460  1.00  0.00     0.162 A 
ATOM      5  C   UNL     1     -19.966  11.082 -39.275  1.00  0.00     0.128 A 
ATOM      6  C   UNL     1     -18.685  11.125 -38.708  1.00  0.00     0.093 A 
ATOM      7  C   UNL     1     -18.524  11.305 -37.326  1.00  0.00     0.136 A 
ATOM      8  C   UNL     1     -19.660  11.441 -36.507  1.00  0.00     0.125 A 
ATOM      9  C   UNL     1     -19.560  11.631 -35.124  1.00  0.00     0.078 A 
ATOM     10  C   UNL     1     -20.720  11.767 -34.355  1.00  0.00     0.223 A 
ENDROOT
BRANCH   1  11
ATOM     11  C   UNL     1     -23.248  11.807 -34.250  1.00  0.00     0.091 A 
ATOM     12  C   UNL     1     -24.855  10.846 -32.684  1.00  0.00     0.165 A 
ATOM     13  C   UNL     1     -23.659  10.755 -33.420  1.00  0.00     0.069 A 
ATOM     14  C   UNL     1     -25.634  12.009 -32.774  1.00  0.00     0.200 A 
ATOM     15  C   UNL     1     -25.223  13.083 -33.585  1.00  0.00     0.165 A 
ATOM     16  C   UNL     1     -24.023  12.975 -34.314  1.00  0.00     0.069 A 
BRANCH  12  17
ATOM     17  O   UNL     1     -25.302   9.805 -31.855  1.00  0.00    -0.493 OA
ATOM     18  C   UNL     1     -25.228   9.818 -30.433  1.00  0.00     0.278 C 
ENDBRANCH  12  17
BRANCH  14  19
ATOM     19  O   UNL     1     -26.819  12.083 -32.042  1.00  0.00    -0.502 OA
ATOM     20  H   UNL     1     -27.656  12.521 -32.406  1.00  0.00     0.293 HD
ENDBRANCH  14  19
BRANCH  15  21
ATOM     21  O   UNL     1     -26.023  14.235 -33.638  1.00  0.00    -0.493 OA
ATOM     22  C   UNL     1     -25.593  15.497 -34.137  1.00  0.00     0.278 C 
ENDBRANCH  15  21
ENDBRANCH   1  11
BRANCH  10  23
ATOM     23  O   UNL     1     -20.627  12.007 -32.984  1.00  0.00    -0.500 OA
ATOM     24  H   UNL     1     -19.758  11.877 -32.481  1.00  0.00     0.294 HD
ENDBRANCH  10  23
BRANCH   5  25
ATOM     25  O   UNL     1     -20.129  10.904 -40.647  1.00  0.00    -0.507 OA
ATOM     26  H   UNL     1     -19.373  11.082 -41.297  1.00  0.00     0.293 HD
ENDBRANCH   5  25
BRANCH   7  27
ATOM     27  O   UNL     1     -17.244  11.349 -36.773  1.00  0.00    -0.507 OA
ATOM     28  H   UNL     1     -16.454  11.715 -37.292  1.00  0.00     0.293 HD
ENDBRANCH   7  27
TORSDOF 7
ENDMDL
MODEL 3
REMARK VINA RESULT:    -6.803      2.589      5.149
REMARK INTER + INTRA:          -9.269
REMARK INTER:                  -8.768
REMARK INTRA:                  -0.501
REMARK UNBOUND:                -0.478
REMARK SMILES COc1cc(-c2[o+]c3cc(O)cc(O)c3cc2O)cc(OC)c1O
REMARK SMILES IDX 6 1 7 2 8 3 9 4 10 5 12 6 13 7 15 8 16 9 17 10 5 11 3 12
REMARK SMILES IDX 4 13 23 14 20 15 19 16 2 17 1 18 24 19 21 21 22 22 18 23
REMARK SMILES IDX 11 25 14 27
REMARK H PARENT 24 20 18 24 11 26 14 28
REMARK Flexibility Score: inf
ROOT
ATOM      1  C   UNL     1     -22.583  13.900 -38.030  1.00  0.00     0.402 A 
ATOM      2  O   UNL     1     -21.585  13.378 -37.321  1.00  0.00    -0.202 OA
ATOM      3  C   UNL     1     -20.643  12.604 -37.853  1.00  0.00     0.368 A 
ATOM      4  C   UNL     1     -19.624  12.097 -37.040  1.00  0.00     0.162 A 
ATOM      5  C   UNL     1     -18.625  11.285 -37.586  1.00  0.00     0.128 A 
ATOM      6  C   UNL     1     -18.645  10.977 -38.953  1.00  0.00     0.093 A 
ATOM      7  C   UNL     1     -19.662  11.477 -39.780  1.00  0.00     0.136 A 
ATOM      8  C   UNL     1     -20.666  12.294 -39.229  1.00  0.00     0.125 A 
ATOM      9  C   UNL     1     -21.709  12.815 -40.005  1.00  0.00     0.078 A 
ATOM     10  C   UNL     1     -22.686  13.617 -39.407  1.00  0.00     0.223 A 
ENDROOT
BRANCH   1  11
ATOM     11  C   UNL     1     -23.569  14.755 -37.328  1.00  0.00     0.091 A 
ATOM     12  C   UNL     1     -25.414  14.955 -35.742  1.00  0.00     0.165 A 
ATOM     13  C   UNL     1     -24.478  14.167 -36.438  1.00  0.00     0.069 A 
ATOM     14  C   UNL     1     -25.423  16.344 -35.932  1.00  0.00     0.200 A 
ATOM     15  C   UNL     1     -24.501  16.952 -36.804  1.00  0.00     0.165 A 
ATOM     16  C   UNL     1     -23.572  16.149 -37.492  1.00  0.00     0.069 A 
BRANCH  12  17
ATOM     17  O   UNL     1     -26.347  14.396 -34.855  1.00  0.00    -0.493 OA
ATOM     18  C   UNL     1     -26.013  13.763 -33.624  1.00  0.00     0.278 C 
ENDBRANCH  12  17
BRANCH  14  19
ATOM     19  O   UNL     1     -26.359  17.112 -35.238  1.00  0.00    -0.502 OA
ATOM     20  H   UNL     1     -26.301  17.267 -34.240  1.00  0.00     0.293 HD
ENDBRANCH  14  19
BRANCH  15  21
ATOM     21  O   UNL     1     -24.534  18.347 -36.958  1.00  0.00    -0.493 OA
ATOM     22  C   UNL     1     -25.196  19.028 -38.019  1.00  0.00     0.278 C 
ENDBRANCH  15  21
ENDBRANCH   1  11
BRANCH  10  23
ATOM     23  O   UNL     1     -23.755  14.097 -40.163  1.00  0.00    -0.500 OA
ATOM     24  H   UNL     1     -24.508  13.490 -40.463  1.00  0.00     0.294 HD
ENDBRANCH  10  23
BRANCH   5  25
ATOM     25  O   UNL     1     -17.617  10.790 -36.762  1.00  0.00    -0.507 OA
ATOM     26  H   UNL     1     -17.768   9.985 -36.165  1.00  0.00     0.293 HD
ENDBRANCH   5  25
BRANCH   7  27
ATOM     27  O   UNL     1     -19.672  11.162 -41.140  1.00  0.00    -0.507 OA
ATOM     28  H   UNL     1     -20.521  10.867 -41.610  1.00  0.00     0.293 HD
ENDBRANCH   7  27
TORSDOF 7
ENDMDL
MODEL 4
REMARK VINA RESULT:    -6.749      5.321      8.517
REMARK INTER + INTRA:          -9.200
REMARK INTER:                  -8.826
REMARK INTRA:                  -0.374
REMARK UNBOUND:                -0.478
REMARK SMILES COc1cc(-c2[o+]c3cc(O)cc(O)c3cc2O)cc(OC)c1O
REMARK SMILES IDX 6 1 7 2 8 3 9 4 10 5 12 6 13 7 15 8 16 9 17 10 5 11 3 12
REMARK SMILES IDX 4 13 23 14 20 15 19 16 2 17 1 18 24 19 21 21 22 22 18 23
REMARK SMILES IDX 11 25 14 27
REMARK H PARENT 24 20 18 24 11 26 14 28
REMARK Flexibility Score: inf
ROOT
ATOM      1  C   UNL     1     -21.904  15.341 -39.770  1.00  0.00     0.402 A 
ATOM      2  O   UNL     1     -22.531  15.965 -38.774  1.00  0.00    -0.202 OA
ATOM      3  C   UNL     1     -23.209  17.097 -38.938  1.00  0.00     0.368 A 
ATOM      4  C   UNL     1     -23.844  17.687 -37.841  1.00  0.00     0.162 A 
ATOM      5  C   UNL     1     -24.564  18.875 -37.999  1.00  0.00     0.128 A 
ATOM      6  C   UNL     1     -24.650  19.477 -39.261  1.00  0.00     0.093 A 
ATOM      7  C   UNL     1     -24.017  18.897 -40.371  1.00  0.00     0.136 A 
ATOM      8  C   UNL     1     -23.293  17.701 -40.210  1.00  0.00     0.125 A 
ATOM      9  C   UNL     1     -22.635  17.082 -41.279  1.00  0.00     0.078 A 
ATOM     10  C   UNL     1     -21.924  15.898 -41.065  1.00  0.00     0.223 A 
ENDROOT
BRANCH   1  11
ATOM     11  C   UNL     1     -21.187  14.081 -39.466  1.00  0.00     0.091 A 
ATOM     12  C   UNL     1     -19.485  12.898 -38.177  1.00  0.00     0.165 A 
ATOM     13  C   UNL     1     -20.171  14.083 -38.500  1.00  0.00     0.069 A 
ATOM     14  C   UNL     1     -19.834  11.701 -38.819  1.00  0.00     0.200 A 
ATOM     15  C   UNL     1     -20.867  11.678 -39.774  1.00  0.00     0.165 A 
ATOM     16  C   UNL     1     -21.544  12.873 -40.085  1.00  0.00     0.069 A 
BRANCH  12  17
ATOM     17  O   UNL     1     -18.454  12.869 -37.225  1.00  0.00    -0.493 OA
ATOM     18  C   UNL     1     -17.518  13.922 -37.015  1.00  0.00     0.278 C 
ENDBRANCH  12  17
BRANCH  14  19
ATOM     19  O   UNL     1     -19.142  10.535 -38.490  1.00  0.00    -0.502 OA
ATOM     20  H   UNL     1     -19.311  10.027 -37.631  1.00  0.00     0.293 HD
ENDBRANCH  14  19
BRANCH  15  21
ATOM     21  O   UNL     1     -21.195  10.458 -40.385  1.00  0.00    -0.493 OA
ATOM     22  C   UNL     1     -22.424   9.763 -40.196  1.00  0.00     0.278 C 
ENDBRANCH  15  21
ENDBRANCH   1  11
BRANCH  10  23
ATOM     23  O   UNL     1     -21.224  15.302 -42.115  1.00  0.00    -0.500 OA
ATOM     24  H   UNL     1     -20.911  14.340 -42.065  1.00  0.00     0.294 HD
ENDBRANCH  10  23
BRANCH   5  25
ATOM     25  O   UNL     1     -25.191  19.450 -36.895  1.00  0.00    -0.507 OA
ATOM     26  H   UNL     1     -24.658  19.837 -36.126  1.00  0.00     0.293 HD
ENDBRANCH   5  25
BRANCH   7  27
ATOM     27  O   UNL     1     -24.108  19.507 -41.623  1.00  0.00    -0.507 OA
ATOM     28  H   UNL     1     -24.883  20.114 -41.863  1.00  0.00     0.293 HD
ENDBRANCH   7  27
TORSDOF 7
ENDMDL
MODEL 5
REMARK VINA RESULT:    -6.744      2.548      4.416
REMARK INTER + INTRA:          -9.193
REMARK INTER:                  -8.750
REMARK INTRA:                  -0.443
REMARK UNBOUND:                -0.478
REMARK SMILES COc1cc(-c2[o+]c3cc(O)cc(O)c3cc2O)cc(OC)c1O
REMARK SMILES IDX 6 1 7 2 8 3 9 4 10 5 12 6 13 7 15 8 16 9 17 10 5 11 3 12
REMARK SMILES IDX 4 13 23 14 20 15 19 16 2 17 1 18 24 19 21 21 22 22 18 23
REMARK SMILES IDX 11 25 14 27
REMARK H PARENT 24 20 18 24 11 26 14 28
REMARK Flexibility Score: inf
ROOT
ATOM      1  C   UNL     1     -22.556  13.866 -37.938  1.00  0.00     0.402 A 
ATOM      2  O   UNL     1     -21.551  13.321 -37.254  1.00  0.00    -0.202 OA
ATOM      3  C   UNL     1     -20.618  12.558 -37.816  1.00  0.00     0.368 A 
ATOM      4  C   UNL     1     -19.592  12.027 -37.028  1.00  0.00     0.162 A 
ATOM      5  C   UNL     1     -18.602  11.226 -37.606  1.00  0.00     0.128 A 
ATOM      6  C   UNL     1     -18.639  10.953 -38.980  1.00  0.00     0.093 A 
ATOM      7  C   UNL     1     -19.663  11.478 -39.783  1.00  0.00     0.136 A 
ATOM      8  C   UNL     1     -20.658  12.285 -39.200  1.00  0.00     0.125 A 
ATOM      9  C   UNL     1     -21.707  12.828 -39.949  1.00  0.00     0.078 A 
ATOM     10  C   UNL     1     -22.674  13.618 -39.320  1.00  0.00     0.223 A 
ENDROOT
BRANCH   1  11
ATOM     11  C   UNL     1     -23.530  14.705 -37.202  1.00  0.00     0.091 A 
ATOM     12  C   UNL     1     -24.496  16.905 -36.775  1.00  0.00     0.165 A 
ATOM     13  C   UNL     1     -23.570  16.085 -37.445  1.00  0.00     0.069 A 
ATOM     14  C   UNL     1     -25.397  16.330 -35.867  1.00  0.00     0.200 A 
ATOM     15  C   UNL     1     -25.385  14.943 -35.631  1.00  0.00     0.165 A 
ATOM     16  C   UNL     1     -24.452  14.137 -36.309  1.00  0.00     0.069 A 
BRANCH  12  17
ATOM     17  O   UNL     1     -24.553  18.292 -36.984  1.00  0.00    -0.493 OA
ATOM     18  C   UNL     1     -25.192  18.916 -38.093  1.00  0.00     0.278 C 
ENDBRANCH  12  17
BRANCH  14  19
ATOM     19  O   UNL     1     -26.308  17.157 -35.208  1.00  0.00    -0.502 OA
ATOM     20  H   UNL     1     -27.213  17.388 -35.598  1.00  0.00     0.293 HD
ENDBRANCH  14  19
BRANCH  15  21
ATOM     21  O   UNL     1     -26.312  14.404 -34.724  1.00  0.00    -0.493 OA
ATOM     22  C   UNL     1     -25.970  13.801 -33.481  1.00  0.00     0.278 C 
ENDBRANCH  15  21
ENDBRANCH   1  11
BRANCH  10  23
ATOM     23  O   UNL     1     -23.750  14.122 -40.052  1.00  0.00    -0.500 OA
ATOM     24  H   UNL     1     -24.453  14.712 -39.624  1.00  0.00     0.294 HD
ENDBRANCH  10  23
BRANCH   5  25
ATOM     25  O   UNL     1     -17.587  10.706 -36.806  1.00  0.00    -0.507 OA
ATOM     26  H   UNL     1     -17.208   9.781 -36.968  1.00  0.00     0.293 HD
ENDBRANCH   5  25
BRANCH   7  27
ATOM     27  O   UNL     1     -19.690  11.198 -41.150  1.00  0.00    -0.507 OA
ATOM     28  H   UNL     1     -19.071  10.510 -41.563  1.00  0.00     0.293 HD
ENDBRANCH   7  27
TORSDOF 7
ENDMDL
MODEL 6
REMARK VINA RESULT:    -6.656      5.326      8.573
REMARK INTER + INTRA:          -9.079
REMARK INTER:                  -8.728
REMARK INTRA:                  -0.352
REMARK UNBOUND:                -0.478
REMARK SMILES COc1cc(-c2[o+]c3cc(O)cc(O)c3cc2O)cc(OC)c1O
REMARK SMILES IDX 6 1 7 2 8 3 9 4 10 5 12 6 13 7 15 8 16 9 17 10 5 11 3 12
REMARK SMILES IDX 4 13 23 14 20 15 19 16 2 17 1 18 24 19 21 21 22 22 18 23
REMARK SMILES IDX 11 25 14 27
REMARK H PARENT 24 20 18 24 11 26 14 28
REMARK Flexibility Score: inf
ROOT
ATOM      1  C   UNL     1     -21.907  15.278 -39.719  1.00  0.00     0.402 A 
ATOM      2  O   UNL     1     -22.550  15.903 -38.735  1.00  0.00    -0.202 OA
ATOM      3  C   UNL     1     -23.236  17.028 -38.915  1.00  0.00     0.368 A 
ATOM      4  C   UNL     1     -23.888  17.621 -37.829  1.00  0.00     0.162 A 
ATOM      5  C   UNL     1     -24.616  18.802 -38.004  1.00  0.00     0.128 A 
ATOM      6  C   UNL     1     -24.691  19.395 -39.271  1.00  0.00     0.093 A 
ATOM      7  C   UNL     1     -24.041  18.812 -40.369  1.00  0.00     0.136 A 
ATOM      8  C   UNL     1     -23.310  17.624 -40.192  1.00  0.00     0.125 A 
ATOM      9  C   UNL     1     -22.634  17.002 -41.249  1.00  0.00     0.078 A 
ATOM     10  C   UNL     1     -21.916  15.825 -41.018  1.00  0.00     0.223 A 
ENDROOT
BRANCH   1  11
ATOM     11  C   UNL     1     -21.184  14.025 -39.398  1.00  0.00     0.091 A 
ATOM     12  C   UNL     1     -20.878  11.631 -39.761  1.00  0.00     0.165 A 
ATOM     13  C   UNL     1     -21.558  12.832 -40.032  1.00  0.00     0.069 A 
ATOM     14  C   UNL     1     -19.805  11.634 -38.859  1.00  0.00     0.200 A 
ATOM     15  C   UNL     1     -19.402  12.827 -38.232  1.00  0.00     0.165 A 
ATOM     16  C   UNL     1     -20.093  14.021 -38.515  1.00  0.00     0.069 A 
BRANCH  12  17
ATOM     17  O   UNL     1     -21.237  10.417 -40.367  1.00  0.00    -0.493 OA
ATOM     18  C   UNL     1     -22.459   9.726 -40.128  1.00  0.00     0.278 C 
ENDBRANCH  12  17
BRANCH  14  19
ATOM     19  O   UNL     1     -19.142  10.434 -38.597  1.00  0.00    -0.502 OA
ATOM     20  H   UNL     1     -19.587   9.532 -38.712  1.00  0.00     0.293 HD
ENDBRANCH  14  19
BRANCH  15  21
ATOM     21  O   UNL     1     -18.314  12.791 -37.345  1.00  0.00    -0.493 OA
ATOM     22  C   UNL     1     -17.523  13.920 -36.989  1.00  0.00     0.278 C 
ENDBRANCH  15  21
ENDBRANCH   1  11
BRANCH  10  23
ATOM     23  O   UNL     1     -21.200  15.228 -42.056  1.00  0.00    -0.500 OA
ATOM     24  H   UNL     1     -21.184  14.223 -42.180  1.00  0.00     0.294 HD
ENDBRANCH  10  23
BRANCH   5  25
ATOM     25  O   UNL     1     -25.260  19.379 -36.912  1.00  0.00    -0.507 OA
ATOM     26  H   UNL     1     -25.209  20.374 -36.732  1.00  0.00     0.293 HD
ENDBRANCH   5  25
BRANCH   7  27
ATOM     27  O   UNL     1     -24.122  19.413 -41.626  1.00  0.00    -0.507 OA
ATOM     28  H   UNL     1     -23.933  20.400 -41.756  1.00  0.00     0.293 HD
ENDBRANCH   7  27
TORSDOF 7
ENDMDL
MODEL 7
REMARK VINA RESULT:    -6.618      1.552      4.144
REMARK INTER + INTRA:          -9.031
REMARK INTER:                  -8.594
REMARK INTRA:                  -0.437
REMARK UNBOUND:                -0.478
REMARK SMILES COc1cc(-c2[o+]c3cc(O)cc(O)c3cc2O)cc(OC)c1O
REMARK SMILES IDX 6 1 7 2 8 3 9 4 10 5 12 6 13 7 15 8 16 9 17 10 5 11 3 12
REMARK SMILES IDX 4 13 23 14 20 15 19 16 2 17 1 18 24 19 21 21 22 22 18 23
REMARK SMILES IDX 11 25 14 27
REMARK H PARENT 24 20 18 24 11 26 14 28
REMARK Flexibility Score: inf
ROOT
ATOM      1  C   UNL     1     -21.873  12.083 -34.664  1.00  0.00     0.402 A 
ATOM      2  O   UNL     1     -20.922  12.129 -33.733  1.00  0.00    -0.202 OA
ATOM      3  C   UNL     1     -19.636  11.919 -33.998  1.00  0.00     0.368 A 
ATOM      4  C   UNL     1     -18.696  11.991 -32.965  1.00  0.00     0.162 A 
ATOM      5  C   UNL     1     -17.340  11.776 -33.230  1.00  0.00     0.128 A 
ATOM      6  C   UNL     1     -16.920  11.487 -34.535  1.00  0.00     0.093 A 
ATOM      7  C   UNL     1     -17.851  11.411 -35.581  1.00  0.00     0.136 A 
ATOM      8  C   UNL     1     -19.216  11.628 -35.314  1.00  0.00     0.125 A 
ATOM      9  C   UNL     1     -20.190  11.556 -36.316  1.00  0.00     0.078 A 
ATOM     10  C   UNL     1     -21.533  11.774 -35.996  1.00  0.00     0.223 A 
ENDROOT
BRANCH   1  11
ATOM     11  C   UNL     1     -23.271  12.342 -34.248  1.00  0.00     0.091 A 
ATOM     12  C   UNL     1     -25.225  11.684 -32.943  1.00  0.00     0.165 A 
ATOM     13  C   UNL     1     -23.905  11.453 -33.369  1.00  0.00     0.069 A 
ATOM     14  C   UNL     1     -25.907  12.823 -33.392  1.00  0.00     0.200 A 
ATOM     15  C   UNL     1     -25.278  13.738 -34.257  1.00  0.00     0.165 A 
ATOM     16  C   UNL     1     -23.955  13.492 -34.674  1.00  0.00     0.069 A 
BRANCH  12  17
ATOM     17  O   UNL     1     -25.893  10.806 -32.074  1.00  0.00    -0.493 OA
ATOM     18  C   UNL     1     -25.250   9.980 -31.109  1.00  0.00     0.278 C 
ENDBRANCH  12  17
BRANCH  14  19
ATOM     19  O   UNL     1     -27.218  13.037 -32.964  1.00  0.00    -0.502 OA
ATOM     20  H   UNL     1     -27.898  12.289 -32.904  1.00  0.00     0.293 HD
ENDBRANCH  14  19
BRANCH  15  21
ATOM     21  O   UNL     1     -25.989  14.873 -34.675  1.00  0.00    -0.493 OA
ATOM     22  C   UNL     1     -26.559  15.040 -35.969  1.00  0.00     0.278 C 
ENDBRANCH  15  21
ENDBRANCH   1  11
BRANCH  10  23
ATOM     23  O   UNL     1     -22.515  11.655 -36.980  1.00  0.00    -0.500 OA
ATOM     24  H   UNL     1     -23.490  11.847 -36.784  1.00  0.00     0.294 HD
ENDBRANCH  10  23
BRANCH   5  25
ATOM     25  O   UNL     1     -16.417  11.852 -32.188  1.00  0.00    -0.507 OA
ATOM     26  H   UNL     1     -16.714  11.884 -31.220  1.00  0.00     0.293 HD
ENDBRANCH   5  25
BRANCH   7  27
ATOM     27  O   UNL     1     -17.422  11.120 -36.877  1.00  0.00    -0.507 OA
ATOM     28  H   UNL     1     -16.514  11.418 -37.215  1.00  0.00     0.293 HD
ENDBRANCH   7  27
TORSDOF 7
ENDMDL
MODEL 8
REMARK VINA RESULT:    -6.528      4.865      8.186
REMARK INTER + INTRA:          -8.914
REMARK INTER:                  -8.376
REMARK INTRA:                  -0.538
REMARK UNBOUND:                -0.478
REMARK SMILES COc1cc(-c2[o+]c3cc(O)cc(O)c3cc2O)cc(OC)c1O
REMARK SMILES IDX 6 1 7 2 8 3 9 4 10 5 12 6 13 7 15 8 16 9 17 10 5 11 3 12
REMARK SMILES IDX 4 13 23 14 20 15 19 16 2 17 1 18 24 19 21 21 22 22 18 23
REMARK SMILES IDX 11 25 14 27
REMARK H PARENT 24 20 18 24 11 26 14 28
REMARK Flexibility Score: inf
ROOT
ATOM      1  C   UNL     1     -22.348  15.151 -39.228  1.00  0.00     0.402 A 
ATOM      2  O   UNL     1     -22.135  16.023 -40.213  1.00  0.00    -0.202 OA
ATOM      3  C   UNL     1     -22.847  17.136 -40.364  1.00  0.00     0.368 A 
ATOM      4  C   UNL     1     -22.558  18.002 -41.423  1.00  0.00     0.162 A 
ATOM      5  C   UNL     1     -23.295  19.179 -41.593  1.00  0.00     0.128 A 
ATOM      6  C   UNL     1     -24.328  19.490 -40.699  1.00  0.00     0.093 A 
ATOM      7  C   UNL     1     -24.630  18.630 -39.632  1.00  0.00     0.136 A 
ATOM      8  C   UNL     1     -23.887  17.447 -39.463  1.00  0.00     0.125 A 
ATOM      9  C   UNL     1     -24.149  16.547 -38.423  1.00  0.00     0.078 A 
ATOM     10  C   UNL     1     -23.385  15.383 -38.302  1.00  0.00     0.223 A 
ENDROOT
BRANCH   1  11
ATOM     11  C   UNL     1     -21.484  13.950 -39.158  1.00  0.00     0.091 A 
ATOM     12  C   UNL     1     -19.516  12.836 -38.240  1.00  0.00     0.165 A 
ATOM     13  C   UNL     1     -20.345  13.968 -38.341  1.00  0.00     0.069 A 
ATOM     14  C   UNL     1     -19.843  11.674 -38.954  1.00  0.00     0.200 A 
ATOM     15  C   UNL     1     -20.996  11.633 -39.760  1.00  0.00     0.165 A 
ATOM     16  C   UNL     1     -21.815  12.774 -39.850  1.00  0.00     0.069 A 
BRANCH  12  17
ATOM     17  O   UNL     1     -18.361  12.825 -37.442  1.00  0.00    -0.493 OA
ATOM     18  C   UNL     1     -18.354  13.005 -36.029  1.00  0.00     0.278 C 
ENDBRANCH  12  17
BRANCH  14  19
ATOM     19  O   UNL     1     -19.010  10.560 -38.847  1.00  0.00    -0.502 OA
ATOM     20  H   UNL     1     -18.061  10.624 -38.498  1.00  0.00     0.293 HD
ENDBRANCH  14  19
BRANCH  15  21
ATOM     21  O   UNL     1     -21.297  10.447 -40.449  1.00  0.00    -0.493 OA
ATOM     22  C   UNL     1     -22.465   9.661 -40.235  1.00  0.00     0.278 C 
ENDBRANCH  15  21
ENDBRANCH   1  11
BRANCH  10  23
ATOM     23  O   UNL     1     -23.673  14.458 -37.299  1.00  0.00    -0.500 OA
ATOM     24  H   UNL     1     -22.945  13.910 -36.857  1.00  0.00     0.294 HD
ENDBRANCH  10  23
BRANCH   5  25
ATOM     25  O   UNL     1     -22.993  20.031 -42.653  1.00  0.00    -0.507 OA
ATOM     26  H   UNL     1     -22.082  20.023 -43.095  1.00  0.00     0.293 HD
ENDBRANCH   5  25
BRANCH   7  27
ATOM     27  O   UNL     1     -25.662  18.950 -38.749  1.00  0.00    -0.507 OA
ATOM     28  H   UNL     1     -26.558  19.291 -39.080  1.00  0.00     0.293 HD
ENDBRANCH   7  27
TORSDOF 7
ENDMDL
MODEL 9
REMARK VINA RESULT:    -6.478      3.899      5.836
REMARK INTER + INTRA:          -8.849
REMARK INTER:                  -8.318
REMARK INTRA:                  -0.530
REMARK UNBOUND:                -0.478
REMARK SMILES COc1cc(-c2[o+]c3cc(O)cc(O)c3cc2O)cc(OC)c1O
REMARK SMILES IDX 6 1 7 2 8 3 9 4 10 5 12 6 13 7 15 8 16 9 17 10 5 11 3 12
REMARK SMILES IDX 4 13 23 14 20 15 19 16 2 17 1 18 24 19 21 21 22 22 18 23
REMARK SMILES IDX 11 25 14 27
REMARK H PARENT 24 20 18 24 11 26 14 28
REMARK Flexibility Score: inf
ROOT
ATOM      1  C   UNL     1     -22.154  14.860 -38.523  1.00  0.00     0.402 A 
ATOM      2  O   UNL     1     -21.069  14.493 -37.845  1.00  0.00    -0.202 OA
ATOM      3  C   UNL     1     -20.320  13.447 -38.181  1.00  0.00     0.368 A 
ATOM      4  C   UNL     1     -19.192  13.130 -37.419  1.00  0.00     0.162 A 
ATOM      5  C   UNL     1     -18.394  12.034 -37.763  1.00  0.00     0.128 A 
ATOM      6  C   UNL     1     -18.726  11.251 -38.876  1.00  0.00     0.093 A 
ATOM      7  C   UNL     1     -19.855  11.556 -39.650  1.00  0.00     0.136 A 
ATOM      8  C   UNL     1     -20.657  12.659 -39.303  1.00  0.00     0.125 A 
ATOM      9  C   UNL     1     -21.800  13.006 -40.033  1.00  0.00     0.078 A 
ATOM     10  C   UNL     1     -22.567  14.107 -39.642  1.00  0.00     0.223 A 
ENDROOT
BRANCH   1  11
ATOM     11  C   UNL     1     -22.903  16.050 -38.056  1.00  0.00     0.091 A 
ATOM     12  C   UNL     1     -23.355  18.442 -38.232  1.00  0.00     0.165 A 
ATOM     13  C   UNL     1     -22.647  17.298 -38.642  1.00  0.00     0.069 A 
ATOM     14  C   UNL     1     -24.337  18.327 -37.238  1.00  0.00     0.200 A 
ATOM     15  C   UNL     1     -24.622  17.078 -36.657  1.00  0.00     0.165 A 
ATOM     16  C   UNL     1     -23.904  15.942 -37.079  1.00  0.00     0.069 A 
BRANCH  12  17
ATOM     17  O   UNL     1     -23.113  19.708 -38.788  1.00  0.00    -0.493 OA
ATOM     18  C   UNL     1     -23.394  20.065 -40.137  1.00  0.00     0.278 C 
ENDBRANCH  12  17
BRANCH  14  19
ATOM     19  O   UNL     1     -25.028  19.472 -36.839  1.00  0.00    -0.502 OA
ATOM     20  H   UNL     1     -25.834  19.822 -37.341  1.00  0.00     0.293 HD
ENDBRANCH  14  19
BRANCH  15  21
ATOM     21  O   UNL     1     -25.621  17.002 -35.673  1.00  0.00    -0.493 OA
ATOM     22  C   UNL     1     -25.611  16.090 -34.580  1.00  0.00     0.278 C 
ENDBRANCH  15  21
ENDBRANCH   1  11
BRANCH  10  23
ATOM     23  O   UNL     1     -23.734  14.429 -40.334  1.00  0.00    -0.500 OA
ATOM     24  H   UNL     1     -23.805  14.314 -41.338  1.00  0.00     0.294 HD
ENDBRANCH  10  23
BRANCH   5  25
ATOM     25  O   UNL     1     -17.273  11.733 -36.993  1.00  0.00    -0.507 OA
ATOM     26  H   UNL     1     -16.562  11.090 -37.321  1.00  0.00     0.293 HD
ENDBRANCH   5  25
BRANCH   7  27
ATOM     27  O   UNL     1     -20.177  10.767 -40.755  1.00  0.00    -0.507 OA
ATOM     28  H   UNL     1     -20.616  11.161 -41.580  1.00  0.00     0.293 HD
ENDBRANCH   7  27
TORSDOF 7
ENDMDL
