MODEL 1
REMARK VINA RESULT:    -0.954      0.000      0.000
REMARK INTER + INTRA:          -9.810
REMARK INTER:                  -2.515
REMARK INTRA:                  -7.296
REMARK UNBOUND:                -7.296
REMARK SMILES CCCCCCCCCCCCCCCCCCCCCCCCCCCCCC(=O)[O-]
REMARK SMILES IDX 16 1 17 2 18 3 19 4 20 5 21 6 22 7 23 8 24 9 25 10 26 11
REMARK SMILES IDX 27 12 28 13 29 14 30 15 31 16 32 17 15 18 14 19 13 20 12 21
REMARK SMILES IDX 11 22 10 23 9 24 8 25 7 26 6 27 5 28 4 29 3 30 2 31 1 32
REMARK H PARENT
REMARK Flexibility Score: inf
ROOT
ATOM      1  C   UNL     1      22.355  24.797  16.072  1.00  0.00     0.000 C 
ENDROOT
BRANCH   1   2
ATOM      2  C   UNL     1      21.938  26.263  15.867  1.00  0.00     0.000 C 
BRANCH   2   3
ATOM      3  C   UNL     1      20.484  26.527  16.293  1.00  0.00     0.000 C 
BRANCH   3   4
ATOM      4  C   UNL     1      20.099  28.011  16.156  1.00  0.00     0.000 C 
BRANCH   4   5
ATOM      5  C   UNL     1      21.159  28.955  16.749  1.00  0.00     0.000 C 
BRANCH   5   6
ATOM      6  C   UNL     1      20.886  29.302  18.223  1.00  0.00     0.000 C 
BRANCH   6   7
ATOM      7  C   UNL     1      22.115  29.076  19.118  1.00  0.00     0.000 C 
BRANCH   7   8
ATOM      8  C   UNL     1      23.328  28.548  18.333  1.00  0.00     0.000 C 
BRANCH   8   9
ATOM      9  C   UNL     1      23.896  27.250  18.933  1.00  0.00     0.000 C 
BRANCH   9  10
ATOM     10  C   UNL     1      22.797  26.353  19.532  1.00  0.00     0.000 C 
BRANCH  10  11
ATOM     11  C   UNL     1      23.196  24.867  19.590  1.00  0.00     0.000 C 
BRANCH  11  12
ATOM     12  C   UNL     1      24.635  24.559  19.138  1.00  0.00     0.000 C 
BRANCH  12  13
ATOM     13  C   UNL     1      24.961  23.058  19.156  1.00  0.00     0.006 C 
BRANCH  13  14
ATOM     14  C   UNL     1      25.066  22.502  17.732  1.00  0.00     0.053 C 
BRANCH  14  15
ATOM     15  C   UNL     1      23.978  21.507  17.471  1.00  0.00     0.041 C 
ATOM     16  O   UNL     1      24.236  20.424  16.882  1.00  0.00    -0.550 OA
ATOM     17  O   UNL     1      22.684  21.765  17.901  1.00  0.00    -0.550 OA
ENDBRANCH  14  15
ENDBRANCH  13  14
ENDBRANCH  12  13
ENDBRANCH  11  12
ENDBRANCH  10  11
ENDBRANCH   9  10
ENDBRANCH   8   9
ENDBRANCH   7   8
ENDBRANCH   6   7
ENDBRANCH   5   6
ENDBRANCH   4   5
ENDBRANCH   3   4
ENDBRANCH   2   3
ENDBRANCH   1   2
BRANCH   1  18
ATOM     18  C   UNL     1      23.277  24.276  14.955  1.00  0.00     0.000 C 
BRANCH  18  19
ATOM     19  C   UNL     1      24.377  25.273  14.537  1.00  0.00     0.000 C 
BRANCH  19  20
ATOM     20  C   UNL     1      25.428  25.473  15.643  1.00  0.00     0.000 C 
BRANCH  20  21
ATOM     21  C   UNL     1      25.792  26.953  15.855  1.00  0.00     0.000 C 
BRANCH  21  22
ATOM     22  C   UNL     1      25.472  27.875  14.662  1.00  0.00     0.000 C 
BRANCH  22  23
ATOM     23  C   UNL     1      24.419  28.972  14.933  1.00  0.00     0.000 C 
BRANCH  23  24
ATOM     24  C   UNL     1      23.645  29.464  13.693  1.00  0.00    -0.000 C 
BRANCH  24  25
ATOM     25  C   UNL     1      22.462  28.561  13.273  1.00  0.00    -0.000 C 
BRANCH  25  26
ATOM     26  C   UNL     1      22.806  27.564  12.151  1.00  0.00    -0.000 C 
BRANCH  26  27
ATOM     27  C   UNL     1      21.772  26.441  11.942  1.00  0.00    -0.000 C 
BRANCH  27  28
ATOM     28  C   UNL     1      20.334  26.781  12.381  1.00  0.00    -0.000 C 
BRANCH  28  29
ATOM     29  C   UNL     1      19.588  25.575  12.975  1.00  0.00    -0.000 C 
BRANCH  29  30
ATOM     30  C   UNL     1      20.292  24.235  12.691  1.00  0.00    -0.000 C 
BRANCH  30  31
ATOM     31  C   UNL     1      19.980  23.111  13.696  1.00  0.00    -0.003 C 
ATOM     32  C   UNL     1      18.889  23.488  14.698  1.00  0.00     0.004 C 
ENDBRANCH  30  31
ENDBRANCH  29  30
ENDBRANCH  28  29
ENDBRANCH  27  28
ENDBRANCH  26  27
ENDBRANCH  25  26
ENDBRANCH  24  25
ENDBRANCH  23  24
ENDBRANCH  22  23
ENDBRANCH  21  22
ENDBRANCH  20  21
ENDBRANCH  19  20
ENDBRANCH  18  19
ENDBRANCH   1  18
TORSDOF 28
ENDMDL
MODEL 2
REMARK VINA RESULT:    -0.940      1.696      5.318
REMARK INTER + INTRA:          -9.774
REMARK INTER:                  -2.889
REMARK INTRA:                  -6.886
REMARK UNBOUND:                -7.296
REMARK SMILES CCCCCCCCCCCCCCCCCCCCCCCCCCCCCC(=O)[O-]
REMARK SMILES IDX 16 1 17 2 18 3 19 4 20 5 21 6 22 7 23 8 24 9 25 10 26 11
REMARK SMILES IDX 27 12 28 13 29 14 30 15 31 16 32 17 15 18 14 19 13 20 12 21
REMARK SMILES IDX 11 22 10 23 9 24 8 25 7 26 6 27 5 28 4 29 3 30 2 31 1 32
REMARK H PARENT
REMARK Flexibility Score: inf
ROOT
ATOM      1  C   UNL     1      22.955  24.906  14.549  1.00  0.00     0.000 C 
ENDROOT
BRANCH   1   2
ATOM      2  C   UNL     1      23.441  25.455  13.198  1.00  0.00     0.000 C 
BRANCH   2   3
ATOM      3  C   UNL     1      22.370  26.298  12.485  1.00  0.00     0.000 C 
BRANCH   3   4
ATOM      4  C   UNL     1      22.906  27.674  12.053  1.00  0.00     0.000 C 
BRANCH   4   5
ATOM      5  C   UNL     1      24.147  28.104  12.854  1.00  0.00     0.000 C 
BRANCH   5   6
ATOM      6  C   UNL     1      24.081  29.574  13.307  1.00  0.00     0.000 C 
BRANCH   6   7
ATOM      7  C   UNL     1      23.784  29.714  14.808  1.00  0.00     0.000 C 
BRANCH   7   8
ATOM      8  C   UNL     1      22.278  29.666  15.120  1.00  0.00     0.000 C 
BRANCH   8   9
ATOM      9  C   UNL     1      21.833  28.295  15.659  1.00  0.00     0.000 C 
BRANCH   9  10
ATOM     10  C   UNL     1      20.301  28.176  15.761  1.00  0.00     0.000 C 
BRANCH  10  11
ATOM     11  C   UNL     1      19.727  27.022  14.921  1.00  0.00     0.000 C 
BRANCH  11  12
ATOM     12  C   UNL     1      19.617  25.673  15.654  1.00  0.00     0.000 C 
BRANCH  12  13
ATOM     13  C   UNL     1      19.278  24.506  14.715  1.00  0.00     0.006 C 
BRANCH  13  14
ATOM     14  C   UNL     1      19.050  23.213  15.505  1.00  0.00     0.053 C 
BRANCH  14  15
ATOM     15  C   UNL     1      20.319  22.424  15.603  1.00  0.00     0.041 C 
ATOM     16  O   UNL     1      20.639  21.620  14.689  1.00  0.00    -0.550 OA
ATOM     17  O   UNL     1      21.160  22.595  16.694  1.00  0.00    -0.550 OA
ENDBRANCH  14  15
ENDBRANCH  13  14
ENDBRANCH  12  13
ENDBRANCH  11  12
ENDBRANCH  10  11
ENDBRANCH   9  10
ENDBRANCH   8   9
ENDBRANCH   7   8
ENDBRANCH   6   7
ENDBRANCH   5   6
ENDBRANCH   4   5
ENDBRANCH   3   4
ENDBRANCH   2   3
ENDBRANCH   1   2
BRANCH   1  18
ATOM     18  C   UNL     1      24.111  24.501  15.481  1.00  0.00     0.000 C 
BRANCH  18  19
ATOM     19  C   UNL     1      25.256  25.533  15.541  1.00  0.00     0.000 C 
BRANCH  19  20
ATOM     20  C   UNL     1      24.892  26.751  16.408  1.00  0.00     0.000 C 
BRANCH  20  21
ATOM     21  C   UNL     1      26.125  27.572  16.826  1.00  0.00     0.000 C 
BRANCH  21  22
ATOM     22  C   UNL     1      26.031  28.213  18.225  1.00  0.00     0.000 C 
BRANCH  22  23
ATOM     23  C   UNL     1      25.414  29.628  18.267  1.00  0.00     0.000 C 
BRANCH  23  24
ATOM     24  C   UNL     1      23.905  29.681  18.583  1.00  0.00    -0.000 C 
BRANCH  24  25
ATOM     25  C   UNL     1      23.380  28.484  19.410  1.00  0.00    -0.000 C 
BRANCH  25  26
ATOM     26  C   UNL     1      21.879  28.200  19.213  1.00  0.00    -0.000 C 
BRANCH  26  27
ATOM     27  C   UNL     1      21.475  26.720  19.349  1.00  0.00    -0.000 C 
BRANCH  27  28
ATOM     28  C   UNL     1      22.177  25.755  18.374  1.00  0.00    -0.000 C 
BRANCH  28  29
ATOM     29  C   UNL     1      22.885  24.591  19.086  1.00  0.00    -0.000 C 
BRANCH  29  30
ATOM     30  C   UNL     1      23.580  25.022  20.391  1.00  0.00    -0.000 C 
BRANCH  30  31
ATOM     31  C   UNL     1      25.118  25.066  20.324  1.00  0.00    -0.003 C 
ATOM     32  C   UNL     1      25.683  24.397  19.072  1.00  0.00     0.004 C 
ENDBRANCH  30  31
ENDBRANCH  29  30
ENDBRANCH  28  29
ENDBRANCH  27  28
ENDBRANCH  26  27
ENDBRANCH  25  26
ENDBRANCH  24  25
ENDBRANCH  23  24
ENDBRANCH  22  23
ENDBRANCH  21  22
ENDBRANCH  20  21
ENDBRANCH  19  20
ENDBRANCH  18  19
ENDBRANCH   1  18
TORSDOF 28
ENDMDL
MODEL 3
REMARK VINA RESULT:    -0.930      2.333      5.849
REMARK INTER + INTRA:          -9.748
REMARK INTER:                  -3.159
REMARK INTRA:                  -6.588
REMARK UNBOUND:                -7.296
REMARK SMILES CCCCCCCCCCCCCCCCCCCCCCCCCCCCCC(=O)[O-]
REMARK SMILES IDX 16 1 17 2 18 3 19 4 20 5 21 6 22 7 23 8 24 9 25 10 26 11
REMARK SMILES IDX 27 12 28 13 29 14 30 15 31 16 32 17 15 18 14 19 13 20 12 21
REMARK SMILES IDX 11 22 10 23 9 24 8 25 7 26 6 27 5 28 4 29 3 30 2 31 1 32
REMARK H PARENT
REMARK Flexibility Score: inf
ROOT
ATOM      1  C   UNL     1      23.778  21.502  16.573  1.00  0.00     0.000 C 
ENDROOT
BRANCH   1   2
ATOM      2  C   UNL     1      22.786  20.368  16.266  1.00  0.00     0.000 C 
BRANCH   2   3
ATOM      3  C   UNL     1      23.446  19.195  15.522  1.00  0.00     0.000 C 
BRANCH   3   4
ATOM      4  C   UNL     1      23.448  19.401  13.996  1.00  0.00     0.000 C 
BRANCH   4   5
ATOM      5  C   UNL     1      24.858  19.653  13.435  1.00  0.00     0.000 C 
BRANCH   5   6
ATOM      6  C   UNL     1      24.906  20.847  12.464  1.00  0.00     0.000 C 
BRANCH   6   7
ATOM      7  C   UNL     1      25.056  22.191  13.192  1.00  0.00     0.000 C 
BRANCH   7   8
ATOM      8  C   UNL     1      23.779  23.046  13.123  1.00  0.00     0.000 C 
BRANCH   8   9
ATOM      9  C   UNL     1      22.879  22.663  11.936  1.00  0.00     0.000 C 
BRANCH   9  10
ATOM     10  C   UNL     1      21.463  22.256  12.382  1.00  0.00     0.000 C 
BRANCH  10  11
ATOM     11  C   UNL     1      21.173  22.596  13.855  1.00  0.00     0.000 C 
BRANCH  11  12
ATOM     12  C   UNL     1      19.882  23.400  14.097  1.00  0.00     0.000 C 
BRANCH  12  13
ATOM     13  C   UNL     1      18.839  22.626  14.917  1.00  0.00     0.006 C 
BRANCH  13  14
ATOM     14  C   UNL     1      19.398  21.279  15.386  1.00  0.00     0.053 C 
BRANCH  14  15
ATOM     15  C   UNL     1      19.171  21.095  16.854  1.00  0.00     0.041 C 
ATOM     16  O   UNL     1      18.924  19.951  17.321  1.00  0.00    -0.550 OA
ATOM     17  O   UNL     1      19.257  22.183  17.712  1.00  0.00    -0.550 OA
ENDBRANCH  14  15
ENDBRANCH  13  14
ENDBRANCH  12  13
ENDBRANCH  11  12
ENDBRANCH  10  11
ENDBRANCH   9  10
ENDBRANCH   8   9
ENDBRANCH   7   8
ENDBRANCH   6   7
ENDBRANCH   5   6
ENDBRANCH   4   5
ENDBRANCH   3   4
ENDBRANCH   2   3
ENDBRANCH   1   2
BRANCH   1  18
ATOM     18  C   UNL     1      23.081  22.805  17.005  1.00  0.00     0.000 C 
BRANCH  18  19
ATOM     19  C   UNL     1      24.015  24.031  17.037  1.00  0.00     0.000 C 
BRANCH  19  20
ATOM     20  C   UNL     1      25.375  23.741  16.379  1.00  0.00     0.000 C 
BRANCH  20  21
ATOM     21  C   UNL     1      25.965  24.971  15.667  1.00  0.00     0.000 C 
BRANCH  21  22
ATOM     22  C   UNL     1      25.500  26.329  16.230  1.00  0.00     0.000 C 
BRANCH  22  23
ATOM     23  C   UNL     1      25.627  27.528  15.265  1.00  0.00     0.000 C 
BRANCH  23  24
ATOM     24  C   UNL     1      24.624  28.676  15.503  1.00  0.00    -0.000 C 
BRANCH  24  25
ATOM     25  C   UNL     1      24.137  29.380  14.217  1.00  0.00    -0.000 C 
BRANCH  25  26
ATOM     26  C   UNL     1      24.759  28.819  12.924  1.00  0.00    -0.000 C 
BRANCH  26  27
ATOM     27  C   UNL     1      23.764  28.124  11.975  1.00  0.00    -0.000 C 
BRANCH  27  28
ATOM     28  C   UNL     1      23.443  26.656  12.318  1.00  0.00    -0.000 C 
BRANCH  28  29
ATOM     29  C   UNL     1      22.093  26.488  13.033  1.00  0.00    -0.000 C 
BRANCH  29  30
ATOM     30  C   UNL     1      22.243  26.069  14.507  1.00  0.00    -0.000 C 
BRANCH  30  31
ATOM     31  C   UNL     1      21.179  26.646  15.459  1.00  0.00    -0.003 C 
ATOM     32  C   UNL     1      21.699  26.863  16.880  1.00  0.00     0.004 C 
ENDBRANCH  30  31
ENDBRANCH  29  30
ENDBRANCH  28  29
ENDBRANCH  27  28
ENDBRANCH  26  27
ENDBRANCH  25  26
ENDBRANCH  24  25
ENDBRANCH  23  24
ENDBRANCH  22  23
ENDBRANCH  21  22
ENDBRANCH  20  21
ENDBRANCH  19  20
ENDBRANCH  18  19
ENDBRANCH   1  18
TORSDOF 28
ENDMDL
MODEL 4
REMARK VINA RESULT:    -0.867     17.961     21.304
REMARK INTER + INTRA:          -9.582
REMARK INTER:                  -2.722
REMARK INTRA:                  -6.860
REMARK UNBOUND:                -7.296
REMARK SMILES CCCCCCCCCCCCCCCCCCCCCCCCCCCCCC(=O)[O-]
REMARK SMILES IDX 16 1 17 2 18 3 19 4 20 5 21 6 22 7 23 8 24 9 25 10 26 11
REMARK SMILES IDX 27 12 28 13 29 14 30 15 31 16 32 17 15 18 14 19 13 20 12 21
REMARK SMILES IDX 11 22 10 23 9 24 8 25 7 26 6 27 5 28 4 29 3 30 2 31 1 32
REMARK H PARENT
REMARK Flexibility Score: inf
ROOT
ATOM      1  C   UNL     1      10.804  13.517  26.519  1.00  0.00     0.000 C 
ENDROOT
BRANCH   1   2
ATOM      2  C   UNL     1      11.110  12.573  27.693  1.00  0.00     0.000 C 
BRANCH   2   3
ATOM      3  C   UNL     1      10.946  11.091  27.316  1.00  0.00     0.000 C 
BRANCH   3   4
ATOM      4  C   UNL     1      10.294  10.913  25.933  1.00  0.00     0.000 C 
BRANCH   4   5
ATOM      5  C   UNL     1       8.990  10.099  25.994  1.00  0.00     0.000 C 
BRANCH   5   6
ATOM      6  C   UNL     1       8.352  10.102  27.394  1.00  0.00     0.000 C 
BRANCH   6   7
ATOM      7  C   UNL     1       7.069  10.945  27.455  1.00  0.00     0.000 C 
BRANCH   7   8
ATOM      8  C   UNL     1       7.355  12.445  27.647  1.00  0.00     0.000 C 
BRANCH   8   9
ATOM      9  C   UNL     1       7.041  13.269  26.387  1.00  0.00     0.000 C 
BRANCH   9  10
ATOM     10  C   UNL     1       5.879  12.672  25.571  1.00  0.00     0.000 C 
BRANCH  10  11
ATOM     11  C   UNL     1       6.296  12.238  24.155  1.00  0.00     0.000 C 
BRANCH  11  12
ATOM     12  C   UNL     1       7.310  13.164  23.460  1.00  0.00     0.000 C 
BRANCH  12  13
ATOM     13  C   UNL     1       8.590  12.434  23.026  1.00  0.00     0.006 C 
BRANCH  13  14
ATOM     14  C   UNL     1       9.797  13.377  23.054  1.00  0.00     0.053 C 
BRANCH  14  15
ATOM     15  C   UNL     1       9.879  14.167  21.785  1.00  0.00     0.041 C 
ATOM     16  O   UNL     1      10.285  13.623  20.723  1.00  0.00    -0.550 OA
ATOM     17  O   UNL     1       9.484  15.498  21.768  1.00  0.00    -0.550 OA
ENDBRANCH  14  15
ENDBRANCH  13  14
ENDBRANCH  12  13
ENDBRANCH  11  12
ENDBRANCH  10  11
ENDBRANCH   9  10
ENDBRANCH   8   9
ENDBRANCH   7   8
ENDBRANCH   6   7
ENDBRANCH   5   6
ENDBRANCH   4   5
ENDBRANCH   3   4
ENDBRANCH   2   3
ENDBRANCH   1   2
BRANCH   1  18
ATOM     18  C   UNL     1      11.845  14.640  26.368  1.00  0.00     0.000 C 
BRANCH  18  19
ATOM     19  C   UNL     1      12.426  15.138  27.708  1.00  0.00     0.000 C 
BRANCH  19  20
ATOM     20  C   UNL     1      11.541  16.216  28.358  1.00  0.00     0.000 C 
BRANCH  20  21
ATOM     21  C   UNL     1      11.113  15.849  29.790  1.00  0.00     0.000 C 
BRANCH  21  22
ATOM     22  C   UNL     1       9.624  15.480  29.945  1.00  0.00     0.000 C 
BRANCH  22  23
ATOM     23  C   UNL     1       8.744  15.730  28.702  1.00  0.00     0.000 C 
BRANCH  23  24
ATOM     24  C   UNL     1       7.635  16.787  28.880  1.00  0.00    -0.000 C 
BRANCH  24  25
ATOM     25  C   UNL     1       6.387  16.564  27.996  1.00  0.00    -0.000 C 
BRANCH  25  26
ATOM     26  C   UNL     1       5.998  17.788  27.145  1.00  0.00    -0.000 C 
BRANCH  26  27
ATOM     27  C   UNL     1       6.804  17.955  25.843  1.00  0.00    -0.000 C 
BRANCH  27  28
ATOM     28  C   UNL     1       7.087  16.650  25.073  1.00  0.00    -0.000 C 
BRANCH  28  29
ATOM     29  C   UNL     1       8.584  16.306  25.005  1.00  0.00    -0.000 C 
BRANCH  29  30
ATOM     30  C   UNL     1       9.486  17.461  25.478  1.00  0.00    -0.000 C 
BRANCH  30  31
ATOM     31  C   UNL     1      10.771  17.661  24.653  1.00  0.00    -0.003 C 
ATOM     32  C   UNL     1      11.817  18.514  25.369  1.00  0.00     0.004 C 
ENDBRANCH  30  31
ENDBRANCH  29  30
ENDBRANCH  28  29
ENDBRANCH  27  28
ENDBRANCH  26  27
ENDBRANCH  25  26
ENDBRANCH  24  25
ENDBRANCH  23  24
ENDBRANCH  22  23
ENDBRANCH  21  22
ENDBRANCH  20  21
ENDBRANCH  19  20
ENDBRANCH  18  19
ENDBRANCH   1  18
TORSDOF 28
ENDMDL
MODEL 5
REMARK VINA RESULT:    -0.864     17.851     21.104
REMARK INTER + INTRA:          -9.574
REMARK INTER:                  -2.976
REMARK INTRA:                  -6.598
REMARK UNBOUND:                -7.296
REMARK SMILES CCCCCCCCCCCCCCCCCCCCCCCCCCCCCC(=O)[O-]
REMARK SMILES IDX 16 1 17 2 18 3 19 4 20 5 21 6 22 7 23 8 24 9 25 10 26 11
REMARK SMILES IDX 27 12 28 13 29 14 30 15 31 16 32 17 15 18 14 19 13 20 12 21
REMARK SMILES IDX 11 22 10 23 9 24 8 25 7 26 6 27 5 28 4 29 3 30 2 31 1 32
REMARK H PARENT
REMARK Flexibility Score: inf
ROOT
ATOM      1  C   UNL     1       9.120  15.976  24.835  1.00  0.00     0.000 C 
ENDROOT
BRANCH   1   2
ATOM      2  C   UNL     1       8.759  16.431  26.258  1.00  0.00     0.000 C 
BRANCH   2   3
ATOM      3  C   UNL     1       7.241  16.556  26.468  1.00  0.00     0.000 C 
BRANCH   3   4
ATOM      4  C   UNL     1       6.665  15.370  27.263  1.00  0.00     0.000 C 
BRANCH   4   5
ATOM      5  C   UNL     1       5.888  14.383  26.374  1.00  0.00     0.000 C 
BRANCH   5   6
ATOM      6  C   UNL     1       5.884  12.952  26.939  1.00  0.00     0.000 C 
BRANCH   6   7
ATOM      7  C   UNL     1       6.416  11.920  25.932  1.00  0.00     0.000 C 
BRANCH   7   8
ATOM      8  C   UNL     1       7.022  10.683  26.618  1.00  0.00     0.000 C 
BRANCH   8   9
ATOM      9  C   UNL     1       7.570  10.998  28.020  1.00  0.00     0.000 C 
BRANCH   9  10
ATOM     10  C   UNL     1       9.014  10.499  28.209  1.00  0.00     0.000 C 
BRANCH  10  11
ATOM     11  C   UNL     1      10.029  11.641  28.392  1.00  0.00     0.000 C 
BRANCH  11  12
ATOM     12  C   UNL     1       9.516  13.039  28.004  1.00  0.00     0.000 C 
BRANCH  12  13
ATOM     13  C   UNL     1      10.464  14.168  28.435  1.00  0.00     0.006 C 
BRANCH  13  14
ATOM     14  C   UNL     1       9.833  15.024  29.538  1.00  0.00     0.053 C 
BRANCH  14  15
ATOM     15  C   UNL     1      10.717  15.066  30.746  1.00  0.00     0.041 C 
ATOM     16  O   UNL     1      11.068  16.171  31.238  1.00  0.00    -0.550 OA
ATOM     17  O   UNL     1      11.134  13.884  31.343  1.00  0.00    -0.550 OA
ENDBRANCH  14  15
ENDBRANCH  13  14
ENDBRANCH  12  13
ENDBRANCH  11  12
ENDBRANCH  10  11
ENDBRANCH   9  10
ENDBRANCH   8   9
ENDBRANCH   7   8
ENDBRANCH   6   7
ENDBRANCH   5   6
ENDBRANCH   4   5
ENDBRANCH   3   4
ENDBRANCH   2   3
ENDBRANCH   1   2
BRANCH   1  18
ATOM     18  C   UNL     1       9.076  14.446  24.667  1.00  0.00     0.000 C 
BRANCH  18  19
ATOM     19  C   UNL     1       8.483  13.982  23.321  1.00  0.00     0.000 C 
BRANCH  19  20
ATOM     20  C   UNL     1       9.365  12.926  22.633  1.00  0.00     0.000 C 
BRANCH  20  21
ATOM     21  C   UNL     1       8.733  11.523  22.648  1.00  0.00     0.000 C 
BRANCH  21  22
ATOM     22  C   UNL     1       9.542  10.456  23.412  1.00  0.00     0.000 C 
BRANCH  22  23
ATOM     23  C   UNL     1      10.113  10.905  24.775  1.00  0.00     0.000 C 
BRANCH  23  24
ATOM     24  C   UNL     1      11.558  10.451  25.067  1.00  0.00    -0.000 C 
BRANCH  24  25
ATOM     25  C   UNL     1      12.484  11.565  25.607  1.00  0.00    -0.000 C 
BRANCH  25  26
ATOM     26  C   UNL     1      12.608  12.782  24.670  1.00  0.00    -0.000 C 
BRANCH  26  27
ATOM     27  C   UNL     1      12.545  14.151  25.374  1.00  0.00    -0.000 C 
BRANCH  27  28
ATOM     28  C   UNL     1      12.890  15.363  24.487  1.00  0.00    -0.000 C 
BRANCH  28  29
ATOM     29  C   UNL     1      12.383  15.213  23.044  1.00  0.00    -0.000 C 
BRANCH  29  30
ATOM     30  C   UNL     1      11.896  16.543  22.439  1.00  0.00    -0.000 C 
BRANCH  30  31
ATOM     31  C   UNL     1      10.642  16.433  21.553  1.00  0.00    -0.003 C 
ATOM     32  C   UNL     1      10.026  17.790  21.213  1.00  0.00     0.004 C 
ENDBRANCH  30  31
ENDBRANCH  29  30
ENDBRANCH  28  29
ENDBRANCH  27  28
ENDBRANCH  26  27
ENDBRANCH  25  26
ENDBRANCH  24  25
ENDBRANCH  23  24
ENDBRANCH  22  23
ENDBRANCH  21  22
ENDBRANCH  20  21
ENDBRANCH  19  20
ENDBRANCH  18  19
ENDBRANCH   1  18
TORSDOF 28
ENDMDL
MODEL 6
REMARK VINA RESULT:    -0.861      1.565      4.081
REMARK INTER + INTRA:          -9.565
REMARK INTER:                  -2.875
REMARK INTRA:                  -6.690
REMARK UNBOUND:                -7.296
REMARK SMILES CCCCCCCCCCCCCCCCCCCCCCCCCCCCCC(=O)[O-]
REMARK SMILES IDX 16 1 17 2 18 3 19 4 20 5 21 6 22 7 23 8 24 9 25 10 26 11
REMARK SMILES IDX 27 12 28 13 29 14 30 15 31 16 32 17 15 18 14 19 13 20 12 21
REMARK SMILES IDX 11 22 10 23 9 24 8 25 7 26 6 27 5 28 4 29 3 30 2 31 1 32
REMARK H PARENT
REMARK Flexibility Score: inf
ROOT
ATOM      1  C   UNL     1      23.086  25.839  19.909  1.00  0.00     0.000 C 
ENDROOT
BRANCH   1   2
ATOM      2  C   UNL     1      22.963  27.358  19.702  1.00  0.00     0.000 C 
BRANCH   2   3
ATOM      3  C   UNL     1      24.231  27.973  19.086  1.00  0.00     0.000 C 
BRANCH   3   4
ATOM      4  C   UNL     1      23.907  29.144  18.141  1.00  0.00     0.000 C 
BRANCH   4   5
ATOM      5  C   UNL     1      22.495  29.048  17.540  1.00  0.00     0.000 C 
BRANCH   5   6
ATOM      6  C   UNL     1      22.470  29.344  16.030  1.00  0.00     0.000 C 
BRANCH   6   7
ATOM      7  C   UNL     1      23.831  29.823  15.502  1.00  0.00     0.000 C 
BRANCH   7   8
ATOM      8  C   UNL     1      24.064  29.436  14.031  1.00  0.00     0.000 C 
BRANCH   8   9
ATOM      9  C   UNL     1      25.231  28.449  13.860  1.00  0.00     0.000 C 
BRANCH   9  10
ATOM     10  C   UNL     1      25.698  27.856  15.202  1.00  0.00     0.000 C 
BRANCH  10  11
ATOM     11  C   UNL     1      25.514  26.330  15.285  1.00  0.00     0.000 C 
BRANCH  11  12
ATOM     12  C   UNL     1      24.298  25.862  16.104  1.00  0.00     0.000 C 
BRANCH  12  13
ATOM     13  C   UNL     1      24.569  24.574  16.897  1.00  0.00     0.006 C 
BRANCH  13  14
ATOM     14  C   UNL     1      24.050  23.346  16.142  1.00  0.00     0.053 C 
BRANCH  14  15
ATOM     15  C   UNL     1      25.187  22.568  15.554  1.00  0.00     0.041 C 
ATOM     16  O   UNL     1      25.632  21.549  16.145  1.00  0.00    -0.550 OA
ATOM     17  O   UNL     1      25.737  22.955  14.340  1.00  0.00    -0.550 OA
ENDBRANCH  14  15
ENDBRANCH  13  14
ENDBRANCH  12  13
ENDBRANCH  11  12
ENDBRANCH  10  11
ENDBRANCH   9  10
ENDBRANCH   8   9
ENDBRANCH   7   8
ENDBRANCH   6   7
ENDBRANCH   5   6
ENDBRANCH   4   5
ENDBRANCH   3   4
ENDBRANCH   2   3
ENDBRANCH   1   2
BRANCH   1  18
ATOM     18  C   UNL     1      21.862  25.064  19.391  1.00  0.00     0.000 C 
BRANCH  18  19
ATOM     19  C   UNL     1      20.872  25.928  18.583  1.00  0.00     0.000 C 
BRANCH  19  20
ATOM     20  C   UNL     1      20.870  25.563  17.088  1.00  0.00     0.000 C 
BRANCH  20  21
ATOM     21  C   UNL     1      20.036  26.537  16.239  1.00  0.00     0.000 C 
BRANCH  21  22
ATOM     22  C   UNL     1      18.871  25.887  15.465  1.00  0.00     0.000 C 
BRANCH  22  23
ATOM     23  C   UNL     1      18.170  26.796  14.432  1.00  0.00     0.000 C 
BRANCH  23  24
ATOM     24  C   UNL     1      18.804  26.807  13.026  1.00  0.00    -0.000 C 
BRANCH  24  25
ATOM     25  C   UNL     1      19.660  28.057  12.718  1.00  0.00    -0.000 C 
BRANCH  25  26
ATOM     26  C   UNL     1      21.177  27.824  12.855  1.00  0.00    -0.000 C 
BRANCH  26  27
ATOM     27  C   UNL     1      21.753  26.741  11.922  1.00  0.00    -0.000 C 
BRANCH  27  28
ATOM     28  C   UNL     1      23.097  26.135  12.370  1.00  0.00    -0.000 C 
BRANCH  28  29
ATOM     29  C   UNL     1      22.972  24.673  12.831  1.00  0.00    -0.000 C 
BRANCH  29  30
ATOM     30  C   UNL     1      21.672  24.400  13.610  1.00  0.00    -0.000 C 
BRANCH  30  31
ATOM     31  C   UNL     1      20.677  23.460  12.904  1.00  0.00    -0.003 C 
ATOM     32  C   UNL     1      19.797  22.678  13.878  1.00  0.00     0.004 C 
ENDBRANCH  30  31
ENDBRANCH  29  30
ENDBRANCH  28  29
ENDBRANCH  27  28
ENDBRANCH  26  27
ENDBRANCH  25  26
ENDBRANCH  24  25
ENDBRANCH  23  24
ENDBRANCH  22  23
ENDBRANCH  21  22
ENDBRANCH  20  21
ENDBRANCH  19  20
ENDBRANCH  18  19
ENDBRANCH   1  18
TORSDOF 28
ENDMDL
MODEL 7
REMARK VINA RESULT:    -0.833     17.782     21.019
REMARK INTER + INTRA:          -9.492
REMARK INTER:                  -2.582
REMARK INTRA:                  -6.910
REMARK UNBOUND:                -7.296
REMARK SMILES CCCCCCCCCCCCCCCCCCCCCCCCCCCCCC(=O)[O-]
REMARK SMILES IDX 16 1 17 2 18 3 19 4 20 5 21 6 22 7 23 8 24 9 25 10 26 11
REMARK SMILES IDX 27 12 28 13 29 14 30 15 31 16 32 17 15 18 14 19 13 20 12 21
REMARK SMILES IDX 11 22 10 23 9 24 8 25 7 26 6 27 5 28 4 29 3 30 2 31 1 32
REMARK H PARENT
REMARK Flexibility Score: inf
ROOT
ATOM      1  C   UNL     1      10.085  15.279  23.838  1.00  0.00     0.000 C 
ENDROOT
BRANCH   1   2
ATOM      2  C   UNL     1       9.505  16.487  24.590  1.00  0.00     0.000 C 
BRANCH   2   3
ATOM      3  C   UNL     1       9.242  16.186  26.075  1.00  0.00     0.000 C 
BRANCH   3   4
ATOM      4  C   UNL     1       9.715  14.776  26.474  1.00  0.00     0.000 C 
BRANCH   4   5
ATOM      5  C   UNL     1       8.662  14.007  27.290  1.00  0.00     0.000 C 
BRANCH   5   6
ATOM      6  C   UNL     1       7.240  14.562  27.097  1.00  0.00     0.000 C 
BRANCH   6   7
ATOM      7  C   UNL     1       6.209  13.455  26.824  1.00  0.00     0.000 C 
BRANCH   7   8
ATOM      8  C   UNL     1       6.591  12.117  27.478  1.00  0.00     0.000 C 
BRANCH   8   9
ATOM      9  C   UNL     1       6.655  10.963  26.463  1.00  0.00     0.000 C 
BRANCH   9  10
ATOM     10  C   UNL     1       7.834  10.011  26.732  1.00  0.00     0.000 C 
BRANCH  10  11
ATOM     11  C   UNL     1       8.575  10.323  28.045  1.00  0.00     0.000 C 
BRANCH  11  12
ATOM     12  C   UNL     1      10.110  10.234  27.965  1.00  0.00     0.000 C 
BRANCH  12  13
ATOM     13  C   UNL     1      10.798  10.529  29.306  1.00  0.00     0.006 C 
BRANCH  13  14
ATOM     14  C   UNL     1      11.251  11.990  29.381  1.00  0.00     0.053 C 
BRANCH  14  15
ATOM     15  C   UNL     1      12.717  12.075  29.673  1.00  0.00     0.041 C 
ATOM     16  O   UNL     1      13.322  13.176  29.575  1.00  0.00    -0.550 OA
ATOM     17  O   UNL     1      13.411  10.943  30.078  1.00  0.00    -0.550 OA
ENDBRANCH  14  15
ENDBRANCH  13  14
ENDBRANCH  12  13
ENDBRANCH  11  12
ENDBRANCH  10  11
ENDBRANCH   9  10
ENDBRANCH   8   9
ENDBRANCH   7   8
ENDBRANCH   6   7
ENDBRANCH   5   6
ENDBRANCH   4   5
ENDBRANCH   3   4
ENDBRANCH   2   3
ENDBRANCH   1   2
BRANCH   1  18
ATOM     18  C   UNL     1       9.246  14.879  22.611  1.00  0.00     0.000 C 
BRANCH  18  19
ATOM     19  C   UNL     1       7.825  14.390  22.959  1.00  0.00     0.000 C 
BRANCH  19  20
ATOM     20  C   UNL     1       7.840  13.023  23.666  1.00  0.00     0.000 C 
BRANCH  20  21
ATOM     21  C   UNL     1       8.470  11.915  22.805  1.00  0.00     0.000 C 
BRANCH  21  22
ATOM     22  C   UNL     1       9.517  11.047  23.531  1.00  0.00     0.000 C 
BRANCH  22  23
ATOM     23  C   UNL     1      10.291  11.750  24.668  1.00  0.00     0.000 C 
BRANCH  23  24
ATOM     24  C   UNL     1      11.810  11.889  24.443  1.00  0.00    -0.000 C 
BRANCH  24  25
ATOM     25  C   UNL     1      12.647  11.962  25.740  1.00  0.00    -0.000 C 
BRANCH  25  26
ATOM     26  C   UNL     1      13.095  13.387  26.116  1.00  0.00    -0.000 C 
BRANCH  26  27
ATOM     27  C   UNL     1      13.384  14.312  24.919  1.00  0.00    -0.000 C 
BRANCH  27  28
ATOM     28  C   UNL     1      14.077  15.643  25.268  1.00  0.00    -0.000 C 
BRANCH  28  29
ATOM     29  C   UNL     1      13.183  16.869  25.017  1.00  0.00    -0.000 C 
BRANCH  29  30
ATOM     30  C   UNL     1      12.698  17.534  26.318  1.00  0.00    -0.000 C 
BRANCH  30  31
ATOM     31  C   UNL     1      13.289  16.943  27.610  1.00  0.00    -0.003 C 
ATOM     32  C   UNL     1      12.227  16.387  28.557  1.00  0.00     0.004 C 
ENDBRANCH  30  31
ENDBRANCH  29  30
ENDBRANCH  28  29
ENDBRANCH  27  28
ENDBRANCH  26  27
ENDBRANCH  25  26
ENDBRANCH  24  25
ENDBRANCH  23  24
ENDBRANCH  22  23
ENDBRANCH  21  22
ENDBRANCH  20  21
ENDBRANCH  19  20
ENDBRANCH  18  19
ENDBRANCH   1  18
TORSDOF 28
ENDMDL
MODEL 8
REMARK VINA RESULT:    -0.829      1.517      3.842
REMARK INTER + INTRA:          -9.481
REMARK INTER:                  -2.527
REMARK INTRA:                  -6.954
REMARK UNBOUND:                -7.296
REMARK SMILES CCCCCCCCCCCCCCCCCCCCCCCCCCCCCC(=O)[O-]
REMARK SMILES IDX 16 1 17 2 18 3 19 4 20 5 21 6 22 7 23 8 24 9 25 10 26 11
REMARK SMILES IDX 27 12 28 13 29 14 30 15 31 16 32 17 15 18 14 19 13 20 12 21
REMARK SMILES IDX 11 22 10 23 9 24 8 25 7 26 6 27 5 28 4 29 3 30 2 31 1 32
REMARK H PARENT
REMARK Flexibility Score: inf
ROOT
ATOM      1  C   UNL     1      19.225  26.336  19.743  1.00  0.00     0.000 C 
ENDROOT
BRANCH   1   2
ATOM      2  C   UNL     1      18.990  27.540  18.818  1.00  0.00     0.000 C 
BRANCH   2   3
ATOM      3  C   UNL     1      20.100  28.598  18.934  1.00  0.00     0.000 C 
BRANCH   3   4
ATOM      4  C   UNL     1      20.368  29.309  17.595  1.00  0.00     0.000 C 
BRANCH   4   5
ATOM      5  C   UNL     1      21.866  29.390  17.257  1.00  0.00     0.000 C 
BRANCH   5   6
ATOM      6  C   UNL     1      22.635  28.118  17.656  1.00  0.00     0.000 C 
BRANCH   6   7
ATOM      7  C   UNL     1      23.733  28.395  18.695  1.00  0.00     0.000 C 
BRANCH   7   8
ATOM      8  C   UNL     1      24.159  27.128  19.456  1.00  0.00     0.000 C 
BRANCH   8   9
ATOM      9  C   UNL     1      23.042  26.073  19.514  1.00  0.00     0.000 C 
BRANCH   9  10
ATOM     10  C   UNL     1      23.585  24.659  19.788  1.00  0.00     0.000 C 
BRANCH  10  11
ATOM     11  C   UNL     1      25.107  24.547  19.587  1.00  0.00     0.000 C 
BRANCH  11  12
ATOM     12  C   UNL     1      25.662  23.111  19.583  1.00  0.00     0.000 C 
BRANCH  12  13
ATOM     13  C   UNL     1      25.967  22.591  18.170  1.00  0.00     0.006 C 
BRANCH  13  14
ATOM     14  C   UNL     1      25.520  21.134  18.013  1.00  0.00     0.053 C 
BRANCH  14  15
ATOM     15  C   UNL     1      24.140  21.064  17.435  1.00  0.00     0.041 C 
ATOM     16  O   UNL     1      23.457  22.112  17.294  1.00  0.00    -0.550 OA
ATOM     17  O   UNL     1      23.618  19.843  17.030  1.00  0.00    -0.550 OA
ENDBRANCH  14  15
ENDBRANCH  13  14
ENDBRANCH  12  13
ENDBRANCH  11  12
ENDBRANCH  10  11
ENDBRANCH   9  10
ENDBRANCH   8   9
ENDBRANCH   7   8
ENDBRANCH   6   7
ENDBRANCH   5   6
ENDBRANCH   4   5
ENDBRANCH   3   4
ENDBRANCH   2   3
ENDBRANCH   1   2
BRANCH   1  18
ATOM     18  C   UNL     1      19.400  25.015  18.973  1.00  0.00     0.000 C 
BRANCH  18  19
ATOM     19  C   UNL     1      19.486  25.191  17.443  1.00  0.00     0.000 C 
BRANCH  19  20
ATOM     20  C   UNL     1      20.892  24.878  16.902  1.00  0.00     0.000 C 
BRANCH  20  21
ATOM     21  C   UNL     1      21.135  25.468  15.502  1.00  0.00     0.000 C 
BRANCH  21  22
ATOM     22  C   UNL     1      20.218  26.651  15.131  1.00  0.00     0.000 C 
BRANCH  22  23
ATOM     23  C   UNL     1      20.787  27.630  14.080  1.00  0.00     0.000 C 
BRANCH  23  24
ATOM     24  C   UNL     1      22.321  27.602  13.916  1.00  0.00    -0.000 C 
BRANCH  24  25
ATOM     25  C   UNL     1      22.983  28.997  13.834  1.00  0.00    -0.000 C 
BRANCH  25  26
ATOM     26  C   UNL     1      24.382  29.062  14.475  1.00  0.00    -0.000 C 
BRANCH  26  27
ATOM     27  C   UNL     1      25.106  27.707  14.590  1.00  0.00    -0.000 C 
BRANCH  27  28
ATOM     28  C   UNL     1      25.906  27.497  15.890  1.00  0.00    -0.000 C 
BRANCH  28  29
ATOM     29  C   UNL     1      25.947  26.027  16.339  1.00  0.00    -0.000 C 
BRANCH  29  30
ATOM     30  C   UNL     1      24.712  25.227  15.884  1.00  0.00    -0.000 C 
BRANCH  30  31
ATOM     31  C   UNL     1      25.006  24.085  14.895  1.00  0.00    -0.003 C 
ATOM     32  C   UNL     1      23.987  23.998  13.760  1.00  0.00     0.004 C 
ENDBRANCH  30  31
ENDBRANCH  29  30
ENDBRANCH  28  29
ENDBRANCH  27  28
ENDBRANCH  26  27
ENDBRANCH  25  26
ENDBRANCH  24  25
ENDBRANCH  23  24
ENDBRANCH  22  23
ENDBRANCH  21  22
ENDBRANCH  20  21
ENDBRANCH  19  20
ENDBRANCH  18  19
ENDBRANCH   1  18
TORSDOF 28
ENDMDL
MODEL 9
REMARK VINA RESULT:    -0.820      2.696      6.231
REMARK INTER + INTRA:          -9.459
REMARK INTER:                  -2.998
REMARK INTRA:                  -6.461
REMARK UNBOUND:                -7.296
REMARK SMILES CCCCCCCCCCCCCCCCCCCCCCCCCCCCCC(=O)[O-]
REMARK SMILES IDX 16 1 17 2 18 3 19 4 20 5 21 6 22 7 23 8 24 9 25 10 26 11
REMARK SMILES IDX 27 12 28 13 29 14 30 15 31 16 32 17 15 18 14 19 13 20 12 21
REMARK SMILES IDX 11 22 10 23 9 24 8 25 7 26 6 27 5 28 4 29 3 30 2 31 1 32
REMARK H PARENT
REMARK Flexibility Score: inf
ROOT
ATOM      1  C   UNL     1      19.943  25.628  17.420  1.00  0.00     0.000 C 
ENDROOT
BRANCH   1   2
ATOM      2  C   UNL     1      21.201  26.451  17.740  1.00  0.00     0.000 C 
BRANCH   2   3
ATOM      3  C   UNL     1      21.294  27.735  16.898  1.00  0.00     0.000 C 
BRANCH   3   4
ATOM      4  C   UNL     1      20.093  27.894  15.948  1.00  0.00     0.000 C 
BRANCH   4   5
ATOM      5  C   UNL     1      20.511  27.942  14.468  1.00  0.00     0.000 C 
BRANCH   5   6
ATOM      6  C   UNL     1      20.969  26.572  13.936  1.00  0.00     0.000 C 
BRANCH   6   7
ATOM      7  C   UNL     1      21.952  26.695  12.762  1.00  0.00     0.000 C 
BRANCH   7   8
ATOM      8  C   UNL     1      23.318  26.056  13.065  1.00  0.00     0.000 C 
BRANCH   8   9
ATOM      9  C   UNL     1      23.758  26.274  14.523  1.00  0.00     0.000 C 
BRANCH   9  10
ATOM     10  C   UNL     1      24.804  27.395  14.658  1.00  0.00     0.000 C 
BRANCH  10  11
ATOM     11  C   UNL     1      24.182  28.803  14.675  1.00  0.00     0.000 C 
BRANCH  11  12
ATOM     12  C   UNL     1      24.246  29.528  16.031  1.00  0.00     0.000 C 
BRANCH  12  13
ATOM     13  C   UNL     1      24.991  28.723  17.107  1.00  0.00     0.006 C 
BRANCH  13  14
ATOM     14  C   UNL     1      25.352  29.608  18.304  1.00  0.00     0.053 C 
BRANCH  14  15
ATOM     15  C   UNL     1      24.524  29.246  19.498  1.00  0.00     0.041 C 
ATOM     16  O   UNL     1      25.076  28.833  20.552  1.00  0.00    -0.550 OA
ATOM     17  O   UNL     1      23.144  29.389  19.455  1.00  0.00    -0.550 OA
ENDBRANCH  14  15
ENDBRANCH  13  14
ENDBRANCH  12  13
ENDBRANCH  11  12
ENDBRANCH  10  11
ENDBRANCH   9  10
ENDBRANCH   8   9
ENDBRANCH   7   8
ENDBRANCH   6   7
ENDBRANCH   5   6
ENDBRANCH   4   5
ENDBRANCH   3   4
ENDBRANCH   2   3
ENDBRANCH   1   2
BRANCH   1  18
ATOM     18  C   UNL     1      20.266  24.266  16.779  1.00  0.00     0.000 C 
BRANCH  18  19
ATOM     19  C   UNL     1      21.774  24.017  16.570  1.00  0.00     0.000 C 
BRANCH  19  20
ATOM     20  C   UNL     1      22.054  22.628  15.969  1.00  0.00     0.000 C 
BRANCH  20  21
ATOM     21  C   UNL     1      22.348  22.682  14.460  1.00  0.00     0.000 C 
BRANCH  21  22
ATOM     22  C   UNL     1      22.997  21.409  13.882  1.00  0.00     0.000 C 
BRANCH  22  23
ATOM     23  C   UNL     1      24.512  21.506  13.596  1.00  0.00     0.000 C 
BRANCH  23  24
ATOM     24  C   UNL     1      25.130  22.906  13.783  1.00  0.00    -0.000 C 
BRANCH  24  25
ATOM     25  C   UNL     1      26.119  23.019  14.966  1.00  0.00    -0.000 C 
BRANCH  25  26
ATOM     26  C   UNL     1      25.864  21.998  16.091  1.00  0.00    -0.000 C 
BRANCH  26  27
ATOM     27  C   UNL     1      25.579  22.615  17.474  1.00  0.00    -0.000 C 
BRANCH  27  28
ATOM     28  C   UNL     1      26.114  24.046  17.678  1.00  0.00    -0.000 C 
BRANCH  28  29
ATOM     29  C   UNL     1      25.001  25.107  17.685  1.00  0.00    -0.000 C 
BRANCH  29  30
ATOM     30  C   UNL     1      24.576  25.520  19.106  1.00  0.00    -0.000 C 
BRANCH  30  31
ATOM     31  C   UNL     1      23.610  24.546  19.804  1.00  0.00    -0.003 C 
ATOM     32  C   UNL     1      24.204  23.907  21.059  1.00  0.00     0.004 C 
ENDBRANCH  30  31
ENDBRANCH  29  30
ENDBRANCH  28  29
ENDBRANCH  27  28
ENDBRANCH  26  27
ENDBRANCH  25  26
ENDBRANCH  24  25
ENDBRANCH  23  24
ENDBRANCH  22  23
ENDBRANCH  21  22
ENDBRANCH  20  21
ENDBRANCH  19  20
ENDBRANCH  18  19
ENDBRANCH   1  18
TORSDOF 28
ENDMDL
