MODEL 1
REMARK VINA RESULT:    -3.991      0.000      0.000
REMARK INTER + INTRA:          -4.493
REMARK INTER:                  -4.807
REMARK INTRA:                   0.314
REMARK UNBOUND:                 0.314
REMARK SMILES O=c1c(O)c(-c2ccc(O)c(O)c2)oc2cc(O)cc(O)c12
REMARK SMILES IDX 5 1 3 2 2 3 1 4 22 5 20 6 19 7 17 8 16 9 15 10 14 11 6 12
REMARK SMILES IDX 7 13 8 14 9 15 13 16 11 17 10 18 12 20 4 22 21 24 18 26
REMARK H PARENT 10 19 12 21 4 23 21 25 18 27
REMARK Flexibility Score: inf
ROOT
ATOM      1  C   UNL     1      33.309  25.132  37.243  1.00  0.00     0.180 A 
ATOM      2  C   UNL     1      34.519  24.485  36.939  1.00  0.00     0.208 A 
ATOM      3  C   UNL     1      34.835  23.288  37.602  1.00  0.00     0.238 A 
ATOM      4  O   UNL     1      35.893  22.684  37.287  1.00  0.00    -0.285 OA
ATOM      5  C   UNL     1      33.946  22.763  38.571  1.00  0.00     0.111 A 
ATOM      6  C   UNL     1      34.185  21.579  39.332  1.00  0.00     0.134 A 
ATOM      7  C   UNL     1      33.177  21.082  40.168  1.00  0.00     0.093 A 
ATOM      8  C   UNL     1      31.966  21.760  40.319  1.00  0.00     0.123 A 
ATOM      9  C   UNL     1      31.748  22.949  39.626  1.00  0.00     0.094 A 
ATOM     10  C   UNL     1      32.719  23.451  38.757  1.00  0.00     0.146 A 
ATOM     11  O   UNL     1      32.466  24.581  38.107  1.00  0.00    -0.452 OA
ENDROOT
BRANCH   1  12
ATOM     12  C   UNL     1      32.918  26.410  36.604  1.00  0.00     0.025 A 
ATOM     13  C   UNL     1      33.879  27.286  36.069  1.00  0.00     0.016 A 
ATOM     14  C   UNL     1      33.489  28.497  35.493  1.00  0.00     0.051 A 
ATOM     15  C   UNL     1      32.135  28.858  35.455  1.00  0.00     0.157 A 
ATOM     16  C   UNL     1      31.565  26.786  36.582  1.00  0.00     0.062 A 
ATOM     17  C   UNL     1      31.170  27.999  36.005  1.00  0.00     0.158 A 
BRANCH  15  18
ATOM     18  O   UNL     1      31.749  30.066  34.877  1.00  0.00    -0.504 OA
ATOM     19  H   UNL     1      30.782  30.261  34.648  1.00  0.00     0.293 HD
ENDBRANCH  15  18
BRANCH  17  20
ATOM     20  O   UNL     1      29.816  28.333  35.989  1.00  0.00    -0.504 OA
ATOM     21  H   UNL     1      29.136  27.855  36.568  1.00  0.00     0.293 HD
ENDBRANCH  17  20
ENDBRANCH   1  12
BRANCH   2  22
ATOM     22  O   UNL     1      35.371  25.008  35.964  1.00  0.00    -0.502 OA
ATOM     23  H   UNL     1      35.643  25.983  35.944  1.00  0.00     0.293 HD
ENDBRANCH   2  22
BRANCH   6  24
ATOM     24  O   UNL     1      35.392  20.876  39.324  1.00  0.00    -0.507 OA
ATOM     25  H   UNL     1      35.676  20.213  40.028  1.00  0.00     0.293 HD
ENDBRANCH   6  24
BRANCH   8  26
ATOM     26  O   UNL     1      30.976  21.267  41.166  1.00  0.00    -0.508 OA
ATOM     27  H   UNL     1      30.455  20.428  40.940  1.00  0.00     0.293 HD
ENDBRANCH   8  26
TORSDOF 6
ENDMDL
MODEL 2
REMARK VINA RESULT:    -3.288      1.642      6.520
REMARK INTER + INTRA:          -3.647
REMARK INTER:                  -3.395
REMARK INTRA:                  -0.252
REMARK UNBOUND:                 0.314
REMARK SMILES O=c1c(O)c(-c2ccc(O)c(O)c2)oc2cc(O)cc(O)c12
REMARK SMILES IDX 5 1 3 2 2 3 1 4 22 5 20 6 19 7 17 8 16 9 15 10 14 11 6 12
REMARK SMILES IDX 7 13 8 14 9 15 13 16 11 17 10 18 12 20 4 22 21 24 18 26
REMARK H PARENT 10 19 12 21 4 23 21 25 18 27
REMARK Flexibility Score: inf
ROOT
ATOM      1  C   UNL     1      32.787  24.873  37.426  1.00  0.00     0.180 A 
ATOM      2  C   UNL     1      34.182  24.791  37.280  1.00  0.00     0.208 A 
ATOM      3  C   UNL     1      34.857  25.822  36.605  1.00  0.00     0.238 A 
ATOM      4  O   UNL     1      36.112  25.771  36.525  1.00  0.00    -0.285 OA
ATOM      5  C   UNL     1      34.127  26.912  36.073  1.00  0.00     0.111 A 
ATOM      6  C   UNL     1      34.703  27.991  35.338  1.00  0.00     0.134 A 
ATOM      7  C   UNL     1      33.904  29.081  34.971  1.00  0.00     0.093 A 
ATOM      8  C   UNL     1      32.537  29.101  35.258  1.00  0.00     0.123 A 
ATOM      9  C   UNL     1      31.955  28.024  35.923  1.00  0.00     0.094 A 
ATOM     10  C   UNL     1      32.732  26.939  36.333  1.00  0.00     0.146 A 
ATOM     11  O   UNL     1      32.139  25.939  36.974  1.00  0.00    -0.452 OA
ENDROOT
BRANCH   1  12
ATOM     12  C   UNL     1      32.003  23.814  38.102  1.00  0.00     0.025 A 
ATOM     13  C   UNL     1      31.183  22.932  37.375  1.00  0.00     0.016 A 
ATOM     14  C   UNL     1      30.434  21.956  38.037  1.00  0.00     0.051 A 
ATOM     15  C   UNL     1      30.481  21.855  39.434  1.00  0.00     0.157 A 
ATOM     16  C   UNL     1      32.029  23.722  39.503  1.00  0.00     0.062 A 
ATOM     17  C   UNL     1      31.280  22.745  40.170  1.00  0.00     0.158 A 
BRANCH  15  18
ATOM     18  O   UNL     1      29.733  20.879  40.090  1.00  0.00    -0.504 OA
ATOM     19  H   UNL     1      30.162  20.223  40.733  1.00  0.00     0.293 HD
ENDBRANCH  15  18
BRANCH  17  20
ATOM     20  O   UNL     1      31.342  22.675  41.561  1.00  0.00    -0.504 OA
ATOM     21  H   UNL     1      31.237  23.494  42.147  1.00  0.00     0.293 HD
ENDBRANCH  17  20
ENDBRANCH   1  12
BRANCH   2  22
ATOM     22  O   UNL     1      34.886  23.718  37.832  1.00  0.00    -0.502 OA
ATOM     23  H   UNL     1      35.601  23.215  37.321  1.00  0.00     0.293 HD
ENDBRANCH   2  22
BRANCH   6  24
ATOM     24  O   UNL     1      36.037  28.027  34.921  1.00  0.00    -0.507 OA
ATOM     25  H   UNL     1      36.642  28.830  35.003  1.00  0.00     0.293 HD
ENDBRANCH   6  24
BRANCH   8  26
ATOM     26  O   UNL     1      31.746  30.182  34.875  1.00  0.00    -0.508 OA
ATOM     27  H   UNL     1      32.100  31.131  34.895  1.00  0.00     0.293 HD
ENDBRANCH   8  26
TORSDOF 6
ENDMDL
MODEL 3
REMARK VINA RESULT:    -2.991      1.536      7.251
REMARK INTER + INTRA:          -3.289
REMARK INTER:                  -3.338
REMARK INTRA:                   0.049
REMARK UNBOUND:                 0.314
REMARK SMILES O=c1c(O)c(-c2ccc(O)c(O)c2)oc2cc(O)cc(O)c12
REMARK SMILES IDX 5 1 3 2 2 3 1 4 22 5 20 6 19 7 17 8 16 9 15 10 14 11 6 12
REMARK SMILES IDX 7 13 8 14 9 15 13 16 11 17 10 18 12 20 4 22 21 24 18 26
REMARK H PARENT 10 19 12 21 4 23 21 25 18 27
REMARK Flexibility Score: inf
ROOT
ATOM      1  C   UNL     1      32.085  25.393  38.061  1.00  0.00     0.180 A 
ATOM      2  C   UNL     1      30.913  26.087  37.715  1.00  0.00     0.208 A 
ATOM      3  C   UNL     1      31.009  27.206  36.872  1.00  0.00     0.238 A 
ATOM      4  O   UNL     1      29.950  27.790  36.521  1.00  0.00    -0.285 OA
ATOM      5  C   UNL     1      32.276  27.625  36.398  1.00  0.00     0.111 A 
ATOM      6  C   UNL     1      32.493  28.768  35.571  1.00  0.00     0.134 A 
ATOM      7  C   UNL     1      33.772  29.013  35.057  1.00  0.00     0.093 A 
ATOM      8  C   UNL     1      34.853  28.193  35.390  1.00  0.00     0.123 A 
ATOM      9  C   UNL     1      34.661  27.111  36.245  1.00  0.00     0.094 A 
ATOM     10  C   UNL     1      33.390  26.819  36.746  1.00  0.00     0.146 A 
ATOM     11  O   UNL     1      33.249  25.771  37.549  1.00  0.00    -0.452 OA
ENDROOT
BRANCH   1  12
ATOM     12  C   UNL     1      32.067  24.220  38.966  1.00  0.00     0.025 A 
ATOM     13  C   UNL     1      31.315  24.223  40.154  1.00  0.00     0.016 A 
ATOM     14  C   UNL     1      31.333  23.114  41.004  1.00  0.00     0.051 A 
ATOM     15  C   UNL     1      32.112  21.993  40.687  1.00  0.00     0.157 A 
ATOM     16  C   UNL     1      32.863  23.103  38.664  1.00  0.00     0.062 A 
ATOM     17  C   UNL     1      32.883  21.990  39.513  1.00  0.00     0.158 A 
BRANCH  15  18
ATOM     18  O   UNL     1      32.126  20.888  41.537  1.00  0.00    -0.504 OA
ATOM     19  H   UNL     1      31.783  20.945  42.488  1.00  0.00     0.293 HD
ENDBRANCH  15  18
BRANCH  17  20
ATOM     20  O   UNL     1      33.674  20.893  39.174  1.00  0.00    -0.504 OA
ATOM     21  H   UNL     1      34.684  20.917  39.236  1.00  0.00     0.293 HD
ENDBRANCH  17  20
ENDBRANCH   1  12
BRANCH   2  22
ATOM     22  O   UNL     1      29.670  25.643  38.175  1.00  0.00    -0.502 OA
ATOM     23  H   UNL     1      29.505  25.394  39.143  1.00  0.00     0.293 HD
ENDBRANCH   2  22
BRANCH   6  24
ATOM     24  O   UNL     1      31.503  29.700  35.252  1.00  0.00    -0.507 OA
ATOM     25  H   UNL     1      31.679  30.655  34.978  1.00  0.00     0.293 HD
ENDBRANCH   6  24
BRANCH   8  26
ATOM     26  O   UNL     1      36.125  28.454  34.886  1.00  0.00    -0.508 OA
ATOM     27  H   UNL     1      36.558  27.849  34.199  1.00  0.00     0.293 HD
ENDBRANCH   8  26
TORSDOF 6
ENDMDL
MODEL 4
REMARK VINA RESULT:    -2.884      1.700      3.181
REMARK INTER + INTRA:          -3.160
REMARK INTER:                  -3.713
REMARK INTRA:                   0.553
REMARK UNBOUND:                 0.314
REMARK SMILES O=c1c(O)c(-c2ccc(O)c(O)c2)oc2cc(O)cc(O)c12
REMARK SMILES IDX 5 1 3 2 2 3 1 4 22 5 20 6 19 7 17 8 16 9 15 10 14 11 6 12
REMARK SMILES IDX 7 13 8 14 9 15 13 16 11 17 10 18 12 20 4 22 21 24 18 26
REMARK H PARENT 10 19 12 21 4 23 21 25 18 27
REMARK Flexibility Score: inf
ROOT
ATOM      1  C   UNL     1      33.300  25.797  37.401  1.00  0.00     0.180 A 
ATOM      2  C   UNL     1      31.897  25.736  37.449  1.00  0.00     0.208 A 
ATOM      3  C   UNL     1      31.285  24.642  38.081  1.00  0.00     0.238 A 
ATOM      4  O   UNL     1      30.029  24.621  38.170  1.00  0.00    -0.285 OA
ATOM      5  C   UNL     1      32.082  23.616  38.643  1.00  0.00     0.111 A 
ATOM      6  C   UNL     1      31.567  22.443  39.272  1.00  0.00     0.134 A 
ATOM      7  C   UNL     1      32.446  21.557  39.906  1.00  0.00     0.093 A 
ATOM      8  C   UNL     1      33.827  21.770  39.880  1.00  0.00     0.123 A 
ATOM      9  C   UNL     1      34.342  22.881  39.217  1.00  0.00     0.094 A 
ATOM     10  C   UNL     1      33.488  23.801  38.605  1.00  0.00     0.146 A 
ATOM     11  O   UNL     1      34.021  24.852  37.993  1.00  0.00    -0.452 OA
ENDROOT
BRANCH   1  12
ATOM     12  C   UNL     1      34.018  26.905  36.730  1.00  0.00     0.025 A 
ATOM     13  C   UNL     1      35.422  26.986  36.749  1.00  0.00     0.016 A 
ATOM     14  C   UNL     1      36.076  28.054  36.130  1.00  0.00     0.051 A 
ATOM     15  C   UNL     1      35.339  29.064  35.496  1.00  0.00     0.157 A 
ATOM     16  C   UNL     1      33.284  27.931  36.113  1.00  0.00     0.062 A 
ATOM     17  C   UNL     1      33.936  29.002  35.491  1.00  0.00     0.158 A 
BRANCH  15  18
ATOM     18  O   UNL     1      35.996  30.126  34.878  1.00  0.00    -0.504 OA
ATOM     19  H   UNL     1      35.667  30.518  34.004  1.00  0.00     0.293 HD
ENDBRANCH  15  18
BRANCH  17  20
ATOM     20  O   UNL     1      33.174  29.995  34.875  1.00  0.00    -0.504 OA
ATOM     21  H   UNL     1      32.251  29.811  34.502  1.00  0.00     0.293 HD
ENDBRANCH  17  20
ENDBRANCH   1  12
BRANCH   2  22
ATOM     22  O   UNL     1      31.130  26.771  36.909  1.00  0.00    -0.502 OA
ATOM     23  H   UNL     1      31.391  27.257  36.059  1.00  0.00     0.293 HD
ENDBRANCH   2  22
BRANCH   6  24
ATOM     24  O   UNL     1      30.214  22.089  39.276  1.00  0.00    -0.507 OA
ATOM     25  H   UNL     1      29.651  21.963  38.450  1.00  0.00     0.293 HD
ENDBRANCH   6  24
BRANCH   8  26
ATOM     26  O   UNL     1      34.695  20.875  40.501  1.00  0.00    -0.508 OA
ATOM     27  H   UNL     1      34.462  20.434  41.382  1.00  0.00     0.293 HD
ENDBRANCH   8  26
TORSDOF 6
ENDMDL
