MODEL 1
REMARK VINA RESULT:    -6.235      0.000      0.000
REMARK INTER + INTRA:          -6.834
REMARK INTER:                  -7.328
REMARK INTRA:                   0.495
REMARK UNBOUND:                 0.495
REMARK SMILES O=c1c(O)c(-c2ccc(O)cc2)oc2cc(O)cc(O)c12
REMARK SMILES IDX 5 1 3 2 2 3 1 4 21 5 19 6 18 7 16 8 15 9 14 10 13 11 6 12
REMARK SMILES IDX 7 13 8 14 9 15 12 16 11 17 10 18 4 20 20 22 17 24
REMARK H PARENT 10 19 4 21 20 23 17 25
REMARK Flexibility Score: inf
ROOT
ATOM      1  C   UNL     1       0.524 -18.962  -7.809  1.00  0.00     0.180 A 
ATOM      2  C   UNL     1       1.527 -18.557  -6.911  1.00  0.00     0.208 A 
ATOM      3  C   UNL     1       1.447 -17.282  -6.331  1.00  0.00     0.238 A 
ATOM      4  O   UNL     1       2.376 -16.905  -5.569  1.00  0.00    -0.285 OA
ATOM      5  C   UNL     1       0.357 -16.434  -6.641  1.00  0.00     0.111 A 
ATOM      6  C   UNL     1       0.155 -15.137  -6.079  1.00  0.00     0.134 A 
ATOM      7  C   UNL     1      -0.887 -14.333  -6.558  1.00  0.00     0.093 A 
ATOM      8  C   UNL     1      -1.772 -14.802  -7.528  1.00  0.00     0.123 A 
ATOM      9  C   UNL     1      -1.619 -16.090  -8.040  1.00  0.00     0.094 A 
ATOM     10  C   UNL     1      -0.567 -16.903  -7.610  1.00  0.00     0.146 A 
ATOM     11  O   UNL     1      -0.450 -18.119  -8.130  1.00  0.00    -0.452 OA
ENDROOT
BRANCH   1  12
ATOM     12  C   UNL     1       0.525 -20.300  -8.442  1.00  0.00     0.021 A 
ATOM     13  C   UNL     1      -0.601 -20.726  -9.165  1.00  0.00     0.016 A 
ATOM     14  C   UNL     1      -0.629 -21.994  -9.753  1.00  0.00     0.047 A 
ATOM     15  C   UNL     1       0.464 -22.860  -9.611  1.00  0.00     0.115 A 
ATOM     16  C   UNL     1       1.611 -21.183  -8.288  1.00  0.00     0.016 A 
ATOM     17  C   UNL     1       1.580 -22.451  -8.876  1.00  0.00     0.047 A 
BRANCH  15  18
ATOM     18  O   UNL     1       0.447 -24.125 -10.193  1.00  0.00    -0.508 OA
ATOM     19  H   UNL     1       1.302 -24.636 -10.374  1.00  0.00     0.293 HD
ENDBRANCH  15  18
ENDBRANCH   1  12
BRANCH   2  20
ATOM     20  O   UNL     1       2.605 -19.403  -6.636  1.00  0.00    -0.502 OA
ATOM     21  H   UNL     1       2.574 -20.105  -5.906  1.00  0.00     0.293 HD
ENDBRANCH   2  20
BRANCH   6  22
ATOM     22  O   UNL     1       0.925 -14.607  -5.040  1.00  0.00    -0.507 OA
ATOM     23  H   UNL     1       1.901 -14.363  -5.115  1.00  0.00     0.293 HD
ENDBRANCH   6  22
BRANCH   8  24
ATOM     24  O   UNL     1      -2.808 -13.981  -7.969  1.00  0.00    -0.508 OA
ATOM     25  H   UNL     1      -2.868 -13.008  -7.692  1.00  0.00     0.293 HD
ENDBRANCH   8  24
TORSDOF 5
ENDMDL
MODEL 2
REMARK VINA RESULT:    -6.097      1.601      6.608
REMARK INTER + INTRA:          -6.671
REMARK INTER:                  -6.593
REMARK INTRA:                  -0.078
REMARK UNBOUND:                 0.495
REMARK SMILES O=c1c(O)c(-c2ccc(O)cc2)oc2cc(O)cc(O)c12
REMARK SMILES IDX 5 1 3 2 2 3 1 4 21 5 19 6 18 7 16 8 15 9 14 10 13 11 6 12
REMARK SMILES IDX 7 13 8 14 9 15 12 16 11 17 10 18 4 20 20 22 17 24
REMARK H PARENT 10 19 4 21 20 23 17 25
REMARK Flexibility Score: inf
ROOT
ATOM      1  C   UNL     1      -0.026 -19.029  -8.127  1.00  0.00     0.180 A 
ATOM      2  C   UNL     1       1.096 -19.400  -7.365  1.00  0.00     0.208 A 
ATOM      3  C   UNL     1       1.646 -20.679  -7.543  1.00  0.00     0.238 A 
ATOM      4  O   UNL     1       2.617 -21.024  -6.819  1.00  0.00    -0.285 OA
ATOM      5  C   UNL     1       1.080 -21.565  -8.490  1.00  0.00     0.111 A 
ATOM      6  C   UNL     1       1.582 -22.870  -8.781  1.00  0.00     0.134 A 
ATOM      7  C   UNL     1       0.864 -23.709  -9.642  1.00  0.00     0.093 A 
ATOM      8  C   UNL     1      -0.299 -23.269 -10.274  1.00  0.00     0.123 A 
ATOM      9  C   UNL     1      -0.765 -21.974 -10.043  1.00  0.00     0.094 A 
ATOM     10  C   UNL     1      -0.091 -21.126  -9.160  1.00  0.00     0.146 A 
ATOM     11  O   UNL     1      -0.574 -19.905  -8.960  1.00  0.00    -0.452 OA
ENDROOT
BRANCH   1  12
ATOM     12  C   UNL     1      -0.647 -17.690  -8.014  1.00  0.00     0.021 A 
ATOM     13  C   UNL     1      -2.021 -17.585  -7.743  1.00  0.00     0.016 A 
ATOM     14  C   UNL     1      -2.633 -16.331  -7.654  1.00  0.00     0.047 A 
ATOM     15  C   UNL     1      -1.881 -15.165  -7.852  1.00  0.00     0.115 A 
ATOM     16  C   UNL     1       0.097 -16.516  -8.231  1.00  0.00     0.016 A 
ATOM     17  C   UNL     1      -0.517 -15.262  -8.143  1.00  0.00     0.047 A 
BRANCH  15  18
ATOM     18  O   UNL     1      -2.479 -13.911  -7.765  1.00  0.00    -0.508 OA
ATOM     19  H   UNL     1      -1.928 -13.064  -7.693  1.00  0.00     0.293 HD
ENDBRANCH  15  18
ENDBRANCH   1  12
BRANCH   2  20
ATOM     20  O   UNL     1       1.626 -18.518  -6.420  1.00  0.00    -0.502 OA
ATOM     21  H   UNL     1       2.073 -18.837  -5.568  1.00  0.00     0.293 HD
ENDBRANCH   2  20
BRANCH   6  22
ATOM     22  O   UNL     1       2.784 -23.375  -8.275  1.00  0.00    -0.507 OA
ATOM     23  H   UNL     1       2.892 -23.797  -7.366  1.00  0.00     0.293 HD
ENDBRANCH   6  22
BRANCH   8  24
ATOM     24  O   UNL     1      -0.978 -24.125 -11.137  1.00  0.00    -0.508 OA
ATOM     25  H   UNL     1      -1.987 -24.212 -11.112  1.00  0.00     0.293 HD
ENDBRANCH   8  24
TORSDOF 5
ENDMDL
MODEL 3
REMARK VINA RESULT:    -6.096      1.329      3.159
REMARK INTER + INTRA:          -6.670
REMARK INTER:                  -7.164
REMARK INTRA:                   0.493
REMARK UNBOUND:                 0.495
REMARK SMILES O=c1c(O)c(-c2ccc(O)cc2)oc2cc(O)cc(O)c12
REMARK SMILES IDX 5 1 3 2 2 3 1 4 21 5 19 6 18 7 16 8 15 9 14 10 13 11 6 12
REMARK SMILES IDX 7 13 8 14 9 15 12 16 11 17 10 18 4 20 20 22 17 24
REMARK H PARENT 10 19 4 21 20 23 17 25
REMARK Flexibility Score: inf
ROOT
ATOM      1  C   UNL     1      -0.370 -18.613  -8.049  1.00  0.00     0.180 A 
ATOM      2  C   UNL     1      -1.518 -18.203  -8.750  1.00  0.00     0.208 A 
ATOM      3  C   UNL     1      -2.037 -16.920  -8.516  1.00  0.00     0.238 A 
ATOM      4  O   UNL     1      -3.095 -16.579  -9.108  1.00  0.00    -0.285 OA
ATOM      5  C   UNL     1      -1.394 -16.057  -7.596  1.00  0.00     0.111 A 
ATOM      6  C   UNL     1      -1.811 -14.721  -7.312  1.00  0.00     0.134 A 
ATOM      7  C   UNL     1      -1.179 -14.005  -6.288  1.00  0.00     0.093 A 
ATOM      8  C   UNL     1      -0.105 -14.549  -5.584  1.00  0.00     0.123 A 
ATOM      9  C   UNL     1       0.348 -15.831  -5.895  1.00  0.00     0.094 A 
ATOM     10  C   UNL     1      -0.285 -16.585  -6.886  1.00  0.00     0.146 A 
ATOM     11  O   UNL     1       0.171 -17.805  -7.145  1.00  0.00    -0.452 OA
ENDROOT
BRANCH   1  12
ATOM     12  C   UNL     1       0.250 -19.940  -8.260  1.00  0.00     0.021 A 
ATOM     13  C   UNL     1       1.395 -20.294  -7.527  1.00  0.00     0.016 A 
ATOM     14  C   UNL     1       2.010 -21.533  -7.726  1.00  0.00     0.047 A 
ATOM     15  C   UNL     1       1.497 -22.429  -8.673  1.00  0.00     0.115 A 
ATOM     16  C   UNL     1      -0.248 -20.837  -9.223  1.00  0.00     0.016 A 
ATOM     17  C   UNL     1       0.369 -22.077  -9.421  1.00  0.00     0.047 A 
BRANCH  15  18
ATOM     18  O   UNL     1       2.100 -23.667  -8.880  1.00  0.00    -0.508 OA
ATOM     19  H   UNL     1       2.017 -24.417  -8.204  1.00  0.00     0.293 HD
ENDBRANCH  15  18
ENDBRANCH   1  12
BRANCH   2  20
ATOM     20  O   UNL     1      -2.148 -19.079  -9.638  1.00  0.00    -0.502 OA
ATOM     21  H   UNL     1      -1.859 -20.043  -9.750  1.00  0.00     0.293 HD
ENDBRANCH   2  20
BRANCH   6  22
ATOM     22  O   UNL     1      -2.813 -14.049  -8.017  1.00  0.00    -0.507 OA
ATOM     23  H   UNL     1      -3.570 -13.536  -7.592  1.00  0.00     0.293 HD
ENDBRANCH   6  22
BRANCH   8  24
ATOM     24  O   UNL     1       0.510 -13.802  -4.582  1.00  0.00    -0.508 OA
ATOM     25  H   UNL     1       1.294 -13.192  -4.781  1.00  0.00     0.293 HD
ENDBRANCH   8  24
TORSDOF 5
ENDMDL
MODEL 4
REMARK VINA RESULT:    -6.054      3.377      6.592
REMARK INTER + INTRA:          -6.621
REMARK INTER:                  -6.368
REMARK INTRA:                  -0.253
REMARK UNBOUND:                 0.495
REMARK SMILES O=c1c(O)c(-c2ccc(O)cc2)oc2cc(O)cc(O)c12
REMARK SMILES IDX 5 1 3 2 2 3 1 4 21 5 19 6 18 7 16 8 15 9 14 10 13 11 6 12
REMARK SMILES IDX 7 13 8 14 9 15 12 16 11 17 10 18 4 20 20 22 17 24
REMARK H PARENT 10 19 4 21 20 23 17 25
REMARK Flexibility Score: inf
ROOT
ATOM      1  C   UNL     1       1.513 -17.137  -5.641  1.00  0.00     0.180 A 
ATOM      2  C   UNL     1       2.818 -16.640  -5.480  1.00  0.00     0.208 A 
ATOM      3  C   UNL     1       3.806 -17.481  -4.945  1.00  0.00     0.238 A 
ATOM      4  O   UNL     1       4.959 -17.013  -4.754  1.00  0.00    -0.285 OA
ATOM      5  C   UNL     1       3.481 -18.812  -4.592  1.00  0.00     0.111 A 
ATOM      6  C   UNL     1       4.414 -19.765  -4.079  1.00  0.00     0.134 A 
ATOM      7  C   UNL     1       3.955 -21.013  -3.641  1.00  0.00     0.093 A 
ATOM      8  C   UNL     1       2.611 -21.368  -3.758  1.00  0.00     0.123 A 
ATOM      9  C   UNL     1       1.702 -20.467  -4.313  1.00  0.00     0.094 A 
ATOM     10  C   UNL     1       2.124 -19.201  -4.726  1.00  0.00     0.146 A 
ATOM     11  O   UNL     1       1.225 -18.369  -5.240  1.00  0.00    -0.452 OA
ENDROOT
BRANCH   1  12
ATOM     12  C   UNL     1       0.423 -16.319  -6.221  1.00  0.00     0.021 A 
ATOM     13  C   UNL     1       0.086 -16.475  -7.575  1.00  0.00     0.016 A 
ATOM     14  C   UNL     1      -0.925 -15.698  -8.149  1.00  0.00     0.047 A 
ATOM     15  C   UNL     1      -1.600 -14.741  -7.378  1.00  0.00     0.115 A 
ATOM     16  C   UNL     1      -0.246 -15.343  -5.459  1.00  0.00     0.016 A 
ATOM     17  C   UNL     1      -1.256 -14.566  -6.034  1.00  0.00     0.047 A 
BRANCH  15  18
ATOM     18  O   UNL     1      -2.609 -13.962  -7.938  1.00  0.00    -0.508 OA
ATOM     19  H   UNL     1      -3.296 -14.357  -8.569  1.00  0.00     0.293 HD
ENDBRANCH  15  18
ENDBRANCH   1  12
BRANCH   2  20
ATOM     20  O   UNL     1       3.111 -15.315  -5.815  1.00  0.00    -0.502 OA
ATOM     21  H   UNL     1       3.432 -15.045  -6.738  1.00  0.00     0.293 HD
ENDBRANCH   2  20
BRANCH   6  22
ATOM     22  O   UNL     1       5.793 -19.545  -4.004  1.00  0.00    -0.507 OA
ATOM     23  H   UNL     1       6.480 -20.263  -3.833  1.00  0.00     0.293 HD
ENDBRANCH   6  22
BRANCH   8  24
ATOM     24  O   UNL     1       2.192 -22.625  -3.327  1.00  0.00    -0.508 OA
ATOM     25  H   UNL     1       1.948 -23.356  -3.983  1.00  0.00     0.293 HD
ENDBRANCH   8  24
TORSDOF 5
ENDMDL
MODEL 5
REMARK VINA RESULT:    -6.032      2.091      7.544
REMARK INTER + INTRA:          -6.596
REMARK INTER:                  -6.577
REMARK INTRA:                  -0.019
REMARK UNBOUND:                 0.495
REMARK SMILES O=c1c(O)c(-c2ccc(O)cc2)oc2cc(O)cc(O)c12
REMARK SMILES IDX 5 1 3 2 2 3 1 4 21 5 19 6 18 7 16 8 15 9 14 10 13 11 6 12
REMARK SMILES IDX 7 13 8 14 9 15 12 16 11 17 10 18 4 20 20 22 17 24
REMARK H PARENT 10 19 4 21 20 23 17 25
REMARK Flexibility Score: inf
ROOT
ATOM      1  C   UNL     1      -1.230 -15.662  -6.516  1.00  0.00     0.180 A 
ATOM      2  C   UNL     1      -2.156 -16.009  -7.515  1.00  0.00     0.208 A 
ATOM      3  C   UNL     1      -1.958 -17.191  -8.246  1.00  0.00     0.238 A 
ATOM      4  O   UNL     1      -2.761 -17.469  -9.175  1.00  0.00    -0.285 OA
ATOM      5  C   UNL     1      -0.846 -18.018  -7.959  1.00  0.00     0.111 A 
ATOM      6  C   UNL     1      -0.570 -19.259  -8.610  1.00  0.00     0.134 A 
ATOM      7  C   UNL     1       0.629 -19.930  -8.337  1.00  0.00     0.093 A 
ATOM      8  C   UNL     1       1.529 -19.441  -7.391  1.00  0.00     0.123 A 
ATOM      9  C   UNL     1       1.240 -18.260  -6.706  1.00  0.00     0.094 A 
ATOM     10  C   UNL     1       0.070 -17.549  -6.982  1.00  0.00     0.146 A 
ATOM     11  O   UNL     1      -0.162 -16.425  -6.315  1.00  0.00    -0.452 OA
ENDROOT
BRANCH   1  12
ATOM     12  C   UNL     1      -1.384 -14.445  -5.687  1.00  0.00     0.021 A 
ATOM     13  C   UNL     1      -0.297 -13.569  -5.534  1.00  0.00     0.016 A 
ATOM     14  C   UNL     1      -0.414 -12.425  -4.737  1.00  0.00     0.047 A 
ATOM     15  C   UNL     1      -1.616 -12.153  -4.070  1.00  0.00     0.115 A 
ATOM     16  C   UNL     1      -2.581 -14.175  -4.998  1.00  0.00     0.016 A 
ATOM     17  C   UNL     1      -2.696 -13.031  -4.201  1.00  0.00     0.047 A 
BRANCH  15  18
ATOM     18  O   UNL     1      -1.744 -11.017  -3.274  1.00  0.00    -0.508 OA
ATOM     19  H   UNL     1      -1.529 -11.035  -2.285  1.00  0.00     0.293 HD
ENDBRANCH  15  18
ENDBRANCH   1  12
BRANCH   2  20
ATOM     20  O   UNL     1      -3.235 -15.166  -7.796  1.00  0.00    -0.502 OA
ATOM     21  H   UNL     1      -4.136 -15.518  -8.100  1.00  0.00     0.293 HD
ENDBRANCH   2  20
BRANCH   6  22
ATOM     22  O   UNL     1      -1.445 -19.883  -9.505  1.00  0.00    -0.507 OA
ATOM     23  H   UNL     1      -2.089 -19.399 -10.110  1.00  0.00     0.293 HD
ENDBRANCH   6  22
BRANCH   8  24
ATOM     24  O   UNL     1       2.704 -20.143  -7.133  1.00  0.00    -0.508 OA
ATOM     25  H   UNL     1       2.990 -20.927  -7.706  1.00  0.00     0.293 HD
ENDBRANCH   8  24
TORSDOF 5
ENDMDL
MODEL 6
REMARK VINA RESULT:    -5.850      2.018      6.700
REMARK INTER + INTRA:          -6.381
REMARK INTER:                  -6.113
REMARK INTRA:                  -0.268
REMARK UNBOUND:                 0.495
REMARK SMILES O=c1c(O)c(-c2ccc(O)cc2)oc2cc(O)cc(O)c12
REMARK SMILES IDX 5 1 3 2 2 3 1 4 21 5 19 6 18 7 16 8 15 9 14 10 13 11 6 12
REMARK SMILES IDX 7 13 8 14 9 15 12 16 11 17 10 18 4 20 20 22 17 24
REMARK H PARENT 10 19 4 21 20 23 17 25
REMARK Flexibility Score: inf
ROOT
ATOM      1  C   UNL     1       0.232 -16.821  -5.545  1.00  0.00     0.180 A 
ATOM      2  C   UNL     1       1.334 -17.157  -4.740  1.00  0.00     0.208 A 
ATOM      3  C   UNL     1       2.094 -18.291  -5.065  1.00  0.00     0.238 A 
ATOM      4  O   UNL     1       3.047 -18.617  -4.308  1.00  0.00    -0.285 OA
ATOM      5  C   UNL     1       1.754 -19.066  -6.199  1.00  0.00     0.111 A 
ATOM      6  C   UNL     1       2.479 -20.213  -6.644  1.00  0.00     0.134 A 
ATOM      7  C   UNL     1       1.976 -20.980  -7.702  1.00  0.00     0.093 A 
ATOM      8  C   UNL     1       0.812 -20.606  -8.373  1.00  0.00     0.123 A 
ATOM      9  C   UNL     1       0.128 -19.454  -7.984  1.00  0.00     0.094 A 
ATOM     10  C   UNL     1       0.585 -18.688  -6.909  1.00  0.00     0.146 A 
ATOM     11  O   UNL     1      -0.101 -17.604  -6.564  1.00  0.00    -0.452 OA
ENDROOT
BRANCH   1  12
ATOM     12  C   UNL     1      -0.603 -15.627  -5.282  1.00  0.00     0.021 A 
ATOM     13  C   UNL     1      -1.869 -15.782  -4.694  1.00  0.00     0.016 A 
ATOM     14  C   UNL     1      -2.682 -14.670  -4.457  1.00  0.00     0.047 A 
ATOM     15  C   UNL     1      -2.246 -13.389  -4.820  1.00  0.00     0.115 A 
ATOM     16  C   UNL     1      -0.180 -14.339  -5.662  1.00  0.00     0.016 A 
ATOM     17  C   UNL     1      -0.996 -13.228  -5.425  1.00  0.00     0.047 A 
BRANCH  15  18
ATOM     18  O   UNL     1      -3.047 -12.274  -4.588  1.00  0.00    -0.508 OA
ATOM     19  H   UNL     1      -4.032 -12.270  -4.826  1.00  0.00     0.293 HD
ENDBRANCH  15  18
ENDBRANCH   1  12
BRANCH   2  20
ATOM     20  O   UNL     1       1.639 -16.390  -3.612  1.00  0.00    -0.502 OA
ATOM     21  H   UNL     1       1.429 -15.400  -3.553  1.00  0.00     0.293 HD
ENDBRANCH   2  20
BRANCH   6  22
ATOM     22  O   UNL     1       3.702 -20.622  -6.103  1.00  0.00    -0.507 OA
ATOM     23  H   UNL     1       4.328 -21.284  -6.534  1.00  0.00     0.293 HD
ENDBRANCH   6  22
BRANCH   8  24
ATOM     24  O   UNL     1       0.349 -21.384  -9.432  1.00  0.00    -0.508 OA
ATOM     25  H   UNL     1       0.664 -21.228 -10.381  1.00  0.00     0.293 HD
ENDBRANCH   8  24
TORSDOF 5
ENDMDL
MODEL 7
REMARK VINA RESULT:    -5.848      1.390      6.534
REMARK INTER + INTRA:          -6.379
REMARK INTER:                  -6.101
REMARK INTRA:                  -0.278
REMARK UNBOUND:                 0.495
REMARK SMILES O=c1c(O)c(-c2ccc(O)cc2)oc2cc(O)cc(O)c12
REMARK SMILES IDX 5 1 3 2 2 3 1 4 21 5 19 6 18 7 16 8 15 9 14 10 13 11 6 12
REMARK SMILES IDX 7 13 8 14 9 15 12 16 11 17 10 18 4 20 20 22 17 24
REMARK H PARENT 10 19 4 21 20 23 17 25
REMARK Flexibility Score: inf
ROOT
ATOM      1  C   UNL     1       0.258 -18.436  -7.696  1.00  0.00     0.180 A 
ATOM      2  C   UNL     1       1.448 -19.076  -7.310  1.00  0.00     0.208 A 
ATOM      3  C   UNL     1       1.704 -20.376  -7.774  1.00  0.00     0.238 A 
ATOM      4  O   UNL     1       2.746 -20.963  -7.382  1.00  0.00    -0.285 OA
ATOM      5  C   UNL     1       0.775 -21.013  -8.631  1.00  0.00     0.111 A 
ATOM      6  C   UNL     1       0.952 -22.314  -9.193  1.00  0.00     0.134 A 
ATOM      7  C   UNL     1      -0.091 -22.899  -9.921  1.00  0.00     0.093 A 
ATOM      8  C   UNL     1      -1.278 -22.206 -10.164  1.00  0.00     0.123 A 
ATOM      9  C   UNL     1      -1.437 -20.911  -9.669  1.00  0.00     0.094 A 
ATOM     10  C   UNL     1      -0.428 -20.315  -8.908  1.00  0.00     0.146 A 
ATOM     11  O   UNL     1      -0.624 -19.085  -8.447  1.00  0.00    -0.452 OA
ENDROOT
BRANCH   1  12
ATOM     12  C   UNL     1      -0.071 -17.058  -7.268  1.00  0.00     0.021 A 
ATOM     13  C   UNL     1      -0.702 -16.848  -6.031  1.00  0.00     0.016 A 
ATOM     14  C   UNL     1      -1.041 -15.556  -5.617  1.00  0.00     0.047 A 
ATOM     15  C   UNL     1      -0.768 -14.458  -6.444  1.00  0.00     0.115 A 
ATOM     16  C   UNL     1       0.181 -15.952  -8.101  1.00  0.00     0.016 A 
ATOM     17  C   UNL     1      -0.160 -14.660  -7.686  1.00  0.00     0.047 A 
BRANCH  15  18
ATOM     18  O   UNL     1      -1.101 -13.167  -6.042  1.00  0.00    -0.508 OA
ATOM     19  H   UNL     1      -1.045 -12.883  -5.071  1.00  0.00     0.293 HD
ENDBRANCH  15  18
ENDBRANCH   1  12
BRANCH   2  20
ATOM     20  O   UNL     1       2.341 -18.436  -6.446  1.00  0.00    -0.502 OA
ATOM     21  H   UNL     1       2.564 -17.451  -6.526  1.00  0.00     0.293 HD
ENDBRANCH   2  20
BRANCH   6  22
ATOM     22  O   UNL     1       2.132 -23.056  -9.089  1.00  0.00    -0.507 OA
ATOM     23  H   UNL     1       2.173 -24.052  -8.936  1.00  0.00     0.293 HD
ENDBRANCH   6  22
BRANCH   8  24
ATOM     24  O   UNL     1      -2.289 -22.812 -10.906  1.00  0.00    -0.508 OA
ATOM     25  H   UNL     1      -2.157 -23.056 -11.880  1.00  0.00     0.293 HD
ENDBRANCH   8  24
TORSDOF 5
ENDMDL
MODEL 8
REMARK VINA RESULT:    -5.776      3.213      7.985
REMARK INTER + INTRA:          -6.294
REMARK INTER:                  -6.040
REMARK INTRA:                  -0.254
REMARK UNBOUND:                 0.495
REMARK SMILES O=c1c(O)c(-c2ccc(O)cc2)oc2cc(O)cc(O)c12
REMARK SMILES IDX 5 1 3 2 2 3 1 4 21 5 19 6 18 7 16 8 15 9 14 10 13 11 6 12
REMARK SMILES IDX 7 13 8 14 9 15 12 16 11 17 10 18 4 20 20 22 17 24
REMARK H PARENT 10 19 4 21 20 23 17 25
REMARK Flexibility Score: inf
ROOT
ATOM      1  C   UNL     1      -0.677 -14.434  -5.292  1.00  0.00     0.180 A 
ATOM      2  C   UNL     1      -0.673 -14.623  -6.684  1.00  0.00     0.208 A 
ATOM      3  C   UNL     1       0.085 -15.672  -7.228  1.00  0.00     0.238 A 
ATOM      4  O   UNL     1       0.127 -15.802  -8.479  1.00  0.00    -0.285 OA
ATOM      5  C   UNL     1       0.818 -16.528  -6.372  1.00  0.00     0.111 A 
ATOM      6  C   UNL     1       1.589 -17.647  -6.811  1.00  0.00     0.134 A 
ATOM      7  C   UNL     1       2.379 -18.345  -5.890  1.00  0.00     0.093 A 
ATOM      8  C   UNL     1       2.375 -18.009  -4.536  1.00  0.00     0.123 A 
ATOM      9  C   UNL     1       1.579 -16.955  -4.087  1.00  0.00     0.094 A 
ATOM     10  C   UNL     1       0.808 -16.216  -4.988  1.00  0.00     0.146 A 
ATOM     11  O   UNL     1       0.072 -15.213  -4.521  1.00  0.00    -0.452 OA
ENDROOT
BRANCH   1  12
ATOM     12  C   UNL     1      -1.471 -13.367  -4.642  1.00  0.00     0.021 A 
ATOM     13  C   UNL     1      -2.854 -13.541  -4.470  1.00  0.00     0.016 A 
ATOM     14  C   UNL     1      -3.627 -12.536  -3.879  1.00  0.00     0.047 A 
ATOM     15  C   UNL     1      -3.028 -11.337  -3.468  1.00  0.00     0.115 A 
ATOM     16  C   UNL     1      -0.881 -12.153  -4.246  1.00  0.00     0.016 A 
ATOM     17  C   UNL     1      -1.656 -11.149  -3.656  1.00  0.00     0.047 A 
BRANCH  15  18
ATOM     18  O   UNL     1      -3.788 -10.330  -2.878  1.00  0.00    -0.508 OA
ATOM     19  H   UNL     1      -4.691 -10.061  -3.250  1.00  0.00     0.293 HD
ENDBRANCH  15  18
ENDBRANCH   1  12
BRANCH   2  20
ATOM     20  O   UNL     1      -1.387 -13.753  -7.513  1.00  0.00    -0.502 OA
ATOM     21  H   UNL     1      -1.338 -13.801  -8.524  1.00  0.00     0.293 HD
ENDBRANCH   2  20
BRANCH   6  22
ATOM     22  O   UNL     1       1.593 -18.125  -8.125  1.00  0.00    -0.507 OA
ATOM     23  H   UNL     1       2.087 -18.947  -8.436  1.00  0.00     0.293 HD
ENDBRANCH   6  22
BRANCH   8  24
ATOM     24  O   UNL     1       3.160 -18.736  -3.644  1.00  0.00    -0.508 OA
ATOM     25  H   UNL     1       4.145 -18.896  -3.815  1.00  0.00     0.293 HD
ENDBRANCH   8  24
TORSDOF 5
ENDMDL
MODEL 9
REMARK VINA RESULT:    -5.774      2.850      4.859
REMARK INTER + INTRA:          -6.293
REMARK INTER:                  -6.353
REMARK INTRA:                   0.060
REMARK UNBOUND:                 0.495
REMARK SMILES O=c1c(O)c(-c2ccc(O)cc2)oc2cc(O)cc(O)c12
REMARK SMILES IDX 5 1 3 2 2 3 1 4 21 5 19 6 18 7 16 8 15 9 14 10 13 11 6 12
REMARK SMILES IDX 7 13 8 14 9 15 12 16 11 17 10 18 4 20 20 22 17 24
REMARK H PARENT 10 19 4 21 20 23 17 25
REMARK Flexibility Score: inf
ROOT
ATOM      1  C   UNL     1       1.954 -17.409  -5.757  1.00  0.00     0.180 A 
ATOM      2  C   UNL     1       1.369 -17.996  -6.893  1.00  0.00     0.208 A 
ATOM      3  C   UNL     1       0.309 -17.334  -7.532  1.00  0.00     0.238 A 
ATOM      4  O   UNL     1      -0.245 -17.892  -8.517  1.00  0.00    -0.285 OA
ATOM      5  C   UNL     1      -0.143 -16.088  -7.039  1.00  0.00     0.111 A 
ATOM      6  C   UNL     1      -1.183 -15.310  -7.633  1.00  0.00     0.134 A 
ATOM      7  C   UNL     1      -1.637 -14.155  -6.985  1.00  0.00     0.093 A 
ATOM      8  C   UNL     1      -1.046 -13.713  -5.802  1.00  0.00     0.123 A 
ATOM      9  C   UNL     1       0.011 -14.433  -5.245  1.00  0.00     0.094 A 
ATOM     10  C   UNL     1       0.462 -15.609  -5.849  1.00  0.00     0.146 A 
ATOM     11  O   UNL     1       1.464 -16.271  -5.281  1.00  0.00    -0.452 OA
ENDROOT
BRANCH   1  12
ATOM     12  C   UNL     1       3.090 -18.033  -5.044  1.00  0.00     0.021 A 
ATOM     13  C   UNL     1       3.001 -19.374  -4.636  1.00  0.00     0.016 A 
ATOM     14  C   UNL     1       4.054 -19.977  -3.941  1.00  0.00     0.047 A 
ATOM     15  C   UNL     1       5.204 -19.239  -3.630  1.00  0.00     0.115 A 
ATOM     16  C   UNL     1       4.241 -17.294  -4.710  1.00  0.00     0.016 A 
ATOM     17  C   UNL     1       5.293 -17.898  -4.014  1.00  0.00     0.047 A 
BRANCH  15  18
ATOM     18  O   UNL     1       6.260 -19.829  -2.940  1.00  0.00    -0.508 OA
ATOM     19  H   UNL     1       6.987 -20.343  -3.421  1.00  0.00     0.293 HD
ENDBRANCH  15  18
ENDBRANCH   1  12
BRANCH   2  20
ATOM     20  O   UNL     1       1.817 -19.238  -7.350  1.00  0.00    -0.502 OA
ATOM     21  H   UNL     1       1.436 -19.684  -8.177  1.00  0.00     0.293 HD
ENDBRANCH   2  20
BRANCH   6  22
ATOM     22  O   UNL     1      -1.780 -15.612  -8.861  1.00  0.00    -0.507 OA
ATOM     23  H   UNL     1      -1.696 -15.051  -9.694  1.00  0.00     0.293 HD
ENDBRANCH   6  22
BRANCH   8  24
ATOM     24  O   UNL     1      -1.513 -12.550  -5.193  1.00  0.00    -0.508 OA
ATOM     25  H   UNL     1      -1.216 -11.633  -5.504  1.00  0.00     0.293 HD
ENDBRANCH   8  24
TORSDOF 5
ENDMDL
