MODEL 1
REMARK VINA RESULT:    -4.141      0.000      0.000
REMARK INTER + INTRA:          -5.029
REMARK INTER:                  -4.747
REMARK INTRA:                  -0.283
REMARK UNBOUND:                -0.283
REMARK SMILES O=C([O-])C=Cc1ccc(O)cc1
REMARK SMILES IDX 6 1 7 2 12 3 8 4 11 5 9 6 5 7 4 8 2 9 1 10 3 11 10 12
REMARK H PARENT 10 13
REMARK Flexibility Score: inf
ROOT
ATOM      1  C   UNL     1      20.305 -43.735   8.237  1.00  0.00    -0.025 A 
ATOM      2  C   UNL     1      20.419 -45.028   8.781  1.00  0.00     0.012 A 
ATOM      3  C   UNL     1      19.859 -43.583   6.916  1.00  0.00     0.012 A 
ATOM      4  C   UNL     1      20.042 -46.144   8.029  1.00  0.00     0.047 A 
ATOM      5  C   UNL     1      19.482 -44.702   6.165  1.00  0.00     0.047 A 
ATOM      6  C   UNL     1      19.570 -45.983   6.719  1.00  0.00     0.115 A 
ENDROOT
BRANCH   1   7
ATOM      7  C   UNL     1      20.747 -42.546   8.993  1.00  0.00     0.010 C 
ATOM      8  C   UNL     1      21.997 -42.055   9.011  1.00  0.00     0.025 C 
BRANCH   8   9
ATOM      9  C   UNL     1      23.188 -42.707   8.431  1.00  0.00     0.064 C 
ATOM     10  O   UNL     1      23.627 -42.385   7.296  1.00  0.00    -0.545 OA
ATOM     11  O   UNL     1      23.795 -43.745   9.124  1.00  0.00    -0.545 OA
ENDBRANCH   8   9
ENDBRANCH   1   7
BRANCH   6  12
ATOM     12  O   UNL     1      19.189 -47.088   5.960  1.00  0.00    -0.508 OA
ATOM     13  H   UNL     1      19.348 -47.122   4.959  1.00  0.00     0.293 HD
ENDBRANCH   6  12
TORSDOF 3
ENDMDL
MODEL 2
REMARK VINA RESULT:    -4.025      1.647      2.539
REMARK INTER + INTRA:          -4.895
REMARK INTER:                  -4.799
REMARK INTRA:                  -0.096
REMARK UNBOUND:                -0.283
REMARK SMILES O=C([O-])C=Cc1ccc(O)cc1
REMARK SMILES IDX 6 1 7 2 12 3 8 4 11 5 9 6 5 7 4 8 2 9 1 10 3 11 10 12
REMARK H PARENT 10 13
REMARK Flexibility Score: inf
ROOT
ATOM      1  C   UNL     1      19.039 -44.968   7.105  1.00  0.00    -0.025 A 
ATOM      2  C   UNL     1      19.638 -45.724   6.081  1.00  0.00     0.012 A 
ATOM      3  C   UNL     1      18.159 -45.598   7.998  1.00  0.00     0.012 A 
ATOM      4  C   UNL     1      19.400 -47.099   5.988  1.00  0.00     0.047 A 
ATOM      5  C   UNL     1      17.922 -46.973   7.903  1.00  0.00     0.047 A 
ATOM      6  C   UNL     1      18.542 -47.727   6.902  1.00  0.00     0.115 A 
ENDROOT
BRANCH   1   7
ATOM      7  C   UNL     1      19.234 -43.507   7.190  1.00  0.00     0.010 C 
ATOM      8  C   UNL     1      20.366 -42.893   7.571  1.00  0.00     0.025 C 
BRANCH   8   9
ATOM      9  C   UNL     1      21.555 -43.554   8.141  1.00  0.00     0.064 C 
ATOM     10  O   UNL     1      21.466 -44.337   9.124  1.00  0.00    -0.545 OA
ATOM     11  O   UNL     1      22.809 -43.253   7.627  1.00  0.00    -0.545 OA
ENDBRANCH   8   9
ENDBRANCH   1   7
BRANCH   6  12
ATOM     12  O   UNL     1      18.298 -49.096   6.821  1.00  0.00    -0.508 OA
ATOM     13  H   UNL     1      18.381 -49.697   7.633  1.00  0.00     0.293 HD
ENDBRANCH   6  12
TORSDOF 3
ENDMDL
MODEL 3
REMARK VINA RESULT:    -4.016      1.793      4.978
REMARK INTER + INTRA:          -4.885
REMARK INTER:                  -4.626
REMARK INTRA:                  -0.259
REMARK UNBOUND:                -0.283
REMARK SMILES O=C([O-])C=Cc1ccc(O)cc1
REMARK SMILES IDX 6 1 7 2 12 3 8 4 11 5 9 6 5 7 4 8 2 9 1 10 3 11 10 12
REMARK H PARENT 10 13
REMARK Flexibility Score: inf
ROOT
ATOM      1  C   UNL     1      18.909 -45.889   8.046  1.00  0.00    -0.025 A 
ATOM      2  C   UNL     1      20.092 -45.805   8.802  1.00  0.00     0.012 A 
ATOM      3  C   UNL     1      18.523 -44.798   7.252  1.00  0.00     0.012 A 
ATOM      4  C   UNL     1      20.900 -44.667   8.722  1.00  0.00     0.047 A 
ATOM      5  C   UNL     1      19.334 -43.661   7.174  1.00  0.00     0.047 A 
ATOM      6  C   UNL     1      20.524 -43.593   7.904  1.00  0.00     0.115 A 
ENDROOT
BRANCH   1   7
ATOM      7  C   UNL     1      18.012 -47.057   8.155  1.00  0.00     0.010 C 
ATOM      8  C   UNL     1      18.178 -48.229   7.521  1.00  0.00     0.025 C 
BRANCH   8   9
ATOM      9  C   UNL     1      19.175 -48.505   6.469  1.00  0.00     0.064 C 
ATOM     10  O   UNL     1      19.058 -48.029   5.309  1.00  0.00    -0.545 OA
ATOM     11  O   UNL     1      20.229 -49.366   6.745  1.00  0.00    -0.545 OA
ENDBRANCH   8   9
ENDBRANCH   1   7
BRANCH   6  12
ATOM     12  O   UNL     1      21.322 -42.455   7.814  1.00  0.00    -0.508 OA
ATOM     13  H   UNL     1      20.965 -41.588   7.429  1.00  0.00     0.293 HD
ENDBRANCH   6  12
TORSDOF 3
ENDMDL
MODEL 4
REMARK VINA RESULT:    -3.902      1.296      4.705
REMARK INTER + INTRA:          -4.755
REMARK INTER:                  -4.530
REMARK INTRA:                  -0.224
REMARK UNBOUND:                -0.283
REMARK SMILES O=C([O-])C=Cc1ccc(O)cc1
REMARK SMILES IDX 6 1 7 2 12 3 8 4 11 5 9 6 5 7 4 8 2 9 1 10 3 11 10 12
REMARK H PARENT 10 13
REMARK Flexibility Score: inf
ROOT
ATOM      1  C   UNL     1      20.983 -44.585   8.864  1.00  0.00    -0.025 A 
ATOM      2  C   UNL     1      20.555 -43.249   8.771  1.00  0.00     0.012 A 
ATOM      3  C   UNL     1      22.357 -44.863   8.931  1.00  0.00     0.012 A 
ATOM      4  C   UNL     1      21.487 -42.207   8.800  1.00  0.00     0.047 A 
ATOM      5  C   UNL     1      23.287 -43.819   8.960  1.00  0.00     0.047 A 
ATOM      6  C   UNL     1      22.856 -42.490   8.897  1.00  0.00     0.115 A 
ENDROOT
BRANCH   1   7
ATOM      7  C   UNL     1      20.022 -45.704   8.781  1.00  0.00     0.010 C 
ATOM      8  C   UNL     1      19.620 -46.303   7.649  1.00  0.00     0.025 C 
BRANCH   8   9
ATOM      9  C   UNL     1      19.918 -45.845   6.278  1.00  0.00     0.064 C 
ATOM     10  O   UNL     1      19.435 -44.776   5.821  1.00  0.00    -0.545 OA
ATOM     11  O   UNL     1      20.694 -46.647   5.451  1.00  0.00    -0.545 OA
ENDBRANCH   8   9
ENDBRANCH   1   7
BRANCH   6  12
ATOM     12  O   UNL     1      23.794 -41.461   8.928  1.00  0.00    -0.508 OA
ATOM     13  H   UNL     1      24.281 -41.163   8.091  1.00  0.00     0.293 HD
ENDBRANCH   6  12
TORSDOF 3
ENDMDL
MODEL 5
REMARK VINA RESULT:    -3.886      1.370      4.640
REMARK INTER + INTRA:          -4.736
REMARK INTER:                  -4.642
REMARK INTRA:                  -0.094
REMARK UNBOUND:                -0.283
REMARK SMILES O=C([O-])C=Cc1ccc(O)cc1
REMARK SMILES IDX 6 1 7 2 12 3 8 4 11 5 9 6 5 7 4 8 2 9 1 10 3 11 10 12
REMARK H PARENT 10 13
REMARK Flexibility Score: inf
ROOT
ATOM      1  C   UNL     1      19.745 -44.266   8.252  1.00  0.00    -0.025 A 
ATOM      2  C   UNL     1      20.690 -44.967   9.024  1.00  0.00     0.012 A 
ATOM      3  C   UNL     1      20.121 -43.067   7.629  1.00  0.00     0.012 A 
ATOM      4  C   UNL     1      22.003 -44.499   9.125  1.00  0.00     0.047 A 
ATOM      5  C   UNL     1      21.436 -42.600   7.732  1.00  0.00     0.047 A 
ATOM      6  C   UNL     1      22.380 -43.315   8.476  1.00  0.00     0.115 A 
ENDROOT
BRANCH   1   7
ATOM      7  C   UNL     1      18.339 -44.712   8.175  1.00  0.00     0.010 C 
ATOM      8  C   UNL     1      17.923 -45.901   7.708  1.00  0.00     0.025 C 
BRANCH   8   9
ATOM      9  C   UNL     1      18.766 -46.902   7.027  1.00  0.00     0.064 C 
ATOM     10  O   UNL     1      19.008 -48.023   7.547  1.00  0.00    -0.545 OA
ATOM     11  O   UNL     1      19.363 -46.573   5.817  1.00  0.00    -0.545 OA
ENDBRANCH   8   9
ENDBRANCH   1   7
BRANCH   6  12
ATOM     12  O   UNL     1      23.686 -42.839   8.567  1.00  0.00    -0.508 OA
ATOM     13  H   UNL     1      24.297 -42.812   7.758  1.00  0.00     0.293 HD
ENDBRANCH   6  12
TORSDOF 3
ENDMDL
MODEL 6
REMARK VINA RESULT:    -3.810      1.944      5.079
REMARK INTER + INTRA:          -4.649
REMARK INTER:                  -4.377
REMARK INTRA:                  -0.272
REMARK UNBOUND:                -0.283
REMARK SMILES O=C([O-])C=Cc1ccc(O)cc1
REMARK SMILES IDX 6 1 7 2 12 3 8 4 11 5 9 6 5 7 4 8 2 9 1 10 3 11 10 12
REMARK H PARENT 10 13
REMARK Flexibility Score: inf
ROOT
ATOM      1  C   UNL     1      19.953 -45.478   6.826  1.00  0.00    -0.025 A 
ATOM      2  C   UNL     1      21.095 -45.590   7.639  1.00  0.00     0.012 A 
ATOM      3  C   UNL     1      19.306 -44.238   6.717  1.00  0.00     0.012 A 
ATOM      4  C   UNL     1      21.610 -44.465   8.289  1.00  0.00     0.047 A 
ATOM      5  C   UNL     1      19.824 -43.113   7.368  1.00  0.00     0.047 A 
ATOM      6  C   UNL     1      20.977 -43.222   8.152  1.00  0.00     0.115 A 
ENDROOT
BRANCH   1   7
ATOM      7  C   UNL     1      19.359 -46.663   6.173  1.00  0.00     0.010 C 
ATOM      8  C   UNL     1      18.441 -47.476   6.721  1.00  0.00     0.025 C 
BRANCH   8   9
ATOM      9  C   UNL     1      17.991 -47.445   8.126  1.00  0.00     0.064 C 
ATOM     10  O   UNL     1      18.397 -48.291   8.966  1.00  0.00    -0.545 OA
ATOM     11  O   UNL     1      17.045 -46.504   8.513  1.00  0.00    -0.545 OA
ENDBRANCH   8   9
ENDBRANCH   1   7
BRANCH   6  12
ATOM     12  O   UNL     1      21.482 -42.093   8.793  1.00  0.00    -0.508 OA
ATOM     13  H   UNL     1      20.890 -41.499   9.363  1.00  0.00     0.293 HD
ENDBRANCH   6  12
TORSDOF 3
ENDMDL
MODEL 7
REMARK VINA RESULT:    -3.666      2.850      4.351
REMARK INTER + INTRA:          -4.485
REMARK INTER:                  -4.236
REMARK INTRA:                  -0.249
REMARK UNBOUND:                -0.283
REMARK SMILES O=C([O-])C=Cc1ccc(O)cc1
REMARK SMILES IDX 6 1 7 2 12 3 8 4 11 5 9 6 5 7 4 8 2 9 1 10 3 11 10 12
REMARK H PARENT 10 13
REMARK Flexibility Score: inf
ROOT
ATOM      1  C   UNL     1      20.221 -47.549   7.249  1.00  0.00    -0.025 A 
ATOM      2  C   UNL     1      19.340 -47.926   6.219  1.00  0.00     0.012 A 
ATOM      3  C   UNL     1      20.091 -48.141   8.514  1.00  0.00     0.012 A 
ATOM      4  C   UNL     1      18.380 -48.918   6.441  1.00  0.00     0.047 A 
ATOM      5  C   UNL     1      19.130 -49.134   8.734  1.00  0.00     0.047 A 
ATOM      6  C   UNL     1      18.275 -49.527   7.699  1.00  0.00     0.115 A 
ENDROOT
BRANCH   1   7
ATOM      7  C   UNL     1      21.206 -46.467   7.055  1.00  0.00     0.010 C 
ATOM      8  C   UNL     1      20.963 -45.155   7.210  1.00  0.00     0.025 C 
BRANCH   8   9
ATOM      9  C   UNL     1      19.638 -44.544   7.426  1.00  0.00     0.064 C 
ATOM     10  O   UNL     1      18.813 -44.409   6.484  1.00  0.00    -0.545 OA
ATOM     11  O   UNL     1      19.320 -44.043   8.682  1.00  0.00    -0.545 OA
ENDBRANCH   8   9
ENDBRANCH   1   7
BRANCH   6  12
ATOM     12  O   UNL     1      17.324 -50.518   7.932  1.00  0.00    -0.508 OA
ATOM     13  H   UNL     1      17.400 -51.435   7.506  1.00  0.00     0.293 HD
ENDBRANCH   6  12
TORSDOF 3
ENDMDL
MODEL 8
REMARK VINA RESULT:    -3.560      3.088      4.257
REMARK INTER + INTRA:          -4.362
REMARK INTER:                  -4.098
REMARK INTRA:                  -0.264
REMARK UNBOUND:                -0.283
REMARK SMILES O=C([O-])C=Cc1ccc(O)cc1
REMARK SMILES IDX 6 1 7 2 12 3 8 4 11 5 9 6 5 7 4 8 2 9 1 10 3 11 10 12
REMARK H PARENT 10 13
REMARK Flexibility Score: inf
ROOT
ATOM      1  C   UNL     1      18.702 -47.561   7.314  1.00  0.00    -0.025 A 
ATOM      2  C   UNL     1      19.624 -48.238   8.133  1.00  0.00     0.012 A 
ATOM      3  C   UNL     1      18.850 -47.620   5.920  1.00  0.00     0.012 A 
ATOM      4  C   UNL     1      20.644 -49.004   7.562  1.00  0.00     0.047 A 
ATOM      5  C   UNL     1      19.872 -48.387   5.351  1.00  0.00     0.047 A 
ATOM      6  C   UNL     1      20.769 -49.083   6.168  1.00  0.00     0.115 A 
ENDROOT
BRANCH   1   7
ATOM      7  C   UNL     1      17.649 -46.703   7.895  1.00  0.00     0.010 C 
ATOM      8  C   UNL     1      17.706 -45.365   8.001  1.00  0.00     0.025 C 
BRANCH   8   9
ATOM      9  C   UNL     1      18.890 -44.528   7.728  1.00  0.00     0.064 C 
ATOM     10  O   UNL     1      19.127 -44.079   6.575  1.00  0.00    -0.545 OA
ATOM     11  O   UNL     1      19.798 -44.287   8.750  1.00  0.00    -0.545 OA
ENDBRANCH   8   9
ENDBRANCH   1   7
BRANCH   6  12
ATOM     12  O   UNL     1      21.780 -49.844   5.587  1.00  0.00    -0.508 OA
ATOM     13  H   UNL     1      22.463 -50.336   6.152  1.00  0.00     0.293 HD
ENDBRANCH   6  12
TORSDOF 3
ENDMDL
MODEL 9
REMARK VINA RESULT:    -3.544      2.257      5.433
REMARK INTER + INTRA:          -4.344
REMARK INTER:                  -4.081
REMARK INTRA:                  -0.264
REMARK UNBOUND:                -0.283
REMARK SMILES O=C([O-])C=Cc1ccc(O)cc1
REMARK SMILES IDX 6 1 7 2 12 3 8 4 11 5 9 6 5 7 4 8 2 9 1 10 3 11 10 12
REMARK H PARENT 10 13
REMARK Flexibility Score: inf
ROOT
ATOM      1  C   UNL     1      20.756 -46.310   6.295  1.00  0.00    -0.025 A 
ATOM      2  C   UNL     1      19.639 -45.493   6.042  1.00  0.00     0.012 A 
ATOM      3  C   UNL     1      21.718 -45.891   7.226  1.00  0.00     0.012 A 
ATOM      4  C   UNL     1      19.464 -44.300   6.751  1.00  0.00     0.047 A 
ATOM      5  C   UNL     1      21.540 -44.697   7.934  1.00  0.00     0.047 A 
ATOM      6  C   UNL     1      20.414 -43.901   7.701  1.00  0.00     0.115 A 
ENDROOT
BRANCH   1   7
ATOM      7  C   UNL     1      20.989 -47.546   5.521  1.00  0.00     0.010 C 
ATOM      8  C   UNL     1      20.360 -48.717   5.714  1.00  0.00     0.025 C 
BRANCH   8   9
ATOM      9  C   UNL     1      19.459 -49.036   6.839  1.00  0.00     0.064 C 
ATOM     10  O   UNL     1      19.907 -49.331   7.978  1.00  0.00    -0.545 OA
ATOM     11  O   UNL     1      18.089 -49.078   6.617  1.00  0.00    -0.545 OA
ENDBRANCH   8   9
ENDBRANCH   1   7
BRANCH   6  12
ATOM     12  O   UNL     1      20.250 -42.716   8.415  1.00  0.00    -0.508 OA
ATOM     13  H   UNL     1      21.033 -42.101   8.606  1.00  0.00     0.293 HD
ENDBRANCH   6  12
TORSDOF 3
ENDMDL
