MODEL 1
REMARK VINA RESULT:    -3.011      0.000      0.000
REMARK INTER + INTRA:         -10.621
REMARK INTER:                  -6.531
REMARK INTRA:                  -4.090
REMARK UNBOUND:                -4.090
REMARK SMILES CCCCCCCCCCCCCCCCCCCCCC(=O)[O-]
REMARK SMILES IDX 12 1 11 2 10 3 9 4 8 5 7 6 6 7 5 8 4 9 3 10 2 11 1 12 13 13
REMARK SMILES IDX 14 14 15 15 16 16 17 17 18 18 19 19 20 20 21 21 22 22 23 23
REMARK SMILES IDX 24 24
REMARK H PARENT
REMARK Flexibility Score: inf
ROOT
ATOM      1  C   UNL     1      62.668  36.045  61.249  1.00  0.00     0.000 C 
ENDROOT
BRANCH   1   2
ATOM      2  C   UNL     1      61.541  35.068  60.876  1.00  0.00     0.000 C 
BRANCH   2   3
ATOM      3  C   UNL     1      62.073  33.630  60.791  1.00  0.00     0.000 C 
BRANCH   3   4
ATOM      4  C   UNL     1      61.143  32.695  60.006  1.00  0.00    -0.000 C 
BRANCH   4   5
ATOM      5  C   UNL     1      60.680  31.485  60.838  1.00  0.00    -0.000 C 
BRANCH   5   6
ATOM      6  C   UNL     1      61.646  31.139  61.986  1.00  0.00    -0.000 C 
BRANCH   6   7
ATOM      7  C   UNL     1      62.161  29.687  61.988  1.00  0.00    -0.000 C 
BRANCH   7   8
ATOM      8  C   UNL     1      63.656  29.582  61.630  1.00  0.00    -0.000 C 
BRANCH   8   9
ATOM      9  C   UNL     1      64.276  30.949  61.297  1.00  0.00    -0.000 C 
BRANCH   9  10
ATOM     10  C   UNL     1      65.196  30.895  60.065  1.00  0.00    -0.000 C 
BRANCH  10  11
ATOM     11  C   UNL     1      64.640  29.991  58.953  1.00  0.00    -0.003 C 
ATOM     12  C   UNL     1      63.527  30.665  58.148  1.00  0.00     0.004 C 
ENDBRANCH  10  11
ENDBRANCH   9  10
ENDBRANCH   8   9
ENDBRANCH   7   8
ENDBRANCH   6   7
ENDBRANCH   5   6
ENDBRANCH   4   5
ENDBRANCH   3   4
ENDBRANCH   2   3
ENDBRANCH   1   2
BRANCH   1  13
ATOM     13  C   UNL     1      63.984  35.333  61.608  1.00  0.00     0.000 C 
BRANCH  13  14
ATOM     14  C   UNL     1      65.245  35.873  60.897  1.00  0.00     0.000 C 
BRANCH  14  15
ATOM     15  C   UNL     1      65.180  35.812  59.356  1.00  0.00     0.000 C 
BRANCH  15  16
ATOM     16  C   UNL     1      65.117  34.371  58.826  1.00  0.00     0.000 C 
BRANCH  16  17
ATOM     17  C   UNL     1      64.198  34.271  57.602  1.00  0.00     0.000 C 
BRANCH  17  18
ATOM     18  C   UNL     1      63.111  35.364  57.581  1.00  0.00     0.000 C 
BRANCH  18  19
ATOM     19  C   UNL     1      61.717  34.887  57.129  1.00  0.00     0.000 C 
BRANCH  19  20
ATOM     20  C   UNL     1      60.633  35.966  57.296  1.00  0.00     0.006 C 
BRANCH  20  21
ATOM     21  C   UNL     1      59.409  35.446  58.063  1.00  0.00     0.053 C 
BRANCH  21  22
ATOM     22  C   UNL     1      58.667  34.398  57.292  1.00  0.00     0.041 C 
ATOM     23  O   UNL     1      58.402  33.286  57.827  1.00  0.00    -0.550 OA
ATOM     24  O   UNL     1      58.303  34.634  55.970  1.00  0.00    -0.550 OA
ENDBRANCH  21  22
ENDBRANCH  20  21
ENDBRANCH  19  20
ENDBRANCH  18  19
ENDBRANCH  17  18
ENDBRANCH  16  17
ENDBRANCH  15  16
ENDBRANCH  14  15
ENDBRANCH  13  14
ENDBRANCH   1  13
TORSDOF 20
ENDMDL
MODEL 2
REMARK VINA RESULT:    -2.921      1.938      3.865
REMARK INTER + INTRA:         -10.427
REMARK INTER:                  -6.752
REMARK INTRA:                  -3.675
REMARK UNBOUND:                -4.090
REMARK SMILES CCCCCCCCCCCCCCCCCCCCCC(=O)[O-]
REMARK SMILES IDX 12 1 11 2 10 3 9 4 8 5 7 6 6 7 5 8 4 9 3 10 2 11 1 12 13 13
REMARK SMILES IDX 14 14 15 15 16 16 17 17 18 18 19 19 20 20 21 21 22 22 23 23
REMARK SMILES IDX 24 24
REMARK H PARENT
REMARK Flexibility Score: inf
ROOT
ATOM      1  C   UNL     1      64.001  33.547  61.238  1.00  0.00     0.000 C 
ENDROOT
BRANCH   1   2
ATOM      2  C   UNL     1      64.606  32.832  60.019  1.00  0.00     0.000 C 
BRANCH   2   3
ATOM      3  C   UNL     1      64.524  31.309  60.186  1.00  0.00     0.000 C 
BRANCH   3   4
ATOM      4  C   UNL     1      64.134  30.884  61.609  1.00  0.00    -0.000 C 
BRANCH   4   5
ATOM      5  C   UNL     1      63.437  29.512  61.648  1.00  0.00    -0.000 C 
BRANCH   5   6
ATOM      6  C   UNL     1      61.900  29.619  61.652  1.00  0.00    -0.000 C 
BRANCH   6   7
ATOM      7  C   UNL     1      61.346  30.999  62.053  1.00  0.00    -0.000 C 
BRANCH   7   8
ATOM      8  C   UNL     1      60.717  31.759  60.870  1.00  0.00    -0.000 C 
BRANCH   8   9
ATOM      9  C   UNL     1      60.804  30.968  59.554  1.00  0.00    -0.000 C 
BRANCH   9  10
ATOM     10  C   UNL     1      59.429  30.781  58.887  1.00  0.00    -0.000 C 
BRANCH  10  11
ATOM     11  C   UNL     1      58.889  32.084  58.277  1.00  0.00    -0.003 C 
ATOM     12  C   UNL     1      57.379  32.039  58.034  1.00  0.00     0.004 C 
ENDBRANCH  10  11
ENDBRANCH   9  10
ENDBRANCH   8   9
ENDBRANCH   7   8
ENDBRANCH   6   7
ENDBRANCH   5   6
ENDBRANCH   4   5
ENDBRANCH   3   4
ENDBRANCH   2   3
ENDBRANCH   1   2
BRANCH   1  13
ATOM     13  C   UNL     1      64.655  34.912  61.519  1.00  0.00     0.000 C 
BRANCH  13  14
ATOM     14  C   UNL     1      64.019  36.115  60.788  1.00  0.00     0.000 C 
BRANCH  14  15
ATOM     15  C   UNL     1      62.956  36.870  61.615  1.00  0.00     0.000 C 
BRANCH  15  16
ATOM     16  C   UNL     1      61.605  36.966  60.889  1.00  0.00     0.000 C 
BRANCH  16  17
ATOM     17  C   UNL     1      60.942  35.587  60.771  1.00  0.00     0.000 C 
BRANCH  17  18
ATOM     18  C   UNL     1      60.459  35.277  59.340  1.00  0.00     0.000 C 
BRANCH  18  19
ATOM     19  C   UNL     1      61.169  36.074  58.227  1.00  0.00     0.000 C 
BRANCH  19  20
ATOM     20  C   UNL     1      62.249  35.254  57.501  1.00  0.00     0.006 C 
BRANCH  20  21
ATOM     21  C   UNL     1      62.141  33.753  57.805  1.00  0.00     0.053 C 
BRANCH  21  22
ATOM     22  C   UNL     1      62.380  32.915  56.588  1.00  0.00     0.041 C 
ATOM     23  O   UNL     1      61.515  32.867  55.670  1.00  0.00    -0.550 OA
ATOM     24  O   UNL     1      63.541  32.155  56.484  1.00  0.00    -0.550 OA
ENDBRANCH  21  22
ENDBRANCH  20  21
ENDBRANCH  19  20
ENDBRANCH  18  19
ENDBRANCH  17  18
ENDBRANCH  16  17
ENDBRANCH  15  16
ENDBRANCH  14  15
ENDBRANCH  13  14
ENDBRANCH   1  13
TORSDOF 20
ENDMDL
MODEL 3
REMARK VINA RESULT:    -2.866     12.032     15.055
REMARK INTER + INTRA:         -10.306
REMARK INTER:                  -7.637
REMARK INTRA:                  -2.669
REMARK UNBOUND:                -4.090
REMARK SMILES CCCCCCCCCCCCCCCCCCCCCC(=O)[O-]
REMARK SMILES IDX 12 1 11 2 10 3 9 4 8 5 7 6 6 7 5 8 4 9 3 10 2 11 1 12 13 13
REMARK SMILES IDX 14 14 15 15 16 16 17 17 18 18 19 19 20 20 21 21 22 22 23 23
REMARK SMILES IDX 24 24
REMARK H PARENT
REMARK Flexibility Score: inf
ROOT
ATOM      1  C   UNL     1      60.284  25.792  51.021  1.00  0.00     0.000 C 
ENDROOT
BRANCH   1   2
ATOM      2  C   UNL     1      61.219  26.509  50.034  1.00  0.00     0.000 C 
BRANCH   2   3
ATOM      3  C   UNL     1      60.774  27.962  49.820  1.00  0.00     0.000 C 
BRANCH   3   4
ATOM      4  C   UNL     1      59.496  28.077  48.978  1.00  0.00    -0.000 C 
BRANCH   4   5
ATOM      5  C   UNL     1      58.568  29.207  49.460  1.00  0.00    -0.000 C 
BRANCH   5   6
ATOM      6  C   UNL     1      58.575  29.378  50.990  1.00  0.00    -0.000 C 
BRANCH   6   7
ATOM      7  C   UNL     1      57.304  28.883  51.706  1.00  0.00    -0.000 C 
BRANCH   7   8
ATOM      8  C   UNL     1      57.495  27.516  52.389  1.00  0.00    -0.000 C 
BRANCH   8   9
ATOM      9  C   UNL     1      56.428  26.494  51.963  1.00  0.00    -0.000 C 
BRANCH   9  10
ATOM     10  C   UNL     1      56.399  26.272  50.440  1.00  0.00    -0.000 C 
BRANCH  10  11
ATOM     11  C   UNL     1      55.053  26.668  49.813  1.00  0.00    -0.003 C 
ATOM     12  C   UNL     1      53.965  26.915  50.859  1.00  0.00     0.004 C 
ENDBRANCH  10  11
ENDBRANCH   9  10
ENDBRANCH   8   9
ENDBRANCH   7   8
ENDBRANCH   6   7
ENDBRANCH   5   6
ENDBRANCH   4   5
ENDBRANCH   3   4
ENDBRANCH   2   3
ENDBRANCH   1   2
BRANCH   1  13
ATOM     13  C   UNL     1      59.581  24.570  50.403  1.00  0.00     0.000 C 
BRANCH  13  14
ATOM     14  C   UNL     1      60.206  23.201  50.749  1.00  0.00     0.000 C 
BRANCH  14  15
ATOM     15  C   UNL     1      61.409  22.810  49.863  1.00  0.00     0.000 C 
BRANCH  15  16
ATOM     16  C   UNL     1      61.067  21.689  48.869  1.00  0.00     0.000 C 
BRANCH  16  17
ATOM     17  C   UNL     1      60.061  20.700  49.474  1.00  0.00     0.000 C 
BRANCH  17  18
ATOM     18  C   UNL     1      60.742  19.561  50.258  1.00  0.00     0.000 C 
BRANCH  18  19
ATOM     19  C   UNL     1      60.145  19.284  51.652  1.00  0.00     0.000 C 
BRANCH  19  20
ATOM     20  C   UNL     1      58.665  19.687  51.759  1.00  0.00     0.006 C 
BRANCH  20  21
ATOM     21  C   UNL     1      57.732  18.468  51.789  1.00  0.00     0.053 C 
BRANCH  21  22
ATOM     22  C   UNL     1      57.061  18.240  50.470  1.00  0.00     0.041 C 
ATOM     23  O   UNL     1      57.671  17.636  49.544  1.00  0.00    -0.550 OA
ATOM     24  O   UNL     1      55.777  18.728  50.249  1.00  0.00    -0.550 OA
ENDBRANCH  21  22
ENDBRANCH  20  21
ENDBRANCH  19  20
ENDBRANCH  18  19
ENDBRANCH  17  18
ENDBRANCH  16  17
ENDBRANCH  15  16
ENDBRANCH  14  15
ENDBRANCH  13  14
ENDBRANCH   1  13
TORSDOF 20
ENDMDL
MODEL 4
REMARK VINA RESULT:    -2.863     12.267     15.441
REMARK INTER + INTRA:         -10.301
REMARK INTER:                  -8.404
REMARK INTRA:                  -1.897
REMARK UNBOUND:                -4.090
REMARK SMILES CCCCCCCCCCCCCCCCCCCCCC(=O)[O-]
REMARK SMILES IDX 12 1 11 2 10 3 9 4 8 5 7 6 6 7 5 8 4 9 3 10 2 11 1 12 13 13
REMARK SMILES IDX 14 14 15 15 16 16 17 17 18 18 19 19 20 20 21 21 22 22 23 23
REMARK SMILES IDX 24 24
REMARK H PARENT
REMARK Flexibility Score: inf
ROOT
ATOM      1  C   UNL     1      59.553  24.475  51.724  1.00  0.00     0.000 C 
ENDROOT
BRANCH   1   2
ATOM      2  C   UNL     1      58.779  25.054  50.528  1.00  0.00     0.000 C 
BRANCH   2   3
ATOM      3  C   UNL     1      59.714  25.853  49.610  1.00  0.00     0.000 C 
BRANCH   3   4
ATOM      4  C   UNL     1      60.561  26.882  50.371  1.00  0.00    -0.000 C 
BRANCH   4   5
ATOM      5  C   UNL     1      60.457  28.296  49.772  1.00  0.00    -0.000 C 
BRANCH   5   6
ATOM      6  C   UNL     1      59.073  28.589  49.163  1.00  0.00    -0.000 C 
BRANCH   6   7
ATOM      7  C   UNL     1      58.032  29.148  50.152  1.00  0.00    -0.000 C 
BRANCH   7   8
ATOM      8  C   UNL     1      56.933  28.128  50.504  1.00  0.00    -0.000 C 
BRANCH   8   9
ATOM      9  C   UNL     1      55.523  28.739  50.436  1.00  0.00    -0.000 C 
BRANCH   9  10
ATOM     10  C   UNL     1      54.450  27.704  50.057  1.00  0.00    -0.000 C 
BRANCH  10  11
ATOM     11  C   UNL     1      55.020  26.283  49.931  1.00  0.00    -0.003 C 
ATOM     12  C   UNL     1      54.072  25.330  49.199  1.00  0.00     0.004 C 
ENDBRANCH  10  11
ENDBRANCH   9  10
ENDBRANCH   8   9
ENDBRANCH   7   8
ENDBRANCH   6   7
ENDBRANCH   5   6
ENDBRANCH   4   5
ENDBRANCH   3   4
ENDBRANCH   2   3
ENDBRANCH   1   2
BRANCH   1  13
ATOM     13  C   UNL     1      59.010  23.111  52.186  1.00  0.00     0.000 C 
BRANCH  13  14
ATOM     14  C   UNL     1      59.881  21.891  51.813  1.00  0.00     0.000 C 
BRANCH  14  15
ATOM     15  C   UNL     1      60.695  22.065  50.513  1.00  0.00     0.000 C 
BRANCH  15  16
ATOM     16  C   UNL     1      61.011  20.722  49.833  1.00  0.00     0.000 C 
BRANCH  16  17
ATOM     17  C   UNL     1      59.725  19.945  49.520  1.00  0.00     0.000 C 
BRANCH  17  18
ATOM     18  C   UNL     1      59.797  18.471  49.962  1.00  0.00     0.000 C 
BRANCH  18  19
ATOM     19  C   UNL     1      58.489  17.902  50.545  1.00  0.00     0.000 C 
BRANCH  19  20
ATOM     20  C   UNL     1      57.722  18.924  51.401  1.00  0.00     0.006 C 
BRANCH  20  21
ATOM     21  C   UNL     1      56.210  18.886  51.135  1.00  0.00     0.053 C 
BRANCH  21  22
ATOM     22  C   UNL     1      55.435  19.616  52.189  1.00  0.00     0.041 C 
ATOM     23  O   UNL     1      54.201  19.830  52.036  1.00  0.00    -0.550 OA
ATOM     24  O   UNL     1      56.085  20.093  53.323  1.00  0.00    -0.550 OA
ENDBRANCH  21  22
ENDBRANCH  20  21
ENDBRANCH  19  20
ENDBRANCH  18  19
ENDBRANCH  17  18
ENDBRANCH  16  17
ENDBRANCH  15  16
ENDBRANCH  14  15
ENDBRANCH  13  14
ENDBRANCH   1  13
TORSDOF 20
ENDMDL
MODEL 5
REMARK VINA RESULT:    -2.809      8.693     11.892
REMARK INTER + INTRA:         -10.184
REMARK INTER:                  -6.278
REMARK INTRA:                  -3.905
REMARK UNBOUND:                -4.090
REMARK SMILES CCCCCCCCCCCCCCCCCCCCCC(=O)[O-]
REMARK SMILES IDX 12 1 11 2 10 3 9 4 8 5 7 6 6 7 5 8 4 9 3 10 2 11 1 12 13 13
REMARK SMILES IDX 14 14 15 15 16 16 17 17 18 18 19 19 20 20 21 21 22 22 23 23
REMARK SMILES IDX 24 24
REMARK H PARENT
REMARK Flexibility Score: inf
ROOT
ATOM      1  C   UNL     1      58.160  25.406  51.431  1.00  0.00     0.000 C 
ENDROOT
BRANCH   1   2
ATOM      2  C   UNL     1      58.725  25.595  50.014  1.00  0.00     0.000 C 
BRANCH   2   3
ATOM      3  C   UNL     1      60.248  25.782  50.056  1.00  0.00     0.000 C 
BRANCH   3   4
ATOM      4  C   UNL     1      60.691  27.174  49.585  1.00  0.00    -0.000 C 
BRANCH   4   5
ATOM      5  C   UNL     1      59.552  27.964  48.915  1.00  0.00    -0.000 C 
BRANCH   5   6
ATOM      6  C   UNL     1      59.257  29.303  49.615  1.00  0.00    -0.000 C 
BRANCH   6   7
ATOM      7  C   UNL     1      58.000  29.308  50.506  1.00  0.00    -0.000 C 
BRANCH   7   8
ATOM      8  C   UNL     1      58.327  29.149  52.003  1.00  0.00    -0.000 C 
BRANCH   8   9
ATOM      9  C   UNL     1      59.459  30.085  52.458  1.00  0.00    -0.000 C 
BRANCH   9  10
ATOM     10  C   UNL     1      60.530  29.354  53.287  1.00  0.00    -0.000 C 
BRANCH  10  11
ATOM     11  C   UNL     1      60.344  27.829  53.278  1.00  0.00    -0.003 C 
ATOM     12  C   UNL     1      61.671  27.073  53.188  1.00  0.00     0.004 C 
ENDBRANCH  10  11
ENDBRANCH   9  10
ENDBRANCH   8   9
ENDBRANCH   7   8
ENDBRANCH   6   7
ENDBRANCH   5   6
ENDBRANCH   4   5
ENDBRANCH   3   4
ENDBRANCH   2   3
ENDBRANCH   1   2
BRANCH   1  13
ATOM     13  C   UNL     1      56.691  25.848  51.554  1.00  0.00     0.000 C 
BRANCH  13  14
ATOM     14  C   UNL     1      55.900  25.899  50.228  1.00  0.00     0.000 C 
BRANCH  14  15
ATOM     15  C   UNL     1      55.198  27.247  49.959  1.00  0.00     0.000 C 
BRANCH  15  16
ATOM     16  C   UNL     1      53.668  27.110  49.890  1.00  0.00     0.000 C 
BRANCH  16  17
ATOM     17  C   UNL     1      52.978  28.423  50.282  1.00  0.00     0.000 C 
BRANCH  17  18
ATOM     18  C   UNL     1      53.947  29.621  50.313  1.00  0.00     0.000 C 
BRANCH  18  19
ATOM     19  C   UNL     1      53.934  30.435  51.622  1.00  0.00     0.000 C 
BRANCH  19  20
ATOM     20  C   UNL     1      54.811  29.813  52.722  1.00  0.00     0.006 C 
BRANCH  20  21
ATOM     21  C   UNL     1      54.906  30.709  53.965  1.00  0.00     0.053 C 
BRANCH  21  22
ATOM     22  C   UNL     1      56.284  31.263  54.155  1.00  0.00     0.041 C 
ATOM     23  O   UNL     1      57.019  30.832  55.086  1.00  0.00    -0.550 OA
ATOM     24  O   UNL     1      56.743  32.283  53.328  1.00  0.00    -0.550 OA
ENDBRANCH  21  22
ENDBRANCH  20  21
ENDBRANCH  19  20
ENDBRANCH  18  19
ENDBRANCH  17  18
ENDBRANCH  16  17
ENDBRANCH  15  16
ENDBRANCH  14  15
ENDBRANCH  13  14
ENDBRANCH   1  13
TORSDOF 20
ENDMDL
MODEL 6
REMARK VINA RESULT:    -2.807      2.183      4.584
REMARK INTER + INTRA:         -10.180
REMARK INTER:                  -6.423
REMARK INTRA:                  -3.756
REMARK UNBOUND:                -4.090
REMARK SMILES CCCCCCCCCCCCCCCCCCCCCC(=O)[O-]
REMARK SMILES IDX 12 1 11 2 10 3 9 4 8 5 7 6 6 7 5 8 4 9 3 10 2 11 1 12 13 13
REMARK SMILES IDX 14 14 15 15 16 16 17 17 18 18 19 19 20 20 21 21 22 22 23 23
REMARK SMILES IDX 24 24
REMARK H PARENT
REMARK Flexibility Score: inf
ROOT
ATOM      1  C   UNL     1      63.799  29.412  60.130  1.00  0.00     0.000 C 
ENDROOT
BRANCH   1   2
ATOM      2  C   UNL     1      63.611  30.255  61.402  1.00  0.00     0.000 C 
BRANCH   2   3
ATOM      3  C   UNL     1      62.295  29.895  62.104  1.00  0.00     0.000 C 
BRANCH   3   4
ATOM      4  C   UNL     1      61.264  31.031  62.057  1.00  0.00    -0.000 C 
BRANCH   4   5
ATOM      5  C   UNL     1      61.491  31.989  60.873  1.00  0.00    -0.000 C 
BRANCH   5   6
ATOM      6  C   UNL     1      60.284  32.063  59.920  1.00  0.00    -0.000 C 
BRANCH   6   7
ATOM      7  C   UNL     1      60.321  31.066  58.746  1.00  0.00    -0.000 C 
BRANCH   7   8
ATOM      8  C   UNL     1      59.387  29.859  58.956  1.00  0.00    -0.000 C 
BRANCH   8   9
ATOM      9  C   UNL     1      60.152  28.524  58.978  1.00  0.00    -0.000 C 
BRANCH   9  10
ATOM     10  C   UNL     1      60.078  27.825  60.347  1.00  0.00    -0.000 C 
BRANCH  10  11
ATOM     11  C   UNL     1      58.912  28.337  61.208  1.00  0.00    -0.003 C 
ATOM     12  C   UNL     1      57.881  27.248  61.511  1.00  0.00     0.004 C 
ENDBRANCH  10  11
ENDBRANCH   9  10
ENDBRANCH   8   9
ENDBRANCH   7   8
ENDBRANCH   6   7
ENDBRANCH   5   6
ENDBRANCH   4   5
ENDBRANCH   3   4
ENDBRANCH   2   3
ENDBRANCH   1   2
BRANCH   1  13
ATOM     13  C   UNL     1      64.581  30.152  59.031  1.00  0.00     0.000 C 
BRANCH  13  14
ATOM     14  C   UNL     1      63.719  30.945  58.024  1.00  0.00     0.000 C 
BRANCH  14  15
ATOM     15  C   UNL     1      63.822  32.479  58.170  1.00  0.00     0.000 C 
BRANCH  15  16
ATOM     16  C   UNL     1      64.931  32.904  59.146  1.00  0.00     0.000 C 
BRANCH  16  17
ATOM     17  C   UNL     1      64.695  34.328  59.666  1.00  0.00     0.000 C 
BRANCH  17  18
ATOM     18  C   UNL     1      64.122  34.352  61.097  1.00  0.00     0.000 C 
BRANCH  18  19
ATOM     19  C   UNL     1      63.832  35.759  61.657  1.00  0.00     0.000 C 
BRANCH  19  20
ATOM     20  C   UNL     1      62.661  36.456  60.944  1.00  0.00     0.006 C 
BRANCH  20  21
ATOM     21  C   UNL     1      61.399  35.583  60.909  1.00  0.00     0.053 C 
BRANCH  21  22
ATOM     22  C   UNL     1      60.689  35.673  59.594  1.00  0.00     0.041 C 
ATOM     23  O   UNL     1      59.548  36.208  59.523  1.00  0.00    -0.550 OA
ATOM     24  O   UNL     1      61.270  35.130  58.452  1.00  0.00    -0.550 OA
ENDBRANCH  21  22
ENDBRANCH  20  21
ENDBRANCH  19  20
ENDBRANCH  18  19
ENDBRANCH  17  18
ENDBRANCH  16  17
ENDBRANCH  15  16
ENDBRANCH  14  15
ENDBRANCH  13  14
ENDBRANCH   1  13
TORSDOF 20
ENDMDL
MODEL 7
REMARK VINA RESULT:    -2.806      9.773     12.609
REMARK INTER + INTRA:         -10.176
REMARK INTER:                  -6.758
REMARK INTRA:                  -3.418
REMARK UNBOUND:                -4.090
REMARK SMILES CCCCCCCCCCCCCCCCCCCCCC(=O)[O-]
REMARK SMILES IDX 12 1 11 2 10 3 9 4 8 5 7 6 6 7 5 8 4 9 3 10 2 11 1 12 13 13
REMARK SMILES IDX 14 14 15 15 16 16 17 17 18 18 19 19 20 20 21 21 22 22 23 23
REMARK SMILES IDX 24 24
REMARK H PARENT
REMARK Flexibility Score: inf
ROOT
ATOM      1  C   UNL     1      59.584  26.910  49.213  1.00  0.00     0.000 C 
ENDROOT
BRANCH   1   2
ATOM      2  C   UNL     1      58.332  26.232  49.793  1.00  0.00     0.000 C 
BRANCH   2   3
ATOM      3  C   UNL     1      58.712  25.244  50.904  1.00  0.00     0.000 C 
BRANCH   3   4
ATOM      4  C   UNL     1      57.627  25.110  51.981  1.00  0.00    -0.000 C 
BRANCH   4   5
ATOM      5  C   UNL     1      57.402  26.418  52.762  1.00  0.00    -0.000 C 
BRANCH   5   6
ATOM      6  C   UNL     1      55.984  26.990  52.581  1.00  0.00    -0.000 C 
BRANCH   6   7
ATOM      7  C   UNL     1      55.888  28.526  52.646  1.00  0.00    -0.000 C 
BRANCH   7   8
ATOM      8  C   UNL     1      55.103  29.127  51.465  1.00  0.00    -0.000 C 
BRANCH   8   9
ATOM      9  C   UNL     1      54.998  28.157  50.277  1.00  0.00    -0.000 C 
BRANCH   9  10
ATOM     10  C   UNL     1      53.539  27.837  49.904  1.00  0.00    -0.000 C 
BRANCH  10  11
ATOM     11  C   UNL     1      53.323  26.347  49.595  1.00  0.00    -0.003 C 
ATOM     12  C   UNL     1      54.637  25.587  49.409  1.00  0.00     0.004 C 
ENDBRANCH  10  11
ENDBRANCH   9  10
ENDBRANCH   8   9
ENDBRANCH   7   8
ENDBRANCH   6   7
ENDBRANCH   5   6
ENDBRANCH   4   5
ENDBRANCH   3   4
ENDBRANCH   2   3
ENDBRANCH   1   2
BRANCH   1  13
ATOM     13  C   UNL     1      59.444  28.438  49.107  1.00  0.00     0.000 C 
BRANCH  13  14
ATOM     14  C   UNL     1      58.559  29.100  50.186  1.00  0.00     0.000 C 
BRANCH  14  15
ATOM     15  C   UNL     1      59.349  29.780  51.325  1.00  0.00     0.000 C 
BRANCH  15  16
ATOM     16  C   UNL     1      60.152  28.774  52.167  1.00  0.00     0.000 C 
BRANCH  16  17
ATOM     17  C   UNL     1      61.325  29.461  52.878  1.00  0.00     0.000 C 
BRANCH  17  18
ATOM     18  C   UNL     1      62.676  29.207  52.180  1.00  0.00     0.000 C 
BRANCH  18  19
ATOM     19  C   UNL     1      62.632  28.183  51.029  1.00  0.00     0.000 C 
BRANCH  19  20
ATOM     20  C   UNL     1      62.837  28.826  49.648  1.00  0.00     0.006 C 
BRANCH  20  21
ATOM     21  C   UNL     1      63.430  27.841  48.630  1.00  0.00     0.053 C 
BRANCH  21  22
ATOM     22  C   UNL     1      64.549  28.452  47.843  1.00  0.00     0.041 C 
ATOM     23  O   UNL     1      64.815  29.679  47.965  1.00  0.00    -0.550 OA
ATOM     24  O   UNL     1      65.273  27.673  46.946  1.00  0.00    -0.550 OA
ENDBRANCH  21  22
ENDBRANCH  20  21
ENDBRANCH  19  20
ENDBRANCH  18  19
ENDBRANCH  17  18
ENDBRANCH  16  17
ENDBRANCH  15  16
ENDBRANCH  14  15
ENDBRANCH  13  14
ENDBRANCH   1  13
TORSDOF 20
ENDMDL
MODEL 8
REMARK VINA RESULT:    -2.804      2.349      6.426
REMARK INTER + INTRA:         -10.174
REMARK INTER:                  -6.611
REMARK INTRA:                  -3.562
REMARK UNBOUND:                -4.090
REMARK SMILES CCCCCCCCCCCCCCCCCCCCCC(=O)[O-]
REMARK SMILES IDX 12 1 11 2 10 3 9 4 8 5 7 6 6 7 5 8 4 9 3 10 2 11 1 12 13 13
REMARK SMILES IDX 14 14 15 15 16 16 17 17 18 18 19 19 20 20 21 21 22 22 23 23
REMARK SMILES IDX 24 24
REMARK H PARENT
REMARK Flexibility Score: inf
ROOT
ATOM      1  C   UNL     1      62.206  32.948  58.183  1.00  0.00     0.000 C 
ENDROOT
BRANCH   1   2
ATOM      2  C   UNL     1      63.721  32.696  58.247  1.00  0.00     0.000 C 
BRANCH   2   3
ATOM      3  C   UNL     1      64.418  33.781  59.080  1.00  0.00     0.000 C 
BRANCH   3   4
ATOM      4  C   UNL     1      64.546  33.406  60.562  1.00  0.00    -0.000 C 
BRANCH   4   5
ATOM      5  C   UNL     1      64.051  34.521  61.501  1.00  0.00    -0.000 C 
BRANCH   5   6
ATOM      6  C   UNL     1      63.243  35.608  60.769  1.00  0.00    -0.000 C 
BRANCH   6   7
ATOM      7  C   UNL     1      61.715  35.507  60.938  1.00  0.00    -0.000 C 
BRANCH   7   8
ATOM      8  C   UNL     1      61.016  36.879  60.897  1.00  0.00    -0.000 C 
BRANCH   8   9
ATOM      9  C   UNL     1      59.922  36.946  59.818  1.00  0.00    -0.000 C 
BRANCH   9  10
ATOM     10  C   UNL     1      60.250  36.077  58.591  1.00  0.00    -0.000 C 
BRANCH  10  11
ATOM     11  C   UNL     1      59.163  35.031  58.302  1.00  0.00    -0.003 C 
ATOM     12  C   UNL     1      57.934  35.632  57.616  1.00  0.00     0.004 C 
ENDBRANCH  10  11
ENDBRANCH   9  10
ENDBRANCH   8   9
ENDBRANCH   7   8
ENDBRANCH   6   7
ENDBRANCH   5   6
ENDBRANCH   4   5
ENDBRANCH   3   4
ENDBRANCH   2   3
ENDBRANCH   1   2
BRANCH   1  13
ATOM     13  C   UNL     1      61.377  31.669  58.397  1.00  0.00     0.000 C 
BRANCH  13  14
ATOM     14  C   UNL     1      60.438  31.686  59.624  1.00  0.00     0.000 C 
BRANCH  14  15
ATOM     15  C   UNL     1      61.132  32.065  60.949  1.00  0.00     0.000 C 
BRANCH  15  16
ATOM     16  C   UNL     1      60.833  31.064  62.077  1.00  0.00     0.000 C 
BRANCH  16  17
ATOM     17  C   UNL     1      61.818  29.888  62.048  1.00  0.00     0.000 C 
BRANCH  17  18
ATOM     18  C   UNL     1      63.263  30.328  61.740  1.00  0.00     0.000 C 
BRANCH  18  19
ATOM     19  C   UNL     1      63.878  29.701  60.473  1.00  0.00     0.000 C 
BRANCH  19  20
ATOM     20  C   UNL     1      63.546  28.207  60.325  1.00  0.00     0.006 C 
BRANCH  20  21
ATOM     21  C   UNL     1      63.086  27.853  58.903  1.00  0.00     0.053 C 
BRANCH  21  22
ATOM     22  C   UNL     1      61.596  27.915  58.763  1.00  0.00     0.041 C 
ATOM     23  O   UNL     1      60.853  27.537  59.711  1.00  0.00    -0.550 OA
ATOM     24  O   UNL     1      61.027  28.354  57.572  1.00  0.00    -0.550 OA
ENDBRANCH  21  22
ENDBRANCH  20  21
ENDBRANCH  19  20
ENDBRANCH  18  19
ENDBRANCH  17  18
ENDBRANCH  16  17
ENDBRANCH  15  16
ENDBRANCH  14  15
ENDBRANCH  13  14
ENDBRANCH   1  13
TORSDOF 20
ENDMDL
MODEL 9
REMARK VINA RESULT:    -2.736      3.285      6.593
REMARK INTER + INTRA:         -10.024
REMARK INTER:                  -6.450
REMARK INTRA:                  -3.574
REMARK UNBOUND:                -4.090
REMARK SMILES CCCCCCCCCCCCCCCCCCCCCC(=O)[O-]
REMARK SMILES IDX 12 1 11 2 10 3 9 4 8 5 7 6 6 7 5 8 4 9 3 10 2 11 1 12 13 13
REMARK SMILES IDX 14 14 15 15 16 16 17 17 18 18 19 19 20 20 21 21 22 22 23 23
REMARK SMILES IDX 24 24
REMARK H PARENT
REMARK Flexibility Score: inf
ROOT
ATOM      1  C   UNL     1      62.120  30.461  62.281  1.00  0.00     0.000 C 
ENDROOT
BRANCH   1   2
ATOM      2  C   UNL     1      62.767  29.279  61.543  1.00  0.00     0.000 C 
BRANCH   2   3
ATOM      3  C   UNL     1      63.944  29.755  60.679  1.00  0.00     0.000 C 
BRANCH   3   4
ATOM      4  C   UNL     1      64.411  31.173  61.037  1.00  0.00    -0.000 C 
BRANCH   4   5
ATOM      5  C   UNL     1      64.344  32.139  59.840  1.00  0.00    -0.000 C 
BRANCH   5   6
ATOM      6  C   UNL     1      64.569  33.608  60.241  1.00  0.00    -0.000 C 
BRANCH   6   7
ATOM      7  C   UNL     1      63.552  34.169  61.252  1.00  0.00    -0.000 C 
BRANCH   7   8
ATOM      8  C   UNL     1      63.115  35.610  60.926  1.00  0.00    -0.000 C 
BRANCH   8   9
ATOM      9  C   UNL     1      61.587  35.781  60.964  1.00  0.00    -0.000 C 
BRANCH   9  10
ATOM     10  C   UNL     1      60.910  35.318  59.663  1.00  0.00    -0.000 C 
BRANCH  10  11
ATOM     11  C   UNL     1      61.843  35.413  58.446  1.00  0.00    -0.003 C 
ATOM     12  C   UNL     1      61.642  34.263  57.457  1.00  0.00     0.004 C 
ENDBRANCH  10  11
ENDBRANCH   9  10
ENDBRANCH   8   9
ENDBRANCH   7   8
ENDBRANCH   6   7
ENDBRANCH   5   6
ENDBRANCH   4   5
ENDBRANCH   3   4
ENDBRANCH   2   3
ENDBRANCH   1   2
BRANCH   1  13
ATOM     13  C   UNL     1      60.737  30.835  61.719  1.00  0.00     0.000 C 
BRANCH  13  14
ATOM     14  C   UNL     1      60.743  31.894  60.594  1.00  0.00     0.000 C 
BRANCH  14  15
ATOM     15  C   UNL     1      60.033  31.448  59.298  1.00  0.00     0.000 C 
BRANCH  15  16
ATOM     16  C   UNL     1      60.902  30.511  58.444  1.00  0.00     0.000 C 
BRANCH  16  17
ATOM     17  C   UNL     1      60.223  29.149  58.251  1.00  0.00     0.000 C 
BRANCH  17  18
ATOM     18  C   UNL     1      60.950  28.010  58.993  1.00  0.00     0.000 C 
BRANCH  18  19
ATOM     19  C   UNL     1      60.032  27.067  59.795  1.00  0.00     0.000 C 
BRANCH  19  20
ATOM     20  C   UNL     1      58.966  27.820  60.609  1.00  0.00     0.006 C 
BRANCH  20  21
ATOM     21  C   UNL     1      58.451  26.993  61.797  1.00  0.00     0.053 C 
BRANCH  21  22
ATOM     22  C   UNL     1      56.986  27.200  62.032  1.00  0.00     0.041 C 
ATOM     23  O   UNL     1      56.412  28.234  61.590  1.00  0.00    -0.550 OA
ATOM     24  O   UNL     1      56.263  26.270  62.772  1.00  0.00    -0.550 OA
ENDBRANCH  21  22
ENDBRANCH  20  21
ENDBRANCH  19  20
ENDBRANCH  18  19
ENDBRANCH  17  18
ENDBRANCH  16  17
ENDBRANCH  15  16
ENDBRANCH  14  15
ENDBRANCH  13  14
ENDBRANCH   1  13
TORSDOF 20
ENDMDL
