MODEL 1
REMARK VINA RESULT:    -6.077      0.000      0.000
REMARK INTER + INTRA:          -7.167
REMARK INTER:                  -7.143
REMARK INTRA:                  -0.024
REMARK UNBOUND:                -0.024
REMARK SMILES O=C([O-])C=Cc1ccc(O)c(O)c1
REMARK SMILES IDX 6 1 13 2 7 3 11 4 8 5 9 6 5 7 4 8 2 9 1 10 3 11 12 12 10 14
REMARK H PARENT 12 13 10 15
REMARK Flexibility Score: inf
ROOT
ATOM      1  C   UNL     1     -15.180 -28.474 -13.651  1.00  0.00    -0.022 A 
ATOM      2  C   UNL     1     -15.577 -27.145 -13.415  1.00  0.00     0.058 A 
ATOM      3  C   UNL     1     -14.135 -28.730 -14.547  1.00  0.00     0.012 A 
ATOM      4  C   UNL     1     -14.897 -26.084 -14.031  1.00  0.00     0.157 A 
ATOM      5  C   UNL     1     -13.456 -27.673 -15.161  1.00  0.00     0.051 A 
ATOM      6  C   UNL     1     -13.832 -26.348 -14.901  1.00  0.00     0.157 A 
ENDROOT
BRANCH   1   7
ATOM      7  C   UNL     1     -15.916 -29.609 -13.054  1.00  0.00     0.010 C 
ATOM      8  C   UNL     1     -15.383 -30.545 -12.254  1.00  0.00     0.025 C 
BRANCH   8   9
ATOM      9  C   UNL     1     -13.944 -30.720 -11.982  1.00  0.00     0.064 C 
ATOM     10  O   UNL     1     -13.408 -30.058 -11.055  1.00  0.00    -0.545 OA
ATOM     11  O   UNL     1     -13.182 -31.651 -12.677  1.00  0.00    -0.545 OA
ENDBRANCH   8   9
ENDBRANCH   1   7
BRANCH   4  12
ATOM     12  O   UNL     1     -15.278 -24.766 -13.785  1.00  0.00    -0.504 OA
ATOM     13  H   UNL     1     -15.530 -24.138 -14.540  1.00  0.00     0.293 HD
ENDBRANCH   4  12
BRANCH   6  14
ATOM     14  O   UNL     1     -13.156 -25.292 -15.508  1.00  0.00    -0.504 OA
ATOM     15  H   UNL     1     -12.618 -25.424 -16.357  1.00  0.00     0.293 HD
ENDBRANCH   6  14
TORSDOF 4
ENDMDL
MODEL 2
REMARK VINA RESULT:    -5.990      1.112      2.115
REMARK INTER + INTRA:          -7.065
REMARK INTER:                  -6.846
REMARK INTRA:                  -0.219
REMARK UNBOUND:                -0.024
REMARK SMILES O=C([O-])C=Cc1ccc(O)c(O)c1
REMARK SMILES IDX 6 1 13 2 7 3 11 4 8 5 9 6 5 7 4 8 2 9 1 10 3 11 12 12 10 14
REMARK H PARENT 12 13 10 15
REMARK Flexibility Score: inf
ROOT
ATOM      1  C   UNL     1     -14.388 -28.867 -13.868  1.00  0.00    -0.022 A 
ATOM      2  C   UNL     1     -13.579 -27.998 -14.622  1.00  0.00     0.058 A 
ATOM      3  C   UNL     1     -15.452 -28.341 -13.123  1.00  0.00     0.012 A 
ATOM      4  C   UNL     1     -13.866 -26.627 -14.669  1.00  0.00     0.157 A 
ATOM      5  C   UNL     1     -15.739 -26.974 -13.170  1.00  0.00     0.051 A 
ATOM      6  C   UNL     1     -14.950 -26.114 -13.946  1.00  0.00     0.157 A 
ENDROOT
BRANCH   1   7
ATOM      7  C   UNL     1     -14.073 -30.307 -13.762  1.00  0.00     0.010 C 
ATOM      8  C   UNL     1     -13.391 -30.881 -12.760  1.00  0.00     0.025 C 
BRANCH   8   9
ATOM      9  C   UNL     1     -12.674 -30.161 -11.691  1.00  0.00     0.064 C 
ATOM     10  O   UNL     1     -13.322 -29.708 -10.711  1.00  0.00    -0.545 OA
ATOM     11  O   UNL     1     -11.290 -30.034 -11.703  1.00  0.00    -0.545 OA
ENDBRANCH   8   9
ENDBRANCH   1   7
BRANCH   4  12
ATOM     12  O   UNL     1     -13.074 -25.767 -15.429  1.00  0.00    -0.504 OA
ATOM     13  H   UNL     1     -12.365 -26.119 -16.062  1.00  0.00     0.293 HD
ENDBRANCH   4  12
BRANCH   6  14
ATOM     14  O   UNL     1     -15.235 -24.751 -13.999  1.00  0.00    -0.504 OA
ATOM     15  H   UNL     1     -14.606 -24.062 -13.603  1.00  0.00     0.293 HD
ENDBRANCH   6  14
TORSDOF 4
ENDMDL
MODEL 3
REMARK VINA RESULT:    -5.982      2.901      4.321
REMARK INTER + INTRA:          -7.056
REMARK INTER:                  -6.787
REMARK INTRA:                  -0.269
REMARK UNBOUND:                -0.024
REMARK SMILES O=C([O-])C=Cc1ccc(O)c(O)c1
REMARK SMILES IDX 6 1 13 2 7 3 11 4 8 5 9 6 5 7 4 8 2 9 1 10 3 11 12 12 10 14
REMARK H PARENT 12 13 10 15
REMARK Flexibility Score: inf
ROOT
ATOM      1  C   UNL     1     -13.797 -27.929 -12.199  1.00  0.00    -0.022 A 
ATOM      2  C   UNL     1     -14.050 -29.300 -12.385  1.00  0.00     0.058 A 
ATOM      3  C   UNL     1     -14.761 -26.994 -12.596  1.00  0.00     0.012 A 
ATOM      4  C   UNL     1     -15.276 -29.729 -12.913  1.00  0.00     0.157 A 
ATOM      5  C   UNL     1     -15.983 -27.419 -13.123  1.00  0.00     0.051 A 
ATOM      6  C   UNL     1     -16.246 -28.787 -13.279  1.00  0.00     0.157 A 
ENDROOT
BRANCH   1   7
ATOM      7  C   UNL     1     -12.492 -27.454 -11.693  1.00  0.00     0.010 C 
ATOM      8  C   UNL     1     -12.112 -27.454 -10.406  1.00  0.00     0.025 C 
BRANCH   8   9
ATOM      9  C   UNL     1     -12.985 -27.748  -9.255  1.00  0.00     0.064 C 
ATOM     10  O   UNL     1     -12.939 -28.887  -8.721  1.00  0.00    -0.545 OA
ATOM     11  O   UNL     1     -13.806 -26.773  -8.700  1.00  0.00    -0.545 OA
ENDBRANCH   8   9
ENDBRANCH   1   7
BRANCH   4  12
ATOM     12  O   UNL     1     -15.534 -31.088 -13.082  1.00  0.00    -0.504 OA
ATOM     13  H   UNL     1     -16.395 -31.509 -12.752  1.00  0.00     0.293 HD
ENDBRANCH   4  12
BRANCH   6  14
ATOM     14  O   UNL     1     -17.465 -29.216 -13.800  1.00  0.00    -0.504 OA
ATOM     15  H   UNL     1     -17.731 -30.194 -13.791  1.00  0.00     0.293 HD
ENDBRANCH   6  14
TORSDOF 4
ENDMDL
MODEL 4
REMARK VINA RESULT:    -5.950      1.793      2.683
REMARK INTER + INTRA:          -7.019
REMARK INTER:                  -6.901
REMARK INTRA:                  -0.118
REMARK UNBOUND:                -0.024
REMARK SMILES O=C([O-])C=Cc1ccc(O)c(O)c1
REMARK SMILES IDX 6 1 13 2 7 3 11 4 8 5 9 6 5 7 4 8 2 9 1 10 3 11 12 12 10 14
REMARK H PARENT 12 13 10 15
REMARK Flexibility Score: inf
ROOT
ATOM      1  C   UNL     1     -14.306 -28.742 -12.665  1.00  0.00    -0.022 A 
ATOM      2  C   UNL     1     -13.953 -28.569 -14.015  1.00  0.00     0.058 A 
ATOM      3  C   UNL     1     -14.797 -27.649 -11.939  1.00  0.00     0.012 A 
ATOM      4  C   UNL     1     -14.142 -27.329 -14.643  1.00  0.00     0.157 A 
ATOM      5  C   UNL     1     -14.985 -26.413 -12.563  1.00  0.00     0.051 A 
ATOM      6  C   UNL     1     -14.663 -26.251 -13.917  1.00  0.00     0.157 A 
ENDROOT
BRANCH   1   7
ATOM      7  C   UNL     1     -14.067 -30.024 -11.970  1.00  0.00     0.010 C 
ATOM      8  C   UNL     1     -14.744 -31.161 -12.185  1.00  0.00     0.025 C 
BRANCH   8   9
ATOM      9  C   UNL     1     -15.962 -31.290 -13.006  1.00  0.00     0.064 C 
ATOM     10  O   UNL     1     -16.022 -32.192 -13.882  1.00  0.00    -0.545 OA
ATOM     11  O   UNL     1     -17.074 -30.485 -12.786  1.00  0.00    -0.545 OA
ENDBRANCH   8   9
ENDBRANCH   1   7
BRANCH   4  12
ATOM     12  O   UNL     1     -13.808 -27.161 -15.986  1.00  0.00    -0.504 OA
ATOM     13  H   UNL     1     -13.769 -26.242 -16.411  1.00  0.00     0.293 HD
ENDBRANCH   4  12
BRANCH   6  14
ATOM     14  O   UNL     1     -14.852 -25.021 -14.545  1.00  0.00    -0.504 OA
ATOM     15  H   UNL     1     -15.755 -24.749 -14.916  1.00  0.00     0.293 HD
ENDBRANCH   6  14
TORSDOF 4
ENDMDL
MODEL 5
REMARK VINA RESULT:    -5.861      1.862      2.818
REMARK INTER + INTRA:          -6.914
REMARK INTER:                  -6.668
REMARK INTRA:                  -0.246
REMARK UNBOUND:                -0.024
REMARK SMILES O=C([O-])C=Cc1ccc(O)c(O)c1
REMARK SMILES IDX 6 1 13 2 7 3 11 4 8 5 9 6 5 7 4 8 2 9 1 10 3 11 12 12 10 14
REMARK H PARENT 12 13 10 15
REMARK Flexibility Score: inf
ROOT
ATOM      1  C   UNL     1     -14.875 -29.961 -12.348  1.00  0.00    -0.022 A 
ATOM      2  C   UNL     1     -13.793 -29.110 -12.056  1.00  0.00     0.058 A 
ATOM      3  C   UNL     1     -15.989 -29.446 -13.023  1.00  0.00     0.012 A 
ATOM      4  C   UNL     1     -13.808 -27.775 -12.483  1.00  0.00     0.157 A 
ATOM      5  C   UNL     1     -16.005 -28.115 -13.449  1.00  0.00     0.051 A 
ATOM      6  C   UNL     1     -14.913 -27.277 -13.185  1.00  0.00     0.157 A 
ENDROOT
BRANCH   1   7
ATOM      7  C   UNL     1     -14.903 -31.356 -11.862  1.00  0.00     0.010 C 
ATOM      8  C   UNL     1     -14.458 -32.424 -12.541  1.00  0.00     0.025 C 
BRANCH   8   9
ATOM      9  C   UNL     1     -14.041 -32.425 -13.955  1.00  0.00     0.064 C 
ATOM     10  O   UNL     1     -14.913 -32.306 -14.856  1.00  0.00    -0.545 OA
ATOM     11  O   UNL     1     -12.700 -32.482 -14.316  1.00  0.00    -0.545 OA
ENDBRANCH   8   9
ENDBRANCH   1   7
BRANCH   4  12
ATOM     12  O   UNL     1     -12.729 -26.935 -12.209  1.00  0.00    -0.504 OA
ATOM     13  H   UNL     1     -12.466 -26.187 -12.840  1.00  0.00     0.293 HD
ENDBRANCH   4  12
BRANCH   6  14
ATOM     14  O   UNL     1     -14.922 -25.951 -13.611  1.00  0.00    -0.504 OA
ATOM     15  H   UNL     1     -14.117 -25.533 -14.061  1.00  0.00     0.293 HD
ENDBRANCH   6  14
TORSDOF 4
ENDMDL
MODEL 6
REMARK VINA RESULT:    -5.658      1.971      5.215
REMARK INTER + INTRA:          -6.675
REMARK INTER:                  -6.558
REMARK INTRA:                  -0.117
REMARK UNBOUND:                -0.024
REMARK SMILES O=C([O-])C=Cc1ccc(O)c(O)c1
REMARK SMILES IDX 6 1 13 2 7 3 11 4 8 5 9 6 5 7 4 8 2 9 1 10 3 11 12 12 10 14
REMARK H PARENT 12 13 10 15
REMARK Flexibility Score: inf
ROOT
ATOM      1  C   UNL     1     -15.591 -29.834 -12.866  1.00  0.00    -0.022 A 
ATOM      2  C   UNL     1     -16.246 -30.888 -13.529  1.00  0.00     0.058 A 
ATOM      3  C   UNL     1     -14.508 -30.120 -12.025  1.00  0.00     0.012 A 
ATOM      4  C   UNL     1     -15.784 -32.205 -13.392  1.00  0.00     0.157 A 
ATOM      5  C   UNL     1     -14.048 -31.433 -11.888  1.00  0.00     0.051 A 
ATOM      6  C   UNL     1     -14.681 -32.478 -12.574  1.00  0.00     0.157 A 
ENDROOT
BRANCH   1   7
ATOM      7  C   UNL     1     -16.092 -28.446 -12.954  1.00  0.00     0.010 C 
ATOM      8  C   UNL     1     -15.478 -27.439 -13.592  1.00  0.00     0.025 C 
BRANCH   8   9
ATOM      9  C   UNL     1     -14.114 -27.485 -14.151  1.00  0.00     0.064 C 
ATOM     10  O   UNL     1     -13.129 -27.299 -13.389  1.00  0.00    -0.545 OA
ATOM     11  O   UNL     1     -13.887 -27.800 -15.485  1.00  0.00    -0.545 OA
ENDBRANCH   8   9
ENDBRANCH   1   7
BRANCH   4  12
ATOM     12  O   UNL     1     -16.422 -33.248 -14.062  1.00  0.00    -0.504 OA
ATOM     13  H   UNL     1     -17.391 -33.481 -13.880  1.00  0.00     0.293 HD
ENDBRANCH   4  12
BRANCH   6  14
ATOM     14  O   UNL     1     -14.223 -33.787 -12.443  1.00  0.00    -0.504 OA
ATOM     15  H   UNL     1     -13.825 -34.126 -11.575  1.00  0.00     0.293 HD
ENDBRANCH   6  14
TORSDOF 4
ENDMDL
MODEL 7
REMARK VINA RESULT:    -5.552      3.017      4.083
REMARK INTER + INTRA:          -6.551
REMARK INTER:                  -6.269
REMARK INTRA:                  -0.282
REMARK UNBOUND:                -0.024
REMARK SMILES O=C([O-])C=Cc1ccc(O)c(O)c1
REMARK SMILES IDX 6 1 13 2 7 3 11 4 8 5 9 6 5 7 4 8 2 9 1 10 3 11 12 12 10 14
REMARK H PARENT 12 13 10 15
REMARK Flexibility Score: inf
ROOT
ATOM      1  C   UNL     1     -13.084 -28.134 -11.761  1.00  0.00    -0.022 A 
ATOM      2  C   UNL     1     -14.216 -27.430 -12.207  1.00  0.00     0.058 A 
ATOM      3  C   UNL     1     -13.038 -29.526 -11.913  1.00  0.00     0.012 A 
ATOM      4  C   UNL     1     -15.265 -28.107 -12.847  1.00  0.00     0.157 A 
ATOM      5  C   UNL     1     -14.082 -30.202 -12.550  1.00  0.00     0.051 A 
ATOM      6  C   UNL     1     -15.196 -29.495 -13.023  1.00  0.00     0.157 A 
ENDROOT
BRANCH   1   7
ATOM      7  C   UNL     1     -11.992 -27.449 -11.038  1.00  0.00     0.010 C 
ATOM      8  C   UNL     1     -11.872 -27.372  -9.704  1.00  0.00     0.025 C 
BRANCH   8   9
ATOM      9  C   UNL     1     -12.895 -27.788  -8.728  1.00  0.00     0.064 C 
ATOM     10  O   UNL     1     -13.844 -27.006  -8.458  1.00  0.00    -0.545 OA
ATOM     11  O   UNL     1     -12.877 -29.053  -8.152  1.00  0.00    -0.545 OA
ENDBRANCH   8   9
ENDBRANCH   1   7
BRANCH   4  12
ATOM     12  O   UNL     1     -16.380 -27.408 -13.305  1.00  0.00    -0.504 OA
ATOM     13  H   UNL     1     -16.396 -26.978 -14.223  1.00  0.00     0.293 HD
ENDBRANCH   4  12
BRANCH   6  14
ATOM     14  O   UNL     1     -16.237 -30.164 -13.662  1.00  0.00    -0.504 OA
ATOM     15  H   UNL     1     -17.203 -29.880 -13.542  1.00  0.00     0.293 HD
ENDBRANCH   6  14
TORSDOF 4
ENDMDL
MODEL 8
REMARK VINA RESULT:    -5.467      1.436      4.950
REMARK INTER + INTRA:          -6.450
REMARK INTER:                  -6.317
REMARK INTRA:                  -0.133
REMARK UNBOUND:                -0.024
REMARK SMILES O=C([O-])C=Cc1ccc(O)c(O)c1
REMARK SMILES IDX 6 1 13 2 7 3 11 4 8 5 9 6 5 7 4 8 2 9 1 10 3 11 12 12 10 14
REMARK H PARENT 12 13 10 15
REMARK Flexibility Score: inf
ROOT
ATOM      1  C   UNL     1     -15.416 -28.885 -12.745  1.00  0.00    -0.022 A 
ATOM      2  C   UNL     1     -14.199 -29.420 -12.285  1.00  0.00     0.058 A 
ATOM      3  C   UNL     1     -16.422 -29.753 -13.191  1.00  0.00     0.012 A 
ATOM      4  C   UNL     1     -14.014 -30.809 -12.224  1.00  0.00     0.157 A 
ATOM      5  C   UNL     1     -16.238 -31.137 -13.131  1.00  0.00     0.051 A 
ATOM      6  C   UNL     1     -15.037 -31.669 -12.643  1.00  0.00     0.157 A 
ENDROOT
BRANCH   1   7
ATOM      7  C   UNL     1     -15.613 -27.426 -12.868  1.00  0.00     0.010 C 
ATOM      8  C   UNL     1     -14.997 -26.631 -13.755  1.00  0.00     0.025 C 
BRANCH   8   9
ATOM      9  C   UNL     1     -13.883 -27.032 -14.634  1.00  0.00     0.064 C 
ATOM     10  O   UNL     1     -12.699 -26.814 -14.266  1.00  0.00    -0.545 OA
ATOM     11  O   UNL     1     -14.107 -27.710 -15.826  1.00  0.00    -0.545 OA
ENDBRANCH   8   9
ENDBRANCH   1   7
BRANCH   4  12
ATOM     12  O   UNL     1     -12.815 -31.340 -11.753  1.00  0.00    -0.504 OA
ATOM     13  H   UNL     1     -11.920 -30.941 -12.012  1.00  0.00     0.293 HD
ENDBRANCH   4  12
BRANCH   6  14
ATOM     14  O   UNL     1     -14.851 -33.048 -12.577  1.00  0.00    -0.504 OA
ATOM     15  H   UNL     1     -15.559 -33.661 -12.188  1.00  0.00     0.293 HD
ENDBRANCH   6  14
TORSDOF 4
ENDMDL
MODEL 9
REMARK VINA RESULT:    -5.429      1.987      5.249
REMARK INTER + INTRA:          -6.406
REMARK INTER:                  -6.325
REMARK INTRA:                  -0.081
REMARK UNBOUND:                -0.024
REMARK SMILES O=C([O-])C=Cc1ccc(O)c(O)c1
REMARK SMILES IDX 6 1 13 2 7 3 11 4 8 5 9 6 5 7 4 8 2 9 1 10 3 11 12 12 10 14
REMARK H PARENT 12 13 10 15
REMARK Flexibility Score: inf
ROOT
ATOM      1  C   UNL     1     -14.224 -29.762 -12.695  1.00  0.00    -0.022 A 
ATOM      2  C   UNL     1     -13.579 -30.889 -13.237  1.00  0.00     0.058 A 
ATOM      3  C   UNL     1     -15.624 -29.718 -12.670  1.00  0.00     0.012 A 
ATOM      4  C   UNL     1     -14.330 -31.980 -13.698  1.00  0.00     0.157 A 
ATOM      5  C   UNL     1     -16.373 -30.805 -13.130  1.00  0.00     0.051 A 
ATOM      6  C   UNL     1     -15.729 -31.940 -13.641  1.00  0.00     0.157 A 
ENDROOT
BRANCH   1   7
ATOM      7  C   UNL     1     -13.454 -28.581 -12.251  1.00  0.00     0.010 C 
ATOM      8  C   UNL     1     -13.551 -27.350 -12.774  1.00  0.00     0.025 C 
BRANCH   8   9
ATOM      9  C   UNL     1     -14.293 -26.997 -13.999  1.00  0.00     0.064 C 
ATOM     10  O   UNL     1     -15.271 -26.208 -13.920  1.00  0.00    -0.545 OA
ATOM     11  O   UNL     1     -13.893 -27.456 -15.248  1.00  0.00    -0.545 OA
ENDBRANCH   8   9
ENDBRANCH   1   7
BRANCH   4  12
ATOM     12  O   UNL     1     -13.693 -33.104 -14.220  1.00  0.00    -0.504 OA
ATOM     13  H   UNL     1     -12.802 -33.424 -13.858  1.00  0.00     0.293 HD
ENDBRANCH   4  12
BRANCH   6  14
ATOM     14  O   UNL     1     -16.472 -33.027 -14.097  1.00  0.00    -0.504 OA
ATOM     15  H   UNL     1     -16.922 -33.669 -13.454  1.00  0.00     0.293 HD
ENDBRANCH   6  14
TORSDOF 4
ENDMDL
