MODEL 1
REMARK VINA RESULT:    -4.559      0.000      0.000
REMARK INTER + INTRA:         -15.806
REMARK INTER:                 -11.488
REMARK INTRA:                  -4.319
REMARK UNBOUND:                -4.319
REMARK SMILES CCCCCCCCCCCCCCCCCCCCCCCCCCCC(=O)[O-]
REMARK SMILES IDX 15 1 16 2 17 3 18 4 19 5 20 6 21 7 22 8 23 9 24 10 25 11
REMARK SMILES IDX 26 12 27 13 28 14 29 15 30 16 14 17 13 18 12 19 11 20 10 21
REMARK SMILES IDX 9 22 8 23 7 24 6 25 5 26 4 27 3 28 2 29 1 30
REMARK H PARENT
REMARK Flexibility Score: inf
ROOT
ATOM      1  C   UNL     1     -19.246 -29.370  18.986  1.00  0.00     0.000 C 
ENDROOT
BRANCH   1   2
ATOM      2  C   UNL     1     -17.731 -29.268  18.752  1.00  0.00     0.000 C 
BRANCH   2   3
ATOM      3  C   UNL     1     -17.407 -28.153  17.747  1.00  0.00     0.000 C 
BRANCH   3   4
ATOM      4  C   UNL     1     -16.039 -27.495  18.004  1.00  0.00     0.000 C 
BRANCH   4   5
ATOM      5  C   UNL     1     -15.004 -28.398  18.707  1.00  0.00     0.000 C 
BRANCH   5   6
ATOM      6  C   UNL     1     -13.541 -28.170  18.288  1.00  0.00     0.000 C 
BRANCH   6   7
ATOM      7  C   UNL     1     -12.558 -29.089  19.033  1.00  0.00     0.000 C 
BRANCH   7   8
ATOM      8  C   UNL     1     -11.322 -29.449  18.191  1.00  0.00     0.000 C 
BRANCH   8   9
ATOM      9  C   UNL     1     -10.261 -28.337  18.082  1.00  0.00     0.000 C 
BRANCH   9  10
ATOM     10  C   UNL     1     -10.608 -27.250  17.043  1.00  0.00     0.000 C 
BRANCH  10  11
ATOM     11  C   UNL     1     -10.625 -25.843  17.660  1.00  0.00     0.000 C 
BRANCH  11  12
ATOM     12  C   UNL     1     -10.879 -24.776  16.586  1.00  0.00     0.006 C 
BRANCH  12  13
ATOM     13  C   UNL     1     -10.087 -23.488  16.851  1.00  0.00     0.053 C 
BRANCH  13  14
ATOM     14  C   UNL     1     -10.961 -22.413  17.418  1.00  0.00     0.041 C 
ATOM     15  O   UNL     1     -11.870 -21.891  16.717  1.00  0.00    -0.550 OA
ATOM     16  O   UNL     1     -10.789 -22.001  18.735  1.00  0.00    -0.550 OA
ENDBRANCH  13  14
ENDBRANCH  12  13
ENDBRANCH  11  12
ENDBRANCH  10  11
ENDBRANCH   9  10
ENDBRANCH   8   9
ENDBRANCH   7   8
ENDBRANCH   6   7
ENDBRANCH   5   6
ENDBRANCH   4   5
ENDBRANCH   3   4
ENDBRANCH   2   3
ENDBRANCH   1   2
BRANCH   1  17
ATOM     17  C   UNL     1     -19.786 -30.794  18.775  1.00  0.00     0.000 C 
BRANCH  17  18
ATOM     18  C   UNL     1     -18.956 -31.602  17.766  1.00  0.00     0.000 C 
BRANCH  18  19
ATOM     19  C   UNL     1     -18.820 -33.063  18.221  1.00  0.00     0.000 C 
BRANCH  19  20
ATOM     20  C   UNL     1     -19.442 -33.323  19.606  1.00  0.00     0.000 C 
BRANCH  20  21
ATOM     21  C   UNL     1     -18.434 -33.645  20.728  1.00  0.00     0.000 C 
BRANCH  21  22
ATOM     22  C   UNL     1     -18.076 -32.461  21.643  1.00  0.00    -0.000 C 
BRANCH  22  23
ATOM     23  C   UNL     1     -16.646 -31.940  21.419  1.00  0.00    -0.000 C 
BRANCH  23  24
ATOM     24  C   UNL     1     -15.611 -33.080  21.273  1.00  0.00    -0.000 C 
BRANCH  24  25
ATOM     25  C   UNL     1     -14.789 -33.014  19.973  1.00  0.00    -0.000 C 
BRANCH  25  26
ATOM     26  C   UNL     1     -15.187 -31.879  19.010  1.00  0.00    -0.000 C 
BRANCH  26  27
ATOM     27  C   UNL     1     -14.750 -32.121  17.548  1.00  0.00    -0.000 C 
BRANCH  27  28
ATOM     28  C   UNL     1     -15.669 -31.426  16.531  1.00  0.00    -0.000 C 
BRANCH  28  29
ATOM     29  C   UNL     1     -14.852 -30.696  15.460  1.00  0.00    -0.003 C 
ATOM     30  C   UNL     1     -13.358 -30.967  15.629  1.00  0.00     0.004 C 
ENDBRANCH  28  29
ENDBRANCH  27  28
ENDBRANCH  26  27
ENDBRANCH  25  26
ENDBRANCH  24  25
ENDBRANCH  23  24
ENDBRANCH  22  23
ENDBRANCH  21  22
ENDBRANCH  20  21
ENDBRANCH  19  20
ENDBRANCH  18  19
ENDBRANCH  17  18
ENDBRANCH   1  17
TORSDOF 26
ENDMDL
MODEL 2
REMARK VINA RESULT:    -4.540      3.994      7.609
REMARK INTER + INTRA:         -15.760
REMARK INTER:                 -11.084
REMARK INTRA:                  -4.676
REMARK UNBOUND:                -4.319
REMARK SMILES CCCCCCCCCCCCCCCCCCCCCCCCCCCC(=O)[O-]
REMARK SMILES IDX 15 1 16 2 17 3 18 4 19 5 20 6 21 7 22 8 23 9 24 10 25 11
REMARK SMILES IDX 26 12 27 13 28 14 29 15 30 16 14 17 13 18 12 19 11 20 10 21
REMARK SMILES IDX 9 22 8 23 7 24 6 25 5 26 4 27 3 28 2 29 1 30
REMARK H PARENT
REMARK Flexibility Score: inf
ROOT
ATOM      1  C   UNL     1     -17.271 -27.575  17.875  1.00  0.00     0.000 C 
ENDROOT
BRANCH   1   2
ATOM      2  C   UNL     1     -17.958 -28.936  17.678  1.00  0.00     0.000 C 
BRANCH   2   3
ATOM      3  C   UNL     1     -18.382 -29.534  19.027  1.00  0.00     0.000 C 
BRANCH   3   4
ATOM      4  C   UNL     1     -19.853 -29.988  19.044  1.00  0.00     0.000 C 
BRANCH   4   5
ATOM      5  C   UNL     1     -20.152 -31.194  19.958  1.00  0.00     0.000 C 
BRANCH   5   6
ATOM      6  C   UNL     1     -18.938 -31.761  20.715  1.00  0.00     0.000 C 
BRANCH   6   7
ATOM      7  C   UNL     1     -18.878 -33.298  20.677  1.00  0.00     0.000 C 
BRANCH   7   8
ATOM      8  C   UNL     1     -17.598 -33.829  20.009  1.00  0.00     0.000 C 
BRANCH   8   9
ATOM      9  C   UNL     1     -17.320 -33.273  18.599  1.00  0.00     0.000 C 
BRANCH   9  10
ATOM     10  C   UNL     1     -18.382 -33.672  17.554  1.00  0.00     0.000 C 
BRANCH  10  11
ATOM     11  C   UNL     1     -18.729 -32.512  16.607  1.00  0.00     0.000 C 
BRANCH  11  12
ATOM     12  C   UNL     1     -18.827 -33.001  15.155  1.00  0.00     0.006 C 
BRANCH  12  13
ATOM     13  C   UNL     1     -17.584 -33.789  14.724  1.00  0.00     0.053 C 
BRANCH  13  14
ATOM     14  C   UNL     1     -16.811 -33.063  13.667  1.00  0.00     0.041 C 
ATOM     15  O   UNL     1     -17.387 -32.239  12.906  1.00  0.00    -0.550 OA
ATOM     16  O   UNL     1     -15.443 -33.277  13.537  1.00  0.00    -0.550 OA
ENDBRANCH  13  14
ENDBRANCH  12  13
ENDBRANCH  11  12
ENDBRANCH  10  11
ENDBRANCH   9  10
ENDBRANCH   8   9
ENDBRANCH   7   8
ENDBRANCH   6   7
ENDBRANCH   5   6
ENDBRANCH   4   5
ENDBRANCH   3   4
ENDBRANCH   2   3
ENDBRANCH   1   2
BRANCH   1  17
ATOM     17  C   UNL     1     -16.239 -27.589  19.014  1.00  0.00     0.000 C 
BRANCH  17  18
ATOM     18  C   UNL     1     -14.818 -27.908  18.525  1.00  0.00     0.000 C 
BRANCH  18  19
ATOM     19  C   UNL     1     -14.590 -29.426  18.470  1.00  0.00     0.000 C 
BRANCH  19  20
ATOM     20  C   UNL     1     -14.284 -29.939  17.050  1.00  0.00     0.000 C 
BRANCH  20  21
ATOM     21  C   UNL     1     -15.041 -31.218  16.637  1.00  0.00     0.000 C 
BRANCH  21  22
ATOM     22  C   UNL     1     -14.208 -32.512  16.677  1.00  0.00    -0.000 C 
BRANCH  22  23
ATOM     23  C   UNL     1     -12.722 -32.279  16.357  1.00  0.00    -0.000 C 
BRANCH  23  24
ATOM     24  C   UNL     1     -11.785 -32.777  17.482  1.00  0.00    -0.000 C 
BRANCH  24  25
ATOM     25  C   UNL     1     -12.351 -32.577  18.900  1.00  0.00    -0.000 C 
BRANCH  25  26
ATOM     26  C   UNL     1     -11.347 -32.022  19.928  1.00  0.00    -0.000 C 
BRANCH  26  27
ATOM     27  C   UNL     1     -11.117 -30.499  19.814  1.00  0.00    -0.000 C 
BRANCH  27  28
ATOM     28  C   UNL     1      -9.679 -30.144  19.403  1.00  0.00    -0.000 C 
BRANCH  28  29
ATOM     29  C   UNL     1      -9.651 -28.894  18.518  1.00  0.00    -0.003 C 
ATOM     30  C   UNL     1     -10.883 -28.831  17.619  1.00  0.00     0.004 C 
ENDBRANCH  28  29
ENDBRANCH  27  28
ENDBRANCH  26  27
ENDBRANCH  25  26
ENDBRANCH  24  25
ENDBRANCH  23  24
ENDBRANCH  22  23
ENDBRANCH  21  22
ENDBRANCH  20  21
ENDBRANCH  19  20
ENDBRANCH  18  19
ENDBRANCH  17  18
ENDBRANCH   1  17
TORSDOF 26
ENDMDL
MODEL 3
REMARK VINA RESULT:    -4.450      2.718      7.315
REMARK INTER + INTRA:         -15.533
REMARK INTER:                 -10.427
REMARK INTRA:                  -5.106
REMARK UNBOUND:                -4.319
REMARK SMILES CCCCCCCCCCCCCCCCCCCCCCCCCCCC(=O)[O-]
REMARK SMILES IDX 15 1 16 2 17 3 18 4 19 5 20 6 21 7 22 8 23 9 24 10 25 11
REMARK SMILES IDX 26 12 27 13 28 14 29 15 30 16 14 17 13 18 12 19 11 20 10 21
REMARK SMILES IDX 9 22 8 23 7 24 6 25 5 26 4 27 3 28 2 29 1 30
REMARK H PARENT
REMARK Flexibility Score: inf
ROOT
ATOM      1  C   UNL     1     -15.431 -31.517  16.355  1.00  0.00     0.000 C 
ENDROOT
BRANCH   1   2
ATOM      2  C   UNL     1     -15.701 -32.857  17.058  1.00  0.00     0.000 C 
BRANCH   2   3
ATOM      3  C   UNL     1     -15.532 -32.720  18.578  1.00  0.00     0.000 C 
BRANCH   3   4
ATOM      4  C   UNL     1     -15.457 -34.080  19.296  1.00  0.00     0.000 C 
BRANCH   4   5
ATOM      5  C   UNL     1     -16.000 -34.085  20.740  1.00  0.00     0.000 C 
BRANCH   5   6
ATOM      6  C   UNL     1     -16.365 -32.702  21.309  1.00  0.00     0.000 C 
BRANCH   6   7
ATOM      7  C   UNL     1     -17.859 -32.576  21.654  1.00  0.00     0.000 C 
BRANCH   7   8
ATOM      8  C   UNL     1     -18.761 -33.388  20.709  1.00  0.00     0.000 C 
BRANCH   8   9
ATOM      9  C   UNL     1     -19.645 -32.547  19.769  1.00  0.00     0.000 C 
BRANCH   9  10
ATOM     10  C   UNL     1     -19.134 -32.501  18.314  1.00  0.00     0.000 C 
BRANCH  10  11
ATOM     11  C   UNL     1     -18.848 -31.065  17.845  1.00  0.00     0.000 C 
BRANCH  11  12
ATOM     12  C   UNL     1     -18.660 -30.123  19.042  1.00  0.00     0.006 C 
BRANCH  12  13
ATOM     13  C   UNL     1     -17.298 -29.417  19.014  1.00  0.00     0.053 C 
BRANCH  13  14
ATOM     14  C   UNL     1     -17.428 -27.990  18.577  1.00  0.00     0.041 C 
ATOM     15  O   UNL     1     -17.580 -27.705  17.358  1.00  0.00    -0.550 OA
ATOM     16  O   UNL     1     -17.407 -26.971  19.523  1.00  0.00    -0.550 OA
ENDBRANCH  13  14
ENDBRANCH  12  13
ENDBRANCH  11  12
ENDBRANCH  10  11
ENDBRANCH   9  10
ENDBRANCH   8   9
ENDBRANCH   7   8
ENDBRANCH   6   7
ENDBRANCH   5   6
ENDBRANCH   4   5
ENDBRANCH   3   4
ENDBRANCH   2   3
ENDBRANCH   1   2
BRANCH   1  17
ATOM     17  C   UNL     1     -14.004 -30.998  16.592  1.00  0.00     0.000 C 
BRANCH  17  18
ATOM     18  C   UNL     1     -12.933 -31.885  15.940  1.00  0.00     0.000 C 
BRANCH  18  19
ATOM     19  C   UNL     1     -11.994 -32.474  17.004  1.00  0.00     0.000 C 
BRANCH  19  20
ATOM     20  C   UNL     1     -12.124 -31.780  18.373  1.00  0.00     0.000 C 
BRANCH  20  21
ATOM     21  C   UNL     1     -11.880 -32.689  19.595  1.00  0.00     0.000 C 
BRANCH  21  22
ATOM     22  C   UNL     1     -10.772 -32.214  20.552  1.00  0.00    -0.000 C 
BRANCH  22  23
ATOM     23  C   UNL     1      -9.612 -31.511  19.825  1.00  0.00    -0.000 C 
BRANCH  23  24
ATOM     24  C   UNL     1      -9.292 -30.119  20.418  1.00  0.00    -0.000 C 
BRANCH  24  25
ATOM     25  C   UNL     1      -8.986 -29.045  19.358  1.00  0.00    -0.000 C 
BRANCH  25  26
ATOM     26  C   UNL     1      -9.464 -29.384  17.933  1.00  0.00    -0.000 C 
BRANCH  26  27
ATOM     27  C   UNL     1     -10.501 -28.386  17.370  1.00  0.00    -0.000 C 
BRANCH  27  28
ATOM     28  C   UNL     1     -11.205 -27.578  18.470  1.00  0.00    -0.000 C 
BRANCH  28  29
ATOM     29  C   UNL     1     -12.400 -28.349  19.041  1.00  0.00    -0.003 C 
ATOM     30  C   UNL     1     -13.702 -27.920  18.368  1.00  0.00     0.004 C 
ENDBRANCH  28  29
ENDBRANCH  27  28
ENDBRANCH  26  27
ENDBRANCH  25  26
ENDBRANCH  24  25
ENDBRANCH  23  24
ENDBRANCH  22  23
ENDBRANCH  21  22
ENDBRANCH  20  21
ENDBRANCH  19  20
ENDBRANCH  18  19
ENDBRANCH  17  18
ENDBRANCH   1  17
TORSDOF 26
ENDMDL
MODEL 4
REMARK VINA RESULT:    -4.435      2.480      4.804
REMARK INTER + INTRA:         -15.495
REMARK INTER:                 -10.467
REMARK INTRA:                  -5.029
REMARK UNBOUND:                -4.319
REMARK SMILES CCCCCCCCCCCCCCCCCCCCCCCCCCCC(=O)[O-]
REMARK SMILES IDX 15 1 16 2 17 3 18 4 19 5 20 6 21 7 22 8 23 9 24 10 25 11
REMARK SMILES IDX 26 12 27 13 28 14 29 15 30 16 14 17 13 18 12 19 11 20 10 21
REMARK SMILES IDX 9 22 8 23 7 24 6 25 5 26 4 27 3 28 2 29 1 30
REMARK H PARENT
REMARK Flexibility Score: inf
ROOT
ATOM      1  C   UNL     1     -16.020 -32.782  21.529  1.00  0.00     0.000 C 
ENDROOT
BRANCH   1   2
ATOM      2  C   UNL     1     -15.418 -33.880  20.639  1.00  0.00     0.000 C 
BRANCH   2   3
ATOM      3  C   UNL     1     -14.731 -33.271  19.407  1.00  0.00     0.000 C 
BRANCH   3   4
ATOM      4  C   UNL     1     -13.429 -32.528  19.756  1.00  0.00     0.000 C 
BRANCH   4   5
ATOM      5  C   UNL     1     -13.049 -31.391  18.785  1.00  0.00     0.000 C 
BRANCH   5   6
ATOM      6  C   UNL     1     -11.967 -31.747  17.750  1.00  0.00     0.000 C 
BRANCH   6   7
ATOM      7  C   UNL     1     -11.432 -33.180  17.916  1.00  0.00     0.000 C 
BRANCH   7   8
ATOM      8  C   UNL     1     -10.027 -33.224  18.540  1.00  0.00     0.000 C 
BRANCH   8   9
ATOM      9  C   UNL     1      -9.423 -31.849  18.885  1.00  0.00     0.000 C 
BRANCH   9  10
ATOM     10  C   UNL     1      -9.585 -31.455  20.368  1.00  0.00     0.000 C 
BRANCH  10  11
ATOM     11  C   UNL     1     -10.006 -29.987  20.535  1.00  0.00     0.000 C 
BRANCH  11  12
ATOM     12  C   UNL     1      -9.509 -29.136  19.358  1.00  0.00     0.006 C 
BRANCH  12  13
ATOM     13  C   UNL     1     -10.282 -27.817  19.231  1.00  0.00     0.053 C 
BRANCH  13  14
ATOM     14  C   UNL     1     -11.117 -27.786  17.987  1.00  0.00     0.041 C 
ATOM     15  O   UNL     1     -10.582 -27.927  16.854  1.00  0.00    -0.550 OA
ATOM     16  O   UNL     1     -12.494 -27.627  18.081  1.00  0.00    -0.550 OA
ENDBRANCH  13  14
ENDBRANCH  12  13
ENDBRANCH  11  12
ENDBRANCH  10  11
ENDBRANCH   9  10
ENDBRANCH   8   9
ENDBRANCH   7   8
ENDBRANCH   6   7
ENDBRANCH   5   6
ENDBRANCH   4   5
ENDBRANCH   3   4
ENDBRANCH   2   3
ENDBRANCH   1   2
BRANCH   1  17
ATOM     17  C   UNL     1     -17.545 -32.901  21.673  1.00  0.00     0.000 C 
BRANCH  17  18
ATOM     18  C   UNL     1     -18.148 -33.969  20.748  1.00  0.00     0.000 C 
BRANCH  18  19
ATOM     19  C   UNL     1     -19.048 -33.322  19.685  1.00  0.00     0.000 C 
BRANCH  19  20
ATOM     20  C   UNL     1     -18.592 -33.624  18.245  1.00  0.00     0.000 C 
BRANCH  20  21
ATOM     21  C   UNL     1     -19.216 -32.725  17.157  1.00  0.00     0.000 C 
BRANCH  21  22
ATOM     22  C   UNL     1     -18.539 -32.804  15.777  1.00  0.00    -0.000 C 
BRANCH  22  23
ATOM     23  C   UNL     1     -17.153 -33.469  15.825  1.00  0.00    -0.000 C 
BRANCH  23  24
ATOM     24  C   UNL     1     -16.038 -32.567  15.246  1.00  0.00    -0.000 C 
BRANCH  24  25
ATOM     25  C   UNL     1     -15.508 -31.516  16.239  1.00  0.00    -0.000 C 
BRANCH  25  26
ATOM     26  C   UNL     1     -16.038 -30.087  16.016  1.00  0.00    -0.000 C 
BRANCH  26  27
ATOM     27  C   UNL     1     -16.602 -29.425  17.294  1.00  0.00    -0.000 C 
BRANCH  27  28
ATOM     28  C   UNL     1     -16.690 -30.401  18.478  1.00  0.00    -0.000 C 
BRANCH  28  29
ATOM     29  C   UNL     1     -17.652 -29.879  19.551  1.00  0.00    -0.003 C 
ATOM     30  C   UNL     1     -19.010 -29.528  18.947  1.00  0.00     0.004 C 
ENDBRANCH  28  29
ENDBRANCH  27  28
ENDBRANCH  26  27
ENDBRANCH  25  26
ENDBRANCH  24  25
ENDBRANCH  23  24
ENDBRANCH  22  23
ENDBRANCH  21  22
ENDBRANCH  20  21
ENDBRANCH  19  20
ENDBRANCH  18  19
ENDBRANCH  17  18
ENDBRANCH   1  17
TORSDOF 26
ENDMDL
MODEL 5
REMARK VINA RESULT:    -4.434      3.045      5.151
REMARK INTER + INTRA:         -15.493
REMARK INTER:                 -10.764
REMARK INTRA:                  -4.730
REMARK UNBOUND:                -4.319
REMARK SMILES CCCCCCCCCCCCCCCCCCCCCCCCCCCC(=O)[O-]
REMARK SMILES IDX 15 1 16 2 17 3 18 4 19 5 20 6 21 7 22 8 23 9 24 10 25 11
REMARK SMILES IDX 26 12 27 13 28 14 29 15 30 16 14 17 13 18 12 19 11 20 10 21
REMARK SMILES IDX 9 22 8 23 7 24 6 25 5 26 4 27 3 28 2 29 1 30
REMARK H PARENT
REMARK Flexibility Score: inf
ROOT
ATOM      1  C   UNL     1     -16.614 -32.169  21.847  1.00  0.00     0.000 C 
ENDROOT
BRANCH   1   2
ATOM      2  C   UNL     1     -15.832 -33.317  21.189  1.00  0.00     0.000 C 
BRANCH   2   3
ATOM      3  C   UNL     1     -14.940 -32.792  20.056  1.00  0.00     0.000 C 
BRANCH   3   4
ATOM      4  C   UNL     1     -14.601 -33.872  19.012  1.00  0.00     0.000 C 
BRANCH   4   5
ATOM      5  C   UNL     1     -13.723 -33.390  17.839  1.00  0.00     0.000 C 
BRANCH   5   6
ATOM      6  C   UNL     1     -13.032 -32.031  18.050  1.00  0.00     0.000 C 
BRANCH   6   7
ATOM      7  C   UNL     1     -12.900 -31.222  16.749  1.00  0.00     0.000 C 
BRANCH   7   8
ATOM      8  C   UNL     1     -12.275 -29.834  16.969  1.00  0.00     0.000 C 
BRANCH   8   9
ATOM      9  C   UNL     1     -12.853 -29.040  18.157  1.00  0.00     0.000 C 
BRANCH   9  10
ATOM     10  C   UNL     1     -12.486 -27.542  18.138  1.00  0.00     0.000 C 
BRANCH  10  11
ATOM     11  C   UNL     1     -11.047 -27.292  18.618  1.00  0.00     0.000 C 
BRANCH  11  12
ATOM     12  C   UNL     1     -10.599 -28.383  19.601  1.00  0.00     0.006 C 
BRANCH  12  13
ATOM     13  C   UNL     1      -9.178 -28.880  19.304  1.00  0.00     0.053 C 
BRANCH  13  14
ATOM     14  C   UNL     1      -9.077 -30.368  19.441  1.00  0.00     0.041 C 
ATOM     15  O   UNL     1      -8.627 -30.884  20.500  1.00  0.00    -0.550 OA
ATOM     16  O   UNL     1      -9.504 -31.191  18.405  1.00  0.00    -0.550 OA
ENDBRANCH  13  14
ENDBRANCH  12  13
ENDBRANCH  11  12
ENDBRANCH  10  11
ENDBRANCH   9  10
ENDBRANCH   8   9
ENDBRANCH   7   8
ENDBRANCH   6   7
ENDBRANCH   5   6
ENDBRANCH   4   5
ENDBRANCH   3   4
ENDBRANCH   2   3
ENDBRANCH   1   2
BRANCH   1  17
ATOM     17  C   UNL     1     -18.116 -32.209  21.522  1.00  0.00     0.000 C 
BRANCH  17  18
ATOM     18  C   UNL     1     -18.506 -33.416  20.657  1.00  0.00     0.000 C 
BRANCH  18  19
ATOM     19  C   UNL     1     -19.400 -32.981  19.487  1.00  0.00     0.000 C 
BRANCH  19  20
ATOM     20  C   UNL     1     -18.881 -33.465  18.119  1.00  0.00     0.000 C 
BRANCH  20  21
ATOM     21  C   UNL     1     -19.084 -32.477  16.953  1.00  0.00     0.000 C 
BRANCH  21  22
ATOM     22  C   UNL     1     -19.018 -33.102  15.548  1.00  0.00    -0.000 C 
BRANCH  22  23
ATOM     23  C   UNL     1     -17.695 -32.806  14.821  1.00  0.00    -0.000 C 
BRANCH  23  24
ATOM     24  C   UNL     1     -16.622 -32.203  15.756  1.00  0.00    -0.000 C 
BRANCH  24  25
ATOM     25  C   UNL     1     -16.179 -30.781  15.362  1.00  0.00    -0.000 C 
BRANCH  25  26
ATOM     26  C   UNL     1     -16.232 -29.745  16.501  1.00  0.00    -0.000 C 
BRANCH  26  27
ATOM     27  C   UNL     1     -16.323 -30.373  17.910  1.00  0.00    -0.000 C 
BRANCH  27  28
ATOM     28  C   UNL     1     -17.409 -29.722  18.781  1.00  0.00    -0.000 C 
BRANCH  28  29
ATOM     29  C   UNL     1     -16.789 -28.964  19.959  1.00  0.00    -0.003 C 
ATOM     30  C   UNL     1     -16.234 -27.614  19.511  1.00  0.00     0.004 C 
ENDBRANCH  28  29
ENDBRANCH  27  28
ENDBRANCH  26  27
ENDBRANCH  25  26
ENDBRANCH  24  25
ENDBRANCH  23  24
ENDBRANCH  22  23
ENDBRANCH  21  22
ENDBRANCH  20  21
ENDBRANCH  19  20
ENDBRANCH  18  19
ENDBRANCH  17  18
ENDBRANCH   1  17
TORSDOF 26
ENDMDL
MODEL 6
REMARK VINA RESULT:    -4.414      2.636      8.655
REMARK INTER + INTRA:         -15.442
REMARK INTER:                 -12.226
REMARK INTRA:                  -3.216
REMARK UNBOUND:                -4.319
REMARK SMILES CCCCCCCCCCCCCCCCCCCCCCCCCCCC(=O)[O-]
REMARK SMILES IDX 15 1 16 2 17 3 18 4 19 5 20 6 21 7 22 8 23 9 24 10 25 11
REMARK SMILES IDX 26 12 27 13 28 14 29 15 30 16 14 17 13 18 12 19 11 20 10 21
REMARK SMILES IDX 9 22 8 23 7 24 6 25 5 26 4 27 3 28 2 29 1 30
REMARK H PARENT
REMARK Flexibility Score: inf
ROOT
ATOM      1  C   UNL     1     -13.191 -31.593  18.909  1.00  0.00     0.000 C 
ENDROOT
BRANCH   1   2
ATOM      2  C   UNL     1     -14.292 -32.384  18.184  1.00  0.00     0.000 C 
BRANCH   2   3
ATOM      3  C   UNL     1     -15.411 -32.781  19.157  1.00  0.00     0.000 C 
BRANCH   3   4
ATOM      4  C   UNL     1     -14.922 -32.909  20.611  1.00  0.00     0.000 C 
BRANCH   4   5
ATOM      5  C   UNL     1     -16.038 -33.090  21.660  1.00  0.00     0.000 C 
BRANCH   5   6
ATOM      6  C   UNL     1     -17.413 -33.489  21.095  1.00  0.00     0.000 C 
BRANCH   6   7
ATOM      7  C   UNL     1     -18.437 -32.344  21.157  1.00  0.00     0.000 C 
BRANCH   7   8
ATOM      8  C   UNL     1     -19.543 -32.473  20.096  1.00  0.00     0.000 C 
BRANCH   8   9
ATOM      9  C   UNL     1     -20.444 -31.232  19.939  1.00  0.00     0.000 C 
BRANCH   9  10
ATOM     10  C   UNL     1     -19.866 -30.162  18.990  1.00  0.00     0.000 C 
BRANCH  10  11
ATOM     11  C   UNL     1     -18.755 -30.725  18.090  1.00  0.00     0.000 C 
BRANCH  11  12
ATOM     12  C   UNL     1     -17.505 -29.834  18.138  1.00  0.00     0.006 C 
BRANCH  12  13
ATOM     13  C   UNL     1     -17.310 -29.185  19.514  1.00  0.00     0.053 C 
BRANCH  13  14
ATOM     14  C   UNL     1     -17.276 -27.691  19.417  1.00  0.00     0.041 C 
ATOM     15  O   UNL     1     -18.343 -27.035  19.272  1.00  0.00    -0.550 OA
ATOM     16  O   UNL     1     -16.064 -27.017  19.513  1.00  0.00    -0.550 OA
ENDBRANCH  13  14
ENDBRANCH  12  13
ENDBRANCH  11  12
ENDBRANCH  10  11
ENDBRANCH   9  10
ENDBRANCH   8   9
ENDBRANCH   7   8
ENDBRANCH   6   7
ENDBRANCH   5   6
ENDBRANCH   4   5
ENDBRANCH   3   4
ENDBRANCH   2   3
ENDBRANCH   1   2
BRANCH   1  17
ATOM     17  C   UNL     1     -12.681 -30.397  18.090  1.00  0.00     0.000 C 
BRANCH  17  18
ATOM     18  C   UNL     1     -13.605 -29.174  18.184  1.00  0.00     0.000 C 
BRANCH  18  19
ATOM     19  C   UNL     1     -12.784 -27.878  18.264  1.00  0.00     0.000 C 
BRANCH  19  20
ATOM     20  C   UNL     1     -11.266 -28.129  18.329  1.00  0.00     0.000 C 
BRANCH  20  21
ATOM     21  C   UNL     1     -10.452 -27.046  19.068  1.00  0.00     0.000 C 
BRANCH  21  22
ATOM     22  C   UNL     1      -9.397 -27.580  20.053  1.00  0.00    -0.000 C 
BRANCH  22  23
ATOM     23  C   UNL     1      -8.867 -26.499  21.009  1.00  0.00    -0.000 C 
BRANCH  23  24
ATOM     24  C   UNL     1      -9.204 -25.066  20.535  1.00  0.00    -0.000 C 
BRANCH  24  25
ATOM     25  C   UNL     1      -7.988 -24.282  20.006  1.00  0.00    -0.000 C 
BRANCH  25  26
ATOM     26  C   UNL     1      -8.304 -23.268  18.890  1.00  0.00    -0.000 C 
BRANCH  26  27
ATOM     27  C   UNL     1      -9.745 -22.711  18.944  1.00  0.00    -0.000 C 
BRANCH  27  28
ATOM     28  C   UNL     1     -10.439 -22.723  17.574  1.00  0.00    -0.000 C 
BRANCH  28  29
ATOM     29  C   UNL     1      -9.706 -23.645  16.593  1.00  0.00    -0.003 C 
ATOM     30  C   UNL     1     -10.501 -24.925  16.345  1.00  0.00     0.004 C 
ENDBRANCH  28  29
ENDBRANCH  27  28
ENDBRANCH  26  27
ENDBRANCH  25  26
ENDBRANCH  24  25
ENDBRANCH  23  24
ENDBRANCH  22  23
ENDBRANCH  21  22
ENDBRANCH  20  21
ENDBRANCH  19  20
ENDBRANCH  18  19
ENDBRANCH  17  18
ENDBRANCH   1  17
TORSDOF 26
ENDMDL
MODEL 7
REMARK VINA RESULT:    -4.336      3.688      7.987
REMARK INTER + INTRA:         -15.245
REMARK INTER:                 -10.517
REMARK INTRA:                  -4.728
REMARK UNBOUND:                -4.319
REMARK SMILES CCCCCCCCCCCCCCCCCCCCCCCCCCCC(=O)[O-]
REMARK SMILES IDX 15 1 16 2 17 3 18 4 19 5 20 6 21 7 22 8 23 9 24 10 25 11
REMARK SMILES IDX 26 12 27 13 28 14 29 15 30 16 14 17 13 18 12 19 11 20 10 21
REMARK SMILES IDX 9 22 8 23 7 24 6 25 5 26 4 27 3 28 2 29 1 30
REMARK H PARENT
REMARK Flexibility Score: inf
ROOT
ATOM      1  C   UNL     1     -15.059 -32.376  19.847  1.00  0.00     0.000 C 
ENDROOT
BRANCH   1   2
ATOM      2  C   UNL     1     -15.705 -33.413  20.779  1.00  0.00     0.000 C 
BRANCH   2   3
ATOM      3  C   UNL     1     -17.137 -32.999  21.147  1.00  0.00     0.000 C 
BRANCH   3   4
ATOM      4  C   UNL     1     -18.206 -33.810  20.392  1.00  0.00     0.000 C 
BRANCH   4   5
ATOM      5  C   UNL     1     -19.523 -33.054  20.117  1.00  0.00     0.000 C 
BRANCH   5   6
ATOM      6  C   UNL     1     -19.491 -31.546  20.425  1.00  0.00     0.000 C 
BRANCH   6   7
ATOM      7  C   UNL     1     -19.545 -30.678  19.156  1.00  0.00     0.000 C 
BRANCH   7   8
ATOM      8  C   UNL     1     -18.189 -30.039  18.811  1.00  0.00     0.000 C 
BRANCH   8   9
ATOM      9  C   UNL     1     -17.511 -30.594  17.543  1.00  0.00     0.000 C 
BRANCH   9  10
ATOM     10  C   UNL     1     -18.135 -31.909  17.032  1.00  0.00     0.000 C 
BRANCH  10  11
ATOM     11  C   UNL     1     -17.093 -33.030  16.894  1.00  0.00     0.000 C 
BRANCH  11  12
ATOM     12  C   UNL     1     -16.013 -32.653  15.870  1.00  0.00     0.006 C 
BRANCH  12  13
ATOM     13  C   UNL     1     -16.183 -33.410  14.546  1.00  0.00     0.053 C 
BRANCH  13  14
ATOM     14  C   UNL     1     -17.104 -32.685  13.613  1.00  0.00     0.041 C 
ATOM     15  O   UNL     1     -18.310 -33.037  13.503  1.00  0.00    -0.550 OA
ATOM     16  O   UNL     1     -16.635 -31.602  12.879  1.00  0.00    -0.550 OA
ENDBRANCH  13  14
ENDBRANCH  12  13
ENDBRANCH  11  12
ENDBRANCH  10  11
ENDBRANCH   9  10
ENDBRANCH   8   9
ENDBRANCH   7   8
ENDBRANCH   6   7
ENDBRANCH   5   6
ENDBRANCH   4   5
ENDBRANCH   3   4
ENDBRANCH   2   3
ENDBRANCH   1   2
BRANCH   1  17
ATOM     17  C   UNL     1     -13.539 -32.561  19.713  1.00  0.00     0.000 C 
BRANCH  17  18
ATOM     18  C   UNL     1     -13.158 -33.608  18.656  1.00  0.00     0.000 C 
BRANCH  18  19
ATOM     19  C   UNL     1     -12.843 -32.934  17.312  1.00  0.00     0.000 C 
BRANCH  19  20
ATOM     20  C   UNL     1     -12.287 -31.507  17.470  1.00  0.00     0.000 C 
BRANCH  20  21
ATOM     21  C   UNL     1     -13.130 -30.397  16.809  1.00  0.00     0.000 C 
BRANCH  21  22
ATOM     22  C   UNL     1     -14.014 -29.586  17.773  1.00  0.00    -0.000 C 
BRANCH  22  23
ATOM     23  C   UNL     1     -13.403 -28.225  18.146  1.00  0.00    -0.000 C 
BRANCH  23  24
ATOM     24  C   UNL     1     -12.245 -28.348  19.164  1.00  0.00    -0.000 C 
BRANCH  24  25
ATOM     25  C   UNL     1     -10.933 -27.689  18.699  1.00  0.00    -0.000 C 
BRANCH  25  26
ATOM     26  C   UNL     1     -10.117 -28.511  17.684  1.00  0.00    -0.000 C 
BRANCH  26  27
ATOM     27  C   UNL     1      -9.159 -29.533  18.338  1.00  0.00    -0.000 C 
BRANCH  27  28
ATOM     28  C   UNL     1      -8.716 -29.114  19.748  1.00  0.00    -0.000 C 
BRANCH  28  29
ATOM     29  C   UNL     1      -8.934 -30.249  20.754  1.00  0.00    -0.003 C 
ATOM     30  C   UNL     1     -10.022 -31.207  20.273  1.00  0.00     0.004 C 
ENDBRANCH  28  29
ENDBRANCH  27  28
ENDBRANCH  26  27
ENDBRANCH  25  26
ENDBRANCH  24  25
ENDBRANCH  23  24
ENDBRANCH  22  23
ENDBRANCH  21  22
ENDBRANCH  20  21
ENDBRANCH  19  20
ENDBRANCH  18  19
ENDBRANCH  17  18
ENDBRANCH   1  17
TORSDOF 26
ENDMDL
MODEL 8
REMARK VINA RESULT:    -4.328      4.028      7.252
REMARK INTER + INTRA:         -15.224
REMARK INTER:                 -10.126
REMARK INTRA:                  -5.098
REMARK UNBOUND:                -4.319
REMARK SMILES CCCCCCCCCCCCCCCCCCCCCCCCCCCC(=O)[O-]
REMARK SMILES IDX 15 1 16 2 17 3 18 4 19 5 20 6 21 7 22 8 23 9 24 10 25 11
REMARK SMILES IDX 26 12 27 13 28 14 29 15 30 16 14 17 13 18 12 19 11 20 10 21
REMARK SMILES IDX 9 22 8 23 7 24 6 25 5 26 4 27 3 28 2 29 1 30
REMARK H PARENT
REMARK Flexibility Score: inf
ROOT
ATOM      1  C   UNL     1     -15.745 -31.631  15.548  1.00  0.00     0.000 C 
ENDROOT
BRANCH   1   2
ATOM      2  C   UNL     1     -14.702 -32.632  15.023  1.00  0.00     0.000 C 
BRANCH   2   3
ATOM      3  C   UNL     1     -13.285 -32.215  15.442  1.00  0.00     0.000 C 
BRANCH   3   4
ATOM      4  C   UNL     1     -13.084 -30.688  15.433  1.00  0.00     0.000 C 
BRANCH   4   5
ATOM      5  C   UNL     1     -12.406 -30.114  16.694  1.00  0.00     0.000 C 
BRANCH   5   6
ATOM      6  C   UNL     1     -13.283 -30.092  17.959  1.00  0.00     0.000 C 
BRANCH   6   7
ATOM      7  C   UNL     1     -14.154 -28.828  18.057  1.00  0.00     0.000 C 
BRANCH   7   8
ATOM      8  C   UNL     1     -15.552 -29.110  18.636  1.00  0.00     0.000 C 
BRANCH   8   9
ATOM      9  C   UNL     1     -16.604 -28.019  18.357  1.00  0.00     0.000 C 
BRANCH   9  10
ATOM     10  C   UNL     1     -18.017 -28.378  18.860  1.00  0.00     0.000 C 
BRANCH  10  11
ATOM     11  C   UNL     1     -18.138 -29.863  19.238  1.00  0.00     0.000 C 
BRANCH  11  12
ATOM     12  C   UNL     1     -19.567 -30.374  19.006  1.00  0.00     0.006 C 
BRANCH  12  13
ATOM     13  C   UNL     1     -19.980 -31.428  20.041  1.00  0.00     0.053 C 
BRANCH  13  14
ATOM     14  C   UNL     1     -19.478 -32.789  19.670  1.00  0.00     0.041 C 
ATOM     15  O   UNL     1     -19.543 -33.192  18.477  1.00  0.00    -0.550 OA
ATOM     16  O   UNL     1     -18.913 -33.608  20.641  1.00  0.00    -0.550 OA
ENDBRANCH  13  14
ENDBRANCH  12  13
ENDBRANCH  11  12
ENDBRANCH  10  11
ENDBRANCH   9  10
ENDBRANCH   8   9
ENDBRANCH   7   8
ENDBRANCH   6   7
ENDBRANCH   5   6
ENDBRANCH   4   5
ENDBRANCH   3   4
ENDBRANCH   2   3
ENDBRANCH   1   2
BRANCH   1  17
ATOM     17  C   UNL     1     -16.468 -32.132  16.808  1.00  0.00     0.000 C 
BRANCH  17  18
ATOM     18  C   UNL     1     -16.357 -33.652  16.994  1.00  0.00     0.000 C 
BRANCH  18  19
ATOM     19  C   UNL     1     -16.139 -34.005  18.473  1.00  0.00     0.000 C 
BRANCH  19  20
ATOM     20  C   UNL     1     -15.422 -32.890  19.259  1.00  0.00     0.000 C 
BRANCH  20  21
ATOM     21  C   UNL     1     -13.980 -33.220  19.697  1.00  0.00     0.000 C 
BRANCH  21  22
ATOM     22  C   UNL     1     -13.054 -33.719  18.574  1.00  0.00    -0.000 C 
BRANCH  22  23
ATOM     23  C   UNL     1     -11.566 -33.459  18.862  1.00  0.00    -0.000 C 
BRANCH  23  24
ATOM     24  C   UNL     1     -11.319 -32.939  20.298  1.00  0.00    -0.000 C 
BRANCH  24  25
ATOM     25  C   UNL     1     -10.817 -31.484  20.355  1.00  0.00    -0.000 C 
BRANCH  25  26
ATOM     26  C   UNL     1      -9.443 -31.244  19.701  1.00  0.00    -0.000 C 
BRANCH  26  27
ATOM     27  C   UNL     1      -9.506 -30.385  18.418  1.00  0.00    -0.000 C 
BRANCH  27  28
ATOM     28  C   UNL     1      -9.197 -28.903  18.681  1.00  0.00    -0.000 C 
BRANCH  28  29
ATOM     29  C   UNL     1     -10.427 -28.171  19.227  1.00  0.00    -0.003 C 
ATOM     30  C   UNL     1     -10.681 -26.876  18.459  1.00  0.00     0.004 C 
ENDBRANCH  28  29
ENDBRANCH  27  28
ENDBRANCH  26  27
ENDBRANCH  25  26
ENDBRANCH  24  25
ENDBRANCH  23  24
ENDBRANCH  22  23
ENDBRANCH  21  22
ENDBRANCH  20  21
ENDBRANCH  19  20
ENDBRANCH  18  19
ENDBRANCH  17  18
ENDBRANCH   1  17
TORSDOF 26
ENDMDL
MODEL 9
REMARK VINA RESULT:    -4.308      2.653      7.450
REMARK INTER + INTRA:         -15.175
REMARK INTER:                 -10.909
REMARK INTRA:                  -4.266
REMARK UNBOUND:                -4.319
REMARK SMILES CCCCCCCCCCCCCCCCCCCCCCCCCCCC(=O)[O-]
REMARK SMILES IDX 15 1 16 2 17 3 18 4 19 5 20 6 21 7 22 8 23 9 24 10 25 11
REMARK SMILES IDX 26 12 27 13 28 14 29 15 30 16 14 17 13 18 12 19 11 20 10 21
REMARK SMILES IDX 9 22 8 23 7 24 6 25 5 26 4 27 3 28 2 29 1 30
REMARK H PARENT
REMARK Flexibility Score: inf
ROOT
ATOM      1  C   UNL     1     -14.052 -30.480  17.195  1.00  0.00     0.000 C 
ENDROOT
BRANCH   1   2
ATOM      2  C   UNL     1     -14.801 -31.444  16.262  1.00  0.00     0.000 C 
BRANCH   2   3
ATOM      3  C   UNL     1     -16.218 -30.932  15.969  1.00  0.00     0.000 C 
BRANCH   3   4
ATOM      4  C   UNL     1     -17.310 -31.958  16.322  1.00  0.00     0.000 C 
BRANCH   4   5
ATOM      5  C   UNL     1     -16.786 -33.337  16.771  1.00  0.00     0.000 C 
BRANCH   5   6
ATOM      6  C   UNL     1     -17.466 -33.922  18.022  1.00  0.00     0.000 C 
BRANCH   6   7
ATOM      7  C   UNL     1     -18.996 -33.763  17.997  1.00  0.00     0.000 C 
BRANCH   7   8
ATOM      8  C   UNL     1     -19.563 -33.228  19.323  1.00  0.00     0.000 C 
BRANCH   8   9
ATOM      9  C   UNL     1     -18.569 -33.218  20.500  1.00  0.00     0.000 C 
BRANCH   9  10
ATOM     10  C   UNL     1     -18.301 -31.811  21.073  1.00  0.00     0.000 C 
BRANCH  10  11
ATOM     11  C   UNL     1     -17.318 -31.009  20.206  1.00  0.00     0.000 C 
BRANCH  11  12
ATOM     12  C   UNL     1     -18.060 -29.969  19.355  1.00  0.00     0.006 C 
BRANCH  12  13
ATOM     13  C   UNL     1     -17.120 -28.875  18.830  1.00  0.00     0.053 C 
BRANCH  13  14
ATOM     14  C   UNL     1     -17.473 -27.532  19.391  1.00  0.00     0.041 C 
ATOM     15  O   UNL     1     -18.579 -26.993  19.115  1.00  0.00    -0.550 OA
ATOM     16  O   UNL     1     -16.587 -26.882  20.243  1.00  0.00    -0.550 OA
ENDBRANCH  13  14
ENDBRANCH  12  13
ENDBRANCH  11  12
ENDBRANCH  10  11
ENDBRANCH   9  10
ENDBRANCH   8   9
ENDBRANCH   7   8
ENDBRANCH   6   7
ENDBRANCH   5   6
ENDBRANCH   4   5
ENDBRANCH   3   4
ENDBRANCH   2   3
ENDBRANCH   1   2
BRANCH   1  17
ATOM     17  C   UNL     1     -14.037 -30.956  18.656  1.00  0.00     0.000 C 
BRANCH  17  18
ATOM     18  C   UNL     1     -13.951 -32.485  18.783  1.00  0.00     0.000 C 
BRANCH  18  19
ATOM     19  C   UNL     1     -12.881 -32.886  19.809  1.00  0.00     0.000 C 
BRANCH  19  20
ATOM     20  C   UNL     1     -11.706 -33.661  19.182  1.00  0.00     0.000 C 
BRANCH  20  21
ATOM     21  C   UNL     1     -10.365 -32.899  19.141  1.00  0.00     0.000 C 
BRANCH  21  22
ATOM     22  C   UNL     1     -10.359 -31.634  18.264  1.00  0.00    -0.000 C 
BRANCH  22  23
ATOM     23  C   UNL     1      -9.726 -30.421  18.966  1.00  0.00    -0.000 C 
BRANCH  23  24
ATOM     24  C   UNL     1     -10.740 -29.637  19.831  1.00  0.00    -0.000 C 
BRANCH  24  25
ATOM     25  C   UNL     1     -11.370 -28.429  19.113  1.00  0.00    -0.000 C 
BRANCH  25  26
ATOM     26  C   UNL     1     -10.638 -27.979  17.835  1.00  0.00    -0.000 C 
BRANCH  26  27
ATOM     27  C   UNL     1     -10.983 -26.539  17.394  1.00  0.00    -0.000 C 
BRANCH  27  28
ATOM     28  C   UNL     1     -10.287 -25.471  18.251  1.00  0.00    -0.000 C 
BRANCH  28  29
ATOM     29  C   UNL     1     -10.076 -24.178  17.457  1.00  0.00    -0.003 C 
ATOM     30  C   UNL     1     -11.229 -23.936  16.486  1.00  0.00     0.004 C 
ENDBRANCH  28  29
ENDBRANCH  27  28
ENDBRANCH  26  27
ENDBRANCH  25  26
ENDBRANCH  24  25
ENDBRANCH  23  24
ENDBRANCH  22  23
ENDBRANCH  21  22
ENDBRANCH  20  21
ENDBRANCH  19  20
ENDBRANCH  18  19
ENDBRANCH  17  18
ENDBRANCH   1  17
TORSDOF 26
ENDMDL
