MODEL 1
REMARK VINA RESULT:    -4.719      0.000      0.000
REMARK INTER + INTRA:          -9.487
REMARK INTER:                  -8.029
REMARK INTRA:                  -1.458
REMARK UNBOUND:                -1.458
REMARK SMILES CCCCCCCCCCCCCC(=O)[O-]
REMARK SMILES IDX 8 1 9 2 10 3 11 4 12 5 13 6 14 7 15 8 16 9 7 10 6 11 5 12
REMARK SMILES IDX 4 13 3 14 2 15 1 16
REMARK H PARENT
REMARK Flexibility Score: inf
ROOT
ATOM      1  C   UNL     1      13.550  22.014  30.457  1.00  0.00     0.000 C 
ENDROOT
BRANCH   1   2
ATOM      2  C   UNL     1      14.174  23.415  30.533  1.00  0.00     0.000 C 
BRANCH   2   3
ATOM      3  C   UNL     1      13.122  24.502  30.284  1.00  0.00     0.000 C 
BRANCH   3   4
ATOM      4  C   UNL     1      11.981  24.410  31.305  1.00  0.00     0.000 C 
BRANCH   4   5
ATOM      5  C   UNL     1      10.615  24.388  30.604  1.00  0.00     0.006 C 
BRANCH   5   6
ATOM      6  C   UNL     1       9.743  23.216  31.072  1.00  0.00     0.053 C 
BRANCH   6   7
ATOM      7  C   UNL     1       9.639  22.149  30.026  1.00  0.00     0.041 C 
ATOM      8  O   UNL     1       8.828  21.196  30.170  1.00  0.00    -0.550 OA
ATOM      9  O   UNL     1      10.416  22.223  28.877  1.00  0.00    -0.550 OA
ENDBRANCH   6   7
ENDBRANCH   5   6
ENDBRANCH   4   5
ENDBRANCH   3   4
ENDBRANCH   2   3
ENDBRANCH   1   2
BRANCH   1  10
ATOM     10  C   UNL     1      14.607  20.919  30.198  1.00  0.00     0.000 C 
BRANCH  10  11
ATOM     11  C   UNL     1      14.645  20.436  28.739  1.00  0.00    -0.000 C 
BRANCH  11  12
ATOM     12  C   UNL     1      13.794  21.307  27.800  1.00  0.00    -0.000 C 
BRANCH  12  13
ATOM     13  C   UNL     1      14.477  21.534  26.433  1.00  0.00    -0.000 C 
BRANCH  13  14
ATOM     14  C   UNL     1      15.841  22.246  26.533  1.00  0.00    -0.000 C 
BRANCH  14  15
ATOM     15  C   UNL     1      15.796  23.634  27.190  1.00  0.00    -0.003 C 
ATOM     16  C   UNL     1      16.999  23.904  28.092  1.00  0.00     0.004 C 
ENDBRANCH  14  15
ENDBRANCH  13  14
ENDBRANCH  12  13
ENDBRANCH  11  12
ENDBRANCH  10  11
ENDBRANCH   1  10
TORSDOF 12
ENDMDL
MODEL 2
REMARK VINA RESULT:    -4.711      1.665      3.298
REMARK INTER + INTRA:          -9.474
REMARK INTER:                  -8.215
REMARK INTRA:                  -1.259
REMARK UNBOUND:                -1.458
REMARK SMILES CCCCCCCCCCCCCC(=O)[O-]
REMARK SMILES IDX 8 1 9 2 10 3 11 4 12 5 13 6 14 7 15 8 16 9 7 10 6 11 5 12
REMARK SMILES IDX 4 13 3 14 2 15 1 16
REMARK H PARENT
REMARK Flexibility Score: inf
ROOT
ATOM      1  C   UNL     1      13.386  21.649  28.489  1.00  0.00     0.000 C 
ENDROOT
BRANCH   1   2
ATOM      2  C   UNL     1      13.731  20.182  28.789  1.00  0.00     0.000 C 
BRANCH   2   3
ATOM      3  C   UNL     1      12.469  19.373  29.108  1.00  0.00     0.000 C 
BRANCH   3   4
ATOM      4  C   UNL     1      12.285  19.213  30.622  1.00  0.00     0.000 C 
BRANCH   4   5
ATOM      5  C   UNL     1      10.845  19.547  31.040  1.00  0.00     0.006 C 
BRANCH   5   6
ATOM      6  C   UNL     1       9.993  20.022  29.856  1.00  0.00     0.053 C 
BRANCH   6   7
ATOM      7  C   UNL     1       9.432  21.390  30.089  1.00  0.00     0.041 C 
ATOM      8  O   UNL     1       8.212  21.538  30.370  1.00  0.00    -0.550 OA
ATOM      9  O   UNL     1      10.263  22.503  30.030  1.00  0.00    -0.550 OA
ENDBRANCH   6   7
ENDBRANCH   5   6
ENDBRANCH   4   5
ENDBRANCH   3   4
ENDBRANCH   2   3
ENDBRANCH   1   2
BRANCH   1  10
ATOM     10  C   UNL     1      13.853  22.598  29.614  1.00  0.00     0.000 C 
BRANCH  10  11
ATOM     11  C   UNL     1      14.754  23.741  29.118  1.00  0.00    -0.000 C 
BRANCH  11  12
ATOM     12  C   UNL     1      16.233  23.334  29.019  1.00  0.00    -0.000 C 
BRANCH  12  13
ATOM     13  C   UNL     1      16.863  23.740  27.669  1.00  0.00    -0.000 C 
BRANCH  13  14
ATOM     14  C   UNL     1      15.926  23.538  26.462  1.00  0.00    -0.000 C 
BRANCH  14  15
ATOM     15  C   UNL     1      15.984  22.139  25.829  1.00  0.00    -0.003 C 
ATOM     16  C   UNL     1      15.980  22.177  24.301  1.00  0.00     0.004 C 
ENDBRANCH  14  15
ENDBRANCH  13  14
ENDBRANCH  12  13
ENDBRANCH  11  12
ENDBRANCH  10  11
ENDBRANCH   1  10
TORSDOF 12
ENDMDL
MODEL 3
REMARK VINA RESULT:    -4.693      3.200      6.062
REMARK INTER + INTRA:          -9.443
REMARK INTER:                  -8.205
REMARK INTRA:                  -1.238
REMARK UNBOUND:                -1.458
REMARK SMILES CCCCCCCCCCCCCC(=O)[O-]
REMARK SMILES IDX 8 1 9 2 10 3 11 4 12 5 13 6 14 7 15 8 16 9 7 10 6 11 5 12
REMARK SMILES IDX 4 13 3 14 2 15 1 16
REMARK H PARENT
REMARK Flexibility Score: inf
ROOT
ATOM      1  C   UNL     1      12.470  24.130  30.103  1.00  0.00     0.000 C 
ENDROOT
BRANCH   1   2
ATOM      2  C   UNL     1      13.870  23.503  30.185  1.00  0.00     0.000 C 
BRANCH   2   3
ATOM      3  C   UNL     1      14.566  23.527  28.820  1.00  0.00     0.000 C 
BRANCH   3   4
ATOM      4  C   UNL     1      16.087  23.409  28.974  1.00  0.00     0.000 C 
BRANCH   4   5
ATOM      5  C   UNL     1      16.804  23.801  27.674  1.00  0.00     0.006 C 
BRANCH   5   6
ATOM      6  C   UNL     1      15.897  23.657  26.445  1.00  0.00     0.053 C 
BRANCH   6   7
ATOM      7  C   UNL     1      16.291  22.486  25.599  1.00  0.00     0.041 C 
ATOM      8  O   UNL     1      16.961  21.541  26.093  1.00  0.00    -0.550 OA
ATOM      9  O   UNL     1      15.890  22.422  24.270  1.00  0.00    -0.550 OA
ENDBRANCH   6   7
ENDBRANCH   5   6
ENDBRANCH   4   5
ENDBRANCH   3   4
ENDBRANCH   2   3
ENDBRANCH   1   2
BRANCH   1  10
ATOM     10  C   UNL     1      11.586  23.739  31.306  1.00  0.00     0.000 C 
BRANCH  10  11
ATOM     11  C   UNL     1      10.099  24.083  31.113  1.00  0.00    -0.000 C 
BRANCH  11  12
ATOM     12  C   UNL     1       9.213  22.837  30.960  1.00  0.00    -0.000 C 
BRANCH  12  13
ATOM     13  C   UNL     1      10.018  21.525  31.096  1.00  0.00    -0.000 C 
BRANCH  13  14
ATOM     14  C   UNL     1       9.969  20.636  29.838  1.00  0.00    -0.000 C 
BRANCH  14  15
ATOM     15  C   UNL     1      11.032  20.962  28.777  1.00  0.00    -0.003 C 
ATOM     16  C   UNL     1      12.369  20.273  29.044  1.00  0.00     0.004 C 
ENDBRANCH  14  15
ENDBRANCH  13  14
ENDBRANCH  12  13
ENDBRANCH  11  12
ENDBRANCH  10  11
ENDBRANCH   1  10
TORSDOF 12
ENDMDL
MODEL 4
REMARK VINA RESULT:    -4.672      1.318      2.037
REMARK INTER + INTRA:          -9.408
REMARK INTER:                  -7.763
REMARK INTRA:                  -1.645
REMARK UNBOUND:                -1.458
REMARK SMILES CCCCCCCCCCCCCC(=O)[O-]
REMARK SMILES IDX 8 1 9 2 10 3 11 4 12 5 13 6 14 7 15 8 16 9 7 10 6 11 5 12
REMARK SMILES IDX 4 13 3 14 2 15 1 16
REMARK H PARENT
REMARK Flexibility Score: inf
ROOT
ATOM      1  C   UNL     1      12.871  21.747  28.905  1.00  0.00     0.000 C 
ENDROOT
BRANCH   1   2
ATOM      2  C   UNL     1      13.502  22.463  30.109  1.00  0.00     0.000 C 
BRANCH   2   3
ATOM      3  C   UNL     1      13.377  23.985  29.973  1.00  0.00     0.000 C 
BRANCH   3   4
ATOM      4  C   UNL     1      12.535  24.574  31.111  1.00  0.00     0.000 C 
BRANCH   4   5
ATOM      5  C   UNL     1      11.035  24.401  30.832  1.00  0.00     0.006 C 
BRANCH   5   6
ATOM      6  C   UNL     1      10.286  23.815  32.036  1.00  0.00     0.053 C 
BRANCH   6   7
ATOM      7  C   UNL     1       9.652  22.498  31.708  1.00  0.00     0.041 C 
ATOM      8  O   UNL     1       8.409  22.422  31.517  1.00  0.00    -0.550 OA
ATOM      9  O   UNL     1      10.438  21.360  31.580  1.00  0.00    -0.550 OA
ENDBRANCH   6   7
ENDBRANCH   5   6
ENDBRANCH   4   5
ENDBRANCH   3   4
ENDBRANCH   2   3
ENDBRANCH   1   2
BRANCH   1  10
ATOM     10  C   UNL     1      13.900  20.897  28.130  1.00  0.00     0.000 C 
BRANCH  10  11
ATOM     11  C   UNL     1      14.261  21.476  26.752  1.00  0.00    -0.000 C 
BRANCH  11  12
ATOM     12  C   UNL     1      15.710  21.985  26.679  1.00  0.00    -0.000 C 
BRANCH  12  13
ATOM     13  C   UNL     1      15.865  23.400  27.278  1.00  0.00    -0.000 C 
BRANCH  13  14
ATOM     14  C   UNL     1      16.895  23.478  28.422  1.00  0.00    -0.000 C 
BRANCH  14  15
ATOM     15  C   UNL     1      17.133  22.155  29.166  1.00  0.00    -0.003 C 
ATOM     16  C   UNL     1      17.106  22.314  30.685  1.00  0.00     0.004 C 
ENDBRANCH  14  15
ENDBRANCH  13  14
ENDBRANCH  12  13
ENDBRANCH  11  12
ENDBRANCH  10  11
ENDBRANCH   1  10
TORSDOF 12
ENDMDL
MODEL 5
REMARK VINA RESULT:    -4.638     21.993     23.649
REMARK INTER + INTRA:          -9.349
REMARK INTER:                  -7.544
REMARK INTRA:                  -1.806
REMARK UNBOUND:                -1.458
REMARK SMILES CCCCCCCCCCCCCC(=O)[O-]
REMARK SMILES IDX 8 1 9 2 10 3 11 4 12 5 13 6 14 7 15 8 16 9 7 10 6 11 5 12
REMARK SMILES IDX 4 13 3 14 2 15 1 16
REMARK H PARENT
REMARK Flexibility Score: inf
ROOT
ATOM      1  C   UNL     1       1.108  35.601  12.986  1.00  0.00     0.000 C 
ENDROOT
BRANCH   1   2
ATOM      2  C   UNL     1       1.609  36.858  12.260  1.00  0.00     0.000 C 
BRANCH   2   3
ATOM      3  C   UNL     1       2.240  37.849  13.246  1.00  0.00     0.000 C 
BRANCH   3   4
ATOM      4  C   UNL     1       1.879  37.493  14.693  1.00  0.00     0.000 C 
BRANCH   4   5
ATOM      5  C   UNL     1       3.143  37.342  15.553  1.00  0.00     0.006 C 
BRANCH   5   6
ATOM      6  C   UNL     1       3.759  35.942  15.437  1.00  0.00     0.053 C 
BRANCH   6   7
ATOM      7  C   UNL     1       5.157  35.905  15.972  1.00  0.00     0.041 C 
ATOM      8  O   UNL     1       6.056  36.618  15.451  1.00  0.00    -0.550 OA
ATOM      9  O   UNL     1       5.462  35.108  17.069  1.00  0.00    -0.550 OA
ENDBRANCH   6   7
ENDBRANCH   5   6
ENDBRANCH   4   5
ENDBRANCH   3   4
ENDBRANCH   2   3
ENDBRANCH   1   2
BRANCH   1  10
ATOM     10  C   UNL     1      -0.198  35.056  12.371  1.00  0.00     0.000 C 
BRANCH  10  11
ATOM     11  C   UNL     1      -1.422  35.947  12.641  1.00  0.00    -0.000 C 
BRANCH  11  12
ATOM     12  C   UNL     1      -2.064  35.681  14.012  1.00  0.00    -0.000 C 
BRANCH  12  13
ATOM     13  C   UNL     1      -1.816  36.835  15.009  1.00  0.00    -0.000 C 
BRANCH  13  14
ATOM     14  C   UNL     1      -1.174  36.381  16.335  1.00  0.00    -0.000 C 
BRANCH  14  15
ATOM     15  C   UNL     1      -0.948  34.865  16.454  1.00  0.00    -0.003 C 
ATOM     16  C   UNL     1       0.529  34.493  16.574  1.00  0.00     0.004 C 
ENDBRANCH  14  15
ENDBRANCH  13  14
ENDBRANCH  12  13
ENDBRANCH  11  12
ENDBRANCH  10  11
ENDBRANCH   1  10
TORSDOF 12
ENDMDL
MODEL 6
REMARK VINA RESULT:    -4.617      3.265      5.268
REMARK INTER + INTRA:          -9.314
REMARK INTER:                  -7.660
REMARK INTRA:                  -1.654
REMARK UNBOUND:                -1.458
REMARK SMILES CCCCCCCCCCCCCC(=O)[O-]
REMARK SMILES IDX 8 1 9 2 10 3 11 4 12 5 13 6 14 7 15 8 16 9 7 10 6 11 5 12
REMARK SMILES IDX 4 13 3 14 2 15 1 16
REMARK H PARENT
REMARK Flexibility Score: inf
ROOT
ATOM      1  C   UNL     1      16.822  20.191  29.581  1.00  0.00     0.000 C 
ENDROOT
BRANCH   1   2
ATOM      2  C   UNL     1      17.454  21.591  29.628  1.00  0.00     0.000 C 
BRANCH   2   3
ATOM      3  C   UNL     1      16.388  22.669  29.851  1.00  0.00     0.000 C 
BRANCH   3   4
ATOM      4  C   UNL     1      16.442  23.735  28.749  1.00  0.00     0.000 C 
BRANCH   4   5
ATOM      5  C   UNL     1      15.396  23.452  27.660  1.00  0.00     0.006 C 
BRANCH   5   6
ATOM      6  C   UNL     1      15.937  23.729  26.251  1.00  0.00     0.053 C 
BRANCH   6   7
ATOM      7  C   UNL     1      16.265  22.462  25.524  1.00  0.00     0.041 C 
ATOM      8  O   UNL     1      15.867  22.286  24.342  1.00  0.00    -0.550 OA
ATOM      9  O   UNL     1      17.040  21.487  26.140  1.00  0.00    -0.550 OA
ENDBRANCH   6   7
ENDBRANCH   5   6
ENDBRANCH   4   5
ENDBRANCH   3   4
ENDBRANCH   2   3
ENDBRANCH   1   2
BRANCH   1  10
ATOM     10  C   UNL     1      15.431  20.159  30.250  1.00  0.00     0.000 C 
BRANCH  10  11
ATOM     11  C   UNL     1      14.345  19.511  29.375  1.00  0.00    -0.000 C 
BRANCH  11  12
ATOM     12  C   UNL     1      13.738  20.489  28.355  1.00  0.00    -0.000 C 
BRANCH  12  13
ATOM     13  C   UNL     1      12.454  21.164  28.884  1.00  0.00    -0.000 C 
BRANCH  13  14
ATOM     14  C   UNL     1      12.684  22.049  30.124  1.00  0.00    -0.000 C 
BRANCH  14  15
ATOM     15  C   UNL     1      12.305  23.527  29.940  1.00  0.00    -0.003 C 
ATOM     16  C   UNL     1      13.207  24.475  30.728  1.00  0.00     0.004 C 
ENDBRANCH  14  15
ENDBRANCH  13  14
ENDBRANCH  12  13
ENDBRANCH  11  12
ENDBRANCH  10  11
ENDBRANCH   1  10
TORSDOF 12
ENDMDL
MODEL 7
REMARK VINA RESULT:    -4.605      3.046      6.055
REMARK INTER + INTRA:          -9.293
REMARK INTER:                  -8.037
REMARK INTRA:                  -1.256
REMARK UNBOUND:                -1.458
REMARK SMILES CCCCCCCCCCCCCC(=O)[O-]
REMARK SMILES IDX 8 1 9 2 10 3 11 4 12 5 13 6 14 7 15 8 16 9 7 10 6 11 5 12
REMARK SMILES IDX 4 13 3 14 2 15 1 16
REMARK H PARENT
REMARK Flexibility Score: inf
ROOT
ATOM      1  C   UNL     1      11.622  21.204  28.704  1.00  0.00     0.000 C 
ENDROOT
BRANCH   1   2
ATOM      2  C   UNL     1      12.926  20.393  28.745  1.00  0.00     0.000 C 
BRANCH   2   3
ATOM      3  C   UNL     1      13.981  21.000  27.813  1.00  0.00     0.000 C 
BRANCH   3   4
ATOM      4  C   UNL     1      15.309  21.218  28.549  1.00  0.00     0.000 C 
BRANCH   4   5
ATOM      5  C   UNL     1      16.161  22.283  27.844  1.00  0.00     0.006 C 
BRANCH   5   6
ATOM      6  C   UNL     1      16.662  21.811  26.473  1.00  0.00     0.053 C 
BRANCH   6   7
ATOM      7  C   UNL     1      16.197  22.713  25.372  1.00  0.00     0.041 C 
ATOM      8  O   UNL     1      16.040  23.945  25.583  1.00  0.00    -0.550 OA
ATOM      9  O   UNL     1      15.969  22.199  24.101  1.00  0.00    -0.550 OA
ENDBRANCH   6   7
ENDBRANCH   5   6
ENDBRANCH   4   5
ENDBRANCH   3   4
ENDBRANCH   2   3
ENDBRANCH   1   2
BRANCH   1  10
ATOM     10  C   UNL     1      10.471  20.490  29.445  1.00  0.00     0.000 C 
BRANCH  10  11
ATOM     11  C   UNL     1      10.045  21.196  30.743  1.00  0.00    -0.000 C 
BRANCH  11  12
ATOM     12  C   UNL     1       9.316  22.525  30.487  1.00  0.00    -0.000 C 
BRANCH  12  13
ATOM     13  C   UNL     1       9.949  23.700  31.264  1.00  0.00    -0.000 C 
BRANCH  13  14
ATOM     14  C   UNL     1      11.080  24.412  30.496  1.00  0.00    -0.000 C 
BRANCH  14  15
ATOM     15  C   UNL     1      12.500  24.046  30.957  1.00  0.00    -0.003 C 
ATOM     16  C   UNL     1      13.549  24.241  29.862  1.00  0.00     0.004 C 
ENDBRANCH  14  15
ENDBRANCH  13  14
ENDBRANCH  12  13
ENDBRANCH  11  12
ENDBRANCH  10  11
ENDBRANCH   1  10
TORSDOF 12
ENDMDL
MODEL 8
REMARK VINA RESULT:    -4.584      1.866      3.200
REMARK INTER + INTRA:          -9.258
REMARK INTER:                  -7.748
REMARK INTRA:                  -1.511
REMARK UNBOUND:                -1.458
REMARK SMILES CCCCCCCCCCCCCC(=O)[O-]
REMARK SMILES IDX 8 1 9 2 10 3 11 4 12 5 13 6 14 7 15 8 16 9 7 10 6 11 5 12
REMARK SMILES IDX 4 13 3 14 2 15 1 16
REMARK H PARENT
REMARK Flexibility Score: inf
ROOT
ATOM      1  C   UNL     1      14.140  20.477  28.733  1.00  0.00     0.000 C 
ENDROOT
BRANCH   1   2
ATOM      2  C   UNL     1      13.061  19.394  28.882  1.00  0.00     0.000 C 
BRANCH   2   3
ATOM      3  C   UNL     1      11.814  19.950  29.578  1.00  0.00     0.000 C 
BRANCH   3   4
ATOM      4  C   UNL     1      11.108  20.989  28.698  1.00  0.00     0.000 C 
BRANCH   4   5
ATOM      5  C   UNL     1      10.415  22.058  29.556  1.00  0.00     0.006 C 
BRANCH   5   6
ATOM      6  C   UNL     1      11.230  22.418  30.804  1.00  0.00     0.053 C 
BRANCH   6   7
ATOM      7  C   UNL     1      11.223  23.893  31.065  1.00  0.00     0.041 C 
ATOM      8  O   UNL     1      12.307  24.529  31.146  1.00  0.00    -0.550 OA
ATOM      9  O   UNL     1      10.017  24.572  31.186  1.00  0.00    -0.550 OA
ENDBRANCH   6   7
ENDBRANCH   5   6
ENDBRANCH   4   5
ENDBRANCH   3   4
ENDBRANCH   2   3
ENDBRANCH   1   2
BRANCH   1  10
ATOM     10  C   UNL     1      14.703  20.929  30.097  1.00  0.00     0.000 C 
BRANCH  10  11
ATOM     11  C   UNL     1      14.861  22.454  30.221  1.00  0.00    -0.000 C 
BRANCH  11  12
ATOM     12  C   UNL     1      15.002  23.151  28.858  1.00  0.00    -0.000 C 
BRANCH  12  13
ATOM     13  C   UNL     1      16.409  23.753  28.650  1.00  0.00    -0.000 C 
BRANCH  13  14
ATOM     14  C   UNL     1      16.992  23.494  27.247  1.00  0.00    -0.000 C 
BRANCH  14  15
ATOM     15  C   UNL     1      16.701  22.096  26.677  1.00  0.00    -0.003 C 
ATOM     16  C   UNL     1      15.992  22.142  25.324  1.00  0.00     0.004 C 
ENDBRANCH  14  15
ENDBRANCH  13  14
ENDBRANCH  12  13
ENDBRANCH  11  12
ENDBRANCH  10  11
ENDBRANCH   1  10
TORSDOF 12
ENDMDL
MODEL 9
REMARK VINA RESULT:    -4.524      1.416      3.531
REMARK INTER + INTRA:          -9.155
REMARK INTER:                  -7.670
REMARK INTRA:                  -1.485
REMARK UNBOUND:                -1.458
REMARK SMILES CCCCCCCCCCCCCC(=O)[O-]
REMARK SMILES IDX 8 1 9 2 10 3 11 4 12 5 13 6 14 7 15 8 16 9 7 10 6 11 5 12
REMARK SMILES IDX 4 13 3 14 2 15 1 16
REMARK H PARENT
REMARK Flexibility Score: inf
ROOT
ATOM      1  C   UNL     1      14.284  21.475  26.797  1.00  0.00     0.000 C 
ENDROOT
BRANCH   1   2
ATOM      2  C   UNL     1      13.690  20.748  28.012  1.00  0.00     0.000 C 
BRANCH   2   3
ATOM      3  C   UNL     1      12.321  21.327  28.386  1.00  0.00     0.000 C 
BRANCH   3   4
ATOM      4  C   UNL     1      11.537  20.359  29.281  1.00  0.00     0.000 C 
BRANCH   4   5
ATOM      5  C   UNL     1      11.578  20.811  30.748  1.00  0.00     0.006 C 
BRANCH   5   6
ATOM      6  C   UNL     1      10.206  20.708  31.425  1.00  0.00     0.053 C 
BRANCH   6   7
ATOM      7  C   UNL     1       9.222  21.670  30.834  1.00  0.00     0.041 C 
ATOM      8  O   UNL     1       9.469  22.905  30.823  1.00  0.00    -0.550 OA
ATOM      9  O   UNL     1       8.044  21.199  30.265  1.00  0.00    -0.550 OA
ENDBRANCH   6   7
ENDBRANCH   5   6
ENDBRANCH   4   5
ENDBRANCH   3   4
ENDBRANCH   2   3
ENDBRANCH   1   2
BRANCH   1  10
ATOM     10  C   UNL     1      15.776  21.816  26.996  1.00  0.00     0.000 C 
BRANCH  10  11
ATOM     11  C   UNL     1      16.079  23.321  26.902  1.00  0.00    -0.000 C 
BRANCH  11  12
ATOM     12  C   UNL     1      16.548  23.920  28.238  1.00  0.00    -0.000 C 
BRANCH  12  13
ATOM     13  C   UNL     1      16.442  22.910  29.402  1.00  0.00    -0.000 C 
BRANCH  13  14
ATOM     14  C   UNL     1      15.177  23.090  30.263  1.00  0.00    -0.000 C 
BRANCH  14  15
ATOM     15  C   UNL     1      14.194  24.154  29.750  1.00  0.00    -0.003 C 
ATOM     16  C   UNL     1      13.002  24.362  30.683  1.00  0.00     0.004 C 
ENDBRANCH  14  15
ENDBRANCH  13  14
ENDBRANCH  12  13
ENDBRANCH  11  12
ENDBRANCH  10  11
ENDBRANCH   1  10
TORSDOF 12
ENDMDL
