MODEL 1
REMARK VINA RESULT:    -4.629      0.000      0.000
REMARK INTER + INTRA:         -12.721
REMARK INTER:                 -10.042
REMARK INTRA:                  -2.679
REMARK UNBOUND:                -2.679
REMARK SMILES CCCCCCCCCCCCCCCCCCCCCC(=O)[O-]
REMARK SMILES IDX 12 1 11 2 10 3 9 4 8 5 7 6 6 7 5 8 4 9 3 10 2 11 1 12 13 13
REMARK SMILES IDX 14 14 15 15 16 16 17 17 18 18 19 19 20 20 21 21 22 22 23 23
REMARK SMILES IDX 24 24
REMARK H PARENT
REMARK Flexibility Score: inf
ROOT
ATOM      1  C   UNL     1     193.022   1.605 100.930  1.00  0.00     0.000 C 
ENDROOT
BRANCH   1   2
ATOM      2  C   UNL     1     191.607   1.010 100.998  1.00  0.00     0.000 C 
BRANCH   2   3
ATOM      3  C   UNL     1     191.577  -0.365 101.687  1.00  0.00     0.000 C 
BRANCH   3   4
ATOM      4  C   UNL     1     192.962  -1.031 101.735  1.00  0.00    -0.000 C 
BRANCH   4   5
ATOM      5  C   UNL     1     192.884  -2.531 102.069  1.00  0.00    -0.000 C 
BRANCH   5   6
ATOM      6  C   UNL     1     192.193  -2.804 103.416  1.00  0.00    -0.000 C 
BRANCH   6   7
ATOM      7  C   UNL     1     192.949  -2.182 104.602  1.00  0.00    -0.000 C 
BRANCH   7   8
ATOM      8  C   UNL     1     192.040  -1.318 105.491  1.00  0.00    -0.000 C 
BRANCH   8   9
ATOM      9  C   UNL     1     192.726  -0.022 105.959  1.00  0.00    -0.000 C 
BRANCH   9  10
ATOM     10  C   UNL     1     193.452   0.715 104.819  1.00  0.00    -0.000 C 
BRANCH  10  11
ATOM     11  C   UNL     1     192.872   2.098 104.474  1.00  0.00    -0.003 C 
ATOM     12  C   UNL     1     191.352   2.164 104.620  1.00  0.00     0.004 C 
ENDBRANCH  10  11
ENDBRANCH   9  10
ENDBRANCH   8   9
ENDBRANCH   7   8
ENDBRANCH   6   7
ENDBRANCH   5   6
ENDBRANCH   4   5
ENDBRANCH   3   4
ENDBRANCH   2   3
ENDBRANCH   1   2
BRANCH   1  13
ATOM     13  C   UNL     1     193.076   2.913 100.126  1.00  0.00     0.000 C 
BRANCH  13  14
ATOM     14  C   UNL     1     192.048   2.897  98.984  1.00  0.00     0.000 C 
BRANCH  14  15
ATOM     15  C   UNL     1     191.947   4.247  98.252  1.00  0.00     0.000 C 
BRANCH  15  16
ATOM     16  C   UNL     1     190.539   4.878  98.244  1.00  0.00     0.000 C 
BRANCH  16  17
ATOM     17  C   UNL     1     189.372   3.876  98.137  1.00  0.00     0.000 C 
BRANCH  17  18
ATOM     18  C   UNL     1     189.075   3.368  96.714  1.00  0.00     0.000 C 
BRANCH  18  19
ATOM     19  C   UNL     1     189.240   4.461  95.645  1.00  0.00     0.000 C 
BRANCH  19  20
ATOM     20  C   UNL     1     189.993   3.961  94.402  1.00  0.00     0.006 C 
BRANCH  20  21
ATOM     21  C   UNL     1     191.491   3.748  94.663  1.00  0.00     0.053 C 
BRANCH  21  22
ATOM     22  C   UNL     1     191.832   2.293  94.583  1.00  0.00     0.041 C 
ATOM     23  O   UNL     1     191.579   1.640  93.537  1.00  0.00    -0.550 OA
ATOM     24  O   UNL     1     192.384   1.648  95.683  1.00  0.00    -0.550 OA
ENDBRANCH  21  22
ENDBRANCH  20  21
ENDBRANCH  19  20
ENDBRANCH  18  19
ENDBRANCH  17  18
ENDBRANCH  16  17
ENDBRANCH  15  16
ENDBRANCH  14  15
ENDBRANCH  13  14
ENDBRANCH   1  13
TORSDOF 20
ENDMDL
MODEL 2
REMARK VINA RESULT:    -4.347      3.984      9.286
REMARK INTER + INTRA:         -12.108
REMARK INTER:                  -9.847
REMARK INTRA:                  -2.261
REMARK UNBOUND:                -2.679
REMARK SMILES CCCCCCCCCCCCCCCCCCCCCC(=O)[O-]
REMARK SMILES IDX 12 1 11 2 10 3 9 4 8 5 7 6 6 7 5 8 4 9 3 10 2 11 1 12 13 13
REMARK SMILES IDX 14 14 15 15 16 16 17 17 18 18 19 19 20 20 21 21 22 22 23 23
REMARK SMILES IDX 24 24
REMARK H PARENT
REMARK Flexibility Score: inf
ROOT
ATOM      1  C   UNL     1     191.402  -0.476 101.789  1.00  0.00     0.000 C 
ENDROOT
BRANCH   1   2
ATOM      2  C   UNL     1     192.146   0.495 100.859  1.00  0.00     0.000 C 
BRANCH   2   3
ATOM      3  C   UNL     1     193.008   1.509 101.631  1.00  0.00     0.000 C 
BRANCH   3   4
ATOM      4  C   UNL     1     193.372   2.738 100.783  1.00  0.00    -0.000 C 
BRANCH   4   5
ATOM      5  C   UNL     1     192.467   2.892  99.548  1.00  0.00    -0.000 C 
BRANCH   5   6
ATOM      6  C   UNL     1     192.519   4.306  98.947  1.00  0.00    -0.000 C 
BRANCH   6   7
ATOM      7  C   UNL     1     191.186   4.722  98.302  1.00  0.00    -0.000 C 
BRANCH   7   8
ATOM      8  C   UNL     1     190.269   3.520  98.021  1.00  0.00    -0.000 C 
BRANCH   8   9
ATOM      9  C   UNL     1     189.873   3.410  96.539  1.00  0.00    -0.000 C 
BRANCH   9  10
ATOM     10  C   UNL     1     190.719   4.316  95.626  1.00  0.00    -0.000 C 
BRANCH  10  11
ATOM     11  C   UNL     1     192.048   3.696  95.157  1.00  0.00    -0.003 C 
ATOM     12  C   UNL     1     191.958   2.186  94.935  1.00  0.00     0.004 C 
ENDBRANCH  10  11
ENDBRANCH   9  10
ENDBRANCH   8   9
ENDBRANCH   7   8
ENDBRANCH   6   7
ENDBRANCH   5   6
ENDBRANCH   4   5
ENDBRANCH   3   4
ENDBRANCH   2   3
ENDBRANCH   1   2
BRANCH   1  13
ATOM     13  C   UNL     1     191.833  -1.937 101.586  1.00  0.00     0.000 C 
BRANCH  13  14
ATOM     14  C   UNL     1     192.341  -2.547 102.901  1.00  0.00     0.000 C 
BRANCH  14  15
ATOM     15  C   UNL     1     193.813  -2.202 103.190  1.00  0.00     0.000 C 
BRANCH  15  16
ATOM     16  C   UNL     1     194.026  -1.031 104.169  1.00  0.00     0.000 C 
BRANCH  16  17
ATOM     17  C   UNL     1     193.499  -1.267 105.599  1.00  0.00     0.000 C 
BRANCH  17  18
ATOM     18  C   UNL     1     192.351  -0.336 106.034  1.00  0.00     0.000 C 
BRANCH  18  19
ATOM     19  C   UNL     1     192.400   1.035 105.339  1.00  0.00     0.000 C 
BRANCH  19  20
ATOM     20  C   UNL     1     191.026   1.721 105.290  1.00  0.00     0.006 C 
BRANCH  20  21
ATOM     21  C   UNL     1     190.086   1.243 106.406  1.00  0.00     0.053 C 
BRANCH  21  22
ATOM     22  C   UNL     1     190.074   2.226 107.533  1.00  0.00     0.041 C 
ATOM     23  O   UNL     1     189.189   3.120 107.584  1.00  0.00    -0.550 OA
ATOM     24  O   UNL     1     191.070   2.186 108.501  1.00  0.00    -0.550 OA
ENDBRANCH  21  22
ENDBRANCH  20  21
ENDBRANCH  19  20
ENDBRANCH  18  19
ENDBRANCH  17  18
ENDBRANCH  16  17
ENDBRANCH  15  16
ENDBRANCH  14  15
ENDBRANCH  13  14
ENDBRANCH   1  13
TORSDOF 20
ENDMDL
MODEL 3
REMARK VINA RESULT:    -4.251      1.227      2.076
REMARK INTER + INTRA:         -11.901
REMARK INTER:                  -9.512
REMARK INTRA:                  -2.389
REMARK UNBOUND:                -2.679
REMARK SMILES CCCCCCCCCCCCCCCCCCCCCC(=O)[O-]
REMARK SMILES IDX 12 1 11 2 10 3 9 4 8 5 7 6 6 7 5 8 4 9 3 10 2 11 1 12 13 13
REMARK SMILES IDX 14 14 15 15 16 16 17 17 18 18 19 19 20 20 21 21 22 22 23 23
REMARK SMILES IDX 24 24
REMARK H PARENT
REMARK Flexibility Score: inf
ROOT
ATOM      1  C   UNL     1     192.156   2.861  99.101  1.00  0.00     0.000 C 
ENDROOT
BRANCH   1   2
ATOM      2  C   UNL     1     193.152   3.057 100.254  1.00  0.00     0.000 C 
BRANCH   2   3
ATOM      3  C   UNL     1     193.152   1.878 101.243  1.00  0.00     0.000 C 
BRANCH   3   4
ATOM      4  C   UNL     1     191.993   0.899 100.992  1.00  0.00    -0.000 C 
BRANCH   4   5
ATOM      5  C   UNL     1     192.364  -0.554 101.336  1.00  0.00    -0.000 C 
BRANCH   5   6
ATOM      6  C   UNL     1     191.331  -1.229 102.253  1.00  0.00    -0.000 C 
BRANCH   6   7
ATOM      7  C   UNL     1     191.988  -2.034 103.388  1.00  0.00    -0.000 C 
BRANCH   7   8
ATOM      8  C   UNL     1     193.020  -1.209 104.173  1.00  0.00    -0.000 C 
BRANCH   8   9
ATOM      9  C   UNL     1     192.369  -0.151 105.080  1.00  0.00    -0.000 C 
BRANCH   9  10
ATOM     10  C   UNL     1     193.003   1.243 104.922  1.00  0.00    -0.000 C 
BRANCH  10  11
ATOM     11  C   UNL     1     192.011   2.366 104.569  1.00  0.00    -0.003 C 
ATOM     12  C   UNL     1     190.576   1.867 104.409  1.00  0.00     0.004 C 
ENDBRANCH  10  11
ENDBRANCH   9  10
ENDBRANCH   8   9
ENDBRANCH   7   8
ENDBRANCH   6   7
ENDBRANCH   5   6
ENDBRANCH   4   5
ENDBRANCH   3   4
ENDBRANCH   2   3
ENDBRANCH   1   2
BRANCH   1  13
ATOM     13  C   UNL     1     191.791   4.181  98.404  1.00  0.00     0.000 C 
BRANCH  13  14
ATOM     14  C   UNL     1     190.301   4.209  98.029  1.00  0.00     0.000 C 
BRANCH  14  15
ATOM     15  C   UNL     1     189.642   5.573  98.306  1.00  0.00     0.000 C 
BRANCH  15  16
ATOM     16  C   UNL     1     188.125   5.627  98.034  1.00  0.00     0.000 C 
BRANCH  16  17
ATOM     17  C   UNL     1     187.730   5.957  96.580  1.00  0.00     0.000 C 
BRANCH  17  18
ATOM     18  C   UNL     1     187.153   4.777  95.777  1.00  0.00     0.000 C 
BRANCH  18  19
ATOM     19  C   UNL     1     187.981   4.446  94.524  1.00  0.00     0.000 C 
BRANCH  19  20
ATOM     20  C   UNL     1     189.246   3.636  94.850  1.00  0.00     0.006 C 
BRANCH  20  21
ATOM     21  C   UNL     1     190.501   4.199  94.170  1.00  0.00     0.053 C 
BRANCH  21  22
ATOM     22  C   UNL     1     191.734   3.602  94.773  1.00  0.00     0.041 C 
ATOM     23  O   UNL     1     192.717   4.335  95.059  1.00  0.00    -0.550 OA
ATOM     24  O   UNL     1     191.814   2.230  94.973  1.00  0.00    -0.550 OA
ENDBRANCH  21  22
ENDBRANCH  20  21
ENDBRANCH  19  20
ENDBRANCH  18  19
ENDBRANCH  17  18
ENDBRANCH  16  17
ENDBRANCH  15  16
ENDBRANCH  14  15
ENDBRANCH  13  14
ENDBRANCH   1  13
TORSDOF 20
ENDMDL
MODEL 4
REMARK VINA RESULT:    -4.238      2.235      3.930
REMARK INTER + INTRA:         -11.872
REMARK INTER:                  -9.631
REMARK INTRA:                  -2.241
REMARK UNBOUND:                -2.679
REMARK SMILES CCCCCCCCCCCCCCCCCCCCCC(=O)[O-]
REMARK SMILES IDX 12 1 11 2 10 3 9 4 8 5 7 6 6 7 5 8 4 9 3 10 2 11 1 12 13 13
REMARK SMILES IDX 14 14 15 15 16 16 17 17 18 18 19 19 20 20 21 21 22 22 23 23
REMARK SMILES IDX 24 24
REMARK H PARENT
REMARK Flexibility Score: inf
ROOT
ATOM      1  C   UNL     1     193.502   1.493 101.744  1.00  0.00     0.000 C 
ENDROOT
BRANCH   1   2
ATOM      2  C   UNL     1     192.920   1.809 103.130  1.00  0.00     0.000 C 
BRANCH   2   3
ATOM      3  C   UNL     1     191.433   1.432 103.247  1.00  0.00     0.000 C 
BRANCH   3   4
ATOM      4  C   UNL     1     190.874   1.668 104.659  1.00  0.00    -0.000 C 
BRANCH   4   5
ATOM      5  C   UNL     1     191.904   1.356 105.760  1.00  0.00    -0.000 C 
BRANCH   5   6
ATOM      6  C   UNL     1     191.972  -0.141 106.101  1.00  0.00    -0.000 C 
BRANCH   6   7
ATOM      7  C   UNL     1     193.286  -0.792 105.638  1.00  0.00    -0.000 C 
BRANCH   7   8
ATOM      8  C   UNL     1     193.057  -2.125 104.908  1.00  0.00    -0.000 C 
BRANCH   8   9
ATOM      9  C   UNL     1     193.211  -2.002 103.382  1.00  0.00    -0.000 C 
BRANCH   9  10
ATOM     10  C   UNL     1     191.876  -2.167 102.633  1.00  0.00    -0.000 C 
BRANCH  10  11
ATOM     11  C   UNL     1     191.997  -2.801 101.235  1.00  0.00    -0.003 C 
ATOM     12  C   UNL     1     191.542  -4.260 101.198  1.00  0.00     0.004 C 
ENDBRANCH  10  11
ENDBRANCH   9  10
ENDBRANCH   8   9
ENDBRANCH   7   8
ENDBRANCH   6   7
ENDBRANCH   5   6
ENDBRANCH   4   5
ENDBRANCH   3   4
ENDBRANCH   2   3
ENDBRANCH   1   2
BRANCH   1  13
ATOM     13  C   UNL     1     192.456   0.909 100.782  1.00  0.00     0.000 C 
BRANCH  13  14
ATOM     14  C   UNL     1     192.244   1.835  99.575  1.00  0.00     0.000 C 
BRANCH  14  15
ATOM     15  C   UNL     1     192.872   3.226  99.772  1.00  0.00     0.000 C 
BRANCH  15  16
ATOM     16  C   UNL     1     192.419   4.293  98.754  1.00  0.00     0.000 C 
BRANCH  16  17
ATOM     17  C   UNL     1     191.230   3.886  97.861  1.00  0.00     0.000 C 
BRANCH  17  18
ATOM     18  C   UNL     1     191.532   3.841  96.352  1.00  0.00     0.000 C 
BRANCH  18  19
ATOM     19  C   UNL     1     190.302   4.164  95.487  1.00  0.00     0.000 C 
BRANCH  19  20
ATOM     20  C   UNL     1     188.985   4.051  96.270  1.00  0.00     0.006 C 
BRANCH  20  21
ATOM     21  C   UNL     1     188.219   5.380  96.335  1.00  0.00     0.053 C 
BRANCH  21  22
ATOM     22  C   UNL     1     187.049   5.354  95.404  1.00  0.00     0.041 C 
ATOM     23  O   UNL     1     185.887   5.559  95.841  1.00  0.00    -0.550 OA
ATOM     24  O   UNL     1     187.237   5.053  94.061  1.00  0.00    -0.550 OA
ENDBRANCH  21  22
ENDBRANCH  20  21
ENDBRANCH  19  20
ENDBRANCH  18  19
ENDBRANCH  17  18
ENDBRANCH  16  17
ENDBRANCH  15  16
ENDBRANCH  14  15
ENDBRANCH  13  14
ENDBRANCH   1  13
TORSDOF 20
ENDMDL
MODEL 5
REMARK VINA RESULT:    -4.219      2.610      4.628
REMARK INTER + INTRA:         -11.831
REMARK INTER:                 -10.472
REMARK INTRA:                  -1.359
REMARK UNBOUND:                -2.679
REMARK SMILES CCCCCCCCCCCCCCCCCCCCCC(=O)[O-]
REMARK SMILES IDX 12 1 11 2 10 3 9 4 8 5 7 6 6 7 5 8 4 9 3 10 2 11 1 12 13 13
REMARK SMILES IDX 14 14 15 15 16 16 17 17 18 18 19 19 20 20 21 21 22 22 23 23
REMARK SMILES IDX 24 24
REMARK H PARENT
REMARK Flexibility Score: inf
ROOT
ATOM      1  C   UNL     1     193.287   2.166 103.371  1.00  0.00     0.000 C 
ENDROOT
BRANCH   1   2
ATOM      2  C   UNL     1     192.319   1.018 103.695  1.00  0.00     0.000 C 
BRANCH   2   3
ATOM      3  C   UNL     1     193.018  -0.168 104.383  1.00  0.00     0.000 C 
BRANCH   3   4
ATOM      4  C   UNL     1     192.350  -1.514 104.059  1.00  0.00    -0.000 C 
BRANCH   4   5
ATOM      5  C   UNL     1     191.593  -1.489 102.720  1.00  0.00    -0.000 C 
BRANCH   5   6
ATOM      6  C   UNL     1     192.078  -2.573 101.743  1.00  0.00    -0.000 C 
BRANCH   6   7
ATOM      7  C   UNL     1     191.824  -3.996 102.269  1.00  0.00    -0.000 C 
BRANCH   7   8
ATOM      8  C   UNL     1     191.155  -4.900 101.220  1.00  0.00    -0.000 C 
BRANCH   8   9
ATOM      9  C   UNL     1     191.004  -6.354 101.698  1.00  0.00    -0.000 C 
BRANCH   9  10
ATOM     10  C   UNL     1     189.835  -7.088 101.017  1.00  0.00    -0.000 C 
BRANCH  10  11
ATOM     11  C   UNL     1     188.475  -6.923 101.719  1.00  0.00    -0.003 C 
ATOM     12  C   UNL     1     188.358  -7.750 102.999  1.00  0.00     0.004 C 
ENDBRANCH  10  11
ENDBRANCH   9  10
ENDBRANCH   8   9
ENDBRANCH   7   8
ENDBRANCH   6   7
ENDBRANCH   5   6
ENDBRANCH   4   5
ENDBRANCH   3   4
ENDBRANCH   2   3
ENDBRANCH   1   2
BRANCH   1  13
ATOM     13  C   UNL     1     193.597   2.273 101.870  1.00  0.00     0.000 C 
BRANCH  13  14
ATOM     14  C   UNL     1     192.670   1.360 101.053  1.00  0.00     0.000 C 
BRANCH  14  15
ATOM     15  C   UNL     1     192.089   2.058  99.809  1.00  0.00     0.000 C 
BRANCH  15  16
ATOM     16  C   UNL     1     192.798   3.367  99.408  1.00  0.00     0.000 C 
BRANCH  16  17
ATOM     17  C   UNL     1     192.004   4.276  98.448  1.00  0.00     0.000 C 
BRANCH  17  18
ATOM     18  C   UNL     1     190.538   3.863  98.221  1.00  0.00     0.000 C 
BRANCH  18  19
ATOM     19  C   UNL     1     189.681   5.001  97.641  1.00  0.00     0.000 C 
BRANCH  19  20
ATOM     20  C   UNL     1     189.290   4.755  96.175  1.00  0.00     0.006 C 
BRANCH  20  21
ATOM     21  C   UNL     1     189.921   3.480  95.600  1.00  0.00     0.053 C 
BRANCH  21  22
ATOM     22  C   UNL     1     190.806   3.814  94.440  1.00  0.00     0.041 C 
ATOM     23  O   UNL     1     190.711   3.167  93.364  1.00  0.00    -0.550 OA
ATOM     24  O   UNL     1     191.771   4.805  94.566  1.00  0.00    -0.550 OA
ENDBRANCH  21  22
ENDBRANCH  20  21
ENDBRANCH  19  20
ENDBRANCH  18  19
ENDBRANCH  17  18
ENDBRANCH  16  17
ENDBRANCH  15  16
ENDBRANCH  14  15
ENDBRANCH  13  14
ENDBRANCH   1  13
TORSDOF 20
ENDMDL
MODEL 6
REMARK VINA RESULT:    -4.207      3.867      9.838
REMARK INTER + INTRA:         -11.804
REMARK INTER:                 -10.170
REMARK INTRA:                  -1.634
REMARK UNBOUND:                -2.679
REMARK SMILES CCCCCCCCCCCCCCCCCCCCCC(=O)[O-]
REMARK SMILES IDX 12 1 11 2 10 3 9 4 8 5 7 6 6 7 5 8 4 9 3 10 2 11 1 12 13 13
REMARK SMILES IDX 14 14 15 15 16 16 17 17 18 18 19 19 20 20 21 21 22 22 23 23
REMARK SMILES IDX 24 24
REMARK H PARENT
REMARK Flexibility Score: inf
ROOT
ATOM      1  C   UNL     1     190.817   3.501  97.937  1.00  0.00     0.000 C 
ENDROOT
BRANCH   1   2
ATOM      2  C   UNL     1     190.122   4.288  96.816  1.00  0.00     0.000 C 
BRANCH   2   3
ATOM      3  C   UNL     1     189.231   5.422  97.354  1.00  0.00     0.000 C 
BRANCH   3   4
ATOM      4  C   UNL     1     187.845   5.447  96.691  1.00  0.00    -0.000 C 
BRANCH   4   5
ATOM      5  C   UNL     1     187.809   4.660  95.369  1.00  0.00    -0.000 C 
BRANCH   5   6
ATOM      6  C   UNL     1     186.827   5.260  94.348  1.00  0.00    -0.000 C 
BRANCH   6   7
ATOM      7  C   UNL     1     185.768   4.246  93.885  1.00  0.00    -0.000 C 
BRANCH   7   8
ATOM      8  C   UNL     1     184.471   4.335  94.705  1.00  0.00    -0.000 C 
BRANCH   8   9
ATOM      9  C   UNL     1     183.910   2.952  95.081  1.00  0.00    -0.000 C 
BRANCH   9  10
ATOM     10  C   UNL     1     184.918   2.093  95.866  1.00  0.00    -0.000 C 
BRANCH  10  11
ATOM     11  C   UNL     1     185.300   2.651  97.248  1.00  0.00    -0.003 C 
ATOM     12  C   UNL     1     184.132   2.661  98.234  1.00  0.00     0.004 C 
ENDBRANCH  10  11
ENDBRANCH   9  10
ENDBRANCH   8   9
ENDBRANCH   7   8
ENDBRANCH   6   7
ENDBRANCH   5   6
ENDBRANCH   4   5
ENDBRANCH   3   4
ENDBRANCH   2   3
ENDBRANCH   1   2
BRANCH   1  13
ATOM     13  C   UNL     1     191.985   4.276  98.567  1.00  0.00     0.000 C 
BRANCH  13  14
ATOM     14  C   UNL     1     192.817   3.364  99.482  1.00  0.00     0.000 C 
BRANCH  14  15
ATOM     15  C   UNL     1     192.243   1.940  99.588  1.00  0.00     0.000 C 
BRANCH  15  16
ATOM     16  C   UNL     1     192.210   1.357 101.015  1.00  0.00     0.000 C 
BRANCH  16  17
ATOM     17  C   UNL     1     193.541   1.442 101.790  1.00  0.00     0.000 C 
BRANCH  17  18
ATOM     18  C   UNL     1     193.601   2.543 102.864  1.00  0.00     0.000 C 
BRANCH  18  19
ATOM     19  C   UNL     1     194.035   2.011 104.241  1.00  0.00     0.000 C 
BRANCH  19  20
ATOM     20  C   UNL     1     193.124   2.502 105.377  1.00  0.00     0.006 C 
BRANCH  20  21
ATOM     21  C   UNL     1     192.127   1.431 105.841  1.00  0.00     0.053 C 
BRANCH  21  22
ATOM     22  C   UNL     1     190.747   1.764 105.370  1.00  0.00     0.041 C 
ATOM     23  O   UNL     1     190.479   1.761 104.140  1.00  0.00    -0.550 OA
ATOM     24  O   UNL     1     189.769   2.126 106.288  1.00  0.00    -0.550 OA
ENDBRANCH  21  22
ENDBRANCH  20  21
ENDBRANCH  19  20
ENDBRANCH  18  19
ENDBRANCH  17  18
ENDBRANCH  16  17
ENDBRANCH  15  16
ENDBRANCH  14  15
ENDBRANCH  13  14
ENDBRANCH   1  13
TORSDOF 20
ENDMDL
MODEL 7
REMARK VINA RESULT:    -4.205      3.107      6.396
REMARK INTER + INTRA:         -11.801
REMARK INTER:                  -9.118
REMARK INTRA:                  -2.683
REMARK UNBOUND:                -2.679
REMARK SMILES CCCCCCCCCCCCCCCCCCCCCC(=O)[O-]
REMARK SMILES IDX 12 1 11 2 10 3 9 4 8 5 7 6 6 7 5 8 4 9 3 10 2 11 1 12 13 13
REMARK SMILES IDX 14 14 15 15 16 16 17 17 18 18 19 19 20 20 21 21 22 22 23 23
REMARK SMILES IDX 24 24
REMARK H PARENT
REMARK Flexibility Score: inf
ROOT
ATOM      1  C   UNL     1     192.121  -1.843 101.685  1.00  0.00     0.000 C 
ENDROOT
BRANCH   1   2
ATOM      2  C   UNL     1     193.129  -1.754 100.529  1.00  0.00     0.000 C 
BRANCH   2   3
ATOM      3  C   UNL     1     194.488  -2.385 100.879  1.00  0.00     0.000 C 
BRANCH   3   4
ATOM      4  C   UNL     1     194.821  -3.596  99.994  1.00  0.00    -0.000 C 
BRANCH   4   5
ATOM      5  C   UNL     1     193.882  -3.716  98.780  1.00  0.00    -0.000 C 
BRANCH   5   6
ATOM      6  C   UNL     1     193.057  -5.013  98.794  1.00  0.00    -0.000 C 
BRANCH   6   7
ATOM      7  C   UNL     1     192.737  -5.493 100.220  1.00  0.00    -0.000 C 
BRANCH   7   8
ATOM      8  C   UNL     1     191.277  -5.222 100.617  1.00  0.00    -0.000 C 
BRANCH   8   9
ATOM      9  C   UNL     1     190.953  -5.691 102.046  1.00  0.00    -0.000 C 
BRANCH   9  10
ATOM     10  C   UNL     1     190.033  -6.925 102.075  1.00  0.00    -0.000 C 
BRANCH  10  11
ATOM     11  C   UNL     1     189.352  -7.251 100.734  1.00  0.00    -0.003 C 
ATOM     12  C   UNL     1     188.031  -8.001 100.900  1.00  0.00     0.004 C 
ENDBRANCH  10  11
ENDBRANCH   9  10
ENDBRANCH   8   9
ENDBRANCH   7   8
ENDBRANCH   6   7
ENDBRANCH   5   6
ENDBRANCH   4   5
ENDBRANCH   3   4
ENDBRANCH   2   3
ENDBRANCH   1   2
BRANCH   1  13
ATOM     13  C   UNL     1     192.750  -2.385 102.977  1.00  0.00     0.000 C 
BRANCH  13  14
ATOM     14  C   UNL     1     192.730  -1.321 104.085  1.00  0.00     0.000 C 
BRANCH  14  15
ATOM     15  C   UNL     1     193.811  -0.241 103.895  1.00  0.00     0.000 C 
BRANCH  15  16
ATOM     16  C   UNL     1     193.439   1.153 104.438  1.00  0.00     0.000 C 
BRANCH  16  17
ATOM     17  C   UNL     1     193.253   2.247 103.366  1.00  0.00     0.000 C 
BRANCH  17  18
ATOM     18  C   UNL     1     193.520   1.794 101.919  1.00  0.00     0.000 C 
BRANCH  18  19
ATOM     19  C   UNL     1     192.231   1.646 101.093  1.00  0.00     0.000 C 
BRANCH  19  20
ATOM     20  C   UNL     1     192.449   1.945  99.601  1.00  0.00     0.006 C 
BRANCH  20  21
ATOM     21  C   UNL     1     191.295   2.746  98.983  1.00  0.00     0.053 C 
BRANCH  21  22
ATOM     22  C   UNL     1     191.816   3.978  98.313  1.00  0.00     0.041 C 
ATOM     23  O   UNL     1     191.499   4.232  97.121  1.00  0.00    -0.550 OA
ATOM     24  O   UNL     1     192.691   4.819  98.989  1.00  0.00    -0.550 OA
ENDBRANCH  21  22
ENDBRANCH  20  21
ENDBRANCH  19  20
ENDBRANCH  18  19
ENDBRANCH  17  18
ENDBRANCH  16  17
ENDBRANCH  15  16
ENDBRANCH  14  15
ENDBRANCH  13  14
ENDBRANCH   1  13
TORSDOF 20
ENDMDL
MODEL 8
REMARK VINA RESULT:    -4.193      2.958      4.242
REMARK INTER + INTRA:         -11.774
REMARK INTER:                  -9.687
REMARK INTRA:                  -2.087
REMARK UNBOUND:                -2.679
REMARK SMILES CCCCCCCCCCCCCCCCCCCCCC(=O)[O-]
REMARK SMILES IDX 12 1 11 2 10 3 9 4 8 5 7 6 6 7 5 8 4 9 3 10 2 11 1 12 13 13
REMARK SMILES IDX 14 14 15 15 16 16 17 17 18 18 19 19 20 20 21 21 22 22 23 23
REMARK SMILES IDX 24 24
REMARK H PARENT
REMARK Flexibility Score: inf
ROOT
ATOM      1  C   UNL     1     191.788   1.414 100.725  1.00  0.00     0.000 C 
ENDROOT
BRANCH   1   2
ATOM      2  C   UNL     1     192.900   0.434 101.130  1.00  0.00     0.000 C 
BRANCH   2   3
ATOM      3  C   UNL     1     193.808   0.995 102.238  1.00  0.00     0.000 C 
BRANCH   3   4
ATOM      4  C   UNL     1     193.302   2.336 102.792  1.00  0.00    -0.000 C 
BRANCH   4   5
ATOM      5  C   UNL     1     192.838   2.232 104.256  1.00  0.00    -0.000 C 
BRANCH   5   6
ATOM      6  C   UNL     1     191.307   2.256 104.397  1.00  0.00    -0.000 C 
BRANCH   6   7
ATOM      7  C   UNL     1     190.822   1.555 105.677  1.00  0.00    -0.000 C 
BRANCH   7   8
ATOM      8  C   UNL     1     191.982   0.991 106.514  1.00  0.00    -0.000 C 
BRANCH   8   9
ATOM      9  C   UNL     1     191.986  -0.547 106.561  1.00  0.00    -0.000 C 
BRANCH   9  10
ATOM     10  C   UNL     1     192.970  -1.172 105.555  1.00  0.00    -0.000 C 
BRANCH  10  11
ATOM     11  C   UNL     1     192.317  -1.727 104.276  1.00  0.00    -0.003 C 
ATOM     12  C   UNL     1     193.283  -2.540 103.415  1.00  0.00     0.004 C 
ENDBRANCH  10  11
ENDBRANCH   9  10
ENDBRANCH   8   9
ENDBRANCH   7   8
ENDBRANCH   6   7
ENDBRANCH   5   6
ENDBRANCH   4   5
ENDBRANCH   3   4
ENDBRANCH   2   3
ENDBRANCH   1   2
BRANCH   1  13
ATOM     13  C   UNL     1     192.021   2.034  99.339  1.00  0.00     0.000 C 
BRANCH  13  14
ATOM     14  C   UNL     1     192.791   3.358  99.453  1.00  0.00     0.000 C 
BRANCH  14  15
ATOM     15  C   UNL     1     192.145   4.496  98.642  1.00  0.00     0.000 C 
BRANCH  15  16
ATOM     16  C   UNL     1     190.690   4.237  98.203  1.00  0.00     0.000 C 
BRANCH  16  17
ATOM     17  C   UNL     1     190.437   4.331  96.684  1.00  0.00     0.000 C 
BRANCH  17  18
ATOM     18  C   UNL     1     189.268   3.473  96.164  1.00  0.00     0.000 C 
BRANCH  18  19
ATOM     19  C   UNL     1     187.894   4.011  96.597  1.00  0.00     0.000 C 
BRANCH  19  20
ATOM     20  C   UNL     1     187.132   3.026  97.497  1.00  0.00     0.006 C 
BRANCH  20  21
ATOM     21  C   UNL     1     185.860   2.481  96.835  1.00  0.00     0.053 C 
BRANCH  21  22
ATOM     22  C   UNL     1     184.643   3.042  97.502  1.00  0.00     0.041 C 
ATOM     23  O   UNL     1     184.105   4.090  97.059  1.00  0.00    -0.550 OA
ATOM     24  O   UNL     1     184.136   2.434  98.643  1.00  0.00    -0.550 OA
ENDBRANCH  21  22
ENDBRANCH  20  21
ENDBRANCH  19  20
ENDBRANCH  18  19
ENDBRANCH  17  18
ENDBRANCH  16  17
ENDBRANCH  15  16
ENDBRANCH  14  15
ENDBRANCH  13  14
ENDBRANCH   1  13
TORSDOF 20
ENDMDL
MODEL 9
REMARK VINA RESULT:    -4.175      1.532      3.142
REMARK INTER + INTRA:         -11.735
REMARK INTER:                  -9.308
REMARK INTRA:                  -2.428
REMARK UNBOUND:                -2.679
REMARK SMILES CCCCCCCCCCCCCCCCCCCCCC(=O)[O-]
REMARK SMILES IDX 12 1 11 2 10 3 9 4 8 5 7 6 6 7 5 8 4 9 3 10 2 11 1 12 13 13
REMARK SMILES IDX 14 14 15 15 16 16 17 17 18 18 19 19 20 20 21 21 22 22 23 23
REMARK SMILES IDX 24 24
REMARK H PARENT
REMARK Flexibility Score: inf
ROOT
ATOM      1  C   UNL     1     193.294  -1.977 100.455  1.00  0.00     0.000 C 
ENDROOT
BRANCH   1   2
ATOM      2  C   UNL     1     194.390  -2.970 100.871  1.00  0.00     0.000 C 
BRANCH   2   3
ATOM      3  C   UNL     1     195.586  -2.281 101.550  1.00  0.00     0.000 C 
BRANCH   3   4
ATOM      4  C   UNL     1     195.830  -2.795 102.978  1.00  0.00    -0.000 C 
BRANCH   4   5
ATOM      5  C   UNL     1     195.577  -1.715 104.045  1.00  0.00    -0.000 C 
BRANCH   5   6
ATOM      6  C   UNL     1     194.084  -1.527 104.357  1.00  0.00    -0.000 C 
BRANCH   6   7
ATOM      7  C   UNL     1     193.799  -1.485 105.868  1.00  0.00    -0.000 C 
BRANCH   7   8
ATOM      8  C   UNL     1     192.382  -0.981 106.186  1.00  0.00    -0.000 C 
BRANCH   8   9
ATOM      9  C   UNL     1     191.912   0.119 105.218  1.00  0.00    -0.000 C 
BRANCH   9  10
ATOM     10  C   UNL     1     192.403   1.521 105.623  1.00  0.00    -0.000 C 
BRANCH  10  11
ATOM     11  C   UNL     1     192.646   2.483 104.447  1.00  0.00    -0.003 C 
ATOM     12  C   UNL     1     194.001   2.273 103.772  1.00  0.00     0.004 C 
ENDBRANCH  10  11
ENDBRANCH   9  10
ENDBRANCH   8   9
ENDBRANCH   7   8
ENDBRANCH   6   7
ENDBRANCH   5   6
ENDBRANCH   4   5
ENDBRANCH   3   4
ENDBRANCH   2   3
ENDBRANCH   1   2
BRANCH   1  13
ATOM     13  C   UNL     1     192.203  -1.818 101.525  1.00  0.00     0.000 C 
BRANCH  13  14
ATOM     14  C   UNL     1     191.768  -0.350 101.650  1.00  0.00     0.000 C 
BRANCH  14  15
ATOM     15  C   UNL     1     192.597   0.597 100.762  1.00  0.00     0.000 C 
BRANCH  15  16
ATOM     16  C   UNL     1     191.900   1.924 100.400  1.00  0.00     0.000 C 
BRANCH  16  17
ATOM     17  C   UNL     1     192.016   2.344  98.921  1.00  0.00     0.000 C 
BRANCH  17  18
ATOM     18  C   UNL     1     192.009   3.863  98.671  1.00  0.00     0.000 C 
BRANCH  18  19
ATOM     19  C   UNL     1     190.644   4.382  98.188  1.00  0.00     0.000 C 
BRANCH  19  20
ATOM     20  C   UNL     1     189.997   3.457  97.145  1.00  0.00     0.006 C 
BRANCH  20  21
ATOM     21  C   UNL     1     190.126   3.997  95.714  1.00  0.00     0.053 C 
BRANCH  21  22
ATOM     22  C   UNL     1     191.376   3.482  95.073  1.00  0.00     0.041 C 
ATOM     23  O   UNL     1     192.439   4.155  95.125  1.00  0.00    -0.550 OA
ATOM     24  O   UNL     1     191.354   2.281  94.375  1.00  0.00    -0.550 OA
ENDBRANCH  21  22
ENDBRANCH  20  21
ENDBRANCH  19  20
ENDBRANCH  18  19
ENDBRANCH  17  18
ENDBRANCH  16  17
ENDBRANCH  15  16
ENDBRANCH  14  15
ENDBRANCH  13  14
ENDBRANCH   1  13
TORSDOF 20
ENDMDL
