MODEL 1
REMARK VINA RESULT:    -4.188      0.000      0.000
REMARK INTER + INTRA:          -4.944
REMARK INTER:                  -4.800
REMARK INTRA:                  -0.144
REMARK UNBOUND:                -0.144
REMARK SMILES O=C([O-])C=Cc1ccc(O)cc1
REMARK SMILES IDX 6 1 7 2 12 3 8 4 11 5 9 6 5 7 4 8 2 9 1 10 3 11 10 12
REMARK H PARENT 10 13
REMARK Flexibility Score: inf
ROOT
ATOM      1  C   UNL     1      -0.737  -9.033   6.020  1.00  0.00    -0.025 A 
ATOM      2  C   UNL     1      -1.255  -9.949   6.959  1.00  0.00     0.012 A 
ATOM      3  C   UNL     1       0.090  -7.991   6.476  1.00  0.00     0.012 A 
ATOM      4  C   UNL     1      -0.969  -9.804   8.321  1.00  0.00     0.047 A 
ATOM      5  C   UNL     1       0.371  -7.849   7.838  1.00  0.00     0.047 A 
ATOM      6  C   UNL     1      -0.160  -8.756   8.764  1.00  0.00     0.115 A 
ENDROOT
BRANCH   1   7
ATOM      7  C   UNL     1      -0.998  -9.146   4.564  1.00  0.00     0.010 C 
ATOM      8  C   UNL     1      -0.049  -9.024   3.625  1.00  0.00     0.025 C 
BRANCH   8   9
ATOM      9  C   UNL     1      -0.345  -9.154   2.189  1.00  0.00     0.064 C 
ATOM     10  O   UNL     1       0.096 -10.124   1.516  1.00  0.00    -0.545 OA
ATOM     11  O   UNL     1      -1.126  -8.191   1.563  1.00  0.00    -0.545 OA
ENDBRANCH   8   9
ENDBRANCH   1   7
BRANCH   6  12
ATOM     12  O   UNL     1       0.114  -8.624  10.124  1.00  0.00    -0.508 OA
ATOM     13  H   UNL     1       1.030  -8.838  10.503  1.00  0.00     0.293 HD
ENDBRANCH   6  12
TORSDOF 3
ENDMDL
MODEL 2
REMARK VINA RESULT:    -4.115     16.556     18.489
REMARK INTER + INTRA:          -4.860
REMARK INTER:                  -4.712
REMARK INTRA:                  -0.149
REMARK UNBOUND:                -0.144
REMARK SMILES O=C([O-])C=Cc1ccc(O)cc1
REMARK SMILES IDX 6 1 7 2 12 3 8 4 11 5 9 6 5 7 4 8 2 9 1 10 3 11 10 12
REMARK H PARENT 10 13
REMARK Flexibility Score: inf
ROOT
ATOM      1  C   UNL     1      -5.565  -0.017  -8.926  1.00  0.00    -0.025 A 
ATOM      2  C   UNL     1      -4.407   0.268  -8.172  1.00  0.00     0.012 A 
ATOM      3  C   UNL     1      -5.620  -1.218  -9.654  1.00  0.00     0.012 A 
ATOM      4  C   UNL     1      -3.327  -0.620  -8.173  1.00  0.00     0.047 A 
ATOM      5  C   UNL     1      -4.537  -2.102  -9.653  1.00  0.00     0.047 A 
ATOM      6  C   UNL     1      -3.386  -1.803  -8.913  1.00  0.00     0.115 A 
ENDROOT
BRANCH   1   7
ATOM      7  C   UNL     1      -6.744   0.884  -8.951  1.00  0.00     0.010 C 
ATOM      8  C   UNL     1      -7.997   0.465  -9.178  1.00  0.00     0.025 C 
BRANCH   8   9
ATOM      9  C   UNL     1      -9.144   1.387  -9.184  1.00  0.00     0.064 C 
ATOM     10  O   UNL     1      -9.286   2.247 -10.094  1.00  0.00    -0.545 OA
ATOM     11  O   UNL     1     -10.089   1.308  -8.169  1.00  0.00    -0.545 OA
ENDBRANCH   8   9
ENDBRANCH   1   7
BRANCH   6  12
ATOM     12  O   UNL     1      -2.301  -2.677  -8.905  1.00  0.00    -0.508 OA
ATOM     13  H   UNL     1      -1.396  -2.401  -9.268  1.00  0.00     0.293 HD
ENDBRANCH   6  12
TORSDOF 3
ENDMDL
MODEL 3
REMARK VINA RESULT:    -3.710     15.798     16.999
REMARK INTER + INTRA:          -4.396
REMARK INTER:                  -4.263
REMARK INTRA:                  -0.133
REMARK UNBOUND:                -0.144
REMARK SMILES O=C([O-])C=Cc1ccc(O)cc1
REMARK SMILES IDX 6 1 7 2 12 3 8 4 11 5 9 6 5 7 4 8 2 9 1 10 3 11 10 12
REMARK H PARENT 10 13
REMARK Flexibility Score: inf
ROOT
ATOM      1  C   UNL     1      -3.643  -2.363  -8.910  1.00  0.00    -0.025 A 
ATOM      2  C   UNL     1      -4.156  -1.223  -8.257  1.00  0.00     0.012 A 
ATOM      3  C   UNL     1      -2.598  -2.200  -9.836  1.00  0.00     0.012 A 
ATOM      4  C   UNL     1      -3.649   0.048  -8.549  1.00  0.00     0.047 A 
ATOM      5  C   UNL     1      -2.095  -0.928 -10.125  1.00  0.00     0.047 A 
ATOM      6  C   UNL     1      -2.622   0.199  -9.483  1.00  0.00     0.115 A 
ENDROOT
BRANCH   1   7
ATOM      7  C   UNL     1      -4.136  -3.734  -8.630  1.00  0.00     0.010 C 
ATOM      8  C   UNL     1      -5.179  -4.295  -9.261  1.00  0.00     0.025 C 
BRANCH   8   9
ATOM      9  C   UNL     1      -5.632  -5.663  -8.963  1.00  0.00     0.064 C 
ATOM     10  O   UNL     1      -5.438  -6.607  -9.776  1.00  0.00    -0.545 OA
ATOM     11  O   UNL     1      -6.286  -5.920  -7.765  1.00  0.00    -0.545 OA
ENDBRANCH   8   9
ENDBRANCH   1   7
BRANCH   6  12
ATOM     12  O   UNL     1      -2.127   1.471  -9.763  1.00  0.00    -0.508 OA
ATOM     13  H   UNL     1      -1.391   1.889  -9.205  1.00  0.00     0.293 HD
ENDBRANCH   6  12
TORSDOF 3
ENDMDL
MODEL 4
REMARK VINA RESULT:    -3.612     16.760     18.641
REMARK INTER + INTRA:          -4.283
REMARK INTER:                  -4.137
REMARK INTRA:                  -0.146
REMARK UNBOUND:                -0.144
REMARK SMILES O=C([O-])C=Cc1ccc(O)cc1
REMARK SMILES IDX 6 1 7 2 12 3 8 4 11 5 9 6 5 7 4 8 2 9 1 10 3 11 10 12
REMARK H PARENT 10 13
REMARK Flexibility Score: inf
ROOT
ATOM      1  C   UNL     1      -6.749  -0.275  -9.478  1.00  0.00    -0.025 A 
ATOM      2  C   UNL     1      -8.048  -0.746  -9.764  1.00  0.00     0.012 A 
ATOM      3  C   UNL     1      -6.601   1.002  -8.909  1.00  0.00     0.012 A 
ATOM      4  C   UNL     1      -9.163   0.058  -9.507  1.00  0.00     0.047 A 
ATOM      5  C   UNL     1      -7.719   1.802  -8.656  1.00  0.00     0.047 A 
ATOM      6  C   UNL     1      -9.004   1.331  -8.957  1.00  0.00     0.115 A 
ENDROOT
BRANCH   1   7
ATOM      7  C   UNL     1      -5.532  -1.090  -9.719  1.00  0.00     0.010 C 
ATOM      8  C   UNL     1      -4.469  -1.102  -8.902  1.00  0.00     0.025 C 
BRANCH   8   9
ATOM      9  C   UNL     1      -3.284  -1.933  -9.168  1.00  0.00     0.064 C 
ATOM     10  O   UNL     1      -2.205  -1.421  -9.570  1.00  0.00    -0.545 OA
ATOM     11  O   UNL     1      -3.355  -3.306  -8.972  1.00  0.00    -0.545 OA
ENDBRANCH   8   9
ENDBRANCH   1   7
BRANCH   6  12
ATOM     12  O   UNL     1     -10.125   2.120  -8.708  1.00  0.00    -0.508 OA
ATOM     13  H   UNL     1     -10.045   3.032  -8.272  1.00  0.00     0.293 HD
ENDBRANCH   6  12
TORSDOF 3
ENDMDL
MODEL 5
REMARK VINA RESULT:    -3.379     16.445     18.351
REMARK INTER + INTRA:          -4.016
REMARK INTER:                  -3.868
REMARK INTRA:                  -0.149
REMARK UNBOUND:                -0.144
REMARK SMILES O=C([O-])C=Cc1ccc(O)cc1
REMARK SMILES IDX 6 1 7 2 12 3 8 4 11 5 9 6 5 7 4 8 2 9 1 10 3 11 10 12
REMARK H PARENT 10 13
REMARK Flexibility Score: inf
ROOT
ATOM      1  C   UNL     1      -4.844  -1.219  -9.511  1.00  0.00    -0.025 A 
ATOM      2  C   UNL     1      -3.756  -1.961  -9.009  1.00  0.00     0.012 A 
ATOM      3  C   UNL     1      -5.941  -1.909 -10.057  1.00  0.00     0.012 A 
ATOM      4  C   UNL     1      -3.760  -3.358  -9.078  1.00  0.00     0.047 A 
ATOM      5  C   UNL     1      -5.940  -3.305 -10.125  1.00  0.00     0.047 A 
ATOM      6  C   UNL     1      -4.848  -4.033  -9.637  1.00  0.00     0.115 A 
ENDROOT
BRANCH   1   7
ATOM      7  C   UNL     1      -4.897   0.263  -9.453  1.00  0.00     0.010 C 
ATOM      8  C   UNL     1      -6.036   0.967  -9.382  1.00  0.00     0.025 C 
BRANCH   8   9
ATOM      9  C   UNL     1      -6.048   2.437  -9.314  1.00  0.00     0.064 C 
ATOM     10  O   UNL     1      -6.785   3.121 -10.074  1.00  0.00    -0.545 OA
ATOM     11  O   UNL     1      -5.233   3.084  -8.394  1.00  0.00    -0.545 OA
ENDBRANCH   8   9
ENDBRANCH   1   7
BRANCH   6  12
ATOM     12  O   UNL     1      -4.837  -5.425  -9.699  1.00  0.00    -0.508 OA
ATOM     13  H   UNL     1      -5.001  -5.994  -8.876  1.00  0.00     0.293 HD
ENDBRANCH   6  12
TORSDOF 3
ENDMDL
MODEL 6
REMARK VINA RESULT:    -3.355     15.124     16.889
REMARK INTER + INTRA:          -3.989
REMARK INTER:                  -3.856
REMARK INTRA:                  -0.134
REMARK UNBOUND:                -0.144
REMARK SMILES O=C([O-])C=Cc1ccc(O)cc1
REMARK SMILES IDX 6 1 7 2 12 3 8 4 11 5 9 6 5 7 4 8 2 9 1 10 3 11 10 12
REMARK H PARENT 10 13
REMARK Flexibility Score: inf
ROOT
ATOM      1  C   UNL     1      -4.406  -3.293  -9.446  1.00  0.00    -0.025 A 
ATOM      2  C   UNL     1      -3.011  -3.199  -9.263  1.00  0.00     0.012 A 
ATOM      3  C   UNL     1      -5.109  -2.158  -9.883  1.00  0.00     0.012 A 
ATOM      4  C   UNL     1      -2.348  -1.988  -9.488  1.00  0.00     0.047 A 
ATOM      5  C   UNL     1      -4.443  -0.949 -10.105  1.00  0.00     0.047 A 
ATOM      6  C   UNL     1      -3.059  -0.862  -9.906  1.00  0.00     0.115 A 
ENDROOT
BRANCH   1   7
ATOM      7  C   UNL     1      -5.157  -4.556  -9.233  1.00  0.00     0.010 C 
ATOM      8  C   UNL     1      -5.215  -5.199  -8.058  1.00  0.00     0.025 C 
BRANCH   8   9
ATOM      9  C   UNL     1      -5.981  -6.444  -7.882  1.00  0.00     0.064 C 
ATOM     10  O   UNL     1      -7.072  -6.456  -7.252  1.00  0.00    -0.545 OA
ATOM     11  O   UNL     1      -5.492  -7.627  -8.421  1.00  0.00    -0.545 OA
ENDBRANCH   8   9
ENDBRANCH   1   7
BRANCH   6  12
ATOM     12  O   UNL     1      -2.385   0.337 -10.125  1.00  0.00    -0.508 OA
ATOM     13  H   UNL     1      -2.774   1.065 -10.713  1.00  0.00     0.293 HD
ENDBRANCH   6  12
TORSDOF 3
ENDMDL
MODEL 7
REMARK VINA RESULT:    -3.352      1.087      5.844
REMARK INTER + INTRA:          -3.985
REMARK INTER:                  -3.845
REMARK INTRA:                  -0.140
REMARK UNBOUND:                -0.144
REMARK SMILES O=C([O-])C=Cc1ccc(O)cc1
REMARK SMILES IDX 6 1 7 2 12 3 8 4 11 5 9 6 5 7 4 8 2 9 1 10 3 11 10 12
REMARK H PARENT 10 13
REMARK Flexibility Score: inf
ROOT
ATOM      1  C   UNL     1      -0.573  -9.171   5.683  1.00  0.00    -0.025 A 
ATOM      2  C   UNL     1       0.520  -8.613   4.989  1.00  0.00     0.012 A 
ATOM      3  C   UNL     1      -1.508  -9.940   4.969  1.00  0.00     0.012 A 
ATOM      4  C   UNL     1       0.652  -8.802   3.609  1.00  0.00     0.047 A 
ATOM      5  C   UNL     1      -1.373 -10.125   3.590  1.00  0.00     0.047 A 
ATOM      6  C   UNL     1      -0.291  -9.554   2.906  1.00  0.00     0.115 A 
ENDROOT
BRANCH   1   7
ATOM      7  C   UNL     1      -0.756  -9.011   7.147  1.00  0.00     0.010 C 
ATOM      8  C   UNL     1       0.004  -8.212   7.910  1.00  0.00     0.025 C 
BRANCH   8   9
ATOM      9  C   UNL     1      -0.215  -8.070   9.359  1.00  0.00     0.064 C 
ATOM     10  O   UNL     1       0.555  -7.371  10.071  1.00  0.00    -0.545 OA
ATOM     11  O   UNL     1      -1.290  -8.718   9.953  1.00  0.00    -0.545 OA
ENDBRANCH   8   9
ENDBRANCH   1   7
BRANCH   6  12
ATOM     12  O   UNL     1      -0.146  -9.733   1.532  1.00  0.00    -0.508 OA
ATOM     13  H   UNL     1      -0.809 -10.280   0.996  1.00  0.00     0.293 HD
ENDBRANCH   6  12
TORSDOF 3
ENDMDL
MODEL 8
REMARK VINA RESULT:    -3.220     15.488     16.572
REMARK INTER + INTRA:          -3.835
REMARK INTER:                  -3.697
REMARK INTRA:                  -0.138
REMARK UNBOUND:                -0.144
REMARK SMILES O=C([O-])C=Cc1ccc(O)cc1
REMARK SMILES IDX 6 1 7 2 12 3 8 4 11 5 9 6 5 7 4 8 2 9 1 10 3 11 10 12
REMARK H PARENT 10 13
REMARK Flexibility Score: inf
ROOT
ATOM      1  C   UNL     1      -5.280  -4.780  -9.141  1.00  0.00    -0.025 A 
ATOM      2  C   UNL     1      -5.289  -5.627  -8.013  1.00  0.00     0.012 A 
ATOM      3  C   UNL     1      -6.339  -4.866 -10.061  1.00  0.00     0.012 A 
ATOM      4  C   UNL     1      -6.322  -6.552  -7.832  1.00  0.00     0.047 A 
ATOM      5  C   UNL     1      -7.369  -5.794  -9.877  1.00  0.00     0.047 A 
ATOM      6  C   UNL     1      -7.361  -6.641  -8.761  1.00  0.00     0.115 A 
ENDROOT
BRANCH   1   7
ATOM      7  C   UNL     1      -4.216  -3.773  -9.376  1.00  0.00     0.010 C 
ATOM      8  C   UNL     1      -4.041  -2.682  -8.616  1.00  0.00     0.025 C 
BRANCH   8   9
ATOM      9  C   UNL     1      -2.966  -1.710  -8.873  1.00  0.00     0.064 C 
ATOM     10  O   UNL     1      -2.138  -1.884  -9.808  1.00  0.00    -0.545 OA
ATOM     11  O   UNL     1      -2.862  -0.580  -8.073  1.00  0.00    -0.545 OA
ENDBRANCH   8   9
ENDBRANCH   1   7
BRANCH   6  12
ATOM     12  O   UNL     1      -8.382  -7.568  -8.567  1.00  0.00    -0.508 OA
ATOM     13  H   UNL     1      -8.675  -7.847  -7.638  1.00  0.00     0.293 HD
ENDBRANCH   6  12
TORSDOF 3
ENDMDL
MODEL 9
REMARK VINA RESULT:    -3.220     15.502     16.606
REMARK INTER + INTRA:          -3.834
REMARK INTER:                  -3.697
REMARK INTRA:                  -0.137
REMARK UNBOUND:                -0.144
REMARK SMILES O=C([O-])C=Cc1ccc(O)cc1
REMARK SMILES IDX 6 1 7 2 12 3 8 4 11 5 9 6 5 7 4 8 2 9 1 10 3 11 10 12
REMARK H PARENT 10 13
REMARK Flexibility Score: inf
ROOT
ATOM      1  C   UNL     1      -5.284  -4.624  -9.152  1.00  0.00    -0.025 A 
ATOM      2  C   UNL     1      -6.367  -4.725 -10.049  1.00  0.00     0.012 A 
ATOM      3  C   UNL     1      -5.222  -5.509  -8.061  1.00  0.00     0.012 A 
ATOM      4  C   UNL     1      -7.373  -5.675  -9.839  1.00  0.00     0.047 A 
ATOM      5  C   UNL     1      -6.231  -6.455  -7.855  1.00  0.00     0.047 A 
ATOM      6  C   UNL     1      -7.310  -6.538  -8.744  1.00  0.00     0.115 A 
ENDROOT
BRANCH   1   7
ATOM      7  C   UNL     1      -4.185  -3.644  -9.333  1.00  0.00     0.010 C 
ATOM      8  C   UNL     1      -4.091  -2.494  -8.649  1.00  0.00     0.025 C 
BRANCH   8   9
ATOM      9  C   UNL     1      -2.978  -1.551  -8.849  1.00  0.00     0.064 C 
ATOM     10  O   UNL     1      -2.141  -1.715  -9.776  1.00  0.00    -0.545 OA
ATOM     11  O   UNL     1      -2.850  -0.459  -8.001  1.00  0.00    -0.545 OA
ENDBRANCH   8   9
ENDBRANCH   1   7
BRANCH   6  12
ATOM     12  O   UNL     1      -8.320  -7.478  -8.548  1.00  0.00    -0.508 OA
ATOM     13  H   UNL     1      -8.448  -8.258  -9.181  1.00  0.00     0.293 HD
ENDBRANCH   6  12
TORSDOF 3
ENDMDL
