MODEL 1
REMARK VINA RESULT:    -4.603      0.000      0.000
REMARK INTER + INTRA:         -16.404
REMARK INTER:                 -11.600
REMARK INTRA:                  -4.803
REMARK UNBOUND:                -4.803
REMARK SMILES CCCCCCCCCCCCCCCCCCCCCCCCCCCC(=O)[O-]
REMARK SMILES IDX 15 1 16 2 17 3 18 4 19 5 20 6 21 7 22 8 23 9 24 10 25 11
REMARK SMILES IDX 26 12 27 13 28 14 29 15 30 16 14 17 13 18 12 19 11 20 10 21
REMARK SMILES IDX 9 22 8 23 7 24 6 25 5 26 4 27 3 28 2 29 1 30
REMARK H PARENT
REMARK Flexibility Score: inf
ROOT
ATOM      1  C   UNL     1      11.671  61.774  31.428  1.00  0.00     0.000 C 
ENDROOT
BRANCH   1   2
ATOM      2  C   UNL     1      11.541  62.735  32.620  1.00  0.00     0.000 C 
BRANCH   2   3
ATOM      3  C   UNL     1      12.618  62.459  33.676  1.00  0.00     0.000 C 
BRANCH   3   4
ATOM      4  C   UNL     1      12.752  60.952  33.939  1.00  0.00     0.000 C 
BRANCH   4   5
ATOM      5  C   UNL     1      14.213  60.494  34.072  1.00  0.00     0.000 C 
BRANCH   5   6
ATOM      6  C   UNL     1      15.138  61.611  34.581  1.00  0.00     0.000 C 
BRANCH   6   7
ATOM      7  C   UNL     1      16.604  61.421  34.145  1.00  0.00     0.000 C 
BRANCH   7   8
ATOM      8  C   UNL     1      17.608  62.405  34.774  1.00  0.00     0.000 C 
BRANCH   8   9
ATOM      9  C   UNL     1      18.622  63.030  33.796  1.00  0.00     0.000 C 
BRANCH   9  10
ATOM     10  C   UNL     1      18.683  62.328  32.422  1.00  0.00     0.000 C 
BRANCH  10  11
ATOM     11  C   UNL     1      18.862  63.321  31.259  1.00  0.00     0.000 C 
BRANCH  11  12
ATOM     12  C   UNL     1      20.192  64.099  31.348  1.00  0.00     0.006 C 
BRANCH  12  13
ATOM     13  C   UNL     1      21.346  63.430  30.585  1.00  0.00     0.053 C 
BRANCH  13  14
ATOM     14  C   UNL     1      22.488  63.075  31.484  1.00  0.00     0.041 C 
ATOM     15  O   UNL     1      22.401  63.261  32.726  1.00  0.00    -0.550 OA
ATOM     16  O   UNL     1      23.639  62.505  30.953  1.00  0.00    -0.550 OA
ENDBRANCH  13  14
ENDBRANCH  12  13
ENDBRANCH  11  12
ENDBRANCH  10  11
ENDBRANCH   9  10
ENDBRANCH   8   9
ENDBRANCH   7   8
ENDBRANCH   6   7
ENDBRANCH   5   6
ENDBRANCH   4   5
ENDBRANCH   3   4
ENDBRANCH   2   3
ENDBRANCH   1   2
BRANCH   1  17
ATOM     17  C   UNL     1      12.728  62.234  30.411  1.00  0.00     0.000 C 
BRANCH  17  18
ATOM     18  C   UNL     1      13.988  61.351  30.428  1.00  0.00     0.000 C 
BRANCH  18  19
ATOM     19  C   UNL     1      15.234  62.111  30.913  1.00  0.00     0.000 C 
BRANCH  19  20
ATOM     20  C   UNL     1      15.019  63.633  30.952  1.00  0.00     0.000 C 
BRANCH  20  21
ATOM     21  C   UNL     1      15.445  64.265  32.292  1.00  0.00     0.000 C 
BRANCH  21  22
ATOM     22  C   UNL     1      14.856  65.657  32.581  1.00  0.00    -0.000 C 
BRANCH  22  23
ATOM     23  C   UNL     1      15.103  66.126  34.025  1.00  0.00    -0.000 C 
BRANCH  23  24
ATOM     24  C   UNL     1      16.597  66.278  34.349  1.00  0.00    -0.000 C 
BRANCH  24  25
ATOM     25  C   UNL     1      16.875  67.350  35.413  1.00  0.00    -0.000 C 
BRANCH  25  26
ATOM     26  C   UNL     1      16.661  68.759  34.836  1.00  0.00    -0.000 C 
BRANCH  26  27
ATOM     27  C   UNL     1      17.496  69.017  33.572  1.00  0.00    -0.000 C 
BRANCH  27  28
ATOM     28  C   UNL     1      16.703  69.753  32.482  1.00  0.00    -0.000 C 
BRANCH  28  29
ATOM     29  C   UNL     1      15.220  69.367  32.528  1.00  0.00    -0.003 C 
ATOM     30  C   UNL     1      14.643  69.225  31.122  1.00  0.00     0.004 C 
ENDBRANCH  28  29
ENDBRANCH  27  28
ENDBRANCH  26  27
ENDBRANCH  25  26
ENDBRANCH  24  25
ENDBRANCH  23  24
ENDBRANCH  22  23
ENDBRANCH  21  22
ENDBRANCH  20  21
ENDBRANCH  19  20
ENDBRANCH  18  19
ENDBRANCH  17  18
ENDBRANCH   1  17
TORSDOF 26
ENDMDL
MODEL 2
REMARK VINA RESULT:    -4.511      3.515      7.771
REMARK INTER + INTRA:         -16.170
REMARK INTER:                 -11.766
REMARK INTRA:                  -4.405
REMARK UNBOUND:                -4.803
REMARK SMILES CCCCCCCCCCCCCCCCCCCCCCCCCCCC(=O)[O-]
REMARK SMILES IDX 15 1 16 2 17 3 18 4 19 5 20 6 21 7 22 8 23 9 24 10 25 11
REMARK SMILES IDX 26 12 27 13 28 14 29 15 30 16 14 17 13 18 12 19 11 20 10 21
REMARK SMILES IDX 9 22 8 23 7 24 6 25 5 26 4 27 3 28 2 29 1 30
REMARK H PARENT
REMARK Flexibility Score: inf
ROOT
ATOM      1  C   UNL     1      18.791  63.746  37.267  1.00  0.00     0.000 C 
ENDROOT
BRANCH   1   2
ATOM      2  C   UNL     1      19.671  65.002  37.165  1.00  0.00     0.000 C 
BRANCH   2   3
ATOM      3  C   UNL     1      19.794  65.705  38.522  1.00  0.00     0.000 C 
BRANCH   3   4
ATOM      4  C   UNL     1      18.560  65.433  39.393  1.00  0.00     0.000 C 
BRANCH   4   5
ATOM      5  C   UNL     1      17.535  66.578  39.357  1.00  0.00     0.000 C 
BRANCH   5   6
ATOM      6  C   UNL     1      18.124  67.913  39.837  1.00  0.00     0.000 C 
BRANCH   6   7
ATOM      7  C   UNL     1      18.059  69.018  38.765  1.00  0.00     0.000 C 
BRANCH   7   8
ATOM      8  C   UNL     1      19.383  69.296  38.028  1.00  0.00     0.000 C 
BRANCH   8   9
ATOM      9  C   UNL     1      19.315  69.208  36.492  1.00  0.00     0.000 C 
BRANCH   9  10
ATOM     10  C   UNL     1      17.943  68.754  35.948  1.00  0.00     0.000 C 
BRANCH  10  11
ATOM     11  C   UNL     1      17.577  69.439  34.619  1.00  0.00     0.000 C 
BRANCH  11  12
ATOM     12  C   UNL     1      16.413  68.732  33.893  1.00  0.00     0.006 C 
BRANCH  12  13
ATOM     13  C   UNL     1      15.830  69.548  32.729  1.00  0.00     0.053 C 
BRANCH  13  14
ATOM     14  C   UNL     1      14.941  68.725  31.851  1.00  0.00     0.041 C 
ATOM     15  O   UNL     1      14.786  67.496  32.077  1.00  0.00    -0.550 OA
ATOM     16  O   UNL     1      14.255  69.323  30.802  1.00  0.00    -0.550 OA
ENDBRANCH  13  14
ENDBRANCH  12  13
ENDBRANCH  11  12
ENDBRANCH  10  11
ENDBRANCH   9  10
ENDBRANCH   8   9
ENDBRANCH   7   8
ENDBRANCH   6   7
ENDBRANCH   5   6
ENDBRANCH   4   5
ENDBRANCH   3   4
ENDBRANCH   2   3
ENDBRANCH   1   2
BRANCH   1  17
ATOM     17  C   UNL     1      17.605  63.774  36.290  1.00  0.00     0.000 C 
BRANCH  17  18
ATOM     18  C   UNL     1      17.282  65.194  35.793  1.00  0.00     0.000 C 
BRANCH  18  19
ATOM     19  C   UNL     1      17.089  65.254  34.269  1.00  0.00     0.000 C 
BRANCH  19  20
ATOM     20  C   UNL     1      16.577  63.927  33.684  1.00  0.00     0.000 C 
BRANCH  20  21
ATOM     21  C   UNL     1      15.915  64.096  32.303  1.00  0.00     0.000 C 
BRANCH  21  22
ATOM     22  C   UNL     1      16.598  63.340  31.149  1.00  0.00    -0.000 C 
BRANCH  22  23
ATOM     23  C   UNL     1      17.779  62.472  31.615  1.00  0.00    -0.000 C 
BRANCH  23  24
ATOM     24  C   UNL     1      18.902  62.391  30.569  1.00  0.00    -0.000 C 
BRANCH  24  25
ATOM     25  C   UNL     1      19.496  63.764  30.219  1.00  0.00    -0.000 C 
BRANCH  25  26
ATOM     26  C   UNL     1      20.441  64.249  31.329  1.00  0.00    -0.000 C 
BRANCH  26  27
ATOM     27  C   UNL     1      21.605  63.279  31.585  1.00  0.00    -0.000 C 
BRANCH  27  28
ATOM     28  C   UNL     1      21.960  63.163  33.075  1.00  0.00    -0.000 C 
BRANCH  28  29
ATOM     29  C   UNL     1      20.706  63.286  33.948  1.00  0.00    -0.003 C 
ATOM     30  C   UNL     1      20.089  61.918  34.223  1.00  0.00     0.004 C 
ENDBRANCH  28  29
ENDBRANCH  27  28
ENDBRANCH  26  27
ENDBRANCH  25  26
ENDBRANCH  24  25
ENDBRANCH  23  24
ENDBRANCH  22  23
ENDBRANCH  21  22
ENDBRANCH  20  21
ENDBRANCH  19  20
ENDBRANCH  18  19
ENDBRANCH  17  18
ENDBRANCH   1  17
TORSDOF 26
ENDMDL
MODEL 3
REMARK VINA RESULT:    -4.338      2.379      6.758
REMARK INTER + INTRA:         -15.734
REMARK INTER:                 -11.848
REMARK INTRA:                  -3.886
REMARK UNBOUND:                -4.803
REMARK SMILES CCCCCCCCCCCCCCCCCCCCCCCCCCCC(=O)[O-]
REMARK SMILES IDX 15 1 16 2 17 3 18 4 19 5 20 6 21 7 22 8 23 9 24 10 25 11
REMARK SMILES IDX 26 12 27 13 28 14 29 15 30 16 14 17 13 18 12 19 11 20 10 21
REMARK SMILES IDX 9 22 8 23 7 24 6 25 5 26 4 27 3 28 2 29 1 30
REMARK H PARENT
REMARK Flexibility Score: inf
ROOT
ATOM      1  C   UNL     1      17.090  67.929  35.856  1.00  0.00     0.000 C 
ENDROOT
BRANCH   1   2
ATOM      2  C   UNL     1      18.353  68.781  36.059  1.00  0.00     0.000 C 
BRANCH   2   3
ATOM      3  C   UNL     1      18.489  69.233  37.518  1.00  0.00     0.000 C 
BRANCH   3   4
ATOM      4  C   UNL     1      19.718  68.589  38.177  1.00  0.00     0.000 C 
BRANCH   4   5
ATOM      5  C   UNL     1      19.350  67.579  39.275  1.00  0.00     0.000 C 
BRANCH   5   6
ATOM      6  C   UNL     1      17.835  67.340  39.374  1.00  0.00     0.000 C 
BRANCH   6   7
ATOM      7  C   UNL     1      17.435  65.886  39.062  1.00  0.00     0.000 C 
BRANCH   7   8
ATOM      8  C   UNL     1      18.577  64.856  39.155  1.00  0.00     0.000 C 
BRANCH   8   9
ATOM      9  C   UNL     1      18.840  64.043  37.873  1.00  0.00     0.000 C 
BRANCH   9  10
ATOM     10  C   UNL     1      18.486  64.792  36.570  1.00  0.00     0.000 C 
BRANCH  10  11
ATOM     11  C   UNL     1      18.450  63.862  35.344  1.00  0.00     0.000 C 
BRANCH  11  12
ATOM     12  C   UNL     1      19.573  62.805  35.375  1.00  0.00     0.006 C 
BRANCH  12  13
ATOM     13  C   UNL     1      20.974  63.390  35.134  1.00  0.00     0.053 C 
BRANCH  13  14
ATOM     14  C   UNL     1      21.562  62.936  33.836  1.00  0.00     0.041 C 
ATOM     15  O   UNL     1      22.271  61.896  33.788  1.00  0.00    -0.550 OA
ATOM     16  O   UNL     1      21.299  63.642  32.669  1.00  0.00    -0.550 OA
ENDBRANCH  13  14
ENDBRANCH  12  13
ENDBRANCH  11  12
ENDBRANCH  10  11
ENDBRANCH   9  10
ENDBRANCH   8   9
ENDBRANCH   7   8
ENDBRANCH   6   7
ENDBRANCH   5   6
ENDBRANCH   4   5
ENDBRANCH   3   4
ENDBRANCH   2   3
ENDBRANCH   1   2
BRANCH   1  17
ATOM     17  C   UNL     1      16.347  68.274  34.556  1.00  0.00     0.000 C 
BRANCH  17  18
ATOM     18  C   UNL     1      15.259  67.244  34.206  1.00  0.00     0.000 C 
BRANCH  18  19
ATOM     19  C   UNL     1      15.052  67.097  32.689  1.00  0.00     0.000 C 
BRANCH  19  20
ATOM     20  C   UNL     1      15.030  65.629  32.234  1.00  0.00     0.000 C 
BRANCH  20  21
ATOM     21  C   UNL     1      15.351  64.642  33.374  1.00  0.00     0.000 C 
BRANCH  21  22
ATOM     22  C   UNL     1      15.644  63.197  32.931  1.00  0.00    -0.000 C 
BRANCH  22  23
ATOM     23  C   UNL     1      15.470  62.986  31.417  1.00  0.00    -0.000 C 
BRANCH  23  24
ATOM     24  C   UNL     1      15.181  61.521  31.056  1.00  0.00    -0.000 C 
BRANCH  24  25
ATOM     25  C   UNL     1      13.875  61.343  30.268  1.00  0.00    -0.000 C 
BRANCH  25  26
ATOM     26  C   UNL     1      13.055  62.643  30.270  1.00  0.00    -0.000 C 
BRANCH  26  27
ATOM     27  C   UNL     1      11.842  62.579  31.212  1.00  0.00    -0.000 C 
BRANCH  27  28
ATOM     28  C   UNL     1      11.844  63.709  32.253  1.00  0.00    -0.000 C 
BRANCH  28  29
ATOM     29  C   UNL     1      11.934  63.143  33.675  1.00  0.00    -0.003 C 
ATOM     30  C   UNL     1      12.195  61.639  33.656  1.00  0.00     0.004 C 
ENDBRANCH  28  29
ENDBRANCH  27  28
ENDBRANCH  26  27
ENDBRANCH  25  26
ENDBRANCH  24  25
ENDBRANCH  23  24
ENDBRANCH  22  23
ENDBRANCH  21  22
ENDBRANCH  20  21
ENDBRANCH  19  20
ENDBRANCH  18  19
ENDBRANCH  17  18
ENDBRANCH   1  17
TORSDOF 26
ENDMDL
MODEL 4
REMARK VINA RESULT:    -4.326      4.254      8.785
REMARK INTER + INTRA:         -15.704
REMARK INTER:                 -12.003
REMARK INTRA:                  -3.701
REMARK UNBOUND:                -4.803
REMARK SMILES CCCCCCCCCCCCCCCCCCCCCCCCCCCC(=O)[O-]
REMARK SMILES IDX 15 1 16 2 17 3 18 4 19 5 20 6 21 7 22 8 23 9 24 10 25 11
REMARK SMILES IDX 26 12 27 13 28 14 29 15 30 16 14 17 13 18 12 19 11 20 10 21
REMARK SMILES IDX 9 22 8 23 7 24 6 25 5 26 4 27 3 28 2 29 1 30
REMARK H PARENT
REMARK Flexibility Score: inf
ROOT
ATOM      1  C   UNL     1      17.742  67.787  37.759  1.00  0.00     0.000 C 
ENDROOT
BRANCH   1   2
ATOM      2  C   UNL     1      18.972  68.159  36.916  1.00  0.00     0.000 C 
BRANCH   2   3
ATOM      3  C   UNL     1      18.686  69.372  36.022  1.00  0.00     0.000 C 
BRANCH   3   4
ATOM      4  C   UNL     1      17.472  69.112  35.119  1.00  0.00     0.000 C 
BRANCH   4   5
ATOM      5  C   UNL     1      17.215  70.248  34.117  1.00  0.00     0.000 C 
BRANCH   5   6
ATOM      6  C   UNL     1      16.745  69.733  32.747  1.00  0.00     0.000 C 
BRANCH   6   7
ATOM      7  C   UNL     1      15.318  69.153  32.782  1.00  0.00     0.000 C 
BRANCH   7   8
ATOM      8  C   UNL     1      15.204  67.666  32.397  1.00  0.00     0.000 C 
BRANCH   8   9
ATOM      9  C   UNL     1      15.199  66.677  33.579  1.00  0.00     0.000 C 
BRANCH   9  10
ATOM     10  C   UNL     1      14.238  65.482  33.395  1.00  0.00     0.000 C 
BRANCH  10  11
ATOM     11  C   UNL     1      14.658  64.559  32.237  1.00  0.00     0.000 C 
BRANCH  11  12
ATOM     12  C   UNL     1      14.027  63.155  32.346  1.00  0.00     0.006 C 
BRANCH  12  13
ATOM     13  C   UNL     1      12.661  63.040  31.651  1.00  0.00     0.053 C 
BRANCH  13  14
ATOM     14  C   UNL     1      11.564  62.707  32.613  1.00  0.00     0.041 C 
ATOM     15  O   UNL     1      10.708  61.831  32.321  1.00  0.00    -0.550 OA
ATOM     16  O   UNL     1      11.506  63.340  33.848  1.00  0.00    -0.550 OA
ENDBRANCH  13  14
ENDBRANCH  12  13
ENDBRANCH  11  12
ENDBRANCH  10  11
ENDBRANCH   9  10
ENDBRANCH   8   9
ENDBRANCH   7   8
ENDBRANCH   6   7
ENDBRANCH   5   6
ENDBRANCH   4   5
ENDBRANCH   3   4
ENDBRANCH   2   3
ENDBRANCH   1   2
BRANCH   1  17
ATOM     17  C   UNL     1      17.636  68.618  39.048  1.00  0.00     0.000 C 
BRANCH  17  18
ATOM     18  C   UNL     1      19.012  69.039  39.593  1.00  0.00     0.000 C 
BRANCH  18  19
ATOM     19  C   UNL     1      19.427  68.229  40.832  1.00  0.00     0.000 C 
BRANCH  19  20
ATOM     20  C   UNL     1      20.696  67.393  40.594  1.00  0.00     0.000 C 
BRANCH  20  21
ATOM     21  C   UNL     1      20.426  66.108  39.789  1.00  0.00     0.000 C 
BRANCH  21  22
ATOM     22  C   UNL     1      19.247  65.254  40.287  1.00  0.00    -0.000 C 
BRANCH  22  23
ATOM     23  C   UNL     1      18.517  64.516  39.150  1.00  0.00    -0.000 C 
BRANCH  23  24
ATOM     24  C   UNL     1      19.486  63.912  38.122  1.00  0.00    -0.000 C 
BRANCH  24  25
ATOM     25  C   UNL     1      19.254  64.439  36.698  1.00  0.00    -0.000 C 
BRANCH  25  26
ATOM     26  C   UNL     1      17.757  64.430  36.349  1.00  0.00    -0.000 C 
BRANCH  26  27
ATOM     27  C   UNL     1      17.498  64.524  34.837  1.00  0.00    -0.000 C 
BRANCH  27  28
ATOM     28  C   UNL     1      17.881  63.238  34.092  1.00  0.00    -0.000 C 
BRANCH  28  29
ATOM     29  C   UNL     1      18.758  63.550  32.874  1.00  0.00    -0.003 C 
ATOM     30  C   UNL     1      17.999  63.315  31.571  1.00  0.00     0.004 C 
ENDBRANCH  28  29
ENDBRANCH  27  28
ENDBRANCH  26  27
ENDBRANCH  25  26
ENDBRANCH  24  25
ENDBRANCH  23  24
ENDBRANCH  22  23
ENDBRANCH  21  22
ENDBRANCH  20  21
ENDBRANCH  19  20
ENDBRANCH  18  19
ENDBRANCH  17  18
ENDBRANCH   1  17
TORSDOF 26
ENDMDL
MODEL 5
REMARK VINA RESULT:    -4.304      3.553      7.986
REMARK INTER + INTRA:         -15.648
REMARK INTER:                 -12.331
REMARK INTRA:                  -3.318
REMARK UNBOUND:                -4.803
REMARK SMILES CCCCCCCCCCCCCCCCCCCCCCCCCCCC(=O)[O-]
REMARK SMILES IDX 15 1 16 2 17 3 18 4 19 5 20 6 21 7 22 8 23 9 24 10 25 11
REMARK SMILES IDX 26 12 27 13 28 14 29 15 30 16 14 17 13 18 12 19 11 20 10 21
REMARK SMILES IDX 9 22 8 23 7 24 6 25 5 26 4 27 3 28 2 29 1 30
REMARK H PARENT
REMARK Flexibility Score: inf
ROOT
ATOM      1  C   UNL     1      16.804  61.313  31.855  1.00  0.00     0.000 C 
ENDROOT
BRANCH   1   2
ATOM      2  C   UNL     1      17.335  62.562  31.135  1.00  0.00     0.000 C 
BRANCH   2   3
ATOM      3  C   UNL     1      16.334  63.721  31.222  1.00  0.00     0.000 C 
BRANCH   3   4
ATOM      4  C   UNL     1      16.492  64.481  32.548  1.00  0.00     0.000 C 
BRANCH   4   5
ATOM      5  C   UNL     1      15.232  64.424  33.425  1.00  0.00     0.000 C 
BRANCH   5   6
ATOM      6  C   UNL     1      14.472  65.760  33.455  1.00  0.00     0.000 C 
BRANCH   6   7
ATOM      7  C   UNL     1      15.187  66.874  32.667  1.00  0.00     0.000 C 
BRANCH   7   8
ATOM      8  C   UNL     1      15.722  68.041  33.519  1.00  0.00     0.000 C 
BRANCH   8   9
ATOM      9  C   UNL     1      15.699  67.810  35.042  1.00  0.00     0.000 C 
BRANCH   9  10
ATOM     10  C   UNL     1      17.099  67.716  35.685  1.00  0.00     0.000 C 
BRANCH  10  11
ATOM     11  C   UNL     1      17.867  69.049  35.629  1.00  0.00     0.000 C 
BRANCH  11  12
ATOM     12  C   UNL     1      19.015  69.111  36.659  1.00  0.00     0.006 C 
BRANCH  12  13
ATOM     13  C   UNL     1      18.984  67.964  37.682  1.00  0.00     0.053 C 
BRANCH  13  14
ATOM     14  C   UNL     1      18.706  68.451  39.069  1.00  0.00     0.041 C 
ATOM     15  O   UNL     1      17.616  69.020  39.336  1.00  0.00    -0.550 OA
ATOM     16  O   UNL     1      19.640  68.246  40.077  1.00  0.00    -0.550 OA
ENDBRANCH  13  14
ENDBRANCH  12  13
ENDBRANCH  11  12
ENDBRANCH  10  11
ENDBRANCH   9  10
ENDBRANCH   8   9
ENDBRANCH   7   8
ENDBRANCH   6   7
ENDBRANCH   5   6
ENDBRANCH   4   5
ENDBRANCH   3   4
ENDBRANCH   2   3
ENDBRANCH   1   2
BRANCH   1  17
ATOM     17  C   UNL     1      15.271  61.209  31.805  1.00  0.00     0.000 C 
BRANCH  17  18
ATOM     18  C   UNL     1      14.775  60.362  30.619  1.00  0.00     0.000 C 
BRANCH  18  19
ATOM     19  C   UNL     1      13.490  60.925  29.991  1.00  0.00     0.000 C 
BRANCH  19  20
ATOM     20  C   UNL     1      13.432  62.461  30.039  1.00  0.00     0.000 C 
BRANCH  20  21
ATOM     21  C   UNL     1      12.080  62.995  30.551  1.00  0.00     0.000 C 
BRANCH  21  22
ATOM     22  C   UNL     1      12.001  63.240  32.069  1.00  0.00    -0.000 C 
BRANCH  22  23
ATOM     23  C   UNL     1      11.017  62.295  32.779  1.00  0.00    -0.000 C 
BRANCH  23  24
ATOM     24  C   UNL     1      11.642  60.931  33.109  1.00  0.00    -0.000 C 
BRANCH  24  25
ATOM     25  C   UNL     1      10.905  59.757  32.448  1.00  0.00    -0.000 C 
BRANCH  25  26
ATOM     26  C   UNL     1       9.852  60.266  31.449  1.00  0.00    -0.000 C 
BRANCH  26  27
ATOM     27  C   UNL     1       8.422  59.856  31.833  1.00  0.00    -0.000 C 
BRANCH  27  28
ATOM     28  C   UNL     1       8.386  58.615  32.737  1.00  0.00    -0.000 C 
BRANCH  28  29
ATOM     29  C   UNL     1       6.943  58.234  33.087  1.00  0.00    -0.003 C 
ATOM     30  C   UNL     1       5.961  59.310  32.632  1.00  0.00     0.004 C 
ENDBRANCH  28  29
ENDBRANCH  27  28
ENDBRANCH  26  27
ENDBRANCH  25  26
ENDBRANCH  24  25
ENDBRANCH  23  24
ENDBRANCH  22  23
ENDBRANCH  21  22
ENDBRANCH  20  21
ENDBRANCH  19  20
ENDBRANCH  18  19
ENDBRANCH  17  18
ENDBRANCH   1  17
TORSDOF 26
ENDMDL
MODEL 6
REMARK VINA RESULT:    -4.284      2.623      4.966
REMARK INTER + INTRA:         -15.600
REMARK INTER:                 -10.912
REMARK INTRA:                  -4.688
REMARK UNBOUND:                -4.803
REMARK SMILES CCCCCCCCCCCCCCCCCCCCCCCCCCCC(=O)[O-]
REMARK SMILES IDX 15 1 16 2 17 3 18 4 19 5 20 6 21 7 22 8 23 9 24 10 25 11
REMARK SMILES IDX 26 12 27 13 28 14 29 15 30 16 14 17 13 18 12 19 11 20 10 21
REMARK SMILES IDX 9 22 8 23 7 24 6 25 5 26 4 27 3 28 2 29 1 30
REMARK H PARENT
REMARK Flexibility Score: inf
ROOT
ATOM      1  C   UNL     1      13.841  59.858  33.566  1.00  0.00     0.000 C 
ENDROOT
BRANCH   1   2
ATOM      2  C   UNL     1      14.479  60.408  34.852  1.00  0.00     0.000 C 
BRANCH   2   3
ATOM      3  C   UNL     1      15.658  61.336  34.534  1.00  0.00     0.000 C 
BRANCH   3   4
ATOM      4  C   UNL     1      16.944  60.527  34.308  1.00  0.00     0.000 C 
BRANCH   4   5
ATOM      5  C   UNL     1      17.863  61.147  33.243  1.00  0.00     0.000 C 
BRANCH   5   6
ATOM      6  C   UNL     1      19.253  61.499  33.795  1.00  0.00     0.000 C 
BRANCH   6   7
ATOM      7  C   UNL     1      19.456  63.014  33.990  1.00  0.00     0.000 C 
BRANCH   7   8
ATOM      8  C   UNL     1      19.297  63.517  35.437  1.00  0.00     0.000 C 
BRANCH   8   9
ATOM      9  C   UNL     1      17.862  63.896  35.851  1.00  0.00     0.000 C 
BRANCH   9  10
ATOM     10  C   UNL     1      17.544  65.401  35.710  1.00  0.00     0.000 C 
BRANCH  10  11
ATOM     11  C   UNL     1      16.958  66.004  37.000  1.00  0.00     0.000 C 
BRANCH  11  12
ATOM     12  C   UNL     1      17.355  67.483  37.191  1.00  0.00     0.006 C 
BRANCH  12  13
ATOM     13  C   UNL     1      18.874  67.709  37.250  1.00  0.00     0.053 C 
BRANCH  13  14
ATOM     14  C   UNL     1      19.487  67.113  38.479  1.00  0.00     0.041 C 
ATOM     15  O   UNL     1      19.067  67.440  39.620  1.00  0.00    -0.550 OA
ATOM     16  O   UNL     1      20.500  66.170  38.362  1.00  0.00    -0.550 OA
ENDBRANCH  13  14
ENDBRANCH  12  13
ENDBRANCH  11  12
ENDBRANCH  10  11
ENDBRANCH   9  10
ENDBRANCH   8   9
ENDBRANCH   7   8
ENDBRANCH   6   7
ENDBRANCH   5   6
ENDBRANCH   4   5
ENDBRANCH   3   4
ENDBRANCH   2   3
ENDBRANCH   1   2
BRANCH   1  17
ATOM     17  C   UNL     1      12.405  60.363  33.356  1.00  0.00     0.000 C 
BRANCH  17  18
ATOM     18  C   UNL     1      12.199  61.793  33.884  1.00  0.00     0.000 C 
BRANCH  18  19
ATOM     19  C   UNL     1      11.255  62.620  32.995  1.00  0.00     0.000 C 
BRANCH  19  20
ATOM     20  C   UNL     1      12.013  63.557  32.039  1.00  0.00     0.000 C 
BRANCH  20  21
ATOM     21  C   UNL     1      12.189  62.961  30.629  1.00  0.00     0.000 C 
BRANCH  21  22
ATOM     22  C   UNL     1      13.614  62.492  30.285  1.00  0.00    -0.000 C 
BRANCH  22  23
ATOM     23  C   UNL     1      14.604  62.675  31.449  1.00  0.00    -0.000 C 
BRANCH  23  24
ATOM     24  C   UNL     1      15.839  63.498  31.049  1.00  0.00    -0.000 C 
BRANCH  24  25
ATOM     25  C   UNL     1      16.361  64.388  32.187  1.00  0.00    -0.000 C 
BRANCH  25  26
ATOM     26  C   UNL     1      15.227  64.755  33.157  1.00  0.00    -0.000 C 
BRANCH  26  27
ATOM     27  C   UNL     1      14.655  66.158  32.899  1.00  0.00    -0.000 C 
BRANCH  27  28
ATOM     28  C   UNL     1      15.228  67.214  33.855  1.00  0.00    -0.000 C 
BRANCH  28  29
ATOM     29  C   UNL     1      15.752  68.429  33.079  1.00  0.00    -0.003 C 
ATOM     30  C   UNL     1      17.071  68.930  33.662  1.00  0.00     0.004 C 
ENDBRANCH  28  29
ENDBRANCH  27  28
ENDBRANCH  26  27
ENDBRANCH  25  26
ENDBRANCH  24  25
ENDBRANCH  23  24
ENDBRANCH  22  23
ENDBRANCH  21  22
ENDBRANCH  20  21
ENDBRANCH  19  20
ENDBRANCH  18  19
ENDBRANCH  17  18
ENDBRANCH   1  17
TORSDOF 26
ENDMDL
MODEL 7
REMARK VINA RESULT:    -4.270      3.525      8.131
REMARK INTER + INTRA:         -15.564
REMARK INTER:                 -11.894
REMARK INTRA:                  -3.670
REMARK UNBOUND:                -4.803
REMARK SMILES CCCCCCCCCCCCCCCCCCCCCCCCCCCC(=O)[O-]
REMARK SMILES IDX 15 1 16 2 17 3 18 4 19 5 20 6 21 7 22 8 23 9 24 10 25 11
REMARK SMILES IDX 26 12 27 13 28 14 29 15 30 16 14 17 13 18 12 19 11 20 10 21
REMARK SMILES IDX 9 22 8 23 7 24 6 25 5 26 4 27 3 28 2 29 1 30
REMARK H PARENT
REMARK Flexibility Score: inf
ROOT
ATOM      1  C   UNL     1      11.913  62.671  30.722  1.00  0.00     0.000 C 
ENDROOT
BRANCH   1   2
ATOM      2  C   UNL     1      13.363  62.677  30.214  1.00  0.00     0.000 C 
BRANCH   2   3
ATOM      3  C   UNL     1      14.003  61.290  30.347  1.00  0.00     0.000 C 
BRANCH   3   4
ATOM      4  C   UNL     1      15.345  61.375  31.089  1.00  0.00     0.000 C 
BRANCH   4   5
ATOM      5  C   UNL     1      15.618  62.768  31.677  1.00  0.00     0.000 C 
BRANCH   5   6
ATOM      6  C   UNL     1      17.000  63.314  31.286  1.00  0.00     0.000 C 
BRANCH   6   7
ATOM      7  C   UNL     1      18.044  63.164  32.410  1.00  0.00     0.000 C 
BRANCH   7   8
ATOM      8  C   UNL     1      17.851  64.105  33.614  1.00  0.00     0.000 C 
BRANCH   8   9
ATOM      9  C   UNL     1      17.969  63.439  34.998  1.00  0.00     0.000 C 
BRANCH   9  10
ATOM     10  C   UNL     1      18.524  64.369  36.099  1.00  0.00     0.000 C 
BRANCH  10  11
ATOM     11  C   UNL     1      17.416  65.162  36.815  1.00  0.00     0.000 C 
BRANCH  11  12
ATOM     12  C   UNL     1      17.214  66.568  36.211  1.00  0.00     0.006 C 
BRANCH  12  13
ATOM     13  C   UNL     1      17.414  67.706  37.225  1.00  0.00     0.053 C 
BRANCH  13  14
ATOM     14  C   UNL     1      18.501  68.648  36.811  1.00  0.00     0.041 C 
ATOM     15  O   UNL     1      19.672  68.497  37.246  1.00  0.00    -0.550 OA
ATOM     16  O   UNL     1      18.227  69.674  35.915  1.00  0.00    -0.550 OA
ENDBRANCH  13  14
ENDBRANCH  12  13
ENDBRANCH  11  12
ENDBRANCH  10  11
ENDBRANCH   9  10
ENDBRANCH   8   9
ENDBRANCH   7   8
ENDBRANCH   6   7
ENDBRANCH   5   6
ENDBRANCH   4   5
ENDBRANCH   3   4
ENDBRANCH   2   3
ENDBRANCH   1   2
BRANCH   1  17
ATOM     17  C   UNL     1      11.673  63.701  31.837  1.00  0.00     0.000 C 
BRANCH  17  18
ATOM     18  C   UNL     1      12.412  63.345  33.138  1.00  0.00     0.000 C 
BRANCH  18  19
ATOM     19  C   UNL     1      11.869  62.064  33.794  1.00  0.00     0.000 C 
BRANCH  19  20
ATOM     20  C   UNL     1      12.936  60.963  33.915  1.00  0.00     0.000 C 
BRANCH  20  21
ATOM     21  C   UNL     1      12.549  59.669  33.174  1.00  0.00     0.000 C 
BRANCH  21  22
ATOM     22  C   UNL     1      11.037  59.435  33.001  1.00  0.00    -0.000 C 
BRANCH  22  23
ATOM     23  C   UNL     1      10.596  59.428  31.527  1.00  0.00    -0.000 C 
BRANCH  23  24
ATOM     24  C   UNL     1       9.275  60.180  31.303  1.00  0.00    -0.000 C 
BRANCH  24  25
ATOM     25  C   UNL     1       8.354  59.488  30.288  1.00  0.00    -0.000 C 
BRANCH  25  26
ATOM     26  C   UNL     1       6.925  59.367  30.840  1.00  0.00    -0.000 C 
BRANCH  26  27
ATOM     27  C   UNL     1       6.834  59.711  32.335  1.00  0.00    -0.000 C 
BRANCH  27  28
ATOM     28  C   UNL     1       6.527  58.483  33.205  1.00  0.00    -0.000 C 
BRANCH  28  29
ATOM     29  C   UNL     1       7.806  57.931  33.845  1.00  0.00    -0.003 C 
ATOM     30  C   UNL     1       8.375  56.772  33.031  1.00  0.00     0.004 C 
ENDBRANCH  28  29
ENDBRANCH  27  28
ENDBRANCH  26  27
ENDBRANCH  25  26
ENDBRANCH  24  25
ENDBRANCH  23  24
ENDBRANCH  22  23
ENDBRANCH  21  22
ENDBRANCH  20  21
ENDBRANCH  19  20
ENDBRANCH  18  19
ENDBRANCH  17  18
ENDBRANCH   1  17
TORSDOF 26
ENDMDL
MODEL 8
REMARK VINA RESULT:    -4.233      3.420      6.827
REMARK INTER + INTRA:         -15.470
REMARK INTER:                 -10.852
REMARK INTRA:                  -4.618
REMARK UNBOUND:                -4.803
REMARK SMILES CCCCCCCCCCCCCCCCCCCCCCCCCCCC(=O)[O-]
REMARK SMILES IDX 15 1 16 2 17 3 18 4 19 5 20 6 21 7 22 8 23 9 24 10 25 11
REMARK SMILES IDX 26 12 27 13 28 14 29 15 30 16 14 17 13 18 12 19 11 20 10 21
REMARK SMILES IDX 9 22 8 23 7 24 6 25 5 26 4 27 3 28 2 29 1 30
REMARK H PARENT
REMARK Flexibility Score: inf
ROOT
ATOM      1  C   UNL     1      18.679  62.627  36.008  1.00  0.00     0.000 C 
ENDROOT
BRANCH   1   2
ATOM      2  C   UNL     1      20.018  63.216  35.537  1.00  0.00     0.000 C 
BRANCH   2   3
ATOM      3  C   UNL     1      20.580  62.433  34.344  1.00  0.00     0.000 C 
BRANCH   3   4
ATOM      4  C   UNL     1      21.601  63.277  33.568  1.00  0.00     0.000 C 
BRANCH   4   5
ATOM      5  C   UNL     1      21.460  63.137  32.044  1.00  0.00     0.000 C 
BRANCH   5   6
ATOM      6  C   UNL     1      20.480  64.158  31.445  1.00  0.00     0.000 C 
BRANCH   6   7
ATOM      7  C   UNL     1      19.575  63.553  30.354  1.00  0.00     0.000 C 
BRANCH   7   8
ATOM      8  C   UNL     1      18.357  62.767  30.874  1.00  0.00     0.000 C 
BRANCH   8   9
ATOM      9  C   UNL     1      17.688  63.345  32.136  1.00  0.00     0.000 C 
BRANCH   9  10
ATOM     10  C   UNL     1      16.728  62.364  32.845  1.00  0.00     0.000 C 
BRANCH  10  11
ATOM     11  C   UNL     1      15.427  63.043  33.309  1.00  0.00     0.000 C 
BRANCH  11  12
ATOM     12  C   UNL     1      14.821  63.958  32.225  1.00  0.00     0.006 C 
BRANCH  12  13
ATOM     13  C   UNL     1      13.288  64.048  32.284  1.00  0.00     0.053 C 
BRANCH  13  14
ATOM     14  C   UNL     1      12.627  62.958  31.499  1.00  0.00     0.041 C 
ATOM     15  O   UNL     1      11.697  62.281  32.010  1.00  0.00    -0.550 OA
ATOM     16  O   UNL     1      13.016  62.713  30.188  1.00  0.00    -0.550 OA
ENDBRANCH  13  14
ENDBRANCH  12  13
ENDBRANCH  11  12
ENDBRANCH  10  11
ENDBRANCH   9  10
ENDBRANCH   8   9
ENDBRANCH   7   8
ENDBRANCH   6   7
ENDBRANCH   5   6
ENDBRANCH   4   5
ENDBRANCH   3   4
ENDBRANCH   2   3
ENDBRANCH   1   2
BRANCH   1  17
ATOM     17  C   UNL     1      17.604  63.704  36.225  1.00  0.00     0.000 C 
BRANCH  17  18
ATOM     18  C   UNL     1      17.996  65.061  35.616  1.00  0.00     0.000 C 
BRANCH  18  19
ATOM     19  C   UNL     1      16.809  66.036  35.537  1.00  0.00     0.000 C 
BRANCH  19  20
ATOM     20  C   UNL     1      16.487  66.461  34.095  1.00  0.00     0.000 C 
BRANCH  20  21
ATOM     21  C   UNL     1      15.598  67.718  34.024  1.00  0.00     0.000 C 
BRANCH  21  22
ATOM     22  C   UNL     1      16.142  68.862  33.149  1.00  0.00    -0.000 C 
BRANCH  22  23
ATOM     23  C   UNL     1      17.553  69.314  33.563  1.00  0.00    -0.000 C 
BRANCH  23  24
ATOM     24  C   UNL     1      17.591  69.909  34.979  1.00  0.00    -0.000 C 
BRANCH  24  25
ATOM     25  C   UNL     1      18.813  69.453  35.789  1.00  0.00    -0.000 C 
BRANCH  25  26
ATOM     26  C   UNL     1      18.414  69.113  37.235  1.00  0.00    -0.000 C 
BRANCH  26  27
ATOM     27  C   UNL     1      19.085  67.831  37.751  1.00  0.00    -0.000 C 
BRANCH  27  28
ATOM     28  C   UNL     1      18.313  67.187  38.912  1.00  0.00    -0.000 C 
BRANCH  28  29
ATOM     29  C   UNL     1      19.124  66.051  39.546  1.00  0.00    -0.003 C 
ATOM     30  C   UNL     1      20.184  65.524  38.583  1.00  0.00     0.004 C 
ENDBRANCH  28  29
ENDBRANCH  27  28
ENDBRANCH  26  27
ENDBRANCH  25  26
ENDBRANCH  24  25
ENDBRANCH  23  24
ENDBRANCH  22  23
ENDBRANCH  21  22
ENDBRANCH  20  21
ENDBRANCH  19  20
ENDBRANCH  18  19
ENDBRANCH  17  18
ENDBRANCH   1  17
TORSDOF 26
ENDMDL
MODEL 9
REMARK VINA RESULT:    -4.219      3.662      8.734
REMARK INTER + INTRA:         -15.436
REMARK INTER:                 -13.407
REMARK INTRA:                  -2.029
REMARK UNBOUND:                -4.803
REMARK SMILES CCCCCCCCCCCCCCCCCCCCCCCCCCCC(=O)[O-]
REMARK SMILES IDX 15 1 16 2 17 3 18 4 19 5 20 6 21 7 22 8 23 9 24 10 25 11
REMARK SMILES IDX 26 12 27 13 28 14 29 15 30 16 14 17 13 18 12 19 11 20 10 21
REMARK SMILES IDX 9 22 8 23 7 24 6 25 5 26 4 27 3 28 2 29 1 30
REMARK H PARENT
REMARK Flexibility Score: inf
ROOT
ATOM      1  C   UNL     1      15.172  67.000  33.441  1.00  0.00     0.000 C 
ENDROOT
BRANCH   1   2
ATOM      2  C   UNL     1      15.016  67.928  32.226  1.00  0.00     0.000 C 
BRANCH   2   3
ATOM      3  C   UNL     1      15.442  69.362  32.564  1.00  0.00     0.000 C 
BRANCH   3   4
ATOM      4  C   UNL     1      16.919  69.409  32.982  1.00  0.00     0.000 C 
BRANCH   4   5
ATOM      5  C   UNL     1      17.160  70.259  34.240  1.00  0.00     0.000 C 
BRANCH   5   6
ATOM      6  C   UNL     1      17.963  69.509  35.314  1.00  0.00     0.000 C 
BRANCH   6   7
ATOM      7  C   UNL     1      17.157  68.381  35.987  1.00  0.00     0.000 C 
BRANCH   7   8
ATOM      8  C   UNL     1      17.917  67.583  37.064  1.00  0.00     0.000 C 
BRANCH   8   9
ATOM      9  C   UNL     1      19.317  68.122  37.419  1.00  0.00     0.000 C 
BRANCH   9  10
ATOM     10  C   UNL     1      19.410  68.750  38.826  1.00  0.00     0.000 C 
BRANCH  10  11
ATOM     11  C   UNL     1      19.392  67.695  39.947  1.00  0.00     0.000 C 
BRANCH  11  12
ATOM     12  C   UNL     1      20.353  66.520  39.665  1.00  0.00     0.006 C 
BRANCH  12  13
ATOM     13  C   UNL     1      19.727  65.140  39.922  1.00  0.00     0.053 C 
BRANCH  13  14
ATOM     14  C   UNL     1      19.788  64.258  38.715  1.00  0.00     0.041 C 
ATOM     15  O   UNL     1      19.588  63.020  38.822  1.00  0.00    -0.550 OA
ATOM     16  O   UNL     1      20.031  64.809  37.463  1.00  0.00    -0.550 OA
ENDBRANCH  13  14
ENDBRANCH  12  13
ENDBRANCH  11  12
ENDBRANCH  10  11
ENDBRANCH   9  10
ENDBRANCH   8   9
ENDBRANCH   7   8
ENDBRANCH   6   7
ENDBRANCH   5   6
ENDBRANCH   4   5
ENDBRANCH   3   4
ENDBRANCH   2   3
ENDBRANCH   1   2
BRANCH   1  17
ATOM     17  C   UNL     1      15.435  65.540  33.040  1.00  0.00     0.000 C 
BRANCH  17  18
ATOM     18  C   UNL     1      14.144  64.786  32.676  1.00  0.00     0.000 C 
BRANCH  18  19
ATOM     19  C   UNL     1      14.385  63.664  31.653  1.00  0.00     0.000 C 
BRANCH  19  20
ATOM     20  C   UNL     1      13.086  62.951  31.240  1.00  0.00     0.000 C 
BRANCH  20  21
ATOM     21  C   UNL     1      11.873  63.374  32.090  1.00  0.00     0.000 C 
BRANCH  21  22
ATOM     22  C   UNL     1      11.471  62.386  33.201  1.00  0.00    -0.000 C 
BRANCH  22  23
ATOM     23  C   UNL     1      11.897  60.939  32.901  1.00  0.00    -0.000 C 
BRANCH  23  24
ATOM     24  C   UNL     1      10.698  59.996  32.719  1.00  0.00    -0.000 C 
BRANCH  24  25
ATOM     25  C   UNL     1      10.197  59.936  31.268  1.00  0.00    -0.000 C 
BRANCH  25  26
ATOM     26  C   UNL     1       9.233  58.754  31.072  1.00  0.00    -0.000 C 
BRANCH  26  27
ATOM     27  C   UNL     1       8.088  58.745  32.097  1.00  0.00    -0.000 C 
BRANCH  27  28
ATOM     28  C   UNL     1       6.970  59.735  31.741  1.00  0.00    -0.000 C 
BRANCH  28  29
ATOM     29  C   UNL     1       5.935  59.821  32.869  1.00  0.00    -0.003 C 
ATOM     30  C   UNL     1       6.138  58.705  33.891  1.00  0.00     0.004 C 
ENDBRANCH  28  29
ENDBRANCH  27  28
ENDBRANCH  26  27
ENDBRANCH  25  26
ENDBRANCH  24  25
ENDBRANCH  23  24
ENDBRANCH  22  23
ENDBRANCH  21  22
ENDBRANCH  20  21
ENDBRANCH  19  20
ENDBRANCH  18  19
ENDBRANCH  17  18
ENDBRANCH   1  17
TORSDOF 26
ENDMDL
