MODEL 1
REMARK VINA RESULT:    -5.590      0.000      0.000
REMARK INTER + INTRA:          -6.701
REMARK INTER:                  -6.571
REMARK INTRA:                  -0.130
REMARK UNBOUND:                -0.130
REMARK SMILES O=C([O-])C=Cc1ccc(O)c(O)c1
REMARK SMILES IDX 6 1 13 2 7 3 11 4 8 5 9 6 5 7 4 8 2 9 1 10 3 11 12 12 10 14
REMARK H PARENT 12 13 10 15
REMARK Flexibility Score: inf
ROOT
ATOM      1  C   UNL     1       9.608  68.987  -0.145  1.00  0.00    -0.022 A 
ATOM      2  C   UNL     1       9.930  69.763   0.982  1.00  0.00     0.058 A 
ATOM      3  C   UNL     1       9.237  67.640   0.041  1.00  0.00     0.012 A 
ATOM      4  C   UNL     1       9.860  69.217   2.272  1.00  0.00     0.157 A 
ATOM      5  C   UNL     1       9.167  67.097   1.327  1.00  0.00     0.051 A 
ATOM      6  C   UNL     1       9.475  67.883   2.444  1.00  0.00     0.157 A 
ENDROOT
BRANCH   1   7
ATOM      7  C   UNL     1       9.708  69.609  -1.488  1.00  0.00     0.010 C 
ATOM      8  C   UNL     1      10.836  70.137  -1.982  1.00  0.00     0.025 C 
BRANCH   8   9
ATOM      9  C   UNL     1      10.890  70.734  -3.326  1.00  0.00     0.064 C 
ATOM     10  O   UNL     1       9.933  70.556  -4.124  1.00  0.00    -0.545 OA
ATOM     11  O   UNL     1      11.984  71.490  -3.733  1.00  0.00    -0.545 OA
ENDBRANCH   8   9
ENDBRANCH   1   7
BRANCH   4  12
ATOM     12  O   UNL     1      10.171  69.996   3.386  1.00  0.00    -0.504 OA
ATOM     13  H   UNL     1      10.426  70.972   3.296  1.00  0.00     0.293 HD
ENDBRANCH   4  12
BRANCH   6  14
ATOM     14  O   UNL     1       9.406  67.343   3.728  1.00  0.00    -0.504 OA
ATOM     15  H   UNL     1      10.157  67.466   4.396  1.00  0.00     0.293 HD
ENDBRANCH   6  14
TORSDOF 4
ENDMDL
MODEL 2
REMARK VINA RESULT:    -5.546      1.840      5.357
REMARK INTER + INTRA:          -6.649
REMARK INTER:                  -6.520
REMARK INTRA:                  -0.128
REMARK UNBOUND:                -0.130
REMARK SMILES O=C([O-])C=Cc1ccc(O)c(O)c1
REMARK SMILES IDX 6 1 13 2 7 3 11 4 8 5 9 6 5 7 4 8 2 9 1 10 3 11 12 12 10 14
REMARK H PARENT 12 13 10 15
REMARK Flexibility Score: inf
ROOT
ATOM      1  C   UNL     1       9.689  69.221   0.480  1.00  0.00    -0.022 A 
ATOM      2  C   UNL     1       9.589  69.908  -0.742  1.00  0.00     0.058 A 
ATOM      3  C   UNL     1       9.626  67.813   0.474  1.00  0.00     0.012 A 
ATOM      4  C   UNL     1       9.454  69.208  -1.950  1.00  0.00     0.157 A 
ATOM      5  C   UNL     1       9.493  67.116  -0.730  1.00  0.00     0.051 A 
ATOM      6  C   UNL     1       9.409  67.809  -1.943  1.00  0.00     0.157 A 
ENDROOT
BRANCH   1   7
ATOM      7  C   UNL     1       9.820  70.009   1.730  1.00  0.00     0.010 C 
ATOM      8  C   UNL     1       8.776  70.454   2.443  1.00  0.00     0.025 C 
BRANCH   8   9
ATOM      9  C   UNL     1       8.954  71.223   3.685  1.00  0.00     0.064 C 
ATOM     10  O   UNL     1       9.834  70.870   4.513  1.00  0.00    -0.545 OA
ATOM     11  O   UNL     1       8.165  72.333   3.961  1.00  0.00    -0.545 OA
ENDBRANCH   8   9
ENDBRANCH   1   7
BRANCH   4  12
ATOM     12  O   UNL     1       9.367  69.896  -3.159  1.00  0.00    -0.504 OA
ATOM     13  H   UNL     1       9.628  70.872  -3.233  1.00  0.00     0.293 HD
ENDBRANCH   4  12
BRANCH   6  14
ATOM     14  O   UNL     1       9.276  67.116  -3.145  1.00  0.00    -0.504 OA
ATOM     15  H   UNL     1      10.080  66.735  -3.629  1.00  0.00     0.293 HD
ENDBRANCH   6  14
TORSDOF 4
ENDMDL
MODEL 3
REMARK VINA RESULT:    -5.520      0.851      1.889
REMARK INTER + INTRA:          -6.618
REMARK INTER:                  -6.493
REMARK INTRA:                  -0.125
REMARK UNBOUND:                -0.130
REMARK SMILES O=C([O-])C=Cc1ccc(O)c(O)c1
REMARK SMILES IDX 6 1 13 2 7 3 11 4 8 5 9 6 5 7 4 8 2 9 1 10 3 11 12 12 10 14
REMARK H PARENT 12 13 10 15
REMARK Flexibility Score: inf
ROOT
ATOM      1  C   UNL     1       9.707  69.324   0.094  1.00  0.00    -0.022 A 
ATOM      2  C   UNL     1       9.137  68.040   0.137  1.00  0.00     0.058 A 
ATOM      3  C   UNL     1      10.159  69.907   1.295  1.00  0.00     0.012 A 
ATOM      4  C   UNL     1       9.041  67.338   1.348  1.00  0.00     0.157 A 
ATOM      5  C   UNL     1      10.064  69.207   2.501  1.00  0.00     0.051 A 
ATOM      6  C   UNL     1       9.508  67.922   2.531  1.00  0.00     0.157 A 
ENDROOT
BRANCH   1   7
ATOM      7  C   UNL     1       9.775  70.028  -1.210  1.00  0.00     0.010 C 
ATOM      8  C   UNL     1      10.839  69.989  -2.023  1.00  0.00     0.025 C 
BRANCH   8   9
ATOM      9  C   UNL     1      10.857  70.694  -3.314  1.00  0.00     0.064 C 
ATOM     10  O   UNL     1       9.873  70.590  -4.092  1.00  0.00    -0.545 OA
ATOM     11  O   UNL     1      11.945  71.473  -3.692  1.00  0.00    -0.545 OA
ENDBRANCH   8   9
ENDBRANCH   1   7
BRANCH   4  12
ATOM     12  O   UNL     1       8.484  66.061   1.381  1.00  0.00    -0.504 OA
ATOM     13  H   UNL     1       8.951  65.291   1.846  1.00  0.00     0.293 HD
ENDBRANCH   4  12
BRANCH   6  14
ATOM     14  O   UNL     1       9.412  67.222   3.732  1.00  0.00    -0.504 OA
ATOM     15  H   UNL     1       8.570  67.245   4.294  1.00  0.00     0.293 HD
ENDBRANCH   6  14
TORSDOF 4
ENDMDL
MODEL 4
REMARK VINA RESULT:    -5.513      2.440      5.359
REMARK INTER + INTRA:          -6.610
REMARK INTER:                  -6.487
REMARK INTRA:                  -0.123
REMARK UNBOUND:                -0.130
REMARK SMILES O=C([O-])C=Cc1ccc(O)c(O)c1
REMARK SMILES IDX 6 1 13 2 7 3 11 4 8 5 9 6 5 7 4 8 2 9 1 10 3 11 12 12 10 14
REMARK H PARENT 12 13 10 15
REMARK Flexibility Score: inf
ROOT
ATOM      1  C   UNL     1       9.617  69.477   0.254  1.00  0.00    -0.022 A 
ATOM      2  C   UNL     1       9.812  68.089   0.353  1.00  0.00     0.058 A 
ATOM      3  C   UNL     1       9.339  70.036  -1.009  1.00  0.00     0.012 A 
ATOM      4  C   UNL     1       9.708  67.268  -0.779  1.00  0.00     0.157 A 
ATOM      5  C   UNL     1       9.234  69.217  -2.137  1.00  0.00     0.051 A 
ATOM      6  C   UNL     1       9.416  67.833  -2.025  1.00  0.00     0.157 A 
ENDROOT
BRANCH   1   7
ATOM      7  C   UNL     1       9.749  70.302   1.481  1.00  0.00     0.010 C 
ATOM      8  C   UNL     1       8.812  70.371   2.436  1.00  0.00     0.025 C 
BRANCH   8   9
ATOM      9  C   UNL     1       8.992  71.195   3.642  1.00  0.00     0.064 C 
ATOM     10  O   UNL     1       9.897  70.901   4.466  1.00  0.00    -0.545 OA
ATOM     11  O   UNL     1       8.176  72.293   3.890  1.00  0.00    -0.545 OA
ENDBRANCH   8   9
ENDBRANCH   1   7
BRANCH   4  12
ATOM     12  O   UNL     1       9.892  65.891  -0.672  1.00  0.00    -0.504 OA
ATOM     13  H   UNL     1       9.544  65.370   0.124  1.00  0.00     0.293 HD
ENDBRANCH   4  12
BRANCH   6  14
ATOM     14  O   UNL     1       9.312  67.015  -3.149  1.00  0.00    -0.504 OA
ATOM     15  H   UNL     1      10.109  66.830  -3.746  1.00  0.00     0.293 HD
ENDBRANCH   6  14
TORSDOF 4
ENDMDL
MODEL 5
REMARK VINA RESULT:    -5.364      1.366      5.736
REMARK INTER + INTRA:          -6.434
REMARK INTER:                  -6.302
REMARK INTRA:                  -0.132
REMARK UNBOUND:                -0.130
REMARK SMILES O=C([O-])C=Cc1ccc(O)c(O)c1
REMARK SMILES IDX 6 1 13 2 7 3 11 4 8 5 9 6 5 7 4 8 2 9 1 10 3 11 12 12 10 14
REMARK H PARENT 12 13 10 15
REMARK Flexibility Score: inf
ROOT
ATOM      1  C   UNL     1       9.982  69.719  -0.668  1.00  0.00    -0.022 A 
ATOM      2  C   UNL     1      10.266  71.093  -0.604  1.00  0.00     0.058 A 
ATOM      3  C   UNL     1      10.236  69.027  -1.869  1.00  0.00     0.012 A 
ATOM      4  C   UNL     1      10.817  71.763  -1.706  1.00  0.00     0.157 A 
ATOM      5  C   UNL     1      10.786  69.695  -2.967  1.00  0.00     0.051 A 
ATOM      6  C   UNL     1      11.080  71.062  -2.888  1.00  0.00     0.157 A 
ENDROOT
BRANCH   1   7
ATOM      7  C   UNL     1       9.390  69.059   0.522  1.00  0.00     0.010 C 
ATOM      8  C   UNL     1       9.865  67.928   1.061  1.00  0.00     0.025 C 
BRANCH   8   9
ATOM      9  C   UNL     1       9.251  67.316   2.250  1.00  0.00     0.064 C 
ATOM     10  O   UNL     1       9.435  67.837   3.381  1.00  0.00    -0.545 OA
ATOM     11  O   UNL     1       8.474  66.169   2.147  1.00  0.00    -0.545 OA
ENDBRANCH   8   9
ENDBRANCH   1   7
BRANCH   4  12
ATOM     12  O   UNL     1      11.106  73.125  -1.632  1.00  0.00    -0.504 OA
ATOM     13  H   UNL     1      11.180  73.697  -2.465  1.00  0.00     0.293 HD
ENDBRANCH   4  12
BRANCH   6  14
ATOM     14  O   UNL     1      11.628  71.730  -3.982  1.00  0.00    -0.504 OA
ATOM     15  H   UNL     1      11.136  71.796  -4.865  1.00  0.00     0.293 HD
ENDBRANCH   6  14
TORSDOF 4
ENDMDL
MODEL 6
REMARK VINA RESULT:    -5.292      2.682      3.490
REMARK INTER + INTRA:          -6.350
REMARK INTER:                  -6.221
REMARK INTRA:                  -0.130
REMARK UNBOUND:                -0.130
REMARK SMILES O=C([O-])C=Cc1ccc(O)c(O)c1
REMARK SMILES IDX 6 1 13 2 7 3 11 4 8 5 9 6 5 7 4 8 2 9 1 10 3 11 12 12 10 14
REMARK H PARENT 12 13 10 15
REMARK Flexibility Score: inf
ROOT
ATOM      1  C   UNL     1       9.614  69.513   1.028  1.00  0.00    -0.022 A 
ATOM      2  C   UNL     1       9.661  70.912   0.907  1.00  0.00     0.058 A 
ATOM      3  C   UNL     1       9.290  68.950   2.278  1.00  0.00     0.012 A 
ATOM      4  C   UNL     1       9.367  71.738   2.002  1.00  0.00     0.157 A 
ATOM      5  C   UNL     1       8.996  69.773   3.369  1.00  0.00     0.051 A 
ATOM      6  C   UNL     1       9.031  71.166   3.234  1.00  0.00     0.157 A 
ENDROOT
BRANCH   1   7
ATOM      7  C   UNL     1       9.944  68.686  -0.159  1.00  0.00     0.010 C 
ATOM      8  C   UNL     1       9.109  67.784  -0.694  1.00  0.00     0.025 C 
BRANCH   8   9
ATOM      9  C   UNL     1       9.476  66.994  -1.879  1.00  0.00     0.064 C 
ATOM     10  O   UNL     1       9.440  67.529  -3.018  1.00  0.00    -0.545 OA
ATOM     11  O   UNL     1       9.859  65.663  -1.765  1.00  0.00    -0.545 OA
ENDBRANCH   8   9
ENDBRANCH   1   7
BRANCH   4  12
ATOM     12  O   UNL     1       9.406  73.125   1.871  1.00  0.00    -0.504 OA
ATOM     13  H   UNL     1       9.247  73.737   2.663  1.00  0.00     0.293 HD
ENDBRANCH   4  12
BRANCH   6  14
ATOM     14  O   UNL     1       8.738  71.989   4.321  1.00  0.00    -0.504 OA
ATOM     15  H   UNL     1       9.251  72.845   4.491  1.00  0.00     0.293 HD
ENDBRANCH   6  14
TORSDOF 4
ENDMDL
MODEL 7
REMARK VINA RESULT:    -5.162      1.780      5.767
REMARK INTER + INTRA:          -6.197
REMARK INTER:                  -6.064
REMARK INTRA:                  -0.133
REMARK UNBOUND:                -0.130
REMARK SMILES O=C([O-])C=Cc1ccc(O)c(O)c1
REMARK SMILES IDX 6 1 13 2 7 3 11 4 8 5 9 6 5 7 4 8 2 9 1 10 3 11 12 12 10 14
REMARK H PARENT 12 13 10 15
REMARK Flexibility Score: inf
ROOT
ATOM      1  C   UNL     1       9.811  70.266  -0.209  1.00  0.00    -0.022 A 
ATOM      2  C   UNL     1      10.479  71.394  -0.714  1.00  0.00     0.058 A 
ATOM      3  C   UNL     1       9.494  69.214  -1.091  1.00  0.00     0.012 A 
ATOM      4  C   UNL     1      10.849  71.465  -2.065  1.00  0.00     0.157 A 
ATOM      5  C   UNL     1       9.864  69.283  -2.437  1.00  0.00     0.051 A 
ATOM      6  C   UNL     1      10.543  70.406  -2.927  1.00  0.00     0.157 A 
ENDROOT
BRANCH   1   7
ATOM      7  C   UNL     1       9.433  70.246   1.226  1.00  0.00     0.010 C 
ATOM      8  C   UNL     1       9.602  71.285   2.055  1.00  0.00     0.025 C 
BRANCH   8   9
ATOM      9  C   UNL     1       9.200  71.224   3.469  1.00  0.00     0.064 C 
ATOM     10  O   UNL     1       9.811  70.452   4.255  1.00  0.00    -0.545 OA
ATOM     11  O   UNL     1       8.156  72.002   3.954  1.00  0.00    -0.545 OA
ENDBRANCH   8   9
ENDBRANCH   1   7
BRANCH   4  12
ATOM     12  O   UNL     1      11.521  72.583  -2.556  1.00  0.00    -0.504 OA
ATOM     13  H   UNL     1      11.021  73.387  -2.914  1.00  0.00     0.293 HD
ENDBRANCH   4  12
BRANCH   6  14
ATOM     14  O   UNL     1      10.912  70.478  -4.269  1.00  0.00    -0.504 OA
ATOM     15  H   UNL     1      10.530  71.183  -4.887  1.00  0.00     0.293 HD
ENDBRANCH   6  14
TORSDOF 4
ENDMDL
MODEL 8
REMARK VINA RESULT:    -5.035      1.572      5.914
REMARK INTER + INTRA:          -6.049
REMARK INTER:                  -5.925
REMARK INTRA:                  -0.124
REMARK UNBOUND:                -0.130
REMARK SMILES O=C([O-])C=Cc1ccc(O)c(O)c1
REMARK SMILES IDX 6 1 13 2 7 3 11 4 8 5 9 6 5 7 4 8 2 9 1 10 3 11 12 12 10 14
REMARK H PARENT 12 13 10 15
REMARK Flexibility Score: inf
ROOT
ATOM      1  C   UNL     1       9.881  70.183  -0.341  1.00  0.00    -0.022 A 
ATOM      2  C   UNL     1      10.406  69.852  -1.601  1.00  0.00     0.058 A 
ATOM      3  C   UNL     1       9.986  71.513   0.111  1.00  0.00     0.012 A 
ATOM      4  C   UNL     1      11.002  70.832  -2.409  1.00  0.00     0.157 A 
ATOM      5  C   UNL     1      10.579  72.489  -0.694  1.00  0.00     0.051 A 
ATOM      6  C   UNL     1      11.086  72.153  -1.956  1.00  0.00     0.157 A 
ENDROOT
BRANCH   1   7
ATOM      7  C   UNL     1       9.271  69.107   0.479  1.00  0.00     0.010 C 
ATOM      8  C   UNL     1       9.964  68.328   1.321  1.00  0.00     0.025 C 
BRANCH   8   9
ATOM      9  C   UNL     1       9.313  67.280   2.123  1.00  0.00     0.064 C 
ATOM     10  O   UNL     1       9.423  67.300   3.378  1.00  0.00    -0.545 OA
ATOM     11  O   UNL     1       8.580  66.265   1.520  1.00  0.00    -0.545 OA
ENDBRANCH   8   9
ENDBRANCH   1   7
BRANCH   4  12
ATOM     12  O   UNL     1      11.511  70.498  -3.663  1.00  0.00    -0.504 OA
ATOM     13  H   UNL     1      11.873  69.573  -3.860  1.00  0.00     0.293 HD
ENDBRANCH   4  12
BRANCH   6  14
ATOM     14  O   UNL     1      11.677  73.124  -2.761  1.00  0.00    -0.504 OA
ATOM     15  H   UNL     1      12.578  72.973  -3.200  1.00  0.00     0.293 HD
ENDBRANCH   6  14
TORSDOF 4
ENDMDL
MODEL 9
REMARK VINA RESULT:    -4.947      1.174      2.242
REMARK INTER + INTRA:          -5.944
REMARK INTER:                  -5.805
REMARK INTRA:                  -0.139
REMARK UNBOUND:                -0.130
REMARK SMILES O=C([O-])C=Cc1ccc(O)c(O)c1
REMARK SMILES IDX 6 1 13 2 7 3 11 4 8 5 9 6 5 7 4 8 2 9 1 10 3 11 12 12 10 14
REMARK H PARENT 12 13 10 15
REMARK Flexibility Score: inf
ROOT
ATOM      1  C   UNL     1      10.024  70.258   0.399  1.00  0.00    -0.022 A 
ATOM      2  C   UNL     1       9.871  69.106   1.189  1.00  0.00     0.058 A 
ATOM      3  C   UNL     1       9.871  71.521   1.005  1.00  0.00     0.012 A 
ATOM      4  C   UNL     1       9.596  69.207   2.560  1.00  0.00     0.157 A 
ATOM      5  C   UNL     1       9.599  71.622   2.372  1.00  0.00     0.051 A 
ATOM      6  C   UNL     1       9.463  70.467   3.153  1.00  0.00     0.157 A 
ENDROOT
BRANCH   1   7
ATOM      7  C   UNL     1      10.303  70.096  -1.049  1.00  0.00     0.010 C 
ATOM      8  C   UNL     1      10.532  71.119  -1.883  1.00  0.00     0.025 C 
BRANCH   8   9
ATOM      9  C   UNL     1      10.816  70.909  -3.311  1.00  0.00     0.064 C 
ATOM     10  O   UNL     1       9.977  70.305  -4.029  1.00  0.00    -0.545 OA
ATOM     11  O   UNL     1      11.999  71.365  -3.882  1.00  0.00    -0.545 OA
ENDBRANCH   8   9
ENDBRANCH   1   7
BRANCH   4  12
ATOM     12  O   UNL     1       9.457  68.059   3.339  1.00  0.00    -0.504 OA
ATOM     13  H   UNL     1       8.729  67.379   3.155  1.00  0.00     0.293 HD
ENDBRANCH   4  12
BRANCH   6  14
ATOM     14  O   UNL     1       9.191  70.565   4.516  1.00  0.00    -0.504 OA
ATOM     15  H   UNL     1       8.256  70.753   4.859  1.00  0.00     0.293 HD
ENDBRANCH   6  14
TORSDOF 4
ENDMDL
