MODEL 1
REMARK VINA RESULT:    -4.585      0.000      0.000
REMARK INTER + INTRA:         -16.231
REMARK INTER:                 -11.553
REMARK INTRA:                  -4.677
REMARK UNBOUND:                -4.677
REMARK SMILES CCCCCCCCCCCCCCCCCCCCCCCCCCCC(=O)[O-]
REMARK SMILES IDX 15 1 16 2 17 3 18 4 19 5 20 6 21 7 22 8 23 9 24 10 25 11
REMARK SMILES IDX 26 12 27 13 28 14 29 15 30 16 14 17 13 18 12 19 11 20 10 21
REMARK SMILES IDX 9 22 8 23 7 24 6 25 5 26 4 27 3 28 2 29 1 30
REMARK H PARENT
REMARK Flexibility Score: inf
ROOT
ATOM      1  C   UNL     1       0.994 -21.799  -5.347  1.00  0.00     0.000 C 
ENDROOT
BRANCH   1   2
ATOM      2  C   UNL     1       0.282 -22.108  -6.673  1.00  0.00     0.000 C 
BRANCH   2   3
ATOM      3  C   UNL     1       1.240 -22.119  -7.874  1.00  0.00     0.000 C 
BRANCH   3   4
ATOM      4  C   UNL     1       1.615 -20.703  -8.350  1.00  0.00     0.000 C 
BRANCH   4   5
ATOM      5  C   UNL     1       3.018 -20.272  -7.871  1.00  0.00     0.000 C 
BRANCH   5   6
ATOM      6  C   UNL     1       3.002 -19.228  -6.737  1.00  0.00     0.000 C 
BRANCH   6   7
ATOM      7  C   UNL     1       4.309 -18.438  -6.561  1.00  0.00     0.000 C 
BRANCH   7   8
ATOM      8  C   UNL     1       4.230 -17.396  -5.437  1.00  0.00     0.000 C 
BRANCH   8   9
ATOM      9  C   UNL     1       2.832 -16.771  -5.362  1.00  0.00     0.000 C 
BRANCH   9  10
ATOM     10  C   UNL     1       2.706 -15.851  -4.139  1.00  0.00     0.000 C 
BRANCH  10  11
ATOM     11  C   UNL     1       1.493 -16.216  -3.255  1.00  0.00     0.000 C 
BRANCH  11  12
ATOM     12  C   UNL     1       1.662 -15.791  -1.784  1.00  0.00     0.006 C 
BRANCH  12  13
ATOM     13  C   UNL     1       2.837 -16.476  -1.072  1.00  0.00     0.053 C 
BRANCH  13  14
ATOM     14  C   UNL     1       3.864 -15.486  -0.612  1.00  0.00     0.041 C 
ATOM     15  O   UNL     1       3.504 -14.398  -0.091  1.00  0.00    -0.550 OA
ATOM     16  O   UNL     1       5.217 -15.773  -0.738  1.00  0.00    -0.550 OA
ENDBRANCH  13  14
ENDBRANCH  12  13
ENDBRANCH  11  12
ENDBRANCH  10  11
ENDBRANCH   9  10
ENDBRANCH   8   9
ENDBRANCH   7   8
ENDBRANCH   6   7
ENDBRANCH   5   6
ENDBRANCH   4   5
ENDBRANCH   3   4
ENDBRANCH   2   3
ENDBRANCH   1   2
BRANCH   1  17
ATOM     17  C   UNL     1       0.131 -20.893  -4.462  1.00  0.00     0.000 C 
BRANCH  17  18
ATOM     18  C   UNL     1       0.934 -19.690  -3.947  1.00  0.00     0.000 C 
BRANCH  18  19
ATOM     19  C   UNL     1       1.696 -19.988  -2.643  1.00  0.00     0.000 C 
BRANCH  19  20
ATOM     20  C   UNL     1       3.202 -19.657  -2.710  1.00  0.00     0.000 C 
BRANCH  20  21
ATOM     21  C   UNL     1       3.977 -20.646  -3.599  1.00  0.00     0.000 C 
BRANCH  21  22
ATOM     22  C   UNL     1       5.498 -20.395  -3.575  1.00  0.00    -0.000 C 
BRANCH  22  23
ATOM     23  C   UNL     1       6.271 -21.104  -4.706  1.00  0.00    -0.000 C 
BRANCH  23  24
ATOM     24  C   UNL     1       5.377 -21.913  -5.667  1.00  0.00    -0.000 C 
BRANCH  24  25
ATOM     25  C   UNL     1       6.081 -22.227  -6.999  1.00  0.00    -0.000 C 
BRANCH  25  26
ATOM     26  C   UNL     1       7.444 -21.526  -7.135  1.00  0.00    -0.000 C 
BRANCH  26  27
ATOM     27  C   UNL     1       7.641 -20.748  -8.448  1.00  0.00    -0.000 C 
BRANCH  27  28
ATOM     28  C   UNL     1       6.918 -19.390  -8.450  1.00  0.00    -0.000 C 
BRANCH  28  29
ATOM     29  C   UNL     1       6.669 -18.858  -9.870  1.00  0.00    -0.003 C 
ATOM     30  C   UNL     1       7.247 -17.459 -10.083  1.00  0.00     0.004 C 
ENDBRANCH  28  29
ENDBRANCH  27  28
ENDBRANCH  26  27
ENDBRANCH  25  26
ENDBRANCH  24  25
ENDBRANCH  23  24
ENDBRANCH  22  23
ENDBRANCH  21  22
ENDBRANCH  20  21
ENDBRANCH  19  20
ENDBRANCH  18  19
ENDBRANCH  17  18
ENDBRANCH   1  17
TORSDOF 26
ENDMDL
MODEL 2
REMARK VINA RESULT:    -4.416      1.668      2.131
REMARK INTER + INTRA:         -15.807
REMARK INTER:                 -10.446
REMARK INTRA:                  -5.361
REMARK UNBOUND:                -4.677
REMARK SMILES CCCCCCCCCCCCCCCCCCCCCCCCCCCC(=O)[O-]
REMARK SMILES IDX 15 1 16 2 17 3 18 4 19 5 20 6 21 7 22 8 23 9 24 10 25 11
REMARK SMILES IDX 26 12 27 13 28 14 29 15 30 16 14 17 13 18 12 19 11 20 10 21
REMARK SMILES IDX 9 22 8 23 7 24 6 25 5 26 4 27 3 28 2 29 1 30
REMARK H PARENT
REMARK Flexibility Score: inf
ROOT
ATOM      1  C   UNL     1       0.151 -21.341  -5.073  1.00  0.00     0.000 C 
ENDROOT
BRANCH   1   2
ATOM      2  C   UNL     1       1.285 -21.806  -6.001  1.00  0.00     0.000 C 
BRANCH   2   3
ATOM      3  C   UNL     1       0.907 -21.725  -7.488  1.00  0.00     0.000 C 
BRANCH   3   4
ATOM      4  C   UNL     1       1.743 -20.688  -8.259  1.00  0.00     0.000 C 
BRANCH   4   5
ATOM      5  C   UNL     1       3.231 -20.708  -7.850  1.00  0.00     0.000 C 
BRANCH   5   6
ATOM      6  C   UNL     1       3.770 -19.345  -7.371  1.00  0.00     0.000 C 
BRANCH   6   7
ATOM      7  C   UNL     1       2.853 -18.589  -6.396  1.00  0.00     0.000 C 
BRANCH   7   8
ATOM      8  C   UNL     1       3.591 -17.498  -5.607  1.00  0.00     0.000 C 
BRANCH   8   9
ATOM      9  C   UNL     1       5.078 -17.462  -5.975  1.00  0.00     0.000 C 
BRANCH   9  10
ATOM     10  C   UNL     1       5.938 -17.102  -4.755  1.00  0.00     0.000 C 
BRANCH  10  11
ATOM     11  C   UNL     1       5.170 -16.239  -3.730  1.00  0.00     0.000 C 
BRANCH  11  12
ATOM     12  C   UNL     1       5.339 -16.723  -2.278  1.00  0.00     0.006 C 
BRANCH  12  13
ATOM     13  C   UNL     1       6.529 -17.672  -2.076  1.00  0.00     0.053 C 
BRANCH  13  14
ATOM     14  C   UNL     1       7.192 -17.459  -0.749  1.00  0.00     0.041 C 
ATOM     15  O   UNL     1       7.074 -16.357  -0.152  1.00  0.00    -0.550 OA
ATOM     16  O   UNL     1       7.923 -18.484  -0.160  1.00  0.00    -0.550 OA
ENDBRANCH  13  14
ENDBRANCH  12  13
ENDBRANCH  11  12
ENDBRANCH  10  11
ENDBRANCH   9  10
ENDBRANCH   8   9
ENDBRANCH   7   8
ENDBRANCH   6   7
ENDBRANCH   5   6
ENDBRANCH   4   5
ENDBRANCH   3   4
ENDBRANCH   2   3
ENDBRANCH   1   2
BRANCH   1  17
ATOM     17  C   UNL     1       0.622 -20.198  -4.167  1.00  0.00     0.000 C 
BRANCH  17  18
ATOM     18  C   UNL     1       0.687 -20.641  -2.699  1.00  0.00     0.000 C 
BRANCH  18  19
ATOM     19  C   UNL     1       2.021 -20.284  -2.020  1.00  0.00     0.000 C 
BRANCH  19  20
ATOM     20  C   UNL     1       3.140 -19.892  -3.009  1.00  0.00     0.000 C 
BRANCH  20  21
ATOM     21  C   UNL     1       4.426 -20.709  -2.785  1.00  0.00     0.000 C 
BRANCH  21  22
ATOM     22  C   UNL     1       5.423 -20.570  -3.953  1.00  0.00    -0.000 C 
BRANCH  22  23
ATOM     23  C   UNL     1       5.310 -21.684  -5.014  1.00  0.00    -0.000 C 
BRANCH  23  24
ATOM     24  C   UNL     1       6.318 -21.553  -6.172  1.00  0.00    -0.000 C 
BRANCH  24  25
ATOM     25  C   UNL     1       7.305 -20.391  -5.964  1.00  0.00    -0.000 C 
BRANCH  25  26
ATOM     26  C   UNL     1       7.893 -19.863  -7.285  1.00  0.00    -0.000 C 
BRANCH  26  27
ATOM     27  C   UNL     1       7.263 -20.460  -8.555  1.00  0.00    -0.000 C 
BRANCH  27  28
ATOM     28  C   UNL     1       7.004 -19.405  -9.644  1.00  0.00    -0.000 C 
BRANCH  28  29
ATOM     29  C   UNL     1       6.868 -17.987  -9.068  1.00  0.00    -0.003 C 
ATOM     30  C   UNL     1       7.074 -16.902 -10.125  1.00  0.00     0.004 C 
ENDBRANCH  28  29
ENDBRANCH  27  28
ENDBRANCH  26  27
ENDBRANCH  25  26
ENDBRANCH  24  25
ENDBRANCH  23  24
ENDBRANCH  22  23
ENDBRANCH  21  22
ENDBRANCH  20  21
ENDBRANCH  19  20
ENDBRANCH  18  19
ENDBRANCH  17  18
ENDBRANCH   1  17
TORSDOF 26
ENDMDL
MODEL 3
REMARK VINA RESULT:    -4.350      1.476      3.649
REMARK INTER + INTRA:         -15.638
REMARK INTER:                 -10.072
REMARK INTRA:                  -5.567
REMARK UNBOUND:                -4.677
REMARK SMILES CCCCCCCCCCCCCCCCCCCCCCCCCCCC(=O)[O-]
REMARK SMILES IDX 15 1 16 2 17 3 18 4 19 5 20 6 21 7 22 8 23 9 24 10 25 11
REMARK SMILES IDX 26 12 27 13 28 14 29 15 30 16 14 17 13 18 12 19 11 20 10 21
REMARK SMILES IDX 9 22 8 23 7 24 6 25 5 26 4 27 3 28 2 29 1 30
REMARK H PARENT
REMARK Flexibility Score: inf
ROOT
ATOM      1  C   UNL     1       1.441 -22.016  -7.413  1.00  0.00     0.000 C 
ENDROOT
BRANCH   1   2
ATOM      2  C   UNL     1       0.189 -21.707  -6.577  1.00  0.00     0.000 C 
BRANCH   2   3
ATOM      3  C   UNL     1       0.480 -21.648  -5.069  1.00  0.00     0.000 C 
BRANCH   3   4
ATOM      4  C   UNL     1       0.596 -20.207  -4.541  1.00  0.00     0.000 C 
BRANCH   4   5
ATOM      5  C   UNL     1       2.012 -19.884  -4.016  1.00  0.00     0.000 C 
BRANCH   5   6
ATOM      6  C   UNL     1       2.726 -18.757  -4.790  1.00  0.00     0.000 C 
BRANCH   6   7
ATOM      7  C   UNL     1       1.818 -17.918  -5.703  1.00  0.00     0.000 C 
BRANCH   7   8
ATOM      8  C   UNL     1       2.388 -16.521  -5.990  1.00  0.00     0.000 C 
BRANCH   8   9
ATOM      9  C   UNL     1       2.453 -15.679  -4.711  1.00  0.00     0.000 C 
BRANCH   9  10
ATOM     10  C   UNL     1       1.081 -15.611  -4.026  1.00  0.00     0.000 C 
BRANCH  10  11
ATOM     11  C   UNL     1       1.144 -16.042  -2.543  1.00  0.00     0.000 C 
BRANCH  11  12
ATOM     12  C   UNL     1       2.560 -15.950  -1.943  1.00  0.00     0.006 C 
BRANCH  12  13
ATOM     13  C   UNL     1       3.116 -17.296  -1.457  1.00  0.00     0.053 C 
BRANCH  13  14
ATOM     14  C   UNL     1       4.520 -17.522  -1.929  1.00  0.00     0.041 C 
ATOM     15  O   UNL     1       4.984 -18.690  -1.997  1.00  0.00    -0.550 OA
ATOM     16  O   UNL     1       5.309 -16.446  -2.315  1.00  0.00    -0.550 OA
ENDBRANCH  13  14
ENDBRANCH  12  13
ENDBRANCH  11  12
ENDBRANCH  10  11
ENDBRANCH   9  10
ENDBRANCH   8   9
ENDBRANCH   7   8
ENDBRANCH   6   7
ENDBRANCH   5   6
ENDBRANCH   4   5
ENDBRANCH   3   4
ENDBRANCH   2   3
ENDBRANCH   1   2
BRANCH   1  17
ATOM     17  C   UNL     1       1.875 -20.788  -8.221  1.00  0.00     0.000 C 
BRANCH  17  18
ATOM     18  C   UNL     1       3.318 -20.385  -7.889  1.00  0.00     0.000 C 
BRANCH  18  19
ATOM     19  C   UNL     1       4.005 -21.354  -6.911  1.00  0.00     0.000 C 
BRANCH  19  20
ATOM     20  C   UNL     1       5.528 -21.136  -6.780  1.00  0.00     0.000 C 
BRANCH  20  21
ATOM     21  C   UNL     1       6.335 -22.338  -7.303  1.00  0.00     0.000 C 
BRANCH  21  22
ATOM     22  C   UNL     1       7.594 -21.909  -8.083  1.00  0.00    -0.000 C 
BRANCH  22  23
ATOM     23  C   UNL     1       7.827 -20.385  -8.114  1.00  0.00    -0.000 C 
BRANCH  23  24
ATOM     24  C   UNL     1       7.451 -19.718  -9.452  1.00  0.00    -0.000 C 
BRANCH  24  25
ATOM     25  C   UNL     1       6.575 -18.467  -9.260  1.00  0.00    -0.000 C 
BRANCH  25  26
ATOM     26  C   UNL     1       6.876 -17.723  -7.946  1.00  0.00    -0.000 C 
BRANCH  26  27
ATOM     27  C   UNL     1       5.697 -17.656  -6.959  1.00  0.00    -0.000 C 
BRANCH  27  28
ATOM     28  C   UNL     1       6.151 -17.488  -5.500  1.00  0.00    -0.000 C 
BRANCH  28  29
ATOM     29  C   UNL     1       7.550 -18.072  -5.248  1.00  0.00    -0.003 C 
ATOM     30  C   UNL     1       7.517 -19.310  -4.352  1.00  0.00     0.004 C 
ENDBRANCH  28  29
ENDBRANCH  27  28
ENDBRANCH  26  27
ENDBRANCH  25  26
ENDBRANCH  24  25
ENDBRANCH  23  24
ENDBRANCH  22  23
ENDBRANCH  21  22
ENDBRANCH  20  21
ENDBRANCH  19  20
ENDBRANCH  18  19
ENDBRANCH  17  18
ENDBRANCH   1  17
TORSDOF 26
ENDMDL
MODEL 4
REMARK VINA RESULT:    -4.345      2.260      4.233
REMARK INTER + INTRA:         -15.626
REMARK INTER:                 -10.461
REMARK INTRA:                  -5.165
REMARK UNBOUND:                -4.677
REMARK SMILES CCCCCCCCCCCCCCCCCCCCCCCCCCCC(=O)[O-]
REMARK SMILES IDX 15 1 16 2 17 3 18 4 19 5 20 6 21 7 22 8 23 9 24 10 25 11
REMARK SMILES IDX 26 12 27 13 28 14 29 15 30 16 14 17 13 18 12 19 11 20 10 21
REMARK SMILES IDX 9 22 8 23 7 24 6 25 5 26 4 27 3 28 2 29 1 30
REMARK H PARENT
REMARK Flexibility Score: inf
ROOT
ATOM      1  C   UNL     1       1.091 -22.242  -7.501  1.00  0.00     0.000 C 
ENDROOT
BRANCH   1   2
ATOM      2  C   UNL     1      -0.022 -21.952  -6.482  1.00  0.00     0.000 C 
BRANCH   2   3
ATOM      3  C   UNL     1       0.509 -21.803  -5.048  1.00  0.00     0.000 C 
BRANCH   3   4
ATOM      4  C   UNL     1       0.359 -20.370  -4.503  1.00  0.00     0.000 C 
BRANCH   4   5
ATOM      5  C   UNL     1       1.202 -20.132  -3.232  1.00  0.00     0.000 C 
BRANCH   5   6
ATOM      6  C   UNL     1       1.653 -18.670  -3.043  1.00  0.00     0.000 C 
BRANCH   6   7
ATOM      7  C   UNL     1       2.760 -18.461  -1.997  1.00  0.00     0.000 C 
BRANCH   7   8
ATOM      8  C   UNL     1       3.973 -17.703  -2.555  1.00  0.00     0.000 C 
BRANCH   8   9
ATOM      9  C   UNL     1       5.273 -18.185  -1.901  1.00  0.00     0.000 C 
BRANCH   9  10
ATOM     10  C   UNL     1       5.626 -19.607  -2.361  1.00  0.00     0.000 C 
BRANCH  10  11
ATOM     11  C   UNL     1       6.967 -20.098  -1.769  1.00  0.00     0.000 C 
BRANCH  11  12
ATOM     12  C   UNL     1       7.825 -18.962  -1.182  1.00  0.00     0.006 C 
BRANCH  12  13
ATOM     13  C   UNL     1       8.301 -19.224   0.254  1.00  0.00     0.053 C 
BRANCH  13  14
ATOM     14  C   UNL     1       8.119 -18.021   1.129  1.00  0.00     0.041 C 
ATOM     15  O   UNL     1       8.366 -18.092   2.362  1.00  0.00    -0.550 OA
ATOM     16  O   UNL     1       7.700 -16.815   0.582  1.00  0.00    -0.550 OA
ENDBRANCH  13  14
ENDBRANCH  12  13
ENDBRANCH  11  12
ENDBRANCH  10  11
ENDBRANCH   9  10
ENDBRANCH   8   9
ENDBRANCH   7   8
ENDBRANCH   6   7
ENDBRANCH   5   6
ENDBRANCH   4   5
ENDBRANCH   3   4
ENDBRANCH   2   3
ENDBRANCH   1   2
BRANCH   1  17
ATOM     17  C   UNL     1       1.473 -20.972  -8.270  1.00  0.00     0.000 C 
BRANCH  17  18
ATOM     18  C   UNL     1       2.894 -20.513  -7.916  1.00  0.00     0.000 C 
BRANCH  18  19
ATOM     19  C   UNL     1       2.926 -19.461  -6.793  1.00  0.00     0.000 C 
BRANCH  19  20
ATOM     20  C   UNL     1       3.974 -19.749  -5.696  1.00  0.00     0.000 C 
BRANCH  20  21
ATOM     21  C   UNL     1       4.185 -21.257  -5.476  1.00  0.00     0.000 C 
BRANCH  21  22
ATOM     22  C   UNL     1       5.673 -21.660  -5.541  1.00  0.00    -0.000 C 
BRANCH  22  23
ATOM     23  C   UNL     1       6.161 -22.036  -6.955  1.00  0.00    -0.000 C 
BRANCH  23  24
ATOM     24  C   UNL     1       7.426 -21.278  -7.405  1.00  0.00    -0.000 C 
BRANCH  24  25
ATOM     25  C   UNL     1       7.199 -20.473  -8.697  1.00  0.00    -0.000 C 
BRANCH  25  26
ATOM     26  C   UNL     1       6.583 -19.087  -8.437  1.00  0.00    -0.000 C 
BRANCH  26  27
ATOM     27  C   UNL     1       7.009 -18.430  -7.112  1.00  0.00    -0.000 C 
BRANCH  27  28
ATOM     28  C   UNL     1       6.247 -17.126  -6.821  1.00  0.00    -0.000 C 
BRANCH  28  29
ATOM     29  C   UNL     1       6.292 -16.738  -5.335  1.00  0.00    -0.003 C 
ATOM     30  C   UNL     1       7.537 -17.271  -4.626  1.00  0.00     0.004 C 
ENDBRANCH  28  29
ENDBRANCH  27  28
ENDBRANCH  26  27
ENDBRANCH  25  26
ENDBRANCH  24  25
ENDBRANCH  23  24
ENDBRANCH  22  23
ENDBRANCH  21  22
ENDBRANCH  20  21
ENDBRANCH  19  20
ENDBRANCH  18  19
ENDBRANCH  17  18
ENDBRANCH   1  17
TORSDOF 26
ENDMDL
MODEL 5
REMARK VINA RESULT:    -4.307      1.576      3.017
REMARK INTER + INTRA:         -15.530
REMARK INTER:                  -9.892
REMARK INTRA:                  -5.638
REMARK UNBOUND:                -4.677
REMARK SMILES CCCCCCCCCCCCCCCCCCCCCCCCCCCC(=O)[O-]
REMARK SMILES IDX 15 1 16 2 17 3 18 4 19 5 20 6 21 7 22 8 23 9 24 10 25 11
REMARK SMILES IDX 26 12 27 13 28 14 29 15 30 16 14 17 13 18 12 19 11 20 10 21
REMARK SMILES IDX 9 22 8 23 7 24 6 25 5 26 4 27 3 28 2 29 1 30
REMARK H PARENT
REMARK Flexibility Score: inf
ROOT
ATOM      1  C   UNL     1       1.245 -21.771  -7.877  1.00  0.00     0.000 C 
ENDROOT
BRANCH   1   2
ATOM      2  C   UNL     1       2.159 -20.547  -8.045  1.00  0.00     0.000 C 
BRANCH   2   3
ATOM      3  C   UNL     1       3.494 -20.695  -7.300  1.00  0.00     0.000 C 
BRANCH   3   4
ATOM      4  C   UNL     1       4.326 -19.400  -7.305  1.00  0.00     0.000 C 
BRANCH   4   5
ATOM      5  C   UNL     1       3.612 -18.238  -6.581  1.00  0.00     0.000 C 
BRANCH   5   6
ATOM      6  C   UNL     1       4.560 -17.311  -5.794  1.00  0.00     0.000 C 
BRANCH   6   7
ATOM      7  C   UNL     1       6.002 -17.253  -6.325  1.00  0.00     0.000 C 
BRANCH   7   8
ATOM      8  C   UNL     1       7.030 -16.943  -5.227  1.00  0.00     0.000 C 
BRANCH   8   9
ATOM      9  C   UNL     1       6.342 -16.447  -3.951  1.00  0.00     0.000 C 
BRANCH   9  10
ATOM     10  C   UNL     1       6.727 -17.316  -2.744  1.00  0.00     0.000 C 
BRANCH  10  11
ATOM     11  C   UNL     1       5.597 -17.393  -1.693  1.00  0.00     0.000 C 
BRANCH  11  12
ATOM     12  C   UNL     1       4.329 -16.621  -2.105  1.00  0.00     0.006 C 
BRANCH  12  13
ATOM     13  C   UNL     1       3.153 -16.799  -1.134  1.00  0.00     0.053 C 
BRANCH  13  14
ATOM     14  C   UNL     1       2.279 -15.582  -1.089  1.00  0.00     0.041 C 
ATOM     15  O   UNL     1       2.586 -14.609  -0.353  1.00  0.00    -0.550 OA
ATOM     16  O   UNL     1       1.136 -15.514  -1.876  1.00  0.00    -0.550 OA
ENDBRANCH  13  14
ENDBRANCH  12  13
ENDBRANCH  11  12
ENDBRANCH  10  11
ENDBRANCH   9  10
ENDBRANCH   8   9
ENDBRANCH   7   8
ENDBRANCH   6   7
ENDBRANCH   5   6
ENDBRANCH   4   5
ENDBRANCH   3   4
ENDBRANCH   2   3
ENDBRANCH   1   2
BRANCH   1  17
ATOM     17  C   UNL     1       1.266 -22.273  -6.429  1.00  0.00     0.000 C 
BRANCH  17  18
ATOM     18  C   UNL     1       0.075 -21.723  -5.632  1.00  0.00     0.000 C 
BRANCH  18  19
ATOM     19  C   UNL     1       0.499 -20.981  -4.351  1.00  0.00     0.000 C 
BRANCH  19  20
ATOM     20  C   UNL     1       0.942 -19.522  -4.591  1.00  0.00     0.000 C 
BRANCH  20  21
ATOM     21  C   UNL     1       1.943 -19.036  -3.528  1.00  0.00     0.000 C 
BRANCH  21  22
ATOM     22  C   UNL     1       2.818 -20.178  -2.974  1.00  0.00    -0.000 C 
BRANCH  22  23
ATOM     23  C   UNL     1       4.208 -20.283  -3.634  1.00  0.00    -0.000 C 
BRANCH  23  24
ATOM     24  C   UNL     1       5.309 -20.819  -2.698  1.00  0.00    -0.000 C 
BRANCH  24  25
ATOM     25  C   UNL     1       6.649 -21.028  -3.426  1.00  0.00    -0.000 C 
BRANCH  25  26
ATOM     26  C   UNL     1       6.600 -20.597  -4.902  1.00  0.00    -0.000 C 
BRANCH  26  27
ATOM     27  C   UNL     1       7.844 -20.975  -5.725  1.00  0.00    -0.000 C 
BRANCH  27  28
ATOM     28  C   UNL     1       7.938 -20.203  -7.052  1.00  0.00    -0.000 C 
BRANCH  28  29
ATOM     29  C   UNL     1       7.589 -21.077  -8.267  1.00  0.00    -0.003 C 
ATOM     30  C   UNL     1       7.407 -22.550  -7.898  1.00  0.00     0.004 C 
ENDBRANCH  28  29
ENDBRANCH  27  28
ENDBRANCH  26  27
ENDBRANCH  25  26
ENDBRANCH  24  25
ENDBRANCH  23  24
ENDBRANCH  22  23
ENDBRANCH  21  22
ENDBRANCH  20  21
ENDBRANCH  19  20
ENDBRANCH  18  19
ENDBRANCH  17  18
ENDBRANCH   1  17
TORSDOF 26
ENDMDL
MODEL 6
REMARK VINA RESULT:    -4.294     12.489     14.537
REMARK INTER + INTRA:         -15.497
REMARK INTER:                 -11.651
REMARK INTRA:                  -3.846
REMARK UNBOUND:                -4.677
REMARK SMILES CCCCCCCCCCCCCCCCCCCCCCCCCCCC(=O)[O-]
REMARK SMILES IDX 15 1 16 2 17 3 18 4 19 5 20 6 21 7 22 8 23 9 24 10 25 11
REMARK SMILES IDX 26 12 27 13 28 14 29 15 30 16 14 17 13 18 12 19 11 20 10 21
REMARK SMILES IDX 9 22 8 23 7 24 6 25 5 26 4 27 3 28 2 29 1 30
REMARK H PARENT
REMARK Flexibility Score: inf
ROOT
ATOM      1  C   UNL     1      -7.551 -23.406  -2.087  1.00  0.00     0.000 C 
ENDROOT
BRANCH   1   2
ATOM      2  C   UNL     1      -7.831 -22.203  -1.172  1.00  0.00     0.000 C 
BRANCH   2   3
ATOM      3  C   UNL     1      -9.183 -22.308  -0.450  1.00  0.00     0.000 C 
BRANCH   3   4
ATOM      4  C   UNL     1      -9.554 -21.022   0.311  1.00  0.00     0.000 C 
BRANCH   4   5
ATOM      5  C   UNL     1     -10.809 -20.336  -0.269  1.00  0.00     0.000 C 
BRANCH   5   6
ATOM      6  C   UNL     1     -10.506 -19.085  -1.118  1.00  0.00     0.000 C 
BRANCH   6   7
ATOM      7  C   UNL     1      -9.192 -18.366  -0.770  1.00  0.00     0.000 C 
BRANCH   7   8
ATOM      8  C   UNL     1      -9.404 -16.902  -0.357  1.00  0.00     0.000 C 
BRANCH   8   9
ATOM      9  C   UNL     1      -9.275 -16.734   1.161  1.00  0.00     0.000 C 
BRANCH   9  10
ATOM     10  C   UNL     1     -10.601 -17.056   1.865  1.00  0.00     0.000 C 
BRANCH  10  11
ATOM     11  C   UNL     1     -10.436 -18.135   2.959  1.00  0.00     0.000 C 
BRANCH  11  12
ATOM     12  C   UNL     1      -8.973 -18.559   3.180  1.00  0.00     0.006 C 
BRANCH  12  13
ATOM     13  C   UNL     1      -8.498 -18.413   4.633  1.00  0.00     0.053 C 
BRANCH  13  14
ATOM     14  C   UNL     1      -7.421 -19.400   4.970  1.00  0.00     0.041 C 
ATOM     15  O   UNL     1      -7.708 -20.469   5.569  1.00  0.00    -0.550 OA
ATOM     16  O   UNL     1      -6.105 -19.150   4.603  1.00  0.00    -0.550 OA
ENDBRANCH  13  14
ENDBRANCH  12  13
ENDBRANCH  11  12
ENDBRANCH  10  11
ENDBRANCH   9  10
ENDBRANCH   8   9
ENDBRANCH   7   8
ENDBRANCH   6   7
ENDBRANCH   5   6
ENDBRANCH   4   5
ENDBRANCH   3   4
ENDBRANCH   2   3
ENDBRANCH   1   2
BRANCH   1  17
ATOM     17  C   UNL     1      -8.374 -24.624  -1.656  1.00  0.00     0.000 C 
BRANCH  17  18
ATOM     18  C   UNL     1      -8.963 -25.357  -2.870  1.00  0.00     0.000 C 
BRANCH  18  19
ATOM     19  C   UNL     1      -9.385 -26.802  -2.554  1.00  0.00     0.000 C 
BRANCH  19  20
ATOM     20  C   UNL     1      -9.129 -27.224  -1.091  1.00  0.00     0.000 C 
BRANCH  20  21
ATOM     21  C   UNL     1     -10.136 -28.282  -0.605  1.00  0.00     0.000 C 
BRANCH  21  22
ATOM     22  C   UNL     1      -9.622 -29.722  -0.807  1.00  0.00    -0.000 C 
BRANCH  22  23
ATOM     23  C   UNL     1      -8.103 -29.884  -0.594  1.00  0.00    -0.000 C 
BRANCH  23  24
ATOM     24  C   UNL     1      -7.370 -30.544  -1.778  1.00  0.00    -0.000 C 
BRANCH  24  25
ATOM     25  C   UNL     1      -8.126 -30.371  -3.108  1.00  0.00    -0.000 C 
BRANCH  25  26
ATOM     26  C   UNL     1      -7.202 -29.973  -4.273  1.00  0.00    -0.000 C 
BRANCH  26  27
ATOM     27  C   UNL     1      -6.849 -28.476  -4.333  1.00  0.00    -0.000 C 
BRANCH  27  28
ATOM     28  C   UNL     1      -5.474 -28.163  -3.718  1.00  0.00    -0.000 C 
BRANCH  28  29
ATOM     29  C   UNL     1      -5.513 -26.948  -2.779  1.00  0.00    -0.003 C 
ATOM     30  C   UNL     1      -5.535 -27.347  -1.303  1.00  0.00     0.004 C 
ENDBRANCH  28  29
ENDBRANCH  27  28
ENDBRANCH  26  27
ENDBRANCH  25  26
ENDBRANCH  24  25
ENDBRANCH  23  24
ENDBRANCH  22  23
ENDBRANCH  21  22
ENDBRANCH  20  21
ENDBRANCH  19  20
ENDBRANCH  18  19
ENDBRANCH  17  18
ENDBRANCH   1  17
TORSDOF 26
ENDMDL
MODEL 7
REMARK VINA RESULT:    -4.284      2.389      6.204
REMARK INTER + INTRA:         -15.472
REMARK INTER:                 -10.751
REMARK INTRA:                  -4.721
REMARK UNBOUND:                -4.677
REMARK SMILES CCCCCCCCCCCCCCCCCCCCCCCCCCCC(=O)[O-]
REMARK SMILES IDX 15 1 16 2 17 3 18 4 19 5 20 6 21 7 22 8 23 9 24 10 25 11
REMARK SMILES IDX 26 12 27 13 28 14 29 15 30 16 14 17 13 18 12 19 11 20 10 21
REMARK SMILES IDX 9 22 8 23 7 24 6 25 5 26 4 27 3 28 2 29 1 30
REMARK H PARENT
REMARK Flexibility Score: inf
ROOT
ATOM      1  C   UNL     1       0.412 -21.730  -5.593  1.00  0.00     0.000 C 
ENDROOT
BRANCH   1   2
ATOM      2  C   UNL     1       0.911 -21.900  -7.037  1.00  0.00     0.000 C 
BRANCH   2   3
ATOM      3  C   UNL     1       1.455 -20.594  -7.636  1.00  0.00     0.000 C 
BRANCH   3   4
ATOM      4  C   UNL     1       2.937 -20.698  -8.043  1.00  0.00     0.000 C 
BRANCH   4   5
ATOM      5  C   UNL     1       3.892 -20.343  -6.884  1.00  0.00     0.000 C 
BRANCH   5   6
ATOM      6  C   UNL     1       4.543 -21.567  -6.208  1.00  0.00     0.000 C 
BRANCH   6   7
ATOM      7  C   UNL     1       5.752 -21.250  -5.314  1.00  0.00     0.000 C 
BRANCH   7   8
ATOM      8  C   UNL     1       7.082 -21.265  -6.081  1.00  0.00     0.000 C 
BRANCH   8   9
ATOM      9  C   UNL     1       6.955 -22.053  -7.390  1.00  0.00     0.000 C 
BRANCH   9  10
ATOM     10  C   UNL     1       7.700 -21.347  -8.532  1.00  0.00     0.000 C 
BRANCH  10  11
ATOM     11  C   UNL     1       7.695 -19.811  -8.373  1.00  0.00     0.000 C 
BRANCH  11  12
ATOM     12  C   UNL     1       6.525 -19.126  -9.105  1.00  0.00     0.006 C 
BRANCH  12  13
ATOM     13  C   UNL     1       6.937 -17.879  -9.900  1.00  0.00     0.053 C 
BRANCH  13  14
ATOM     14  C   UNL     1       7.558 -16.837  -9.021  1.00  0.00     0.041 C 
ATOM     15  O   UNL     1       6.845 -16.182  -8.215  1.00  0.00    -0.550 OA
ATOM     16  O   UNL     1       8.926 -16.602  -9.074  1.00  0.00    -0.550 OA
ENDBRANCH  13  14
ENDBRANCH  12  13
ENDBRANCH  11  12
ENDBRANCH  10  11
ENDBRANCH   9  10
ENDBRANCH   8   9
ENDBRANCH   7   8
ENDBRANCH   6   7
ENDBRANCH   5   6
ENDBRANCH   4   5
ENDBRANCH   3   4
ENDBRANCH   2   3
ENDBRANCH   1   2
BRANCH   1  17
ATOM     17  C   UNL     1       0.894 -20.401  -5.002  1.00  0.00     0.000 C 
BRANCH  17  18
ATOM     18  C   UNL     1       0.432 -20.237  -3.547  1.00  0.00     0.000 C 
BRANCH  18  19
ATOM     19  C   UNL     1       1.600 -20.149  -2.550  1.00  0.00     0.000 C 
BRANCH  19  20
ATOM     20  C   UNL     1       2.987 -20.043  -3.219  1.00  0.00     0.000 C 
BRANCH  20  21
ATOM     21  C   UNL     1       3.755 -18.787  -2.771  1.00  0.00     0.000 C 
BRANCH  21  22
ATOM     22  C   UNL     1       3.033 -18.025  -1.641  1.00  0.00    -0.000 C 
BRANCH  22  23
ATOM     23  C   UNL     1       3.041 -16.493  -1.811  1.00  0.00    -0.000 C 
BRANCH  23  24
ATOM     24  C   UNL     1       1.637 -15.864  -1.914  1.00  0.00    -0.000 C 
BRANCH  24  25
ATOM     25  C   UNL     1       0.924 -16.231  -3.228  1.00  0.00    -0.000 C 
BRANCH  25  26
ATOM     26  C   UNL     1       0.909 -15.074  -4.243  1.00  0.00    -0.000 C 
BRANCH  26  27
ATOM     27  C   UNL     1       1.577 -15.392  -5.592  1.00  0.00    -0.000 C 
BRANCH  27  28
ATOM     28  C   UNL     1       1.958 -16.876  -5.733  1.00  0.00    -0.000 C 
BRANCH  28  29
ATOM     29  C   UNL     1       3.473 -17.082  -5.884  1.00  0.00    -0.003 C 
ATOM     30  C   UNL     1       4.261 -15.780  -5.738  1.00  0.00     0.004 C 
ENDBRANCH  28  29
ENDBRANCH  27  28
ENDBRANCH  26  27
ENDBRANCH  25  26
ENDBRANCH  24  25
ENDBRANCH  23  24
ENDBRANCH  22  23
ENDBRANCH  21  22
ENDBRANCH  20  21
ENDBRANCH  19  20
ENDBRANCH  18  19
ENDBRANCH  17  18
ENDBRANCH   1  17
TORSDOF 26
ENDMDL
MODEL 8
REMARK VINA RESULT:    -4.278     12.453     14.454
REMARK INTER + INTRA:         -15.457
REMARK INTER:                 -11.691
REMARK INTRA:                  -3.766
REMARK UNBOUND:                -4.677
REMARK SMILES CCCCCCCCCCCCCCCCCCCCCCCCCCCC(=O)[O-]
REMARK SMILES IDX 15 1 16 2 17 3 18 4 19 5 20 6 21 7 22 8 23 9 24 10 25 11
REMARK SMILES IDX 26 12 27 13 28 14 29 15 30 16 14 17 13 18 12 19 11 20 10 21
REMARK SMILES IDX 9 22 8 23 7 24 6 25 5 26 4 27 3 28 2 29 1 30
REMARK H PARENT
REMARK Flexibility Score: inf
ROOT
ATOM      1  C   UNL     1      -7.369 -23.895  -2.260  1.00  0.00     0.000 C 
ENDROOT
BRANCH   1   2
ATOM      2  C   UNL     1      -7.418 -22.538  -1.540  1.00  0.00     0.000 C 
BRANCH   2   3
ATOM      3  C   UNL     1      -8.843 -21.974  -1.433  1.00  0.00     0.000 C 
BRANCH   3   4
ATOM      4  C   UNL     1      -9.100 -21.253  -0.097  1.00  0.00     0.000 C 
BRANCH   4   5
ATOM      5  C   UNL     1     -10.016 -20.021  -0.258  1.00  0.00     0.000 C 
BRANCH   5   6
ATOM      6  C   UNL     1      -9.281 -18.749  -0.725  1.00  0.00     0.000 C 
BRANCH   6   7
ATOM      7  C   UNL     1      -9.936 -17.425  -0.299  1.00  0.00     0.000 C 
BRANCH   7   8
ATOM      8  C   UNL     1      -9.291 -16.816   0.954  1.00  0.00     0.000 C 
BRANCH   8   9
ATOM      9  C   UNL     1     -10.096 -17.162   2.212  1.00  0.00     0.000 C 
BRANCH   9  10
ATOM     10  C   UNL     1      -9.223 -17.897   3.239  1.00  0.00     0.000 C 
BRANCH  10  11
ATOM     11  C   UNL     1      -9.628 -19.380   3.397  1.00  0.00     0.000 C 
BRANCH  11  12
ATOM     12  C   UNL     1      -8.423 -20.337   3.451  1.00  0.00     0.006 C 
BRANCH  12  13
ATOM     13  C   UNL     1      -8.014 -20.740   4.875  1.00  0.00     0.053 C 
BRANCH  13  14
ATOM     14  C   UNL     1      -6.748 -20.062   5.305  1.00  0.00     0.041 C 
ATOM     15  O   UNL     1      -6.169 -19.255   4.531  1.00  0.00    -0.550 OA
ATOM     16  O   UNL     1      -6.219 -20.303   6.566  1.00  0.00    -0.550 OA
ENDBRANCH  13  14
ENDBRANCH  12  13
ENDBRANCH  11  12
ENDBRANCH  10  11
ENDBRANCH   9  10
ENDBRANCH   8   9
ENDBRANCH   7   8
ENDBRANCH   6   7
ENDBRANCH   5   6
ENDBRANCH   4   5
ENDBRANCH   3   4
ENDBRANCH   2   3
ENDBRANCH   1   2
BRANCH   1  17
ATOM     17  C   UNL     1      -8.780 -24.385  -2.599  1.00  0.00     0.000 C 
BRANCH  17  18
ATOM     18  C   UNL     1      -9.166 -25.604  -1.749  1.00  0.00     0.000 C 
BRANCH  18  19
ATOM     19  C   UNL     1      -9.517 -26.841  -2.594  1.00  0.00     0.000 C 
BRANCH  19  20
ATOM     20  C   UNL     1     -10.344 -27.902  -1.836  1.00  0.00     0.000 C 
BRANCH  20  21
ATOM     21  C   UNL     1      -9.824 -29.330  -2.082  1.00  0.00     0.000 C 
BRANCH  21  22
ATOM     22  C   UNL     1      -8.631 -29.688  -1.172  1.00  0.00    -0.000 C 
BRANCH  22  23
ATOM     23  C   UNL     1      -8.562 -28.863   0.129  1.00  0.00    -0.000 C 
BRANCH  23  24
ATOM     24  C   UNL     1      -7.216 -28.145   0.347  1.00  0.00    -0.000 C 
BRANCH  24  25
ATOM     25  C   UNL     1      -6.238 -28.362  -0.821  1.00  0.00    -0.000 C 
BRANCH  25  26
ATOM     26  C   UNL     1      -5.769 -27.043  -1.461  1.00  0.00    -0.000 C 
BRANCH  26  27
ATOM     27  C   UNL     1      -5.599 -27.094  -2.990  1.00  0.00    -0.000 C 
BRANCH  27  28
ATOM     28  C   UNL     1      -5.638 -28.527  -3.547  1.00  0.00    -0.000 C 
BRANCH  28  29
ATOM     29  C   UNL     1      -6.892 -28.796  -4.392  1.00  0.00    -0.003 C 
ATOM     30  C   UNL     1      -7.242 -30.283  -4.468  1.00  0.00     0.004 C 
ENDBRANCH  28  29
ENDBRANCH  27  28
ENDBRANCH  26  27
ENDBRANCH  25  26
ENDBRANCH  24  25
ENDBRANCH  23  24
ENDBRANCH  22  23
ENDBRANCH  21  22
ENDBRANCH  20  21
ENDBRANCH  19  20
ENDBRANCH  18  19
ENDBRANCH  17  18
ENDBRANCH   1  17
TORSDOF 26
ENDMDL
MODEL 9
REMARK VINA RESULT:    -4.259      1.450      3.488
REMARK INTER + INTRA:         -15.409
REMARK INTER:                 -10.306
REMARK INTRA:                  -5.103
REMARK UNBOUND:                -4.677
REMARK SMILES CCCCCCCCCCCCCCCCCCCCCCCCCCCC(=O)[O-]
REMARK SMILES IDX 15 1 16 2 17 3 18 4 19 5 20 6 21 7 22 8 23 9 24 10 25 11
REMARK SMILES IDX 26 12 27 13 28 14 29 15 30 16 14 17 13 18 12 19 11 20 10 21
REMARK SMILES IDX 9 22 8 23 7 24 6 25 5 26 4 27 3 28 2 29 1 30
REMARK H PARENT
REMARK Flexibility Score: inf
ROOT
ATOM      1  C   UNL     1       0.083 -21.739  -6.662  1.00  0.00     0.000 C 
ENDROOT
BRANCH   1   2
ATOM      2  C   UNL     1       0.365 -21.860  -5.156  1.00  0.00     0.000 C 
BRANCH   2   3
ATOM      3  C   UNL     1       0.639 -20.502  -4.491  1.00  0.00     0.000 C 
BRANCH   3   4
ATOM      4  C   UNL     1       0.554 -20.562  -2.955  1.00  0.00     0.000 C 
BRANCH   4   5
ATOM      5  C   UNL     1       1.856 -20.088  -2.274  1.00  0.00     0.000 C 
BRANCH   5   6
ATOM      6  C   UNL     1       3.111 -20.215  -3.160  1.00  0.00     0.000 C 
BRANCH   6   7
ATOM      7  C   UNL     1       4.240 -19.223  -2.834  1.00  0.00     0.000 C 
BRANCH   7   8
ATOM      8  C   UNL     1       3.992 -17.824  -3.415  1.00  0.00     0.000 C 
BRANCH   8   9
ATOM      9  C   UNL     1       3.331 -17.910  -4.796  1.00  0.00     0.000 C 
BRANCH   9  10
ATOM     10  C   UNL     1       2.217 -16.862  -4.939  1.00  0.00     0.000 C 
BRANCH  10  11
ATOM     11  C   UNL     1       1.295 -16.815  -3.700  1.00  0.00     0.000 C 
BRANCH  11  12
ATOM     12  C   UNL     1       0.686 -15.423  -3.448  1.00  0.00     0.006 C 
BRANCH  12  13
ATOM     13  C   UNL     1       1.567 -14.508  -2.586  1.00  0.00     0.053 C 
BRANCH  13  14
ATOM     14  C   UNL     1       1.640 -14.980  -1.165  1.00  0.00     0.041 C 
ATOM     15  O   UNL     1       0.640 -14.864  -0.408  1.00  0.00    -0.550 OA
ATOM     16  O   UNL     1       2.802 -15.569  -0.683  1.00  0.00    -0.550 OA
ENDBRANCH  13  14
ENDBRANCH  12  13
ENDBRANCH  11  12
ENDBRANCH  10  11
ENDBRANCH   9  10
ENDBRANCH   8   9
ENDBRANCH   7   8
ENDBRANCH   6   7
ENDBRANCH   5   6
ENDBRANCH   4   5
ENDBRANCH   3   4
ENDBRANCH   2   3
ENDBRANCH   1   2
BRANCH   1  17
ATOM     17  C   UNL     1       1.339 -22.055  -7.480  1.00  0.00     0.000 C 
BRANCH  17  18
ATOM     18  C   UNL     1       1.802 -20.832  -8.284  1.00  0.00     0.000 C 
BRANCH  18  19
ATOM     19  C   UNL     1       3.127 -20.240  -7.771  1.00  0.00     0.000 C 
BRANCH  19  20
ATOM     20  C   UNL     1       3.714 -20.985  -6.553  1.00  0.00     0.000 C 
BRANCH  20  21
ATOM     21  C   UNL     1       5.035 -21.700  -6.889  1.00  0.00     0.000 C 
BRANCH  21  22
ATOM     22  C   UNL     1       6.183 -21.296  -5.942  1.00  0.00    -0.000 C 
BRANCH  22  23
ATOM     23  C   UNL     1       7.582 -21.356  -6.586  1.00  0.00    -0.000 C 
BRANCH  23  24
ATOM     24  C   UNL     1       7.587 -21.091  -8.105  1.00  0.00    -0.000 C 
BRANCH  24  25
ATOM     25  C   UNL     1       7.795 -19.604  -8.441  1.00  0.00    -0.000 C 
BRANCH  25  26
ATOM     26  C   UNL     1       6.470 -18.844  -8.635  1.00  0.00    -0.000 C 
BRANCH  26  27
ATOM     27  C   UNL     1       6.196 -17.749  -7.589  1.00  0.00    -0.000 C 
BRANCH  27  28
ATOM     28  C   UNL     1       7.421 -17.447  -6.709  1.00  0.00    -0.000 C 
BRANCH  28  29
ATOM     29  C   UNL     1       7.050 -17.259  -5.230  1.00  0.00    -0.003 C 
ATOM     30  C   UNL     1       7.667 -18.329  -4.329  1.00  0.00     0.004 C 
ENDBRANCH  28  29
ENDBRANCH  27  28
ENDBRANCH  26  27
ENDBRANCH  25  26
ENDBRANCH  24  25
ENDBRANCH  23  24
ENDBRANCH  22  23
ENDBRANCH  21  22
ENDBRANCH  20  21
ENDBRANCH  19  20
ENDBRANCH  18  19
ENDBRANCH  17  18
ENDBRANCH   1  17
TORSDOF 26
ENDMDL
