MODEL 1
REMARK VINA RESULT:    -5.411      0.000      0.000
REMARK INTER + INTRA:         -15.319
REMARK INTER:                 -12.371
REMARK INTRA:                  -2.948
REMARK UNBOUND:                -2.948
REMARK SMILES CCCCCCCCCCCCCCCCCCCCCCCC(=O)[O-]
REMARK SMILES IDX 13 1 14 2 15 3 16 4 17 5 18 6 19 7 20 8 21 9 22 10 23 11
REMARK SMILES IDX 24 12 25 13 26 14 12 15 11 16 10 17 9 18 8 19 7 20 6 21 5 22
REMARK SMILES IDX 4 23 3 24 2 25 1 26
REMARK H PARENT
REMARK Flexibility Score: inf
ROOT
ATOM      1  C   UNL     1      24.681 -11.070  15.441  1.00  0.00     0.000 C 
ENDROOT
BRANCH   1   2
ATOM      2  C   UNL     1      26.008 -10.981  14.663  1.00  0.00     0.000 C 
BRANCH   2   3
ATOM      3  C   UNL     1      27.242 -11.115  15.567  1.00  0.00     0.000 C 
BRANCH   3   4
ATOM      4  C   UNL     1      28.489 -10.548  14.878  1.00  0.00     0.000 C 
BRANCH   4   5
ATOM      5  C   UNL     1      29.747 -11.321  15.291  1.00  0.00     0.000 C 
BRANCH   5   6
ATOM      6  C   UNL     1      30.373 -10.719  16.555  1.00  0.00     0.000 C 
BRANCH   6   7
ATOM      7  C   UNL     1      31.422  -9.659  16.198  1.00  0.00     0.000 C 
BRANCH   7   8
ATOM      8  C   UNL     1      31.313  -8.443  17.132  1.00  0.00     0.000 C 
BRANCH   8   9
ATOM      9  C   UNL     1      31.142  -7.121  16.368  1.00  0.00     0.000 C 
BRANCH   9  10
ATOM     10  C   UNL     1      29.973  -7.159  15.370  1.00  0.00     0.006 C 
BRANCH  10  11
ATOM     11  C   UNL     1      29.578  -5.757  14.884  1.00  0.00     0.053 C 
BRANCH  11  12
ATOM     12  C   UNL     1      30.617  -5.170  13.978  1.00  0.00     0.041 C 
ATOM     13  O   UNL     1      30.703  -3.922  13.835  1.00  0.00    -0.550 OA
ATOM     14  O   UNL     1      31.480  -6.003  13.277  1.00  0.00    -0.550 OA
ENDBRANCH  11  12
ENDBRANCH  10  11
ENDBRANCH   9  10
ENDBRANCH   8   9
ENDBRANCH   7   8
ENDBRANCH   6   7
ENDBRANCH   5   6
ENDBRANCH   4   5
ENDBRANCH   3   4
ENDBRANCH   2   3
ENDBRANCH   1   2
BRANCH   1  15
ATOM     15  C   UNL     1      24.381 -12.449  16.064  1.00  0.00     0.000 C 
BRANCH  15  16
ATOM     16  C   UNL     1      23.552 -12.412  17.363  1.00  0.00     0.000 C 
BRANCH  16  17
ATOM     17  C   UNL     1      24.007 -13.400  18.456  1.00  0.00     0.000 C 
BRANCH  17  18
ATOM     18  C   UNL     1      23.024 -13.579  19.627  1.00  0.00    -0.000 C 
BRANCH  18  19
ATOM     19  C   UNL     1      22.343 -12.263  20.040  1.00  0.00    -0.000 C 
BRANCH  19  20
ATOM     20  C   UNL     1      22.691 -11.833  21.478  1.00  0.00    -0.000 C 
BRANCH  20  21
ATOM     21  C   UNL     1      23.441 -10.494  21.599  1.00  0.00    -0.000 C 
BRANCH  21  22
ATOM     22  C   UNL     1      23.835  -9.898  20.239  1.00  0.00    -0.000 C 
BRANCH  22  23
ATOM     23  C   UNL     1      25.347  -9.630  20.170  1.00  0.00    -0.000 C 
BRANCH  23  24
ATOM     24  C   UNL     1      25.946 -10.011  18.801  1.00  0.00    -0.000 C 
BRANCH  24  25
ATOM     25  C   UNL     1      27.457  -9.742  18.693  1.00  0.00    -0.003 C 
ATOM     26  C   UNL     1      27.781  -8.310  18.272  1.00  0.00     0.004 C 
ENDBRANCH  24  25
ENDBRANCH  23  24
ENDBRANCH  22  23
ENDBRANCH  21  22
ENDBRANCH  20  21
ENDBRANCH  19  20
ENDBRANCH  18  19
ENDBRANCH  17  18
ENDBRANCH  16  17
ENDBRANCH  15  16
ENDBRANCH   1  15
TORSDOF 22
ENDMDL
MODEL 2
REMARK VINA RESULT:    -5.407      1.593      4.346
REMARK INTER + INTRA:         -15.310
REMARK INTER:                 -12.442
REMARK INTRA:                  -2.868
REMARK UNBOUND:                -2.948
REMARK SMILES CCCCCCCCCCCCCCCCCCCCCCCC(=O)[O-]
REMARK SMILES IDX 13 1 14 2 15 3 16 4 17 5 18 6 19 7 20 8 21 9 22 10 23 11
REMARK SMILES IDX 24 12 25 13 26 14 12 15 11 16 10 17 9 18 8 19 7 20 6 21 5 22
REMARK SMILES IDX 4 23 3 24 2 25 1 26
REMARK H PARENT
REMARK Flexibility Score: inf
ROOT
ATOM      1  C   UNL     1      28.291  -8.387  18.327  1.00  0.00     0.000 C 
ENDROOT
BRANCH   1   2
ATOM      2  C   UNL     1      28.080  -6.933  17.867  1.00  0.00     0.000 C 
BRANCH   2   3
ATOM      3  C   UNL     1      28.718  -6.638  16.501  1.00  0.00     0.000 C 
BRANCH   3   4
ATOM      4  C   UNL     1      28.620  -7.857  15.577  1.00  0.00     0.000 C 
BRANCH   4   5
ATOM      5  C   UNL     1      30.013  -8.379  15.204  1.00  0.00     0.000 C 
BRANCH   5   6
ATOM      6  C   UNL     1      30.105  -9.896  15.411  1.00  0.00     0.000 C 
BRANCH   6   7
ATOM      7  C   UNL     1      30.919 -10.232  16.667  1.00  0.00     0.000 C 
BRANCH   7   8
ATOM      8  C   UNL     1      31.809  -9.049  17.077  1.00  0.00     0.000 C 
BRANCH   8   9
ATOM      9  C   UNL     1      33.268  -9.220  16.627  1.00  0.00     0.000 C 
BRANCH   9  10
ATOM     10  C   UNL     1      34.027  -7.884  16.556  1.00  0.00     0.006 C 
BRANCH  10  11
ATOM     11  C   UNL     1      34.419  -7.515  15.119  1.00  0.00     0.053 C 
BRANCH  11  12
ATOM     12  C   UNL     1      33.510  -6.470  14.545  1.00  0.00     0.041 C 
ATOM     13  O   UNL     1      32.570  -5.998  15.237  1.00  0.00    -0.550 OA
ATOM     14  O   UNL     1      33.691  -6.031  13.240  1.00  0.00    -0.550 OA
ENDBRANCH  11  12
ENDBRANCH  10  11
ENDBRANCH   9  10
ENDBRANCH   8   9
ENDBRANCH   7   8
ENDBRANCH   6   7
ENDBRANCH   5   6
ENDBRANCH   4   5
ENDBRANCH   3   4
ENDBRANCH   2   3
ENDBRANCH   1   2
BRANCH   1  15
ATOM     15  C   UNL     1      27.129  -8.989  19.142  1.00  0.00     0.000 C 
BRANCH  15  16
ATOM     16  C   UNL     1      26.398 -10.166  18.467  1.00  0.00     0.000 C 
BRANCH  16  17
ATOM     17  C   UNL     1      27.244 -10.968  17.458  1.00  0.00     0.000 C 
BRANCH  17  18
ATOM     18  C   UNL     1      26.633 -11.102  16.051  1.00  0.00    -0.000 C 
BRANCH  18  19
ATOM     19  C   UNL     1      25.117 -10.845  16.033  1.00  0.00    -0.000 C 
BRANCH  19  20
ATOM     20  C   UNL     1      24.309 -12.055  15.529  1.00  0.00    -0.000 C 
BRANCH  20  21
ATOM     21  C   UNL     1      23.350 -12.679  16.561  1.00  0.00    -0.000 C 
BRANCH  21  22
ATOM     22  C   UNL     1      23.876 -12.595  18.001  1.00  0.00    -0.000 C 
BRANCH  22  23
ATOM     23  C   UNL     1      22.727 -12.706  19.016  1.00  0.00    -0.000 C 
BRANCH  23  24
ATOM     24  C   UNL     1      22.647 -11.476  19.945  1.00  0.00    -0.000 C 
BRANCH  24  25
ATOM     25  C   UNL     1      22.655 -11.833  21.442  1.00  0.00    -0.003 C 
ATOM     26  C   UNL     1      23.133 -10.683  22.328  1.00  0.00     0.004 C 
ENDBRANCH  24  25
ENDBRANCH  23  24
ENDBRANCH  22  23
ENDBRANCH  21  22
ENDBRANCH  20  21
ENDBRANCH  19  20
ENDBRANCH  18  19
ENDBRANCH  17  18
ENDBRANCH  16  17
ENDBRANCH  15  16
ENDBRANCH   1  15
TORSDOF 22
ENDMDL
MODEL 3
REMARK VINA RESULT:    -5.332      1.609      6.397
REMARK INTER + INTRA:         -15.138
REMARK INTER:                 -12.083
REMARK INTRA:                  -3.055
REMARK UNBOUND:                -2.948
REMARK SMILES CCCCCCCCCCCCCCCCCCCCCCCC(=O)[O-]
REMARK SMILES IDX 13 1 14 2 15 3 16 4 17 5 18 6 19 7 20 8 21 9 22 10 23 11
REMARK SMILES IDX 24 12 25 13 26 14 12 15 11 16 10 17 9 18 8 19 7 20 6 21 5 22
REMARK SMILES IDX 4 23 3 24 2 25 1 26
REMARK H PARENT
REMARK Flexibility Score: inf
ROOT
ATOM      1  C   UNL     1      23.659 -12.605  17.368  1.00  0.00     0.000 C 
ENDROOT
BRANCH   1   2
ATOM      2  C   UNL     1      23.744 -13.493  18.624  1.00  0.00     0.000 C 
BRANCH   2   3
ATOM      3  C   UNL     1      22.647 -13.183  19.652  1.00  0.00     0.000 C 
BRANCH   3   4
ATOM      4  C   UNL     1      22.479 -11.670  19.834  1.00  0.00     0.000 C 
BRANCH   4   5
ATOM      5  C   UNL     1      22.997 -11.218  21.205  1.00  0.00     0.000 C 
BRANCH   5   6
ATOM      6  C   UNL     1      23.921 -10.002  21.070  1.00  0.00     0.000 C 
BRANCH   6   7
ATOM      7  C   UNL     1      24.649 -10.011  19.720  1.00  0.00     0.000 C 
BRANCH   7   8
ATOM      8  C   UNL     1      26.123  -9.611  19.889  1.00  0.00     0.000 C 
BRANCH   8   9
ATOM      9  C   UNL     1      26.918  -9.705  18.577  1.00  0.00     0.000 C 
BRANCH   9  10
ATOM     10  C   UNL     1      27.979  -8.599  18.446  1.00  0.00     0.006 C 
BRANCH  10  11
ATOM     11  C   UNL     1      27.558  -7.506  17.454  1.00  0.00     0.053 C 
BRANCH  11  12
ATOM     12  C   UNL     1      28.185  -6.185  17.783  1.00  0.00     0.041 C 
ATOM     13  O   UNL     1      29.044  -6.101  18.699  1.00  0.00    -0.550 OA
ATOM     14  O   UNL     1      27.806  -5.043  17.089  1.00  0.00    -0.550 OA
ENDBRANCH  11  12
ENDBRANCH  10  11
ENDBRANCH   9  10
ENDBRANCH   8   9
ENDBRANCH   7   8
ENDBRANCH   6   7
ENDBRANCH   5   6
ENDBRANCH   4   5
ENDBRANCH   3   4
ENDBRANCH   2   3
ENDBRANCH   1   2
BRANCH   1  15
ATOM     15  C   UNL     1      25.018 -12.202  16.761  1.00  0.00     0.000 C 
BRANCH  15  16
ATOM     16  C   UNL     1      24.952 -11.098  15.687  1.00  0.00     0.000 C 
BRANCH  16  17
ATOM     17  C   UNL     1      26.134 -11.078  14.697  1.00  0.00     0.000 C 
BRANCH  17  18
ATOM     18  C   UNL     1      27.467 -10.573  15.278  1.00  0.00    -0.000 C 
BRANCH  18  19
ATOM     19  C   UNL     1      28.692 -11.165  14.561  1.00  0.00    -0.000 C 
BRANCH  19  20
ATOM     20  C   UNL     1      30.011 -10.476  14.958  1.00  0.00    -0.000 C 
BRANCH  20  21
ATOM     21  C   UNL     1      30.502 -10.775  16.387  1.00  0.00    -0.000 C 
BRANCH  21  22
ATOM     22  C   UNL     1      31.652  -9.861  16.834  1.00  0.00    -0.000 C 
BRANCH  22  23
ATOM     23  C   UNL     1      31.153  -8.430  17.094  1.00  0.00    -0.000 C 
BRANCH  23  24
ATOM     24  C   UNL     1      31.690  -7.426  16.053  1.00  0.00    -0.000 C 
BRANCH  24  25
ATOM     25  C   UNL     1      30.644  -7.004  15.007  1.00  0.00    -0.003 C 
ATOM     26  C   UNL     1      30.480  -5.489  14.902  1.00  0.00     0.004 C 
ENDBRANCH  24  25
ENDBRANCH  23  24
ENDBRANCH  22  23
ENDBRANCH  21  22
ENDBRANCH  20  21
ENDBRANCH  19  20
ENDBRANCH  18  19
ENDBRANCH  17  18
ENDBRANCH  16  17
ENDBRANCH  15  16
ENDBRANCH   1  15
TORSDOF 22
ENDMDL
MODEL 4
REMARK VINA RESULT:    -5.251      2.338      5.933
REMARK INTER + INTRA:         -14.953
REMARK INTER:                 -11.629
REMARK INTRA:                  -3.324
REMARK UNBOUND:                -2.948
REMARK SMILES CCCCCCCCCCCCCCCCCCCCCCCC(=O)[O-]
REMARK SMILES IDX 13 1 14 2 15 3 16 4 17 5 18 6 19 7 20 8 21 9 22 10 23 11
REMARK SMILES IDX 24 12 25 13 26 14 12 15 11 16 10 17 9 18 8 19 7 20 6 21 5 22
REMARK SMILES IDX 4 23 3 24 2 25 1 26
REMARK H PARENT
REMARK Flexibility Score: inf
ROOT
ATOM      1  C   UNL     1      24.411 -13.046  17.598  1.00  0.00     0.000 C 
ENDROOT
BRANCH   1   2
ATOM      2  C   UNL     1      23.459 -13.407  18.754  1.00  0.00     0.000 C 
BRANCH   2   3
ATOM      3  C   UNL     1      22.659 -12.202  19.270  1.00  0.00     0.000 C 
BRANCH   3   4
ATOM      4  C   UNL     1      22.812 -12.054  20.788  1.00  0.00     0.000 C 
BRANCH   4   5
ATOM      5  C   UNL     1      23.344 -10.663  21.156  1.00  0.00     0.000 C 
BRANCH   5   6
ATOM      6  C   UNL     1      23.946  -9.964  19.931  1.00  0.00     0.000 C 
BRANCH   6   7
ATOM      7  C   UNL     1      25.468  -9.829  20.067  1.00  0.00     0.000 C 
BRANCH   7   8
ATOM      8  C   UNL     1      26.146  -9.857  18.688  1.00  0.00     0.000 C 
BRANCH   8   9
ATOM      9  C   UNL     1      27.578  -9.298  18.719  1.00  0.00     0.000 C 
BRANCH   9  10
ATOM     10  C   UNL     1      27.704  -7.950  17.989  1.00  0.00     0.006 C 
BRANCH  10  11
ATOM     11  C   UNL     1      29.167  -7.518  17.817  1.00  0.00     0.053 C 
BRANCH  11  12
ATOM     12  C   UNL     1      29.427  -6.970  16.446  1.00  0.00     0.041 C 
ATOM     13  O   UNL     1      30.363  -6.150  16.257  1.00  0.00    -0.550 OA
ATOM     14  O   UNL     1      28.623  -7.354  15.380  1.00  0.00    -0.550 OA
ENDBRANCH  11  12
ENDBRANCH  10  11
ENDBRANCH   9  10
ENDBRANCH   8   9
ENDBRANCH   7   8
ENDBRANCH   6   7
ENDBRANCH   5   6
ENDBRANCH   4   5
ENDBRANCH   3   4
ENDBRANCH   2   3
ENDBRANCH   1   2
BRANCH   1  15
ATOM     15  C   UNL     1      23.750 -12.315  16.412  1.00  0.00     0.000 C 
BRANCH  15  16
ATOM     16  C   UNL     1      24.562 -11.138  15.836  1.00  0.00     0.000 C 
BRANCH  16  17
ATOM     17  C   UNL     1      25.858 -11.537  15.101  1.00  0.00     0.000 C 
BRANCH  17  18
ATOM     18  C   UNL     1      26.960 -10.462  15.087  1.00  0.00    -0.000 C 
BRANCH  18  19
ATOM     19  C   UNL     1      28.367 -11.055  14.906  1.00  0.00    -0.000 C 
BRANCH  19  20
ATOM     20  C   UNL     1      29.307 -10.742  16.086  1.00  0.00    -0.000 C 
BRANCH  20  21
ATOM     21  C   UNL     1      29.774 -11.967  16.894  1.00  0.00    -0.000 C 
BRANCH  21  22
ATOM     22  C   UNL     1      28.630 -12.672  17.637  1.00  0.00    -0.000 C 
BRANCH  22  23
ATOM     23  C   UNL     1      29.055 -14.075  18.101  1.00  0.00    -0.000 C 
BRANCH  23  24
ATOM     24  C   UNL     1      27.860 -14.908  18.611  1.00  0.00    -0.000 C 
BRANCH  24  25
ATOM     25  C   UNL     1      28.267 -16.065  19.540  1.00  0.00    -0.003 C 
ATOM     26  C   UNL     1      29.266 -15.644  20.617  1.00  0.00     0.004 C 
ENDBRANCH  24  25
ENDBRANCH  23  24
ENDBRANCH  22  23
ENDBRANCH  21  22
ENDBRANCH  20  21
ENDBRANCH  19  20
ENDBRANCH  18  19
ENDBRANCH  17  18
ENDBRANCH  16  17
ENDBRANCH  15  16
ENDBRANCH   1  15
TORSDOF 22
ENDMDL
MODEL 5
REMARK VINA RESULT:    -5.250      1.984      4.408
REMARK INTER + INTRA:         -14.950
REMARK INTER:                 -12.391
REMARK INTRA:                  -2.559
REMARK UNBOUND:                -2.948
REMARK SMILES CCCCCCCCCCCCCCCCCCCCCCCC(=O)[O-]
REMARK SMILES IDX 13 1 14 2 15 3 16 4 17 5 18 6 19 7 20 8 21 9 22 10 23 11
REMARK SMILES IDX 24 12 25 13 26 14 12 15 11 16 10 17 9 18 8 19 7 20 6 21 5 22
REMARK SMILES IDX 4 23 3 24 2 25 1 26
REMARK H PARENT
REMARK Flexibility Score: inf
ROOT
ATOM      1  C   UNL     1      24.547  -9.623  20.677  1.00  0.00     0.000 C 
ENDROOT
BRANCH   1   2
ATOM      2  C   UNL     1      24.736  -9.995  19.195  1.00  0.00     0.000 C 
BRANCH   2   3
ATOM      3  C   UNL     1      26.188 -10.358  18.849  1.00  0.00     0.000 C 
BRANCH   3   4
ATOM      4  C   UNL     1      27.115  -9.152  19.044  1.00  0.00     0.000 C 
BRANCH   4   5
ATOM      5  C   UNL     1      28.224  -9.131  17.985  1.00  0.00     0.000 C 
BRANCH   5   6
ATOM      6  C   UNL     1      28.454  -7.709  17.458  1.00  0.00     0.000 C 
BRANCH   6   7
ATOM      7  C   UNL     1      28.840  -7.728  15.974  1.00  0.00     0.000 C 
BRANCH   7   8
ATOM      8  C   UNL     1      29.629  -6.464  15.597  1.00  0.00     0.000 C 
BRANCH   8   9
ATOM      9  C   UNL     1      31.062  -6.774  15.136  1.00  0.00     0.000 C 
BRANCH   9  10
ATOM     10  C   UNL     1      31.920  -7.400  16.248  1.00  0.00     0.006 C 
BRANCH  10  11
ATOM     11  C   UNL     1      32.349  -8.836  15.912  1.00  0.00     0.053 C 
BRANCH  11  12
ATOM     12  C   UNL     1      33.673  -9.178  16.525  1.00  0.00     0.041 C 
ATOM     13  O   UNL     1      33.815  -9.167  17.775  1.00  0.00    -0.550 OA
ATOM     14  O   UNL     1      34.755  -9.494  15.712  1.00  0.00    -0.550 OA
ENDBRANCH  11  12
ENDBRANCH  10  11
ENDBRANCH   9  10
ENDBRANCH   8   9
ENDBRANCH   7   8
ENDBRANCH   6   7
ENDBRANCH   5   6
ENDBRANCH   4   5
ENDBRANCH   3   4
ENDBRANCH   2   3
ENDBRANCH   1   2
BRANCH   1  15
ATOM     15  C   UNL     1      23.454 -10.422  21.416  1.00  0.00     0.000 C 
BRANCH  15  16
ATOM     16  C   UNL     1      22.558 -11.292  20.513  1.00  0.00     0.000 C 
BRANCH  16  17
ATOM     17  C   UNL     1      22.703 -12.813  20.720  1.00  0.00     0.000 C 
BRANCH  17  18
ATOM     18  C   UNL     1      23.050 -13.617  19.454  1.00  0.00    -0.000 C 
BRANCH  18  19
ATOM     19  C   UNL     1      22.954 -12.776  18.170  1.00  0.00    -0.000 C 
BRANCH  19  20
ATOM     20  C   UNL     1      24.138 -13.006  17.212  1.00  0.00    -0.000 C 
BRANCH  20  21
ATOM     21  C   UNL     1      23.985 -12.374  15.816  1.00  0.00    -0.000 C 
BRANCH  21  22
ATOM     22  C   UNL     1      24.779 -11.070  15.653  1.00  0.00    -0.000 C 
BRANCH  22  23
ATOM     23  C   UNL     1      25.917 -11.239  14.633  1.00  0.00    -0.000 C 
BRANCH  23  24
ATOM     24  C   UNL     1      27.289 -10.846  15.219  1.00  0.00    -0.000 C 
BRANCH  24  25
ATOM     25  C   UNL     1      28.471 -11.169  14.289  1.00  0.00    -0.003 C 
ATOM     26  C   UNL     1      29.825 -11.095  14.993  1.00  0.00     0.004 C 
ENDBRANCH  24  25
ENDBRANCH  23  24
ENDBRANCH  22  23
ENDBRANCH  21  22
ENDBRANCH  20  21
ENDBRANCH  19  20
ENDBRANCH  18  19
ENDBRANCH  17  18
ENDBRANCH  16  17
ENDBRANCH  15  16
ENDBRANCH   1  15
TORSDOF 22
ENDMDL
MODEL 6
REMARK VINA RESULT:    -5.229      2.104      4.791
REMARK INTER + INTRA:         -14.902
REMARK INTER:                 -12.771
REMARK INTRA:                  -2.131
REMARK UNBOUND:                -2.948
REMARK SMILES CCCCCCCCCCCCCCCCCCCCCCCC(=O)[O-]
REMARK SMILES IDX 13 1 14 2 15 3 16 4 17 5 18 6 19 7 20 8 21 9 22 10 23 11
REMARK SMILES IDX 24 12 25 13 26 14 12 15 11 16 10 17 9 18 8 19 7 20 6 21 5 22
REMARK SMILES IDX 4 23 3 24 2 25 1 26
REMARK H PARENT
REMARK Flexibility Score: inf
ROOT
ATOM      1  C   UNL     1      29.899 -11.052  15.251  1.00  0.00     0.000 C 
ENDROOT
BRANCH   1   2
ATOM      2  C   UNL     1      31.062 -10.080  15.525  1.00  0.00     0.000 C 
BRANCH   2   3
ATOM      3  C   UNL     1      31.322  -9.864  17.023  1.00  0.00     0.000 C 
BRANCH   3   4
ATOM      4  C   UNL     1      32.597  -9.042  17.245  1.00  0.00     0.000 C 
BRANCH   4   5
ATOM      5  C   UNL     1      33.602  -9.265  16.107  1.00  0.00     0.000 C 
BRANCH   5   6
ATOM      6  C   UNL     1      33.793  -7.985  15.284  1.00  0.00     0.000 C 
BRANCH   6   7
ATOM      7  C   UNL     1      32.989  -6.822  15.880  1.00  0.00     0.000 C 
BRANCH   7   8
ATOM      8  C   UNL     1      31.950  -6.301  14.874  1.00  0.00     0.000 C 
BRANCH   8   9
ATOM      9  C   UNL     1      30.681  -5.766  15.555  1.00  0.00     0.000 C 
BRANCH   9  10
ATOM     10  C   UNL     1      29.550  -6.807  15.605  1.00  0.00     0.006 C 
BRANCH  10  11
ATOM     11  C   UNL     1      28.345  -6.316  16.418  1.00  0.00     0.053 C 
BRANCH  11  12
ATOM     12  C   UNL     1      28.513  -6.590  17.882  1.00  0.00     0.041 C 
ATOM     13  O   UNL     1      28.056  -7.649  18.387  1.00  0.00    -0.550 OA
ATOM     14  O   UNL     1      29.162  -5.667  18.692  1.00  0.00    -0.550 OA
ENDBRANCH  11  12
ENDBRANCH  10  11
ENDBRANCH   9  10
ENDBRANCH   8   9
ENDBRANCH   7   8
ENDBRANCH   6   7
ENDBRANCH   5   6
ENDBRANCH   4   5
ENDBRANCH   3   4
ENDBRANCH   2   3
ENDBRANCH   1   2
BRANCH   1  15
ATOM     15  C   UNL     1      29.136 -11.527  16.504  1.00  0.00     0.000 C 
BRANCH  15  16
ATOM     16  C   UNL     1      27.882 -10.704  16.856  1.00  0.00     0.000 C 
BRANCH  16  17
ATOM     17  C   UNL     1      27.162 -10.063  15.652  1.00  0.00     0.000 C 
BRANCH  17  18
ATOM     18  C   UNL     1      26.417 -11.049  14.734  1.00  0.00    -0.000 C 
BRANCH  18  19
ATOM     19  C   UNL     1      24.902 -11.082  15.001  1.00  0.00    -0.000 C 
BRANCH  19  20
ATOM     20  C   UNL     1      24.558 -11.378  16.473  1.00  0.00    -0.000 C 
BRANCH  20  21
ATOM     21  C   UNL     1      23.877 -12.735  16.727  1.00  0.00    -0.000 C 
BRANCH  21  22
ATOM     22  C   UNL     1      23.856 -13.131  18.211  1.00  0.00    -0.000 C 
BRANCH  22  23
ATOM     23  C   UNL     1      22.630 -12.538  18.924  1.00  0.00    -0.000 C 
BRANCH  23  24
ATOM     24  C   UNL     1      23.018 -11.442  19.938  1.00  0.00    -0.000 C 
BRANCH  24  25
ATOM     25  C   UNL     1      22.631 -11.780  21.389  1.00  0.00    -0.003 C 
ATOM     26  C   UNL     1      23.106 -10.733  22.394  1.00  0.00     0.004 C 
ENDBRANCH  24  25
ENDBRANCH  23  24
ENDBRANCH  22  23
ENDBRANCH  21  22
ENDBRANCH  20  21
ENDBRANCH  19  20
ENDBRANCH  18  19
ENDBRANCH  17  18
ENDBRANCH  16  17
ENDBRANCH  15  16
ENDBRANCH   1  15
TORSDOF 22
ENDMDL
MODEL 7
REMARK VINA RESULT:    -5.226      1.633      6.334
REMARK INTER + INTRA:         -14.895
REMARK INTER:                 -12.235
REMARK INTRA:                  -2.659
REMARK UNBOUND:                -2.948
REMARK SMILES CCCCCCCCCCCCCCCCCCCCCCCC(=O)[O-]
REMARK SMILES IDX 13 1 14 2 15 3 16 4 17 5 18 6 19 7 20 8 21 9 22 10 23 11
REMARK SMILES IDX 24 12 25 13 26 14 12 15 11 16 10 17 9 18 8 19 7 20 6 21 5 22
REMARK SMILES IDX 4 23 3 24 2 25 1 26
REMARK H PARENT
REMARK Flexibility Score: inf
ROOT
ATOM      1  C   UNL     1      24.255 -13.072  17.815  1.00  0.00     0.000 C 
ENDROOT
BRANCH   1   2
ATOM      2  C   UNL     1      23.364 -13.373  19.036  1.00  0.00     0.000 C 
BRANCH   2   3
ATOM      3  C   UNL     1      22.508 -12.172  19.462  1.00  0.00     0.000 C 
BRANCH   3   4
ATOM      4  C   UNL     1      22.623 -11.926  20.972  1.00  0.00     0.000 C 
BRANCH   4   5
ATOM      5  C   UNL     1      23.476 -10.686  21.265  1.00  0.00     0.000 C 
BRANCH   5   6
ATOM      6  C   UNL     1      23.933 -10.013  19.965  1.00  0.00     0.000 C 
BRANCH   6   7
ATOM      7  C   UNL     1      25.389  -9.543  20.071  1.00  0.00     0.000 C 
BRANCH   7   8
ATOM      8  C   UNL     1      26.244 -10.146  18.945  1.00  0.00     0.000 C 
BRANCH   8   9
ATOM      9  C   UNL     1      27.595  -9.434  18.778  1.00  0.00     0.000 C 
BRANCH   9  10
ATOM     10  C   UNL     1      27.450  -8.010  18.216  1.00  0.00     0.006 C 
BRANCH  10  11
ATOM     11  C   UNL     1      28.787  -7.443  17.720  1.00  0.00     0.053 C 
BRANCH  11  12
ATOM     12  C   UNL     1      28.614  -6.609  16.486  1.00  0.00     0.041 C 
ATOM     13  O   UNL     1      29.210  -6.918  15.422  1.00  0.00    -0.550 OA
ATOM     14  O   UNL     1      27.805  -5.479  16.519  1.00  0.00    -0.550 OA
ENDBRANCH  11  12
ENDBRANCH  10  11
ENDBRANCH   9  10
ENDBRANCH   8   9
ENDBRANCH   7   8
ENDBRANCH   6   7
ENDBRANCH   5   6
ENDBRANCH   4   5
ENDBRANCH   3   4
ENDBRANCH   2   3
ENDBRANCH   1   2
BRANCH   1  15
ATOM     15  C   UNL     1      23.499 -12.608  16.554  1.00  0.00     0.000 C 
BRANCH  15  16
ATOM     16  C   UNL     1      24.278 -11.638  15.645  1.00  0.00     0.000 C 
BRANCH  16  17
ATOM     17  C   UNL     1      25.759 -11.434  16.025  1.00  0.00     0.000 C 
BRANCH  17  18
ATOM     18  C   UNL     1      26.688 -11.054  14.858  1.00  0.00    -0.000 C 
BRANCH  18  19
ATOM     19  C   UNL     1      27.953 -10.311  15.321  1.00  0.00    -0.000 C 
BRANCH  19  20
ATOM     20  C   UNL     1      29.253 -11.055  14.959  1.00  0.00    -0.000 C 
BRANCH  20  21
ATOM     21  C   UNL     1      30.554 -10.308  15.308  1.00  0.00    -0.000 C 
BRANCH  21  22
ATOM     22  C   UNL     1      30.761 -10.131  16.819  1.00  0.00    -0.000 C 
BRANCH  22  23
ATOM     23  C   UNL     1      32.188  -9.652  17.129  1.00  0.00    -0.000 C 
BRANCH  23  24
ATOM     24  C   UNL     1      32.761  -8.760  16.007  1.00  0.00    -0.000 C 
BRANCH  24  25
ATOM     25  C   UNL     1      34.299  -8.733  15.965  1.00  0.00    -0.003 C 
ATOM     26  C   UNL     1      34.941  -9.677  16.980  1.00  0.00     0.004 C 
ENDBRANCH  24  25
ENDBRANCH  23  24
ENDBRANCH  22  23
ENDBRANCH  21  22
ENDBRANCH  20  21
ENDBRANCH  19  20
ENDBRANCH  18  19
ENDBRANCH  17  18
ENDBRANCH  16  17
ENDBRANCH  15  16
ENDBRANCH   1  15
TORSDOF 22
ENDMDL
MODEL 8
REMARK VINA RESULT:    -5.135      1.149      4.541
REMARK INTER + INTRA:         -14.688
REMARK INTER:                 -11.931
REMARK INTRA:                  -2.757
REMARK UNBOUND:                -2.948
REMARK SMILES CCCCCCCCCCCCCCCCCCCCCCCC(=O)[O-]
REMARK SMILES IDX 13 1 14 2 15 3 16 4 17 5 18 6 19 7 20 8 21 9 22 10 23 11
REMARK SMILES IDX 24 12 25 13 26 14 12 15 11 16 10 17 9 18 8 19 7 20 6 21 5 22
REMARK SMILES IDX 4 23 3 24 2 25 1 26
REMARK H PARENT
REMARK Flexibility Score: inf
ROOT
ATOM      1  C   UNL     1      22.749 -10.945  20.320  1.00  0.00     0.000 C 
ENDROOT
BRANCH   1   2
ATOM      2  C   UNL     1      23.655 -10.164  21.291  1.00  0.00     0.000 C 
BRANCH   2   3
ATOM      3  C   UNL     1      24.938  -9.645  20.627  1.00  0.00     0.000 C 
BRANCH   3   4
ATOM      4  C   UNL     1      24.918  -9.908  19.116  1.00  0.00     0.000 C 
BRANCH   4   5
ATOM      5  C   UNL     1      26.331 -10.177  18.584  1.00  0.00     0.000 C 
BRANCH   5   6
ATOM      6  C   UNL     1      27.309  -9.092  19.049  1.00  0.00     0.000 C 
BRANCH   6   7
ATOM      7  C   UNL     1      27.575  -8.075  17.932  1.00  0.00     0.000 C 
BRANCH   7   8
ATOM      8  C   UNL     1      28.214  -6.796  18.496  1.00  0.00     0.000 C 
BRANCH   8   9
ATOM      9  C   UNL     1      28.849  -5.919  17.405  1.00  0.00     0.000 C 
BRANCH   9  10
ATOM     10  C   UNL     1      30.338  -6.232  17.185  1.00  0.00     0.006 C 
BRANCH  10  11
ATOM     11  C   UNL     1      30.936  -5.422  16.025  1.00  0.00     0.053 C 
BRANCH  11  12
ATOM     12  C   UNL     1      31.298  -6.298  14.864  1.00  0.00     0.041 C 
ATOM     13  O   UNL     1      30.439  -7.066  14.357  1.00  0.00    -0.550 OA
ATOM     14  O   UNL     1      32.590  -6.277  14.354  1.00  0.00    -0.550 OA
ENDBRANCH  11  12
ENDBRANCH  10  11
ENDBRANCH   9  10
ENDBRANCH   8   9
ENDBRANCH   7   8
ENDBRANCH   6   7
ENDBRANCH   5   6
ENDBRANCH   4   5
ENDBRANCH   3   4
ENDBRANCH   2   3
ENDBRANCH   1   2
BRANCH   1  15
ATOM     15  C   UNL     1      22.652 -12.459  20.594  1.00  0.00     0.000 C 
BRANCH  15  16
ATOM     16  C   UNL     1      22.996 -13.363  19.394  1.00  0.00     0.000 C 
BRANCH  16  17
ATOM     17  C   UNL     1      23.033 -12.649  18.028  1.00  0.00     0.000 C 
BRANCH  17  18
ATOM     18  C   UNL     1      24.248 -12.987  17.145  1.00  0.00    -0.000 C 
BRANCH  18  19
ATOM     19  C   UNL     1      24.139 -12.394  15.730  1.00  0.00    -0.000 C 
BRANCH  19  20
ATOM     20  C   UNL     1      24.845 -11.032  15.594  1.00  0.00    -0.000 C 
BRANCH  20  21
ATOM     21  C   UNL     1      26.080 -11.023  14.674  1.00  0.00    -0.000 C 
BRANCH  21  22
ATOM     22  C   UNL     1      27.316 -10.386  15.329  1.00  0.00    -0.000 C 
BRANCH  22  23
ATOM     23  C   UNL     1      28.604 -11.097  14.885  1.00  0.00    -0.000 C 
BRANCH  23  24
ATOM     24  C   UNL     1      29.599 -11.284  16.050  1.00  0.00    -0.000 C 
BRANCH  24  25
ATOM     25  C   UNL     1      30.133  -9.959  16.622  1.00  0.00    -0.003 C 
ATOM     26  C   UNL     1      31.616  -9.735  16.329  1.00  0.00     0.004 C 
ENDBRANCH  24  25
ENDBRANCH  23  24
ENDBRANCH  22  23
ENDBRANCH  21  22
ENDBRANCH  20  21
ENDBRANCH  19  20
ENDBRANCH  18  19
ENDBRANCH  17  18
ENDBRANCH  16  17
ENDBRANCH  15  16
ENDBRANCH   1  15
TORSDOF 22
ENDMDL
MODEL 9
REMARK VINA RESULT:    -5.080      3.684      8.806
REMARK INTER + INTRA:         -14.562
REMARK INTER:                 -12.006
REMARK INTRA:                  -2.556
REMARK UNBOUND:                -2.948
REMARK SMILES CCCCCCCCCCCCCCCCCCCCCCCC(=O)[O-]
REMARK SMILES IDX 13 1 14 2 15 3 16 4 17 5 18 6 19 7 20 8 21 9 22 10 23 11
REMARK SMILES IDX 24 12 25 13 26 14 12 15 11 16 10 17 9 18 8 19 7 20 6 21 5 22
REMARK SMILES IDX 4 23 3 24 2 25 1 26
REMARK H PARENT
REMARK Flexibility Score: inf
ROOT
ATOM      1  C   UNL     1      29.921 -11.144  15.802  1.00  0.00     0.000 C 
ENDROOT
BRANCH   1   2
ATOM      2  C   UNL     1      28.851 -11.212  16.907  1.00  0.00     0.000 C 
BRANCH   2   3
ATOM      3  C   UNL     1      27.584 -10.414  16.564  1.00  0.00     0.000 C 
BRANCH   3   4
ATOM      4  C   UNL     1      27.329 -10.415  15.052  1.00  0.00     0.000 C 
BRANCH   4   5
ATOM      5  C   UNL     1      25.969 -11.043  14.723  1.00  0.00     0.000 C 
BRANCH   5   6
ATOM      6  C   UNL     1      25.152 -11.285  15.998  1.00  0.00     0.000 C 
BRANCH   6   7
ATOM      7  C   UNL     1      24.060 -12.336  15.762  1.00  0.00     0.000 C 
BRANCH   7   8
ATOM      8  C   UNL     1      23.274 -12.610  17.054  1.00  0.00     0.000 C 
BRANCH   8   9
ATOM      9  C   UNL     1      23.845 -11.860  18.267  1.00  0.00     0.000 C 
BRANCH   9  10
ATOM     10  C   UNL     1      23.360 -12.442  19.606  1.00  0.00     0.006 C 
BRANCH  10  11
ATOM     11  C   UNL     1      22.508 -11.440  20.399  1.00  0.00     0.053 C 
BRANCH  11  12
ATOM     12  C   UNL     1      23.346 -10.602  21.316  1.00  0.00     0.041 C 
ATOM     13  O   UNL     1      23.101 -10.572  22.550  1.00  0.00    -0.550 OA
ATOM     14  O   UNL     1      24.388  -9.839  20.802  1.00  0.00    -0.550 OA
ENDBRANCH  11  12
ENDBRANCH  10  11
ENDBRANCH   9  10
ENDBRANCH   8   9
ENDBRANCH   7   8
ENDBRANCH   6   7
ENDBRANCH   5   6
ENDBRANCH   4   5
ENDBRANCH   3   4
ENDBRANCH   2   3
ENDBRANCH   1   2
BRANCH   1  15
ATOM     15  C   UNL     1      30.899  -9.957  15.913  1.00  0.00     0.000 C 
BRANCH  15  16
ATOM     16  C   UNL     1      31.627  -9.834  17.266  1.00  0.00     0.000 C 
BRANCH  16  17
ATOM     17  C   UNL     1      33.036  -9.212  17.196  1.00  0.00     0.000 C 
BRANCH  17  18
ATOM     18  C   UNL     1      33.673  -9.188  15.795  1.00  0.00    -0.000 C 
BRANCH  18  19
ATOM     19  C   UNL     1      34.114  -7.779  15.364  1.00  0.00    -0.000 C 
BRANCH  19  20
ATOM     20  C   UNL     1      33.514  -6.667  16.246  1.00  0.00    -0.000 C 
BRANCH  20  21
ATOM     21  C   UNL     1      32.834  -5.518  15.479  1.00  0.00    -0.000 C 
BRANCH  21  22
ATOM     22  C   UNL     1      31.374  -5.820  15.110  1.00  0.00    -0.000 C 
BRANCH  22  23
ATOM     23  C   UNL     1      30.634  -6.485  16.281  1.00  0.00    -0.000 C 
BRANCH  23  24
ATOM     24  C   UNL     1      29.177  -6.847  15.921  1.00  0.00    -0.000 C 
BRANCH  24  25
ATOM     25  C   UNL     1      28.143  -6.313  16.928  1.00  0.00    -0.003 C 
ATOM     26  C   UNL     1      28.075  -7.140  18.211  1.00  0.00     0.004 C 
ENDBRANCH  24  25
ENDBRANCH  23  24
ENDBRANCH  22  23
ENDBRANCH  21  22
ENDBRANCH  20  21
ENDBRANCH  19  20
ENDBRANCH  18  19
ENDBRANCH  17  18
ENDBRANCH  16  17
ENDBRANCH  15  16
ENDBRANCH   1  15
TORSDOF 22
ENDMDL
