MODEL 1
REMARK VINA RESULT:     5.572      0.000      0.000
REMARK INTER + INTRA:           9.293
REMARK INTER:                  10.458
REMARK INTRA:                  -1.165
REMARK UNBOUND:                -1.165
REMARK SMILES CCCCCCCCC=CCCCCCCCC(=O)[O-]
REMARK SMILES IDX 10 1 9 2 11 3 12 4 13 5 14 6 15 7 16 8 17 9 18 10 19 11
REMARK SMILES IDX 20 12 8 13 7 14 6 15 5 16 4 17 3 18 2 19 1 20
REMARK H PARENT
REMARK Flexibility Score: inf
ROOT
ATOM      1  C   UNL     1      -3.599 105.241  63.854  1.00  0.00    -0.031 C 
ATOM      2  C   UNL     1      -3.496 106.422  64.492  1.00  0.00    -0.031 C 
ENDROOT
BRANCH   1   3
ATOM      3  C   UNL     1      -4.426 104.068  64.322  1.00  0.00     0.027 C 
BRANCH   3   4
ATOM      4  C   UNL     1      -3.895 102.742  63.761  1.00  0.00     0.004 C 
BRANCH   4   5
ATOM      5  C   UNL     1      -3.352 101.818  64.865  1.00  0.00     0.000 C 
BRANCH   5   6
ATOM      6  C   UNL     1      -2.184 100.943  64.386  1.00  0.00     0.000 C 
BRANCH   6   7
ATOM      7  C   UNL     1      -1.984 101.008  62.865  1.00  0.00     0.000 C 
BRANCH   7   8
ATOM      8  C   UNL     1      -0.494 101.101  62.513  1.00  0.00     0.006 C 
BRANCH   8   9
ATOM      9  C   UNL     1       0.217 102.134  63.396  1.00  0.00     0.053 C 
BRANCH   9  10
ATOM     10  C   UNL     1       1.448 102.647  62.718  1.00  0.00     0.041 C 
ATOM     11  O   UNL     1       1.734 103.873  62.767  1.00  0.00    -0.550 OA
ATOM     12  O   UNL     1       2.303 101.766  62.068  1.00  0.00    -0.550 OA
ENDBRANCH   9  10
ENDBRANCH   8   9
ENDBRANCH   7   8
ENDBRANCH   6   7
ENDBRANCH   5   6
ENDBRANCH   4   5
ENDBRANCH   3   4
ENDBRANCH   1   3
BRANCH   2  13
ATOM     13  C   UNL     1      -4.216 106.788  65.765  1.00  0.00     0.027 C 
BRANCH  13  14
ATOM     14  C   UNL     1      -4.097 108.279  66.132  1.00  0.00     0.004 C 
BRANCH  14  15
ATOM     15  C   UNL     1      -4.388 108.583  67.615  1.00  0.00     0.000 C 
BRANCH  15  16
ATOM     16  C   UNL     1      -4.894 107.348  68.378  1.00  0.00     0.000 C 
BRANCH  16  17
ATOM     17  C   UNL     1      -6.373 107.496  68.762  1.00  0.00    -0.000 C 
BRANCH  17  18
ATOM     18  C   UNL     1      -7.300 107.532  67.535  1.00  0.00    -0.000 C 
BRANCH  18  19
ATOM     19  C   UNL     1      -7.901 108.924  67.285  1.00  0.00    -0.003 C 
ATOM     20  C   UNL     1      -8.123 109.670  68.597  1.00  0.00     0.004 C 
ENDBRANCH  18  19
ENDBRANCH  17  18
ENDBRANCH  16  17
ENDBRANCH  15  16
ENDBRANCH  14  15
ENDBRANCH  13  14
ENDBRANCH   2  13
TORSDOF 15
ENDMDL
MODEL 2
REMARK VINA RESULT:     5.713      3.903      8.907
REMARK INTER + INTRA:           9.558
REMARK INTER:                  10.922
REMARK INTRA:                  -1.365
REMARK UNBOUND:                -1.165
REMARK SMILES CCCCCCCCC=CCCCCCCCC(=O)[O-]
REMARK SMILES IDX 10 1 9 2 11 3 12 4 13 5 14 6 15 7 16 8 17 9 18 10 19 11
REMARK SMILES IDX 20 12 8 13 7 14 6 15 5 16 4 17 3 18 2 19 1 20
REMARK H PARENT
REMARK Flexibility Score: inf
ROOT
ATOM      1  C   UNL     1      -4.500 103.354  63.407  1.00  0.00    -0.031 C 
ATOM      2  C   UNL     1      -3.970 102.117  63.437  1.00  0.00    -0.031 C 
ENDROOT
BRANCH   1   3
ATOM      3  C   UNL     1      -4.415 104.364  64.526  1.00  0.00     0.027 C 
BRANCH   3   4
ATOM      4  C   UNL     1      -3.434 105.496  64.191  1.00  0.00     0.004 C 
BRANCH   4   5
ATOM      5  C   UNL     1      -3.971 106.875  64.614  1.00  0.00     0.000 C 
BRANCH   5   6
ATOM      6  C   UNL     1      -3.869 107.112  66.128  1.00  0.00     0.000 C 
BRANCH   6   7
ATOM      7  C   UNL     1      -4.055 108.588  66.508  1.00  0.00     0.000 C 
BRANCH   7   8
ATOM      8  C   UNL     1      -4.858 108.722  67.808  1.00  0.00     0.006 C 
BRANCH   8   9
ATOM      9  C   UNL     1      -5.885 107.591  67.939  1.00  0.00     0.053 C 
BRANCH   9  10
ATOM     10  C   UNL     1      -7.256 108.085  67.599  1.00  0.00     0.041 C 
ATOM     11  O   UNL     1      -8.123 107.288  67.153  1.00  0.00    -0.550 OA
ATOM     12  O   UNL     1      -7.590 109.416  67.816  1.00  0.00    -0.550 OA
ENDBRANCH   9  10
ENDBRANCH   8   9
ENDBRANCH   7   8
ENDBRANCH   6   7
ENDBRANCH   5   6
ENDBRANCH   4   5
ENDBRANCH   3   4
ENDBRANCH   1   3
BRANCH   2  13
ATOM     13  C   UNL     1      -3.172 101.540  64.578  1.00  0.00     0.027 C 
BRANCH  13  14
ATOM     14  C   UNL     1      -1.756 101.089  64.174  1.00  0.00     0.004 C 
BRANCH  14  15
ATOM     15  C   UNL     1      -1.548 100.973  62.651  1.00  0.00     0.000 C 
BRANCH  15  16
ATOM     16  C   UNL     1      -0.061 101.007  62.260  1.00  0.00     0.000 C 
BRANCH  16  17
ATOM     17  C   UNL     1       0.765 101.809  63.276  1.00  0.00    -0.000 C 
BRANCH  17  18
ATOM     18  C   UNL     1       1.698 102.829  62.602  1.00  0.00    -0.000 C 
BRANCH  18  19
ATOM     19  C   UNL     1       1.354 104.282  62.969  1.00  0.00    -0.003 C 
ATOM     20  C   UNL     1       0.358 104.336  64.123  1.00  0.00     0.004 C 
ENDBRANCH  18  19
ENDBRANCH  17  18
ENDBRANCH  16  17
ENDBRANCH  15  16
ENDBRANCH  14  15
ENDBRANCH  13  14
ENDBRANCH   2  13
TORSDOF 15
ENDMDL
MODEL 3
REMARK VINA RESULT:     6.271      1.206      2.119
REMARK INTER + INTRA:          10.606
REMARK INTER:                  11.695
REMARK INTRA:                  -1.089
REMARK UNBOUND:                -1.165
REMARK SMILES CCCCCCCCC=CCCCCCCCC(=O)[O-]
REMARK SMILES IDX 10 1 9 2 11 3 12 4 13 5 14 6 15 7 16 8 17 9 18 10 19 11
REMARK SMILES IDX 20 12 8 13 7 14 6 15 5 16 4 17 3 18 2 19 1 20
REMARK H PARENT
REMARK Flexibility Score: inf
ROOT
ATOM      1  C   UNL     1      -4.428 103.258  63.695  1.00  0.00    -0.031 C 
ATOM      2  C   UNL     1      -4.363 104.591  63.518  1.00  0.00    -0.031 C 
ENDROOT
BRANCH   1   3
ATOM      3  C   UNL     1      -3.558 102.463  64.638  1.00  0.00     0.027 C 
BRANCH   3   4
ATOM      4  C   UNL     1      -2.933 101.248  63.939  1.00  0.00     0.004 C 
BRANCH   4   5
ATOM      5  C   UNL     1      -1.445 101.468  63.610  1.00  0.00     0.000 C 
BRANCH   5   6
ATOM      6  C   UNL     1      -1.008 100.743  62.327  1.00  0.00     0.000 C 
BRANCH   6   7
ATOM      7  C   UNL     1       0.409 101.134  61.883  1.00  0.00     0.000 C 
BRANCH   7   8
ATOM      8  C   UNL     1       1.174 101.810  63.028  1.00  0.00     0.006 C 
BRANCH   8   9
ATOM      9  C   UNL     1       1.806 103.127  62.564  1.00  0.00     0.053 C 
BRANCH   9  10
ATOM     10  C   UNL     1       1.120 104.293  63.203  1.00  0.00     0.041 C 
ATOM     11  O   UNL     1       1.018 105.386  62.584  1.00  0.00    -0.550 OA
ATOM     12  O   UNL     1       0.555 104.162  64.465  1.00  0.00    -0.550 OA
ENDBRANCH   9  10
ENDBRANCH   8   9
ENDBRANCH   7   8
ENDBRANCH   6   7
ENDBRANCH   5   6
ENDBRANCH   4   5
ENDBRANCH   3   4
ENDBRANCH   1   3
BRANCH   2  13
ATOM     13  C   UNL     1      -3.435 105.523  64.255  1.00  0.00     0.027 C 
BRANCH  13  14
ATOM     14  C   UNL     1      -4.117 106.814  64.741  1.00  0.00     0.004 C 
BRANCH  14  15
ATOM     15  C   UNL     1      -3.890 107.118  66.235  1.00  0.00     0.000 C 
BRANCH  15  16
ATOM     16  C   UNL     1      -4.077 108.609  66.563  1.00  0.00     0.000 C 
BRANCH  16  17
ATOM     17  C   UNL     1      -5.090 108.807  67.701  1.00  0.00    -0.000 C 
BRANCH  17  18
ATOM     18  C   UNL     1      -5.963 107.563  67.935  1.00  0.00    -0.000 C 
BRANCH  18  19
ATOM     19  C   UNL     1      -7.425 107.775  67.510  1.00  0.00    -0.003 C 
ATOM     20  C   UNL     1      -7.841 109.233  67.681  1.00  0.00     0.004 C 
ENDBRANCH  18  19
ENDBRANCH  17  18
ENDBRANCH  16  17
ENDBRANCH  15  16
ENDBRANCH  14  15
ENDBRANCH  13  14
ENDBRANCH   2  13
TORSDOF 15
ENDMDL
MODEL 4
REMARK VINA RESULT:     6.503      1.433      3.022
REMARK INTER + INTRA:          11.041
REMARK INTER:                  12.469
REMARK INTRA:                  -1.428
REMARK UNBOUND:                -1.165
REMARK SMILES CCCCCCCCC=CCCCCCCCC(=O)[O-]
REMARK SMILES IDX 10 1 9 2 11 3 12 4 13 5 14 6 15 7 16 8 17 9 18 10 19 11
REMARK SMILES IDX 20 12 8 13 7 14 6 15 5 16 4 17 3 18 2 19 1 20
REMARK H PARENT
REMARK Flexibility Score: inf
ROOT
ATOM      1  C   UNL     1      -5.748 104.596  67.441  1.00  0.00    -0.031 C 
ATOM      2  C   UNL     1      -6.770 105.121  68.143  1.00  0.00    -0.031 C 
ENDROOT
BRANCH   1   3
ATOM      3  C   UNL     1      -5.779 104.281  65.965  1.00  0.00     0.027 C 
BRANCH   3   4
ATOM      4  C   UNL     1      -4.505 103.552  65.517  1.00  0.00     0.004 C 
BRANCH   4   5
ATOM      5  C   UNL     1      -4.376 103.494  63.984  1.00  0.00     0.000 C 
BRANCH   5   6
ATOM      6  C   UNL     1      -3.874 102.132  63.482  1.00  0.00     0.000 C 
BRANCH   6   7
ATOM      7  C   UNL     1      -2.641 101.637  64.253  1.00  0.00     0.000 C 
BRANCH   7   8
ATOM      8  C   UNL     1      -1.436 101.484  63.316  1.00  0.00     0.006 C 
BRANCH   8   9
ATOM      9  C   UNL     1      -0.184 102.129  63.921  1.00  0.00     0.053 C 
BRANCH   9  10
ATOM     10  C   UNL     1       0.821 102.429  62.853  1.00  0.00     0.041 C 
ATOM     11  O   UNL     1       1.403 103.546  62.827  1.00  0.00    -0.550 OA
ATOM     12  O   UNL     1       1.146 101.460  61.912  1.00  0.00    -0.550 OA
ENDBRANCH   9  10
ENDBRANCH   8   9
ENDBRANCH   7   8
ENDBRANCH   6   7
ENDBRANCH   5   6
ENDBRANCH   4   5
ENDBRANCH   3   4
ENDBRANCH   1   3
BRANCH   2  13
ATOM     13  C   UNL     1      -8.107 105.516  67.571  1.00  0.00     0.027 C 
BRANCH  13  14
ATOM     14  C   UNL     1      -8.125 106.932  66.967  1.00  0.00     0.004 C 
BRANCH  14  15
ATOM     15  C   UNL     1      -8.047 108.061  68.015  1.00  0.00     0.000 C 
BRANCH  15  16
ATOM     16  C   UNL     1      -6.871 109.017  67.758  1.00  0.00     0.000 C 
BRANCH  16  17
ATOM     17  C   UNL     1      -5.941 108.476  66.662  1.00  0.00    -0.000 C 
BRANCH  17  18
ATOM     18  C   UNL     1      -4.460 108.781  66.943  1.00  0.00    -0.000 C 
BRANCH  18  19
ATOM     19  C   UNL     1      -3.758 107.655  67.719  1.00  0.00    -0.003 C 
ATOM     20  C   UNL     1      -4.298 107.549  69.142  1.00  0.00     0.004 C 
ENDBRANCH  18  19
ENDBRANCH  17  18
ENDBRANCH  16  17
ENDBRANCH  15  16
ENDBRANCH  14  15
ENDBRANCH  13  14
ENDBRANCH   2  13
TORSDOF 15
ENDMDL
MODEL 5
REMARK VINA RESULT:     6.548      7.032      9.676
REMARK INTER + INTRA:          11.124
REMARK INTER:                  11.857
REMARK INTRA:                  -0.732
REMARK UNBOUND:                -1.165
REMARK SMILES CCCCCCCCC=CCCCCCCCC(=O)[O-]
REMARK SMILES IDX 10 1 9 2 11 3 12 4 13 5 14 6 15 7 16 8 17 9 18 10 19 11
REMARK SMILES IDX 20 12 8 13 7 14 6 15 5 16 4 17 3 18 2 19 1 20
REMARK H PARENT
REMARK Flexibility Score: inf
ROOT
ATOM      1  C   UNL     1      -3.625 108.181  66.306  1.00  0.00    -0.031 C 
ATOM      2  C   UNL     1      -4.104 107.551  67.395  1.00  0.00    -0.031 C 
ENDROOT
BRANCH   1   3
ATOM      3  C   UNL     1      -3.861 109.633  65.968  1.00  0.00     0.027 C 
BRANCH   3   4
ATOM      4  C   UNL     1      -2.539 110.392  65.789  1.00  0.00     0.004 C 
BRANCH   4   5
ATOM      5  C   UNL     1      -2.758 111.903  65.594  1.00  0.00     0.000 C 
BRANCH   5   6
ATOM      6  C   UNL     1      -2.572 112.702  66.893  1.00  0.00     0.000 C 
BRANCH   6   7
ATOM      7  C   UNL     1      -3.764 112.557  67.850  1.00  0.00     0.000 C 
BRANCH   7   8
ATOM      8  C   UNL     1      -4.079 113.892  68.537  1.00  0.00     0.006 C 
BRANCH   8   9
ATOM      9  C   UNL     1      -5.553 114.270  68.355  1.00  0.00     0.053 C 
BRANCH   9  10
ATOM     10  C   UNL     1      -5.737 115.749  68.487  1.00  0.00     0.041 C 
ATOM     11  O   UNL     1      -5.177 116.376  69.425  1.00  0.00    -0.550 OA
ATOM     12  O   UNL     1      -6.492 116.443  67.550  1.00  0.00    -0.550 OA
ENDBRANCH   9  10
ENDBRANCH   8   9
ENDBRANCH   7   8
ENDBRANCH   6   7
ENDBRANCH   5   6
ENDBRANCH   4   5
ENDBRANCH   3   4
ENDBRANCH   1   3
BRANCH   2  13
ATOM     13  C   UNL     1      -4.929 108.194  68.480  1.00  0.00     0.027 C 
BRANCH  13  14
ATOM     14  C   UNL     1      -5.771 109.386  67.989  1.00  0.00     0.004 C 
BRANCH  14  15
ATOM     15  C   UNL     1      -7.279 109.251  68.282  1.00  0.00     0.000 C 
BRANCH  15  16
ATOM     16  C   UNL     1      -8.087 108.882  67.027  1.00  0.00     0.000 C 
BRANCH  16  17
ATOM     17  C   UNL     1      -8.068 107.367  66.776  1.00  0.00    -0.000 C 
BRANCH  17  18
ATOM     18  C   UNL     1      -8.119 106.554  68.081  1.00  0.00    -0.000 C 
BRANCH  18  19
ATOM     19  C   UNL     1      -8.125 105.036  67.835  1.00  0.00    -0.003 C 
ATOM     20  C   UNL     1      -6.732 104.443  68.024  1.00  0.00     0.004 C 
ENDBRANCH  18  19
ENDBRANCH  17  18
ENDBRANCH  16  17
ENDBRANCH  15  16
ENDBRANCH  14  15
ENDBRANCH  13  14
ENDBRANCH   2  13
TORSDOF 15
ENDMDL
MODEL 6
REMARK VINA RESULT:     6.779      5.808     10.239
REMARK INTER + INTRA:          11.558
REMARK INTER:                  12.527
REMARK INTRA:                  -0.969
REMARK UNBOUND:                -1.165
REMARK SMILES CCCCCCCCC=CCCCCCCCC(=O)[O-]
REMARK SMILES IDX 10 1 9 2 11 3 12 4 13 5 14 6 15 7 16 8 17 9 18 10 19 11
REMARK SMILES IDX 20 12 8 13 7 14 6 15 5 16 4 17 3 18 2 19 1 20
REMARK H PARENT
REMARK Flexibility Score: inf
ROOT
ATOM      1  C   UNL     1      -4.076 107.794  67.951  1.00  0.00    -0.031 C 
ATOM      2  C   UNL     1      -5.052 107.062  68.519  1.00  0.00    -0.031 C 
ENDROOT
BRANCH   1   3
ATOM      3  C   UNL     1      -4.214 108.586  66.673  1.00  0.00     0.027 C 
BRANCH   3   4
ATOM      4  C   UNL     1      -4.280 110.095  66.949  1.00  0.00     0.004 C 
BRANCH   4   5
ATOM      5  C   UNL     1      -3.123 110.859  66.282  1.00  0.00     0.000 C 
BRANCH   5   6
ATOM      6  C   UNL     1      -3.079 112.340  66.686  1.00  0.00     0.000 C 
BRANCH   6   7
ATOM      7  C   UNL     1      -3.671 112.589  68.080  1.00  0.00     0.000 C 
BRANCH   7   8
ATOM      8  C   UNL     1      -3.990 114.076  68.282  1.00  0.00     0.006 C 
BRANCH   8   9
ATOM      9  C   UNL     1      -5.504 114.318  68.279  1.00  0.00     0.053 C 
BRANCH   9  10
ATOM     10  C   UNL     1      -5.814 115.713  68.725  1.00  0.00     0.041 C 
ATOM     11  O   UNL     1      -5.752 116.016  69.946  1.00  0.00    -0.550 OA
ATOM     12  O   UNL     1      -6.129 116.689  67.788  1.00  0.00    -0.550 OA
ENDBRANCH   9  10
ENDBRANCH   8   9
ENDBRANCH   7   8
ENDBRANCH   6   7
ENDBRANCH   5   6
ENDBRANCH   4   5
ENDBRANCH   3   4
ENDBRANCH   1   3
BRANCH   2  13
ATOM     13  C   UNL     1      -6.460 106.934  67.997  1.00  0.00     0.027 C 
BRANCH  13  14
ATOM     14  C   UNL     1      -6.895 105.478  67.750  1.00  0.00     0.004 C 
BRANCH  14  15
ATOM     15  C   UNL     1      -5.741 104.540  67.340  1.00  0.00     0.000 C 
BRANCH  15  16
ATOM     16  C   UNL     1      -5.796 104.162  65.851  1.00  0.00     0.000 C 
BRANCH  16  17
ATOM     17  C   UNL     1      -4.423 103.698  65.342  1.00  0.00    -0.000 C 
BRANCH  17  18
ATOM     18  C   UNL     1      -4.401 103.484  63.819  1.00  0.00    -0.000 C 
BRANCH  18  19
ATOM     19  C   UNL     1      -3.858 102.102  63.422  1.00  0.00    -0.003 C 
ATOM     20  C   UNL     1      -2.960 101.530  64.514  1.00  0.00     0.004 C 
ENDBRANCH  18  19
ENDBRANCH  17  18
ENDBRANCH  16  17
ENDBRANCH  15  16
ENDBRANCH  14  15
ENDBRANCH  13  14
ENDBRANCH   2  13
TORSDOF 15
ENDMDL
MODEL 7
REMARK VINA RESULT:     7.159      3.770      5.516
REMARK INTER + INTRA:          12.272
REMARK INTER:                  12.639
REMARK INTRA:                  -0.367
REMARK UNBOUND:                -1.165
REMARK SMILES CCCCCCCCC=CCCCCCCCC(=O)[O-]
REMARK SMILES IDX 10 1 9 2 11 3 12 4 13 5 14 6 15 7 16 8 17 9 18 10 19 11
REMARK SMILES IDX 20 12 8 13 7 14 6 15 5 16 4 17 3 18 2 19 1 20
REMARK H PARENT
REMARK Flexibility Score: inf
ROOT
ATOM      1  C   UNL     1      -5.491 107.964  67.908  1.00  0.00    -0.031 C 
ATOM      2  C   UNL     1      -5.603 109.249  67.520  1.00  0.00    -0.031 C 
ENDROOT
BRANCH   1   3
ATOM      3  C   UNL     1      -4.191 107.212  68.059  1.00  0.00     0.027 C 
BRANCH   3   4
ATOM      4  C   UNL     1      -3.318 107.338  66.802  1.00  0.00     0.004 C 
BRANCH   4   5
ATOM      5  C   UNL     1      -4.025 106.797  65.547  1.00  0.00     0.000 C 
BRANCH   5   6
ATOM      6  C   UNL     1      -3.195 105.735  64.809  1.00  0.00     0.000 C 
BRANCH   6   7
ATOM      7  C   UNL     1      -3.975 105.063  63.671  1.00  0.00     0.000 C 
BRANCH   7   8
ATOM      8  C   UNL     1      -4.588 103.736  64.136  1.00  0.00     0.006 C 
BRANCH   8   9
ATOM      9  C   UNL     1      -4.144 102.579  63.233  1.00  0.00     0.053 C 
BRANCH   9  10
ATOM     10  C   UNL     1      -3.049 101.794  63.884  1.00  0.00     0.041 C 
ATOM     11  O   UNL     1      -3.092 101.552  65.120  1.00  0.00    -0.550 OA
ATOM     12  O   UNL     1      -2.004 101.293  63.120  1.00  0.00    -0.550 OA
ENDBRANCH   9  10
ENDBRANCH   8   9
ENDBRANCH   7   8
ENDBRANCH   6   7
ENDBRANCH   5   6
ENDBRANCH   4   5
ENDBRANCH   3   4
ENDBRANCH   1   3
BRANCH   2  13
ATOM     13  C   UNL     1      -4.450 110.166  67.204  1.00  0.00     0.027 C 
BRANCH  13  14
ATOM     14  C   UNL     1      -4.337 111.366  68.163  1.00  0.00     0.004 C 
BRANCH  14  15
ATOM     15  C   UNL     1      -3.531 112.550  67.592  1.00  0.00     0.000 C 
BRANCH  15  16
ATOM     16  C   UNL     1      -3.906 113.886  68.255  1.00  0.00     0.000 C 
BRANCH  16  17
ATOM     17  C   UNL     1      -5.427 114.100  68.256  1.00  0.00    -0.000 C 
BRANCH  17  18
ATOM     18  C   UNL     1      -5.812 115.589  68.215  1.00  0.00    -0.000 C 
BRANCH  18  19
ATOM     19  C   UNL     1      -5.359 116.353  69.469  1.00  0.00    -0.003 C 
ATOM     20  C   UNL     1      -5.846 115.662  70.740  1.00  0.00     0.004 C 
ENDBRANCH  18  19
ENDBRANCH  17  18
ENDBRANCH  16  17
ENDBRANCH  15  16
ENDBRANCH  14  15
ENDBRANCH  13  14
ENDBRANCH   2  13
TORSDOF 15
ENDMDL
MODEL 8
REMARK VINA RESULT:     7.286      5.740     10.303
REMARK INTER + INTRA:          12.510
REMARK INTER:                  12.997
REMARK INTRA:                  -0.487
REMARK UNBOUND:                -1.165
REMARK SMILES CCCCCCCCC=CCCCCCCCC(=O)[O-]
REMARK SMILES IDX 10 1 9 2 11 3 12 4 13 5 14 6 15 7 16 8 17 9 18 10 19 11
REMARK SMILES IDX 20 12 8 13 7 14 6 15 5 16 4 17 3 18 2 19 1 20
REMARK H PARENT
REMARK Flexibility Score: inf
ROOT
ATOM      1  C   UNL     1      -5.890 107.381  68.274  1.00  0.00    -0.031 C 
ATOM      2  C   UNL     1      -4.630 106.920  68.161  1.00  0.00    -0.031 C 
ENDROOT
BRANCH   1   3
ATOM      3  C   UNL     1      -6.480 108.508  67.461  1.00  0.00     0.027 C 
BRANCH   3   4
ATOM      4  C   UNL     1      -6.045 109.879  67.997  1.00  0.00     0.004 C 
BRANCH   4   5
ATOM      5  C   UNL     1      -4.729 110.361  67.360  1.00  0.00     0.000 C 
BRANCH   5   6
ATOM      6  C   UNL     1      -3.991 111.390  68.231  1.00  0.00     0.000 C 
BRANCH   6   7
ATOM      7  C   UNL     1      -3.907 112.772  67.567  1.00  0.00     0.000 C 
BRANCH   7   8
ATOM      8  C   UNL     1      -4.235 113.883  68.572  1.00  0.00     0.006 C 
BRANCH   8   9
ATOM      9  C   UNL     1      -5.617 114.485  68.296  1.00  0.00     0.053 C 
BRANCH   9  10
ATOM     10  C   UNL     1      -5.766 115.801  68.991  1.00  0.00     0.041 C 
ATOM     11  O   UNL     1      -5.883 115.847  70.245  1.00  0.00    -0.550 OA
ATOM     12  O   UNL     1      -5.732 116.982  68.260  1.00  0.00    -0.550 OA
ENDBRANCH   9  10
ENDBRANCH   8   9
ENDBRANCH   7   8
ENDBRANCH   6   7
ENDBRANCH   5   6
ENDBRANCH   4   5
ENDBRANCH   3   4
ENDBRANCH   1   3
BRANCH   2  13
ATOM     13  C   UNL     1      -3.603 107.426  67.180  1.00  0.00     0.027 C 
BRANCH  13  14
ATOM     14  C   UNL     1      -3.982 107.177  65.709  1.00  0.00     0.004 C 
BRANCH  14  15
ATOM     15  C   UNL     1      -3.348 105.908  65.105  1.00  0.00     0.000 C 
BRANCH  15  16
ATOM     16  C   UNL     1      -3.866 105.614  63.687  1.00  0.00     0.000 C 
BRANCH  16  17
ATOM     17  C   UNL     1      -4.700 104.325  63.653  1.00  0.00    -0.000 C 
BRANCH  17  18
ATOM     18  C   UNL     1      -4.118 103.223  64.554  1.00  0.00    -0.000 C 
BRANCH  18  19
ATOM     19  C   UNL     1      -3.519 102.056  63.752  1.00  0.00    -0.003 C 
ATOM     20  C   UNL     1      -2.630 101.183  64.632  1.00  0.00     0.004 C 
ENDBRANCH  18  19
ENDBRANCH  17  18
ENDBRANCH  16  17
ENDBRANCH  15  16
ENDBRANCH  14  15
ENDBRANCH  13  14
ENDBRANCH   2  13
TORSDOF 15
ENDMDL
MODEL 9
REMARK VINA RESULT:     7.333      3.918      6.063
REMARK INTER + INTRA:          12.599
REMARK INTER:                  13.551
REMARK INTRA:                  -0.952
REMARK UNBOUND:                -1.165
REMARK SMILES CCCCCCCCC=CCCCCCCCC(=O)[O-]
REMARK SMILES IDX 10 1 9 2 11 3 12 4 13 5 14 6 15 7 16 8 17 9 18 10 19 11
REMARK SMILES IDX 20 12 8 13 7 14 6 15 5 16 4 17 3 18 2 19 1 20
REMARK H PARENT
REMARK Flexibility Score: inf
ROOT
ATOM      1  C   UNL     1      -4.286 107.630  67.213  1.00  0.00    -0.031 C 
ATOM      2  C   UNL     1      -3.688 108.660  66.585  1.00  0.00    -0.031 C 
ENDROOT
BRANCH   1   3
ATOM      3  C   UNL     1      -5.307 107.761  68.319  1.00  0.00     0.027 C 
BRANCH   3   4
ATOM      4  C   UNL     1      -6.722 107.964  67.759  1.00  0.00     0.004 C 
BRANCH   4   5
ATOM      5  C   UNL     1      -7.454 106.629  67.534  1.00  0.00     0.000 C 
BRANCH   5   6
ATOM      6  C   UNL     1      -6.603 105.412  67.925  1.00  0.00     0.000 C 
BRANCH   6   7
ATOM      7  C   UNL     1      -6.555 104.346  66.820  1.00  0.00     0.000 C 
BRANCH   7   8
ATOM      8  C   UNL     1      -5.106 103.962  66.493  1.00  0.00     0.006 C 
BRANCH   8   9
ATOM      9  C   UNL     1      -4.715 104.438  65.089  1.00  0.00     0.053 C 
BRANCH   9  10
ATOM     10  C   UNL     1      -4.393 103.271  64.210  1.00  0.00     0.041 C 
ATOM     11  O   UNL     1      -3.608 102.371  64.612  1.00  0.00    -0.550 OA
ATOM     12  O   UNL     1      -4.993 103.154  62.962  1.00  0.00    -0.550 OA
ENDBRANCH   9  10
ENDBRANCH   8   9
ENDBRANCH   7   8
ENDBRANCH   6   7
ENDBRANCH   5   6
ENDBRANCH   4   5
ENDBRANCH   3   4
ENDBRANCH   1   3
BRANCH   2  13
ATOM     13  C   UNL     1      -3.958 110.118  66.853  1.00  0.00     0.027 C 
BRANCH  13  14
ATOM     14  C   UNL     1      -2.981 111.067  66.134  1.00  0.00     0.004 C 
BRANCH  14  15
ATOM     15  C   UNL     1      -2.948 112.493  66.720  1.00  0.00     0.000 C 
BRANCH  15  16
ATOM     16  C   UNL     1      -3.902 112.656  67.914  1.00  0.00     0.000 C 
BRANCH  16  17
ATOM     17  C   UNL     1      -4.039 114.131  68.322  1.00  0.00    -0.000 C 
BRANCH  17  18
ATOM     18  C   UNL     1      -5.490 114.633  68.239  1.00  0.00    -0.000 C 
BRANCH  18  19
ATOM     19  C   UNL     1      -5.701 115.963  68.980  1.00  0.00    -0.003 C 
ATOM     20  C   UNL     1      -5.916 115.732  70.473  1.00  0.00     0.004 C 
ENDBRANCH  18  19
ENDBRANCH  17  18
ENDBRANCH  16  17
ENDBRANCH  15  16
ENDBRANCH  14  15
ENDBRANCH  13  14
ENDBRANCH   2  13
TORSDOF 15
ENDMDL
