MODEL 1
REMARK VINA RESULT:    -3.948      0.000      0.000
REMARK INTER + INTRA:          -6.714
REMARK INTER:                  -6.256
REMARK INTRA:                  -0.457
REMARK UNBOUND:                -0.457
REMARK SMILES CCCCCCCCCCCC(=O)[O-]
REMARK SMILES IDX 7 1 8 2 9 3 10 4 11 5 12 6 13 7 14 8 6 9 5 10 4 11 3 12 2 13
REMARK SMILES IDX 1 14
REMARK H PARENT
REMARK Flexibility Score: inf
ROOT
ATOM      1  C   UNL     1      19.907 -21.150 -19.994  1.00  0.00     0.000 C 
ENDROOT
BRANCH   1   2
ATOM      2  C   UNL     1      20.536 -20.008 -19.170  1.00  0.00     0.000 C 
BRANCH   2   3
ATOM      3  C   UNL     1      21.422 -20.460 -17.993  1.00  0.00     0.000 C 
BRANCH   3   4
ATOM      4  C   UNL     1      21.465 -19.490 -16.795  1.00  0.00     0.006 C 
BRANCH   4   5
ATOM      5  C   UNL     1      21.105 -18.037 -17.144  1.00  0.00     0.053 C 
BRANCH   5   6
ATOM      6  C   UNL     1      22.303 -17.139 -17.106  1.00  0.00     0.041 C 
ATOM      7  O   UNL     1      23.463 -17.629 -17.090  1.00  0.00    -0.550 OA
ATOM      8  O   UNL     1      22.138 -15.760 -17.055  1.00  0.00    -0.550 OA
ENDBRANCH   5   6
ENDBRANCH   4   5
ENDBRANCH   3   4
ENDBRANCH   2   3
ENDBRANCH   1   2
BRANCH   1   9
ATOM      9  C   UNL     1      19.393 -22.341 -19.164  1.00  0.00     0.000 C 
BRANCH   9  10
ATOM     10  C   UNL     1      17.966 -22.806 -19.513  1.00  0.00    -0.000 C 
BRANCH  10  11
ATOM     11  C   UNL     1      17.302 -23.656 -18.408  1.00  0.00    -0.000 C 
BRANCH  11  12
ATOM     12  C   UNL     1      16.052 -24.401 -18.910  1.00  0.00    -0.000 C 
BRANCH  12  13
ATOM     13  C   UNL     1      14.802 -24.080 -18.076  1.00  0.00    -0.003 C 
ATOM     14  C   UNL     1      15.033 -22.948 -17.077  1.00  0.00     0.004 C 
ENDBRANCH  12  13
ENDBRANCH  11  12
ENDBRANCH  10  11
ENDBRANCH   9  10
ENDBRANCH   1   9
TORSDOF 10
ENDMDL
MODEL 2
REMARK VINA RESULT:    -3.914     19.895     22.019
REMARK INTER + INTRA:          -6.660
REMARK INTER:                  -6.353
REMARK INTRA:                  -0.306
REMARK UNBOUND:                -0.457
REMARK SMILES CCCCCCCCCCCC(=O)[O-]
REMARK SMILES IDX 7 1 8 2 9 3 10 4 11 5 12 6 13 7 14 8 6 9 5 10 4 11 3 12 2 13
REMARK SMILES IDX 1 14
REMARK H PARENT
REMARK Flexibility Score: inf
ROOT
ATOM      1  C   UNL     1       5.527  -6.221  -7.563  1.00  0.00     0.000 C 
ENDROOT
BRANCH   1   2
ATOM      2  C   UNL     1       4.973  -6.315  -8.999  1.00  0.00     0.000 C 
BRANCH   2   3
ATOM      3  C   UNL     1       5.264  -7.642  -9.728  1.00  0.00     0.000 C 
BRANCH   3   4
ATOM      4  C   UNL     1       5.341  -7.541 -11.265  1.00  0.00     0.006 C 
BRANCH   4   5
ATOM      5  C   UNL     1       5.635  -8.873 -11.973  1.00  0.00     0.053 C 
BRANCH   5   6
ATOM      6  C   UNL     1       5.899  -9.979 -10.997  1.00  0.00     0.041 C 
ATOM      7  O   UNL     1       7.050 -10.135 -10.511  1.00  0.00    -0.550 OA
ATOM      8  O   UNL     1       4.880 -10.858 -10.650  1.00  0.00    -0.550 OA
ENDBRANCH   5   6
ENDBRANCH   4   5
ENDBRANCH   3   4
ENDBRANCH   2   3
ENDBRANCH   1   2
BRANCH   1   9
ATOM      9  C   UNL     1       6.185  -4.875  -7.208  1.00  0.00     0.000 C 
BRANCH   9  10
ATOM     10  C   UNL     1       7.562  -4.986  -6.527  1.00  0.00    -0.000 C 
BRANCH  10  11
ATOM     11  C   UNL     1       8.211  -6.381  -6.661  1.00  0.00    -0.000 C 
BRANCH  11  12
ATOM     12  C   UNL     1       9.706  -6.372  -6.297  1.00  0.00    -0.000 C 
BRANCH  12  13
ATOM     13  C   UNL     1      10.192  -4.986  -5.844  1.00  0.00    -0.003 C 
ATOM     14  C   UNL     1      10.470  -4.921  -4.343  1.00  0.00     0.004 C 
ENDBRANCH  12  13
ENDBRANCH  11  12
ENDBRANCH  10  11
ENDBRANCH   9  10
ENDBRANCH   1   9
TORSDOF 10
ENDMDL
MODEL 3
REMARK VINA RESULT:    -3.909      3.064      4.921
REMARK INTER + INTRA:          -6.652
REMARK INTER:                  -6.084
REMARK INTRA:                  -0.567
REMARK UNBOUND:                -0.457
REMARK SMILES CCCCCCCCCCCC(=O)[O-]
REMARK SMILES IDX 7 1 8 2 9 3 10 4 11 5 12 6 13 7 14 8 6 9 5 10 4 11 3 12 2 13
REMARK SMILES IDX 1 14
REMARK H PARENT
REMARK Flexibility Score: inf
ROOT
ATOM      1  C   UNL     1      22.418 -18.355 -17.306  1.00  0.00     0.000 C 
ENDROOT
BRANCH   1   2
ATOM      2  C   UNL     1      21.673 -17.035 -17.021  1.00  0.00     0.000 C 
BRANCH   2   3
ATOM      3  C   UNL     1      20.255 -17.196 -16.438  1.00  0.00     0.000 C 
BRANCH   3   4
ATOM      4  C   UNL     1      19.519 -15.877 -16.131  1.00  0.00     0.006 C 
BRANCH   4   5
ATOM      5  C   UNL     1      18.162 -16.055 -15.434  1.00  0.00     0.053 C 
BRANCH   5   6
ATOM      6  C   UNL     1      17.184 -14.992 -15.833  1.00  0.00     0.041 C 
ATOM      7  O   UNL     1      17.060 -13.950 -15.139  1.00  0.00    -0.550 OA
ATOM      8  O   UNL     1      16.385 -15.170 -16.956  1.00  0.00    -0.550 OA
ENDBRANCH   5   6
ENDBRANCH   4   5
ENDBRANCH   3   4
ENDBRANCH   2   3
ENDBRANCH   1   2
BRANCH   1   9
ATOM      9  C   UNL     1      21.693 -19.626 -16.827  1.00  0.00     0.000 C 
BRANCH   9  10
ATOM     10  C   UNL     1      21.411 -20.665 -17.929  1.00  0.00    -0.000 C 
BRANCH  10  11
ATOM     11  C   UNL     1      20.747 -20.068 -19.190  1.00  0.00    -0.000 C 
BRANCH  11  12
ATOM     12  C   UNL     1      19.705 -21.015 -19.810  1.00  0.00    -0.000 C 
BRANCH  12  13
ATOM     13  C   UNL     1      19.650 -22.377 -19.098  1.00  0.00    -0.003 C 
ATOM     14  C   UNL     1      18.329 -23.110 -19.329  1.00  0.00     0.004 C 
ENDBRANCH  12  13
ENDBRANCH  11  12
ENDBRANCH  10  11
ENDBRANCH   9  10
ENDBRANCH   1   9
TORSDOF 10
ENDMDL
MODEL 4
REMARK VINA RESULT:    -3.875      5.176      7.543
REMARK INTER + INTRA:          -6.597
REMARK INTER:                  -5.581
REMARK INTRA:                  -1.016
REMARK UNBOUND:                -0.457
REMARK SMILES CCCCCCCCCCCC(=O)[O-]
REMARK SMILES IDX 7 1 8 2 9 3 10 4 11 5 12 6 13 7 14 8 6 9 5 10 4 11 3 12 2 13
REMARK SMILES IDX 1 14
REMARK H PARENT
REMARK Flexibility Score: inf
ROOT
ATOM      1  C   UNL     1      21.310 -19.197 -17.320  1.00  0.00     0.000 C 
ENDROOT
BRANCH   1   2
ATOM      2  C   UNL     1      20.842 -17.727 -17.296  1.00  0.00     0.000 C 
BRANCH   2   3
ATOM      3  C   UNL     1      20.098 -17.297 -16.017  1.00  0.00     0.000 C 
BRANCH   3   4
ATOM      4  C   UNL     1      19.328 -15.965 -16.124  1.00  0.00     0.006 C 
BRANCH   4   5
ATOM      5  C   UNL     1      18.004 -15.935 -15.345  1.00  0.00     0.053 C 
BRANCH   5   6
ATOM      6  C   UNL     1      17.100 -14.838 -15.821  1.00  0.00     0.041 C 
ATOM      7  O   UNL     1      17.052 -13.742 -15.203  1.00  0.00    -0.550 OA
ATOM      8  O   UNL     1      16.286 -15.040 -16.928  1.00  0.00    -0.550 OA
ENDBRANCH   5   6
ENDBRANCH   4   5
ENDBRANCH   3   4
ENDBRANCH   2   3
ENDBRANCH   1   2
BRANCH   1   9
ATOM      9  C   UNL     1      22.802 -19.408 -17.003  1.00  0.00     0.000 C 
BRANCH   9  10
ATOM     10  C   UNL     1      23.757 -18.414 -17.690  1.00  0.00    -0.000 C 
BRANCH  10  11
ATOM     11  C   UNL     1      24.706 -17.687 -16.711  1.00  0.00    -0.000 C 
BRANCH  11  12
ATOM     12  C   UNL     1      24.094 -16.389 -16.155  1.00  0.00    -0.000 C 
BRANCH  12  13
ATOM     13  C   UNL     1      23.701 -15.401 -17.266  1.00  0.00    -0.003 C 
ATOM     14  C   UNL     1      22.603 -14.432 -16.832  1.00  0.00     0.004 C 
ENDBRANCH  12  13
ENDBRANCH  11  12
ENDBRANCH  10  11
ENDBRANCH   9  10
ENDBRANCH   1   9
TORSDOF 10
ENDMDL
MODEL 5
REMARK VINA RESULT:    -3.865      1.341      2.229
REMARK INTER + INTRA:          -6.582
REMARK INTER:                  -6.027
REMARK INTRA:                  -0.556
REMARK UNBOUND:                -0.457
REMARK SMILES CCCCCCCCCCCC(=O)[O-]
REMARK SMILES IDX 7 1 8 2 9 3 10 4 11 5 12 6 13 7 14 8 6 9 5 10 4 11 3 12 2 13
REMARK SMILES IDX 1 14
REMARK H PARENT
REMARK Flexibility Score: inf
ROOT
ATOM      1  C   UNL     1      18.128 -22.659 -19.613  1.00  0.00     0.000 C 
ENDROOT
BRANCH   1   2
ATOM      2  C   UNL     1      19.581 -22.634 -19.097  1.00  0.00     0.000 C 
BRANCH   2   3
ATOM      3  C   UNL     1      20.427 -21.438 -19.577  1.00  0.00     0.000 C 
BRANCH   3   4
ATOM      4  C   UNL     1      21.068 -20.596 -18.455  1.00  0.00     0.006 C 
BRANCH   4   5
ATOM      5  C   UNL     1      20.730 -19.098 -18.514  1.00  0.00     0.053 C 
BRANCH   5   6
ATOM      6  C   UNL     1      21.232 -18.364 -17.309  1.00  0.00     0.041 C 
ATOM      7  O   UNL     1      22.343 -18.665 -16.800  1.00  0.00    -0.550 OA
ATOM      8  O   UNL     1      20.456 -17.368 -16.728  1.00  0.00    -0.550 OA
ENDBRANCH   5   6
ENDBRANCH   4   5
ENDBRANCH   3   4
ENDBRANCH   2   3
ENDBRANCH   1   2
BRANCH   1   9
ATOM      9  C   UNL     1      17.274 -23.828 -19.089  1.00  0.00     0.000 C 
BRANCH   9  10
ATOM     10  C   UNL     1      16.622 -23.589 -17.714  1.00  0.00    -0.000 C 
BRANCH  10  11
ATOM     11  C   UNL     1      15.098 -23.839 -17.698  1.00  0.00    -0.000 C 
BRANCH  11  12
ATOM     12  C   UNL     1      14.597 -24.501 -18.993  1.00  0.00    -0.000 C 
BRANCH  12  13
ATOM     13  C   UNL     1      13.526 -23.660 -19.707  1.00  0.00    -0.003 C 
ATOM     14  C   UNL     1      13.921 -22.191 -19.841  1.00  0.00     0.004 C 
ENDBRANCH  12  13
ENDBRANCH  11  12
ENDBRANCH  10  11
ENDBRANCH   9  10
ENDBRANCH   1   9
TORSDOF 10
ENDMDL
MODEL 6
REMARK VINA RESULT:    -3.833     19.790     21.279
REMARK INTER + INTRA:          -6.531
REMARK INTER:                  -6.052
REMARK INTRA:                  -0.479
REMARK UNBOUND:                -0.457
REMARK SMILES CCCCCCCCCCCC(=O)[O-]
REMARK SMILES IDX 7 1 8 2 9 3 10 4 11 5 12 6 13 7 14 8 6 9 5 10 4 11 3 12 2 13
REMARK SMILES IDX 1 14
REMARK H PARENT
REMARK Flexibility Score: inf
ROOT
ATOM      1  C   UNL     1       6.000  -6.625  -7.631  1.00  0.00     0.000 C 
ENDROOT
BRANCH   1   2
ATOM      2  C   UNL     1       6.231  -5.155  -7.226  1.00  0.00     0.000 C 
BRANCH   2   3
ATOM      3  C   UNL     1       7.565  -4.876  -6.505  1.00  0.00     0.000 C 
BRANCH   3   4
ATOM      4  C   UNL     1       8.564  -6.050  -6.499  1.00  0.00     0.006 C 
BRANCH   4   5
ATOM      5  C   UNL     1       9.995  -5.662  -6.096  1.00  0.00     0.053 C 
BRANCH   5   6
ATOM      6  C   UNL     1      10.231  -5.843  -4.627  1.00  0.00     0.041 C 
ATOM      7  O   UNL     1       9.615  -6.738  -3.991  1.00  0.00    -0.550 OA
ATOM      8  O   UNL     1      11.107  -4.999  -3.955  1.00  0.00    -0.550 OA
ENDBRANCH   5   6
ENDBRANCH   4   5
ENDBRANCH   3   4
ENDBRANCH   2   3
ENDBRANCH   1   2
BRANCH   1   9
ATOM      9  C   UNL     1       5.240  -6.821  -8.955  1.00  0.00     0.000 C 
BRANCH   9  10
ATOM     10  C   UNL     1       5.018  -8.289  -9.364  1.00  0.00    -0.000 C 
BRANCH  10  11
ATOM     11  C   UNL     1       6.293  -8.990  -9.881  1.00  0.00    -0.000 C 
BRANCH  11  12
ATOM     12  C   UNL     1       5.998  -9.981 -11.021  1.00  0.00    -0.000 C 
BRANCH  12  13
ATOM     13  C   UNL     1       4.994  -9.421 -12.042  1.00  0.00    -0.003 C 
ATOM     14  C   UNL     1       5.586  -8.307 -12.902  1.00  0.00     0.004 C 
ENDBRANCH  12  13
ENDBRANCH  11  12
ENDBRANCH  10  11
ENDBRANCH   9  10
ENDBRANCH   1   9
TORSDOF 10
ENDMDL
MODEL 7
REMARK VINA RESULT:    -3.776     14.103     15.151
REMARK INTER + INTRA:          -6.441
REMARK INTER:                  -6.186
REMARK INTRA:                  -0.255
REMARK UNBOUND:                -0.457
REMARK SMILES CCCCCCCCCCCC(=O)[O-]
REMARK SMILES IDX 7 1 8 2 9 3 10 4 11 5 12 6 13 7 14 8 6 9 5 10 4 11 3 12 2 13
REMARK SMILES IDX 1 14
REMARK H PARENT
REMARK Flexibility Score: inf
ROOT
ATOM      1  C   UNL     1       6.383 -20.051 -14.813  1.00  0.00     0.000 C 
ENDROOT
BRANCH   1   2
ATOM      2  C   UNL     1       6.384 -18.536 -15.103  1.00  0.00     0.000 C 
BRANCH   2   3
ATOM      3  C   UNL     1       5.104 -17.997 -15.773  1.00  0.00     0.000 C 
BRANCH   3   4
ATOM      4  C   UNL     1       5.223 -17.724 -17.286  1.00  0.00     0.006 C 
BRANCH   4   5
ATOM      5  C   UNL     1       5.621 -16.282 -17.640  1.00  0.00     0.053 C 
BRANCH   5   6
ATOM      6  C   UNL     1       5.796 -16.097 -19.117  1.00  0.00     0.041 C 
ATOM      7  O   UNL     1       5.959 -14.945 -19.597  1.00  0.00    -0.550 OA
ATOM      8  O   UNL     1       5.746 -17.196 -19.966  1.00  0.00    -0.550 OA
ENDBRANCH   5   6
ENDBRANCH   4   5
ENDBRANCH   3   4
ENDBRANCH   2   3
ENDBRANCH   1   2
BRANCH   1   9
ATOM      9  C   UNL     1       5.472 -20.488 -13.651  1.00  0.00     0.000 C 
BRANCH   9  10
ATOM     10  C   UNL     1       5.910 -21.780 -12.935  1.00  0.00    -0.000 C 
BRANCH  10  11
ATOM     11  C   UNL     1       4.875 -22.308 -11.918  1.00  0.00    -0.000 C 
BRANCH  11  12
ATOM     12  C   UNL     1       5.106 -21.752 -10.501  1.00  0.00    -0.000 C 
BRANCH  12  13
ATOM     13  C   UNL     1       5.737 -22.789  -9.558  1.00  0.00    -0.003 C 
ATOM     14  C   UNL     1       6.453 -22.148  -8.371  1.00  0.00     0.004 C 
ENDBRANCH  12  13
ENDBRANCH  11  12
ENDBRANCH  10  11
ENDBRANCH   9  10
ENDBRANCH   1   9
TORSDOF 10
ENDMDL
MODEL 8
REMARK VINA RESULT:    -3.760      4.329      7.510
REMARK INTER + INTRA:          -6.416
REMARK INTER:                  -5.954
REMARK INTRA:                  -0.462
REMARK UNBOUND:                -0.457
REMARK SMILES CCCCCCCCCCCC(=O)[O-]
REMARK SMILES IDX 7 1 8 2 9 3 10 4 11 5 12 6 13 7 14 8 6 9 5 10 4 11 3 12 2 13
REMARK SMILES IDX 1 14
REMARK H PARENT
REMARK Flexibility Score: inf
ROOT
ATOM      1  C   UNL     1      18.780 -22.440 -19.393  1.00  0.00     0.000 C 
ENDROOT
BRANCH   1   2
ATOM      2  C   UNL     1      18.502 -23.940 -19.620  1.00  0.00     0.000 C 
BRANCH   2   3
ATOM      3  C   UNL     1      17.148 -24.445 -19.083  1.00  0.00     0.000 C 
BRANCH   3   4
ATOM      4  C   UNL     1      16.544 -23.606 -17.940  1.00  0.00     0.006 C 
BRANCH   4   5
ATOM      5  C   UNL     1      15.050 -23.862 -17.687  1.00  0.00     0.053 C 
BRANCH   5   6
ATOM      6  C   UNL     1      14.199 -23.365 -18.816  1.00  0.00     0.041 C 
ATOM      7  O   UNL     1      13.392 -24.142 -19.392  1.00  0.00    -0.550 OA
ATOM      8  O   UNL     1      14.322 -22.052 -19.254  1.00  0.00    -0.550 OA
ENDBRANCH   5   6
ENDBRANCH   4   5
ENDBRANCH   3   4
ENDBRANCH   2   3
ENDBRANCH   1   2
BRANCH   1   9
ATOM      9  C   UNL     1      20.202 -22.111 -18.903  1.00  0.00     0.000 C 
BRANCH   9  10
ATOM     10  C   UNL     1      20.682 -20.682 -19.221  1.00  0.00    -0.000 C 
BRANCH  10  11
ATOM     11  C   UNL     1      21.943 -20.261 -18.435  1.00  0.00    -0.000 C 
BRANCH  11  12
ATOM     12  C   UNL     1      21.611 -19.750 -17.022  1.00  0.00    -0.000 C 
BRANCH  12  13
ATOM     13  C   UNL     1      20.993 -18.342 -17.036  1.00  0.00    -0.003 C 
ATOM     14  C   UNL     1      22.037 -17.241 -17.208  1.00  0.00     0.004 C 
ENDBRANCH  12  13
ENDBRANCH  11  12
ENDBRANCH  10  11
ENDBRANCH   9  10
ENDBRANCH   1   9
TORSDOF 10
ENDMDL
MODEL 9
REMARK VINA RESULT:    -3.756     13.629     15.209
REMARK INTER + INTRA:          -6.410
REMARK INTER:                  -5.856
REMARK INTRA:                  -0.554
REMARK UNBOUND:                -0.457
REMARK SMILES CCCCCCCCCCCC(=O)[O-]
REMARK SMILES IDX 7 1 8 2 9 3 10 4 11 5 12 6 13 7 14 8 6 9 5 10 4 11 3 12 2 13
REMARK SMILES IDX 1 14
REMARK H PARENT
REMARK Flexibility Score: inf
ROOT
ATOM      1  C   UNL     1       6.391 -20.176 -14.488  1.00  0.00     0.000 C 
ENDROOT
BRANCH   1   2
ATOM      2  C   UNL     1       6.416 -18.739 -15.048  1.00  0.00     0.000 C 
BRANCH   2   3
ATOM      3  C   UNL     1       5.477 -18.485 -16.244  1.00  0.00     0.000 C 
BRANCH   3   4
ATOM      4  C   UNL     1       4.876 -19.752 -16.885  1.00  0.00     0.006 C 
BRANCH   4   5
ATOM      5  C   UNL     1       5.291 -19.981 -18.347  1.00  0.00     0.053 C 
BRANCH   5   6
ATOM      6  C   UNL     1       6.210 -21.156 -18.491  1.00  0.00     0.041 C 
ATOM      7  O   UNL     1       7.082 -21.390 -17.614  1.00  0.00    -0.550 OA
ATOM      8  O   UNL     1       6.123 -21.973 -19.611  1.00  0.00    -0.550 OA
ENDBRANCH   5   6
ENDBRANCH   4   5
ENDBRANCH   3   4
ENDBRANCH   2   3
ENDBRANCH   1   2
BRANCH   1   9
ATOM      9  C   UNL     1       5.450 -20.389 -13.289  1.00  0.00     0.000 C 
BRANCH   9  10
ATOM     10  C   UNL     1       4.940 -21.832 -13.114  1.00  0.00    -0.000 C 
BRANCH  10  11
ATOM     11  C   UNL     1       5.370 -22.486 -11.782  1.00  0.00    -0.000 C 
BRANCH  11  12
ATOM     12  C   UNL     1       5.167 -21.551 -10.576  1.00  0.00    -0.000 C 
BRANCH  12  13
ATOM     13  C   UNL     1       5.167 -22.308  -9.238  1.00  0.00    -0.003 C 
ATOM     14  C   UNL     1       6.388 -21.985  -8.379  1.00  0.00     0.004 C 
ENDBRANCH  12  13
ENDBRANCH  11  12
ENDBRANCH  10  11
ENDBRANCH   9  10
ENDBRANCH   1   9
TORSDOF 10
ENDMDL
