MODEL 1
REMARK VINA RESULT:    29.717      0.000      0.000
REMARK INTER + INTRA:          32.055
REMARK INTER:                  32.322
REMARK INTRA:                  -0.268
REMARK UNBOUND:                -0.268
REMARK SMILES C[C@@H]1[C@H]2C3=CC[C@@H]4[C@]5(C)CC[C@@H](O)C(C)(C)[C@@H]5CC[C@]4(C)[C@]3(C)CC[C@@]2(C(=O)[O-])CC[C@@H]1C
REMARK SMILES IDX 26 1 30 2 25 3 3 4 31 5 24 6 4 7 2 8 32 9 22 10 5 11 1 12
REMARK SMILES IDX 33 13 23 14 20 15 6 16 7 17 19 18 21 19 8 20 18 21 17 22
REMARK SMILES IDX 10 23 9 24 14 25 11 26 12 27 15 28 16 29 27 30 28 31 29 32
REMARK SMILES IDX 13 33
REMARK H PARENT 13 34
REMARK Flexibility Score: inf
ROOT
ATOM      1  C   UNL     1     -39.361  75.880 -21.502  1.00  0.00     0.017 C 
ATOM      2  C   UNL     1     -40.025  77.078 -20.778  1.00  0.00     0.014 C 
ATOM      3  C   UNL     1     -38.162  76.414 -22.368  1.00  0.00     0.014 C 
ATOM      4  C   UNL     1     -40.379  75.039 -22.405  1.00  0.00     0.030 C 
ATOM      5  C   UNL     1     -41.379  76.701 -20.191  1.00  0.00     0.004 C 
ATOM      6  C   UNL     1     -38.600  77.125 -23.672  1.00  0.00     0.013 C 
ATOM      7  C   UNL     1     -39.901  74.981 -23.873  1.00  0.00    -0.063 C 
ATOM      8  C   UNL     1     -41.953  75.242 -22.219  1.00  0.00    -0.003 C 
ATOM      9  C   UNL     1     -42.367  76.475 -21.335  1.00  0.00    -0.011 C 
ATOM     10  C   UNL     1     -39.549  76.276 -24.636  1.00  0.00    -0.006 C 
ATOM     11  C   UNL     1     -39.317  73.826 -24.241  1.00  0.00    -0.027 C 
ATOM     12  C   UNL     1     -42.588  73.922 -21.706  1.00  0.00     0.008 C 
ATOM     13  C   UNL     1     -43.821  76.434 -20.801  1.00  0.00     0.008 C 
ATOM     14  C   UNL     1     -40.861  77.125 -24.726  1.00  0.00     0.017 C 
ATOM     15  C   UNL     1     -39.002  75.966 -26.176  1.00  0.00    -0.020 C 
ATOM     16  C   UNL     1     -38.081  73.813 -25.067  1.00  0.00     0.032 C 
ATOM     17  C   UNL     1     -38.303  74.531 -26.395  1.00  0.00     0.006 C 
ATOM     18  C   UNL     1     -38.038  77.092 -26.663  1.00  0.00     0.008 C 
ATOM     19  C   UNL     1     -40.214  75.963 -27.183  1.00  0.00     0.012 C 
ATOM     20  C   UNL     1     -37.046  74.466 -27.420  1.00  0.00    -0.025 C 
ATOM     21  C   UNL     1     -36.570  76.764 -26.343  1.00  0.00     0.005 C 
ATOM     22  C   UNL     1     -35.978  75.637 -27.216  1.00  0.00     0.003 C 
ATOM     23  C   UNL     1     -36.331  73.085 -27.362  1.00  0.00     0.010 C 
ATOM     24  C   UNL     1     -37.622  74.569 -28.877  1.00  0.00     0.012 C 
ATOM     25  C   UNL     1     -34.461  75.261 -26.788  1.00  0.00    -0.006 C 
ATOM     26  C   UNL     1     -34.994  73.075 -28.106  1.00  0.00     0.033 C 
ATOM     27  C   UNL     1     -33.952  73.833 -27.283  1.00  0.00     0.120 C 
ATOM     28  C   UNL     1     -33.541  76.373 -27.380  1.00  0.00     0.014 C 
ATOM     29  C   UNL     1     -34.243  75.307 -25.243  1.00  0.00     0.014 C 
ENDROOT
BRANCH   1  30
ATOM     30  C   UNL     1     -38.723  75.011 -20.393  1.00  0.00     0.048 C 
ATOM     31  O   UNL     1     -38.761  73.756 -20.443  1.00  0.00    -0.550 OA
ATOM     32  O   UNL     1     -38.209  75.622 -19.248  1.00  0.00    -0.550 OA
ENDBRANCH   1  30
BRANCH  27  33
ATOM     33  O   UNL     1     -32.772  73.919 -28.044  1.00  0.00    -0.393 OA
ATOM     34  H   UNL     1     -31.992  73.896 -27.426  1.00  0.00     0.210 HD
ENDBRANCH  27  33
TORSDOF 2
ENDMDL
MODEL 2
REMARK VINA RESULT:    30.155     11.483     15.559
REMARK INTER + INTRA:          32.531
REMARK INTER:                  32.419
REMARK INTRA:                   0.112
REMARK UNBOUND:                -0.268
REMARK SMILES C[C@@H]1[C@H]2C3=CC[C@@H]4[C@]5(C)CC[C@@H](O)C(C)(C)[C@@H]5CC[C@]4(C)[C@]3(C)CC[C@@]2(C(=O)[O-])CC[C@@H]1C
REMARK SMILES IDX 26 1 30 2 25 3 3 4 31 5 24 6 4 7 2 8 32 9 22 10 5 11 1 12
REMARK SMILES IDX 33 13 23 14 20 15 6 16 7 17 19 18 21 19 8 20 18 21 17 22
REMARK SMILES IDX 10 23 9 24 14 25 11 26 12 27 15 28 16 29 27 30 28 31 29 32
REMARK SMILES IDX 13 33
REMARK H PARENT 13 34
REMARK Flexibility Score: inf
ROOT
ATOM      1  C   UNL     1     -43.135  72.952 -13.214  1.00  0.00     0.017 C 
ATOM      2  C   UNL     1     -43.879  74.257 -12.834  1.00  0.00     0.014 C 
ATOM      3  C   UNL     1     -43.785  71.753 -12.433  1.00  0.00     0.014 C 
ATOM      4  C   UNL     1     -41.560  73.016 -12.944  1.00  0.00     0.030 C 
ATOM      5  C   UNL     1     -43.111  75.494 -13.282  1.00  0.00     0.004 C 
ATOM      6  C   UNL     1     -43.389  71.693 -10.938  1.00  0.00     0.013 C 
ATOM      7  C   UNL     1     -41.113  71.881 -11.994  1.00  0.00    -0.063 C 
ATOM      8  C   UNL     1     -40.860  74.428 -12.677  1.00  0.00    -0.003 C 
ATOM      9  C   UNL     1     -41.848  75.626 -12.431  1.00  0.00    -0.011 C 
ATOM     10  C   UNL     1     -41.820  71.669 -10.639  1.00  0.00    -0.006 C 
ATOM     11  C   UNL     1     -40.518  70.833 -12.593  1.00  0.00    -0.027 C 
ATOM     12  C   UNL     1     -39.854  74.730 -13.819  1.00  0.00     0.008 C 
ATOM     13  C   UNL     1     -41.220  77.033 -12.600  1.00  0.00     0.008 C 
ATOM     14  C   UNL     1     -41.573  72.958  -9.786  1.00  0.00     0.017 C 
ATOM     15  C   UNL     1     -41.214  70.355  -9.816  1.00  0.00    -0.020 C 
ATOM     16  C   UNL     1     -40.847  69.435 -12.210  1.00  0.00     0.032 C 
ATOM     17  C   UNL     1     -40.570  69.194 -10.728  1.00  0.00     0.006 C 
ATOM     18  C   UNL     1     -42.297  69.737  -8.877  1.00  0.00     0.008 C 
ATOM     19  C   UNL     1     -40.032  70.811  -8.879  1.00  0.00     0.012 C 
ATOM     20  C   UNL     1     -40.784  67.661 -10.238  1.00  0.00    -0.025 C 
ATOM     21  C   UNL     1     -43.088  68.620  -9.577  1.00  0.00     0.005 C 
ATOM     22  C   UNL     1     -42.279  67.322  -9.790  1.00  0.00     0.003 C 
ATOM     23  C   UNL     1     -40.315  66.644 -11.320  1.00  0.00     0.010 C 
ATOM     24  C   UNL     1     -39.833  67.424  -9.012  1.00  0.00     0.012 C 
ATOM     25  C   UNL     1     -43.119  66.203 -10.609  1.00  0.00    -0.006 C 
ATOM     26  C   UNL     1     -40.742  65.208 -11.012  1.00  0.00     0.033 C 
ATOM     27  C   UNL     1     -42.239  65.057 -11.284  1.00  0.00     0.120 C 
ATOM     28  C   UNL     1     -44.117  65.563  -9.596  1.00  0.00     0.014 C 
ATOM     29  C   UNL     1     -43.999  66.821 -11.740  1.00  0.00     0.014 C 
ENDROOT
BRANCH   1  30
ATOM     30  C   UNL     1     -43.451  72.701 -14.708  1.00  0.00     0.048 C 
ATOM     31  O   UNL     1     -43.910  73.611 -15.442  1.00  0.00    -0.550 OA
ATOM     32  O   UNL     1     -43.351  71.408 -15.225  1.00  0.00    -0.550 OA
ENDBRANCH   1  30
BRANCH  27  33
ATOM     33  O   UNL     1     -42.630  63.769 -10.873  1.00  0.00    -0.393 OA
ATOM     34  H   UNL     1     -43.193  63.853 -10.056  1.00  0.00     0.210 HD
ENDBRANCH  27  33
TORSDOF 2
ENDMDL
