MODEL 1
REMARK VINA RESULT:     7.775      0.000      0.000
REMARK INTER + INTRA:           9.338
REMARK INTER:                   9.366
REMARK INTRA:                  -0.028
REMARK UNBOUND:                -0.028
REMARK SMILES O=c1c(O)c(-c2ccc(O)c(O)c2)oc2cc(O)cc(O)c12
REMARK SMILES IDX 5 1 3 2 2 3 1 4 22 5 20 6 19 7 17 8 16 9 15 10 14 11 6 12
REMARK SMILES IDX 7 13 8 14 9 15 13 16 11 17 10 18 12 20 4 22 21 24 18 26
REMARK H PARENT 10 19 12 21 4 23 21 25 18 27
REMARK Flexibility Score: inf
ROOT
ATOM      1  C   UNL     1     -31.103  -0.298 -24.233  1.00  0.00     0.180 A 
ATOM      2  C   UNL     1     -31.322   0.983 -24.768  1.00  0.00     0.208 A 
ATOM      3  C   UNL     1     -31.654   1.107 -26.126  1.00  0.00     0.238 A 
ATOM      4  O   UNL     1     -31.922   2.249 -26.580  1.00  0.00    -0.285 OA
ATOM      5  C   UNL     1     -31.708  -0.046 -26.946  1.00  0.00     0.111 A 
ATOM      6  C   UNL     1     -31.990  -0.035 -28.347  1.00  0.00     0.134 A 
ATOM      7  C   UNL     1     -32.122  -1.248 -29.034  1.00  0.00     0.093 A 
ATOM      8  C   UNL     1     -31.920  -2.468 -28.390  1.00  0.00     0.123 A 
ATOM      9  C   UNL     1     -31.589  -2.488 -27.035  1.00  0.00     0.094 A 
ATOM     10  C   UNL     1     -31.488  -1.297 -26.312  1.00  0.00     0.146 A 
ATOM     11  O   UNL     1     -31.193  -1.363 -25.019  1.00  0.00    -0.452 OA
ENDROOT
BRANCH   1  12
ATOM     12  C   UNL     1     -30.764  -0.509 -22.807  1.00  0.00     0.025 A 
ATOM     13  C   UNL     1     -31.598   0.029 -21.813  1.00  0.00     0.016 A 
ATOM     14  C   UNL     1     -31.287  -0.139 -20.462  1.00  0.00     0.051 A 
ATOM     15  C   UNL     1     -30.130  -0.833 -20.085  1.00  0.00     0.157 A 
ATOM     16  C   UNL     1     -29.592  -1.186 -22.424  1.00  0.00     0.062 A 
ATOM     17  C   UNL     1     -29.278  -1.354 -21.068  1.00  0.00     0.158 A 
BRANCH  15  18
ATOM     18  O   UNL     1     -29.816  -1.004 -18.737  1.00  0.00    -0.504 OA
ATOM     19  H   UNL     1     -30.112  -0.336 -18.035  1.00  0.00     0.293 HD
ENDBRANCH  15  18
BRANCH  17  20
ATOM     20  O   UNL     1     -28.120  -2.031 -20.689  1.00  0.00    -0.504 OA
ATOM     21  H   UNL     1     -27.943  -2.984 -20.984  1.00  0.00     0.293 HD
ENDBRANCH  17  20
ENDBRANCH   1  12
BRANCH   2  22
ATOM     22  O   UNL     1     -31.189   2.115 -23.958  1.00  0.00    -0.502 OA
ATOM     23  H   UNL     1     -30.744   2.965 -24.282  1.00  0.00     0.293 HD
ENDBRANCH   2  22
BRANCH   6  24
ATOM     24  O   UNL     1     -32.125   1.130 -29.109  1.00  0.00    -0.507 OA
ATOM     25  H   UNL     1     -31.456   1.885 -29.134  1.00  0.00     0.293 HD
ENDBRANCH   6  24
BRANCH   8  26
ATOM     26  O   UNL     1     -32.042  -3.653 -29.111  1.00  0.00    -0.508 OA
ATOM     27  H   UNL     1     -32.369  -3.658 -30.070  1.00  0.00     0.293 HD
ENDBRANCH   8  26
TORSDOF 6
ENDMDL
MODEL 2
REMARK VINA RESULT:     9.634      1.502      3.299
REMARK INTER + INTRA:          11.578
REMARK INTER:                  11.868
REMARK INTRA:                  -0.290
REMARK UNBOUND:                -0.028
REMARK SMILES O=c1c(O)c(-c2ccc(O)c(O)c2)oc2cc(O)cc(O)c12
REMARK SMILES IDX 5 1 3 2 2 3 1 4 22 5 20 6 19 7 17 8 16 9 15 10 14 11 6 12
REMARK SMILES IDX 7 13 8 14 9 15 13 16 11 17 10 18 12 20 4 22 21 24 18 26
REMARK H PARENT 10 19 12 21 4 23 21 25 18 27
REMARK Flexibility Score: inf
ROOT
ATOM      1  C   UNL     1     -30.859   0.126 -24.169  1.00  0.00     0.180 A 
ATOM      2  C   UNL     1     -31.328  -0.768 -25.147  1.00  0.00     0.208 A 
ATOM      3  C   UNL     1     -31.537  -0.301 -26.454  1.00  0.00     0.238 A 
ATOM      4  O   UNL     1     -31.885  -1.123 -27.340  1.00  0.00    -0.285 OA
ATOM      5  C   UNL     1     -31.327   1.067 -26.755  1.00  0.00     0.111 A 
ATOM      6  C   UNL     1     -31.551   1.661 -28.035  1.00  0.00     0.134 A 
ATOM      7  C   UNL     1     -31.208   3.003 -28.243  1.00  0.00     0.093 A 
ATOM      8  C   UNL     1     -30.710   3.789 -27.204  1.00  0.00     0.123 A 
ATOM      9  C   UNL     1     -30.540   3.234 -25.936  1.00  0.00     0.094 A 
ATOM     10  C   UNL     1     -30.837   1.888 -25.706  1.00  0.00     0.146 A 
ATOM     11  O   UNL     1     -30.640   1.395 -24.489  1.00  0.00    -0.452 OA
ENDROOT
BRANCH   1  12
ATOM     12  C   UNL     1     -30.601  -0.297 -22.773  1.00  0.00     0.025 A 
ATOM     13  C   UNL     1     -31.495   0.088 -21.761  1.00  0.00     0.016 A 
ATOM     14  C   UNL     1     -31.262  -0.281 -20.434  1.00  0.00     0.051 A 
ATOM     15  C   UNL     1     -30.124  -1.025 -20.098  1.00  0.00     0.157 A 
ATOM     16  C   UNL     1     -29.449  -1.025 -22.429  1.00  0.00     0.062 A 
ATOM     17  C   UNL     1     -29.213  -1.394 -21.096  1.00  0.00     0.158 A 
BRANCH  15  18
ATOM     18  O   UNL     1     -29.888  -1.396 -18.775  1.00  0.00    -0.504 OA
ATOM     19  H   UNL     1     -30.287  -0.880 -18.000  1.00  0.00     0.293 HD
ENDBRANCH  15  18
BRANCH  17  20
ATOM     20  O   UNL     1     -28.074  -2.122 -20.756  1.00  0.00    -0.504 OA
ATOM     21  H   UNL     1     -27.327  -2.280 -21.423  1.00  0.00     0.293 HD
ENDBRANCH  17  20
ENDBRANCH   1  12
BRANCH   2  22
ATOM     22  O   UNL     1     -31.602  -2.097 -24.811  1.00  0.00    -0.502 OA
ATOM     23  H   UNL     1     -32.505  -2.396 -24.466  1.00  0.00     0.293 HD
ENDBRANCH   2  22
BRANCH   6  24
ATOM     24  O   UNL     1     -32.125   0.991 -29.120  1.00  0.00    -0.507 OA
ATOM     25  H   UNL     1     -33.073   0.648 -29.151  1.00  0.00     0.293 HD
ENDBRANCH   6  24
BRANCH   8  26
ATOM     26  O   UNL     1     -30.396   5.125 -27.444  1.00  0.00    -0.508 OA
ATOM     27  H   UNL     1     -29.593   5.566 -27.011  1.00  0.00     0.293 HD
ENDBRANCH   8  26
TORSDOF 6
ENDMDL
