MODEL 1
REMARK VINA RESULT:    -4.584      0.000      0.000
REMARK INTER + INTRA:          -8.477
REMARK INTER:                  -7.799
REMARK INTRA:                  -0.678
REMARK UNBOUND:                -0.678
REMARK SMILES CCCCCCCCCCCCCC(=O)[O-]
REMARK SMILES IDX 8 1 9 2 10 3 11 4 12 5 13 6 14 7 15 8 16 9 7 10 6 11 5 12
REMARK SMILES IDX 4 13 3 14 2 15 1 16
REMARK H PARENT
REMARK Flexibility Score: inf
ROOT
ATOM      1  C   UNL     1      50.388  33.726   4.127  1.00  0.00     0.000 C 
ENDROOT
BRANCH   1   2
ATOM      2  C   UNL     1      50.506  33.783   2.595  1.00  0.00     0.000 C 
BRANCH   2   3
ATOM      3  C   UNL     1      51.652  32.912   2.056  1.00  0.00     0.000 C 
BRANCH   3   4
ATOM      4  C   UNL     1      51.402  32.524   0.590  1.00  0.00     0.000 C 
BRANCH   4   5
ATOM      5  C   UNL     1      50.055  33.041   0.062  1.00  0.00     0.006 C 
BRANCH   5   6
ATOM      6  C   UNL     1      49.714  32.489  -1.328  1.00  0.00     0.053 C 
BRANCH   6   7
ATOM      7  C   UNL     1      49.816  33.570  -2.358  1.00  0.00     0.041 C 
ATOM      8  O   UNL     1      48.872  33.766  -3.168  1.00  0.00    -0.550 OA
ATOM      9  O   UNL     1      50.976  34.329  -2.457  1.00  0.00    -0.550 OA
ENDBRANCH   6   7
ENDBRANCH   5   6
ENDBRANCH   4   5
ENDBRANCH   3   4
ENDBRANCH   2   3
ENDBRANCH   1   2
BRANCH   1  10
ATOM     10  C   UNL     1      51.138  32.527   4.733  1.00  0.00     0.000 C 
BRANCH  10  11
ATOM     11  C   UNL     1      50.705  32.231   6.179  1.00  0.00    -0.000 C 
BRANCH  11  12
ATOM     12  C   UNL     1      49.391  32.928   6.560  1.00  0.00    -0.000 C 
BRANCH  12  13
ATOM     13  C   UNL     1      49.373  33.287   8.051  1.00  0.00    -0.000 C 
BRANCH  13  14
ATOM     14  C   UNL     1      50.079  34.623   8.305  1.00  0.00    -0.000 C 
BRANCH  14  15
ATOM     15  C   UNL     1      49.548  35.292   9.579  1.00  0.00    -0.003 C 
ATOM     16  C   UNL     1      50.319  34.826  10.810  1.00  0.00     0.004 C 
ENDBRANCH  14  15
ENDBRANCH  13  14
ENDBRANCH  12  13
ENDBRANCH  11  12
ENDBRANCH  10  11
ENDBRANCH   1  10
TORSDOF 12
ENDMDL
MODEL 2
REMARK VINA RESULT:    -4.509      4.449      8.515
REMARK INTER + INTRA:          -8.349
REMARK INTER:                  -7.360
REMARK INTRA:                  -0.989
REMARK UNBOUND:                -0.678
REMARK SMILES CCCCCCCCCCCCCC(=O)[O-]
REMARK SMILES IDX 8 1 9 2 10 3 11 4 12 5 13 6 14 7 15 8 16 9 7 10 6 11 5 12
REMARK SMILES IDX 4 13 3 14 2 15 1 16
REMARK H PARENT
REMARK Flexibility Score: inf
ROOT
ATOM      1  C   UNL     1      50.248  33.701   3.583  1.00  0.00     0.000 C 
ENDROOT
BRANCH   1   2
ATOM      2  C   UNL     1      51.378  33.006   4.361  1.00  0.00     0.000 C 
BRANCH   2   3
ATOM      3  C   UNL     1      50.852  32.061   5.452  1.00  0.00     0.000 C 
BRANCH   3   4
ATOM      4  C   UNL     1      49.366  32.328   5.739  1.00  0.00     0.000 C 
BRANCH   4   5
ATOM      5  C   UNL     1      49.110  32.748   7.195  1.00  0.00     0.006 C 
BRANCH   5   6
ATOM      6  C   UNL     1      49.749  34.099   7.543  1.00  0.00     0.053 C 
BRANCH   6   7
ATOM      7  C   UNL     1      49.254  34.583   8.869  1.00  0.00     0.041 C 
ATOM      8  O   UNL     1      48.091  34.296   9.256  1.00  0.00    -0.550 OA
ATOM      9  O   UNL     1      50.060  35.395   9.658  1.00  0.00    -0.550 OA
ENDBRANCH   6   7
ENDBRANCH   5   6
ENDBRANCH   4   5
ENDBRANCH   3   4
ENDBRANCH   2   3
ENDBRANCH   1   2
BRANCH   1  10
ATOM     10  C   UNL     1      50.510  33.735   2.067  1.00  0.00     0.000 C 
BRANCH  10  11
ATOM     11  C   UNL     1      51.933  33.278   1.704  1.00  0.00    -0.000 C 
BRANCH  11  12
ATOM     12  C   UNL     1      51.960  31.892   1.041  1.00  0.00    -0.000 C 
BRANCH  12  13
ATOM     13  C   UNL     1      51.107  31.876  -0.233  1.00  0.00    -0.000 C 
BRANCH  13  14
ATOM     14  C   UNL     1      51.893  32.423  -1.430  1.00  0.00    -0.000 C 
BRANCH  14  15
ATOM     15  C   UNL     1      51.259  33.714  -1.960  1.00  0.00    -0.003 C 
ATOM     16  C   UNL     1      49.737  33.659  -1.869  1.00  0.00     0.004 C 
ENDBRANCH  14  15
ENDBRANCH  13  14
ENDBRANCH  12  13
ENDBRANCH  11  12
ENDBRANCH  10  11
ENDBRANCH   1  10
TORSDOF 12
ENDMDL
MODEL 3
REMARK VINA RESULT:    -4.441     13.931     16.656
REMARK INTER + INTRA:          -8.234
REMARK INTER:                  -6.616
REMARK INTRA:                  -1.618
REMARK UNBOUND:                -0.678
REMARK SMILES CCCCCCCCCCCCCC(=O)[O-]
REMARK SMILES IDX 8 1 9 2 10 3 11 4 12 5 13 6 14 7 15 8 16 9 7 10 6 11 5 12
REMARK SMILES IDX 4 13 3 14 2 15 1 16
REMARK H PARENT
REMARK Flexibility Score: inf
ROOT
ATOM      1  C   UNL     1      51.192  46.976  10.899  1.00  0.00     0.000 C 
ENDROOT
BRANCH   1   2
ATOM      2  C   UNL     1      50.996  46.486  12.343  1.00  0.00     0.000 C 
BRANCH   2   3
ATOM      3  C   UNL     1      52.322  46.129  13.033  1.00  0.00     0.000 C 
BRANCH   3   4
ATOM      4  C   UNL     1      53.498  46.864  12.371  1.00  0.00     0.000 C 
BRANCH   4   5
ATOM      5  C   UNL     1      54.665  45.924  12.025  1.00  0.00     0.006 C 
BRANCH   5   6
ATOM      6  C   UNL     1      54.261  44.445  12.055  1.00  0.00     0.053 C 
BRANCH   6   7
ATOM      7  C   UNL     1      54.183  43.897  10.665  1.00  0.00     0.041 C 
ATOM      8  O   UNL     1      54.188  42.653  10.472  1.00  0.00    -0.550 OA
ATOM      9  O   UNL     1      54.154  44.762   9.578  1.00  0.00    -0.550 OA
ENDBRANCH   6   7
ENDBRANCH   5   6
ENDBRANCH   4   5
ENDBRANCH   3   4
ENDBRANCH   2   3
ENDBRANCH   1   2
BRANCH   1  10
ATOM     10  C   UNL     1      50.494  48.321  10.632  1.00  0.00     0.000 C 
BRANCH  10  11
ATOM     11  C   UNL     1      50.863  49.393  11.671  1.00  0.00    -0.000 C 
BRANCH  11  12
ATOM     12  C   UNL     1      49.637  50.152  12.203  1.00  0.00    -0.000 C 
BRANCH  12  13
ATOM     13  C   UNL     1      49.034  49.437  13.418  1.00  0.00    -0.000 C 
BRANCH  13  14
ATOM     14  C   UNL     1      47.595  48.989  13.136  1.00  0.00    -0.000 C 
BRANCH  14  15
ATOM     15  C   UNL     1      47.522  47.473  12.927  1.00  0.00    -0.003 C 
ATOM     16  C   UNL     1      47.024  47.132  11.525  1.00  0.00     0.004 C 
ENDBRANCH  14  15
ENDBRANCH  13  14
ENDBRANCH  12  13
ENDBRANCH  11  12
ENDBRANCH  10  11
ENDBRANCH   1  10
TORSDOF 12
ENDMDL
MODEL 4
REMARK VINA RESULT:    -4.389      3.884      8.739
REMARK INTER + INTRA:          -8.146
REMARK INTER:                  -7.170
REMARK INTRA:                  -0.975
REMARK UNBOUND:                -0.678
REMARK SMILES CCCCCCCCCCCCCC(=O)[O-]
REMARK SMILES IDX 8 1 9 2 10 3 11 4 12 5 13 6 14 7 15 8 16 9 7 10 6 11 5 12
REMARK SMILES IDX 4 13 3 14 2 15 1 16
REMARK H PARENT
REMARK Flexibility Score: inf
ROOT
ATOM      1  C   UNL     1      51.649  32.921   0.244  1.00  0.00     0.000 C 
ENDROOT
BRANCH   1   2
ATOM      2  C   UNL     1      51.960  33.076   1.741  1.00  0.00     0.000 C 
BRANCH   2   3
ATOM      3  C   UNL     1      50.779  33.654   2.536  1.00  0.00     0.000 C 
BRANCH   3   4
ATOM      4  C   UNL     1      50.916  33.334   4.033  1.00  0.00     0.000 C 
BRANCH   4   5
ATOM      5  C   UNL     1      49.589  33.477   4.794  1.00  0.00     0.006 C 
BRANCH   5   6
ATOM      6  C   UNL     1      49.590  32.724   6.130  1.00  0.00     0.053 C 
BRANCH   6   7
ATOM      7  C   UNL     1      49.269  33.658   7.255  1.00  0.00     0.041 C 
ATOM      8  O   UNL     1      48.468  33.307   8.161  1.00  0.00    -0.550 OA
ATOM      9  O   UNL     1      49.817  34.935   7.276  1.00  0.00    -0.550 OA
ENDBRANCH   6   7
ENDBRANCH   5   6
ENDBRANCH   4   5
ENDBRANCH   3   4
ENDBRANCH   2   3
ENDBRANCH   1   2
BRANCH   1  10
ATOM     10  C   UNL     1      50.156  33.118  -0.072  1.00  0.00     0.000 C 
BRANCH  10  11
ATOM     11  C   UNL     1      49.622  32.077  -1.071  1.00  0.00    -0.000 C 
BRANCH  11  12
ATOM     12  C   UNL     1      50.074  32.351  -2.513  1.00  0.00    -0.000 C 
BRANCH  12  13
ATOM     13  C   UNL     1      49.376  33.594  -3.080  1.00  0.00    -0.000 C 
BRANCH  13  14
ATOM     14  C   UNL     1      50.392  34.566  -3.689  1.00  0.00    -0.000 C 
BRANCH  14  15
ATOM     15  C   UNL     1      51.828  34.116  -3.398  1.00  0.00    -0.003 C 
ATOM     16  C   UNL     1      52.602  35.192  -2.641  1.00  0.00     0.004 C 
ENDBRANCH  14  15
ENDBRANCH  13  14
ENDBRANCH  12  13
ENDBRANCH  11  12
ENDBRANCH  10  11
ENDBRANCH   1  10
TORSDOF 12
ENDMDL
MODEL 5
REMARK VINA RESULT:    -4.356      3.949      8.519
REMARK INTER + INTRA:          -8.089
REMARK INTER:                  -7.215
REMARK INTRA:                  -0.874
REMARK UNBOUND:                -0.678
REMARK SMILES CCCCCCCCCCCCCC(=O)[O-]
REMARK SMILES IDX 8 1 9 2 10 3 11 4 12 5 13 6 14 7 15 8 16 9 7 10 6 11 5 12
REMARK SMILES IDX 4 13 3 14 2 15 1 16
REMARK H PARENT
REMARK Flexibility Score: inf
ROOT
ATOM      1  C   UNL     1      50.453  33.946   2.215  1.00  0.00     0.000 C 
ENDROOT
BRANCH   1   2
ATOM      2  C   UNL     1      50.056  33.517   3.637  1.00  0.00     0.000 C 
BRANCH   2   3
ATOM      3  C   UNL     1      51.213  32.853   4.400  1.00  0.00     0.000 C 
BRANCH   3   4
ATOM      4  C   UNL     1      50.680  31.904   5.485  1.00  0.00     0.000 C 
BRANCH   4   5
ATOM      5  C   UNL     1      49.289  32.310   5.996  1.00  0.00     0.006 C 
BRANCH   5   6
ATOM      6  C   UNL     1      49.248  32.491   7.519  1.00  0.00     0.053 C 
BRANCH   6   7
ATOM      7  C   UNL     1      49.099  33.939   7.868  1.00  0.00     0.041 C 
ATOM      8  O   UNL     1      48.312  34.292   8.786  1.00  0.00    -0.550 OA
ATOM      9  O   UNL     1      49.791  34.903   7.146  1.00  0.00    -0.550 OA
ENDBRANCH   6   7
ENDBRANCH   5   6
ENDBRANCH   4   5
ENDBRANCH   3   4
ENDBRANCH   2   3
ENDBRANCH   1   2
BRANCH   1  10
ATOM     10  C   UNL     1      51.698  33.203   1.699  1.00  0.00     0.000 C 
BRANCH  10  11
ATOM     11  C   UNL     1      51.456  32.516   0.345  1.00  0.00    -0.000 C 
BRANCH  11  12
ATOM     12  C   UNL     1      50.014  32.684  -0.157  1.00  0.00    -0.000 C 
BRANCH  12  13
ATOM     13  C   UNL     1      49.969  33.564  -1.411  1.00  0.00    -0.000 C 
BRANCH  13  14
ATOM     14  C   UNL     1      51.374  33.776  -1.987  1.00  0.00    -0.000 C 
BRANCH  14  15
ATOM     15  C   UNL     1      51.305  34.366  -3.401  1.00  0.00    -0.003 C 
ATOM     16  C   UNL     1      51.974  35.736  -3.460  1.00  0.00     0.004 C 
ENDBRANCH  14  15
ENDBRANCH  13  14
ENDBRANCH  12  13
ENDBRANCH  11  12
ENDBRANCH  10  11
ENDBRANCH   1  10
TORSDOF 12
ENDMDL
MODEL 6
REMARK VINA RESULT:    -4.339      4.984      9.282
REMARK INTER + INTRA:          -8.061
REMARK INTER:                  -7.473
REMARK INTRA:                  -0.587
REMARK UNBOUND:                -0.678
REMARK SMILES CCCCCCCCCCCCCC(=O)[O-]
REMARK SMILES IDX 8 1 9 2 10 3 11 4 12 5 13 6 14 7 15 8 16 9 7 10 6 11 5 12
REMARK SMILES IDX 4 13 3 14 2 15 1 16
REMARK H PARENT
REMARK Flexibility Score: inf
ROOT
ATOM      1  C   UNL     1      50.905  32.491   4.662  1.00  0.00     0.000 C 
ENDROOT
BRANCH   1   2
ATOM      2  C   UNL     1      50.380  32.354   6.101  1.00  0.00     0.000 C 
BRANCH   2   3
ATOM      3  C   UNL     1      49.521  33.553   6.534  1.00  0.00     0.000 C 
BRANCH   3   4
ATOM      4  C   UNL     1      49.407  33.620   8.065  1.00  0.00     0.000 C 
BRANCH   4   5
ATOM      5  C   UNL     1      49.939  34.942   8.641  1.00  0.00     0.006 C 
BRANCH   5   6
ATOM      6  C   UNL     1      50.101  34.901  10.166  1.00  0.00     0.053 C 
BRANCH   6   7
ATOM      7  C   UNL     1      48.860  35.401  10.836  1.00  0.00     0.041 C 
ATOM      8  O   UNL     1      47.872  34.636  10.993  1.00  0.00    -0.550 OA
ATOM      9  O   UNL     1      48.775  36.727  11.242  1.00  0.00    -0.550 OA
ENDBRANCH   6   7
ENDBRANCH   5   6
ENDBRANCH   4   5
ENDBRANCH   3   4
ENDBRANCH   2   3
ENDBRANCH   1   2
BRANCH   1  10
ATOM     10  C   UNL     1      50.514  33.831   4.015  1.00  0.00     0.000 C 
BRANCH  10  11
ATOM     11  C   UNL     1      50.510  33.765   2.479  1.00  0.00    -0.000 C 
BRANCH  11  12
ATOM     12  C   UNL     1      51.784  33.122   1.909  1.00  0.00    -0.000 C 
BRANCH  12  13
ATOM     13  C   UNL     1      51.485  32.377   0.602  1.00  0.00    -0.000 C 
BRANCH  13  14
ATOM     14  C   UNL     1      50.258  32.968  -0.101  1.00  0.00    -0.000 C 
BRANCH  14  15
ATOM     15  C   UNL     1      50.627  33.511  -1.487  1.00  0.00    -0.003 C 
ATOM     16  C   UNL     1      49.382  33.754  -2.334  1.00  0.00     0.004 C 
ENDBRANCH  14  15
ENDBRANCH  13  14
ENDBRANCH  12  13
ENDBRANCH  11  12
ENDBRANCH  10  11
ENDBRANCH   1  10
TORSDOF 12
ENDMDL
MODEL 7
REMARK VINA RESULT:    -4.254      2.134      4.299
REMARK INTER + INTRA:          -7.916
REMARK INTER:                  -6.937
REMARK INTRA:                  -0.979
REMARK UNBOUND:                -0.678
REMARK SMILES CCCCCCCCCCCCCC(=O)[O-]
REMARK SMILES IDX 8 1 9 2 10 3 11 4 12 5 13 6 14 7 15 8 16 9 7 10 6 11 5 12
REMARK SMILES IDX 4 13 3 14 2 15 1 16
REMARK H PARENT
REMARK Flexibility Score: inf
ROOT
ATOM      1  C   UNL     1      49.384  34.175   7.279  1.00  0.00     0.000 C 
ENDROOT
BRANCH   1   2
ATOM      2  C   UNL     1      49.857  32.714   7.207  1.00  0.00     0.000 C 
BRANCH   2   3
ATOM      3  C   UNL     1      50.066  32.229   5.763  1.00  0.00     0.000 C 
BRANCH   3   4
ATOM      4  C   UNL     1      49.678  33.324   4.757  1.00  0.00     0.000 C 
BRANCH   4   5
ATOM      5  C   UNL     1      50.869  33.802   3.912  1.00  0.00     0.006 C 
BRANCH   5   6
ATOM      6  C   UNL     1      51.333  32.751   2.896  1.00  0.00     0.053 C 
BRANCH   6   7
ATOM      7  C   UNL     1      51.332  33.324   1.514  1.00  0.00     0.041 C 
ATOM      8  O   UNL     1      52.391  33.797   1.023  1.00  0.00    -0.550 OA
ATOM      9  O   UNL     1      50.150  33.383   0.786  1.00  0.00    -0.550 OA
ENDBRANCH   6   7
ENDBRANCH   5   6
ENDBRANCH   4   5
ENDBRANCH   3   4
ENDBRANCH   2   3
ENDBRANCH   1   2
BRANCH   1  10
ATOM     10  C   UNL     1      49.909  34.903   8.529  1.00  0.00     0.000 C 
BRANCH  10  11
ATOM     11  C   UNL     1      49.793  34.048   9.802  1.00  0.00    -0.000 C 
BRANCH  11  12
ATOM     12  C   UNL     1      49.922  34.878  11.089  1.00  0.00    -0.000 C 
BRANCH  12  13
ATOM     13  C   UNL     1      48.994  36.097  11.052  1.00  0.00    -0.000 C 
BRANCH  13  14
ATOM     14  C   UNL     1      47.624  35.766  11.653  1.00  0.00    -0.000 C 
BRANCH  14  15
ATOM     15  C   UNL     1      46.510  35.941  10.614  1.00  0.00    -0.003 C 
ATOM     16  C   UNL     1      46.139  34.607   9.973  1.00  0.00     0.004 C 
ENDBRANCH  14  15
ENDBRANCH  13  14
ENDBRANCH  12  13
ENDBRANCH  11  12
ENDBRANCH  10  11
ENDBRANCH   1  10
TORSDOF 12
ENDMDL
MODEL 8
REMARK VINA RESULT:    -4.238      5.359      9.376
REMARK INTER + INTRA:          -7.889
REMARK INTER:                  -7.039
REMARK INTRA:                  -0.850
REMARK UNBOUND:                -0.678
REMARK SMILES CCCCCCCCCCCCCC(=O)[O-]
REMARK SMILES IDX 8 1 9 2 10 3 11 4 12 5 13 6 14 7 15 8 16 9 7 10 6 11 5 12
REMARK SMILES IDX 4 13 3 14 2 15 1 16
REMARK H PARENT
REMARK Flexibility Score: inf
ROOT
ATOM      1  C   UNL     1      50.016  34.484   7.547  1.00  0.00     0.000 C 
ENDROOT
BRANCH   1   2
ATOM      2  C   UNL     1      50.015  35.187   8.915  1.00  0.00     0.000 C 
BRANCH   2   3
ATOM      3  C   UNL     1      49.488  34.287  10.043  1.00  0.00     0.000 C 
BRANCH   3   4
ATOM      4  C   UNL     1      49.872  34.853  11.420  1.00  0.00     0.000 C 
BRANCH   4   5
ATOM      5  C   UNL     1      48.662  35.396  12.196  1.00  0.00     0.006 C 
BRANCH   5   6
ATOM      6  C   UNL     1      48.230  36.789  11.721  1.00  0.00     0.053 C 
BRANCH   6   7
ATOM      7  C   UNL     1      46.855  36.737  11.133  1.00  0.00     0.041 C 
ATOM      8  O   UNL     1      46.314  35.628  10.883  1.00  0.00    -0.550 OA
ATOM      9  O   UNL     1      46.190  37.915  10.815  1.00  0.00    -0.550 OA
ENDBRANCH   6   7
ENDBRANCH   5   6
ENDBRANCH   4   5
ENDBRANCH   3   4
ENDBRANCH   2   3
ENDBRANCH   1   2
BRANCH   1  10
ATOM     10  C   UNL     1      48.980  33.349   7.466  1.00  0.00     0.000 C 
BRANCH  10  11
ATOM     11  C   UNL     1      49.436  32.199   6.553  1.00  0.00    -0.000 C 
BRANCH  11  12
ATOM     12  C   UNL     1      50.867  32.389   6.028  1.00  0.00    -0.000 C 
BRANCH  12  13
ATOM     13  C   UNL     1      50.890  32.414   4.495  1.00  0.00    -0.000 C 
BRANCH  13  14
ATOM     14  C   UNL     1      50.436  33.776   3.959  1.00  0.00    -0.000 C 
BRANCH  14  15
ATOM     15  C   UNL     1      50.540  33.829   2.430  1.00  0.00    -0.003 C 
ATOM     16  C   UNL     1      51.838  33.191   1.943  1.00  0.00     0.004 C 
ENDBRANCH  14  15
ENDBRANCH  13  14
ENDBRANCH  12  13
ENDBRANCH  11  12
ENDBRANCH  10  11
ENDBRANCH   1  10
TORSDOF 12
ENDMDL
MODEL 9
REMARK VINA RESULT:    -4.202      2.275      3.186
REMARK INTER + INTRA:          -7.828
REMARK INTER:                  -6.816
REMARK INTRA:                  -1.012
REMARK UNBOUND:                -0.678
REMARK SMILES CCCCCCCCCCCCCC(=O)[O-]
REMARK SMILES IDX 8 1 9 2 10 3 11 4 12 5 13 6 14 7 15 8 16 9 7 10 6 11 5 12
REMARK SMILES IDX 4 13 3 14 2 15 1 16
REMARK H PARENT
REMARK Flexibility Score: inf
ROOT
ATOM      1  C   UNL     1      50.396  33.785   2.042  1.00  0.00     0.000 C 
ENDROOT
BRANCH   1   2
ATOM      2  C   UNL     1      50.132  33.382   0.582  1.00  0.00     0.000 C 
BRANCH   2   3
ATOM      3  C   UNL     1      50.832  32.070   0.194  1.00  0.00     0.000 C 
BRANCH   3   4
ATOM      4  C   UNL     1      51.608  32.232  -1.122  1.00  0.00     0.000 C 
BRANCH   4   5
ATOM      5  C   UNL     1      51.961  33.697  -1.426  1.00  0.00     0.006 C 
BRANCH   5   6
ATOM      6  C   UNL     1      53.474  33.939  -1.489  1.00  0.00     0.053 C 
BRANCH   6   7
ATOM      7  C   UNL     1      54.015  34.221  -0.123  1.00  0.00     0.041 C 
ATOM      8  O   UNL     1      54.119  35.408   0.285  1.00  0.00    -0.550 OA
ATOM      9  O   UNL     1      54.453  33.176   0.681  1.00  0.00    -0.550 OA
ENDBRANCH   6   7
ENDBRANCH   5   6
ENDBRANCH   4   5
ENDBRANCH   3   4
ENDBRANCH   2   3
ENDBRANCH   1   2
BRANCH   1  10
ATOM     10  C   UNL     1      51.570  33.010   2.666  1.00  0.00     0.000 C 
BRANCH  10  11
ATOM     11  C   UNL     1      51.326  32.657   4.143  1.00  0.00    -0.000 C 
BRANCH  11  12
ATOM     12  C   UNL     1      50.135  33.418   4.747  1.00  0.00    -0.000 C 
BRANCH  12  13
ATOM     13  C   UNL     1      49.427  32.573   5.812  1.00  0.00    -0.000 C 
BRANCH  13  14
ATOM     14  C   UNL     1      50.097  32.737   7.181  1.00  0.00    -0.000 C 
BRANCH  14  15
ATOM     15  C   UNL     1      49.254  33.625   8.103  1.00  0.00    -0.003 C 
ATOM     16  C   UNL     1      49.965  34.942   8.402  1.00  0.00     0.004 C 
ENDBRANCH  14  15
ENDBRANCH  13  14
ENDBRANCH  12  13
ENDBRANCH  11  12
ENDBRANCH  10  11
ENDBRANCH   1  10
TORSDOF 12
ENDMDL
