MODEL 1
REMARK VINA RESULT:    34.014      0.000      0.000
REMARK INTER + INTRA:          62.544
REMARK INTER:                  55.887
REMARK INTRA:                   6.657
REMARK UNBOUND:                 6.657
REMARK SMILES C[C@H]1O[C@@H](OC[C@H]2O[C@@H](Oc3c(-c4ccc(O)c(O)c4)oc4cc(O)cc(O)c4c3=O)[C@H](O)[C@@H](O)[C@H]2O)[C@H](O)[C@@H](O)[C@H]1O
REMARK SMILES IDX 7 1 36 2 34 3 32 4 9 5 8 6 6 7 5 8 4 9 1 10 2 11 42 12 3 13
REMARK SMILES IDX 40 14 38 15 43 16 41 18 39 20 37 22 35 24 10 26 11 27 12 28
REMARK SMILES IDX 30 29 21 30 29 31 31 32 22 33 27 34 23 35 26 36 24 37 13 38
REMARK SMILES IDX 20 39 14 40 18 41 15 42 16 43 19 44 17 46 28 48 25 50 33 52
REMARK H PARENT 43 17 41 19 39 21 37 23 35 25 19 45 17 47 28 49 25 51 33 53
REMARK Flexibility Score: inf
ROOT
ATOM      1  C   UNL     1     107.994 110.207 108.190  1.00  0.00     0.180 C 
ATOM      2  C   UNL     1     108.475 110.885 106.830  1.00  0.00     0.177 C 
ATOM      3  C   UNL     1     108.490 112.428 106.872  1.00  0.00     0.180 C 
ATOM      4  C   UNL     1     108.116 112.994 108.238  1.00  0.00     0.214 C 
ATOM      5  C   UNL     1     108.534 112.172 109.469  1.00  0.00     0.339 C 
ATOM      6  O   UNL     1     108.289 110.779 109.475  1.00  0.00    -0.332 OA
ENDROOT
BRANCH   1   7
ATOM      7  C   UNL     1     108.303 108.691 108.283  1.00  0.00     0.198 C 
BRANCH   7   8
ATOM      8  O   UNL     1     107.446 107.910 107.457  1.00  0.00    -0.347 OA
BRANCH   8   9
ATOM      9  C   UNL     1     108.184 106.975 106.672  1.00  0.00     0.281 C 
ATOM     10  C   UNL     1     105.870 108.262 104.871  1.00  0.00     0.041 C 
ATOM     11  C   UNL     1     107.030 107.254 104.579  1.00  0.00     0.150 C 
ATOM     12  C   UNL     1     106.572 105.811 104.569  1.00  0.00     0.174 C 
ATOM     13  O   UNL     1     108.264 107.379 105.302  1.00  0.00    -0.344 OA
ATOM     14  C   UNL     1     106.491 105.186 105.981  1.00  0.00     0.179 C 
ATOM     15  C   UNL     1     107.751 105.467 106.812  1.00  0.00     0.202 C 
BRANCH  12  16
ATOM     16  O   UNL     1     105.337 105.698 103.923  1.00  0.00    -0.388 OA
ATOM     17  H   UNL     1     104.808 106.482 104.273  1.00  0.00     0.211 HD
ENDBRANCH  12  16
BRANCH  14  18
ATOM     18  O   UNL     1     105.278 105.561 106.660  1.00  0.00    -0.387 OA
ATOM     19  H   UNL     1     104.511 105.059 106.313  1.00  0.00     0.211 HD
ENDBRANCH  14  18
BRANCH  15  20
ATOM     20  O   UNL     1     108.786 104.570 106.411  1.00  0.00    -0.385 OA
ATOM     21  H   UNL     1     109.614 105.115 106.251  1.00  0.00     0.211 HD
ENDBRANCH  15  20
ENDBRANCH   8   9
ENDBRANCH   7   8
ENDBRANCH   1   7
BRANCH   2  22
ATOM     22  O   UNL     1     109.746 110.401 106.452  1.00  0.00    -0.387 OA
ATOM     23  H   UNL     1     110.306 110.346 107.276  1.00  0.00     0.211 HD
ENDBRANCH   2  22
BRANCH   3  24
ATOM     24  O   UNL     1     109.731 112.990 106.436  1.00  0.00    -0.387 OA
ATOM     25  H   UNL     1     109.687 113.996 106.522  1.00  0.00     0.211 HD
ENDBRANCH   3  24
BRANCH   5  26
ATOM     26  O   UNL     1     109.918 112.340 109.787  1.00  0.00    -0.454 OA
BRANCH  26  27
ATOM     27  C   UNL     1     110.958 111.477 109.380  1.00  0.00     0.214 A 
ATOM     28  C   UNL     1     111.052 110.212 109.956  1.00  0.00     0.180 A 
ATOM     29  C   UNL     1     111.707 111.725 108.231  1.00  0.00     0.239 A 
ATOM     30  O   UNL     1     111.606 109.211 109.272  1.00  0.00    -0.452 OA
ATOM     31  C   UNL     1     111.966 110.628 107.384  1.00  0.00     0.111 A 
ATOM     32  O   UNL     1     112.080 112.889 107.929  1.00  0.00    -0.285 OA
ATOM     33  C   UNL     1     111.952 109.342 107.995  1.00  0.00     0.146 A 
ATOM     34  C   UNL     1     111.959 110.735 105.966  1.00  0.00     0.134 A 
ATOM     35  C   UNL     1     112.125 108.205 107.235  1.00  0.00     0.094 A 
ATOM     36  C   UNL     1     111.925 109.577 105.183  1.00  0.00     0.093 A 
ATOM     37  C   UNL     1     112.000 108.311 105.818  1.00  0.00     0.123 A 
BRANCH  28  38
ATOM     38  C   UNL     1     110.291 109.932 111.181  1.00  0.00     0.025 A 
ATOM     39  C   UNL     1     109.138 109.174 110.998  1.00  0.00     0.062 A 
ATOM     40  C   UNL     1     110.345 110.875 112.204  1.00  0.00     0.016 A 
ATOM     41  C   UNL     1     107.956 109.535 111.621  1.00  0.00     0.158 A 
ATOM     42  C   UNL     1     109.167 111.216 112.863  1.00  0.00     0.051 A 
ATOM     43  C   UNL     1     107.957 110.581 112.566  1.00  0.00     0.157 A 
BRANCH  41  44
ATOM     44  O   UNL     1     106.791 108.965 111.179  1.00  0.00    -0.504 OA
ATOM     45  H   UNL     1     105.984 109.518 110.857  1.00  0.00     0.293 HD
ENDBRANCH  41  44
BRANCH  43  46
ATOM     46  O   UNL     1     106.747 111.044 113.125  1.00  0.00    -0.504 OA
ATOM     47  H   UNL     1     105.878 110.648 112.859  1.00  0.00     0.293 HD
ENDBRANCH  43  46
ENDBRANCH  28  38
BRANCH  34  48
ATOM     48  O   UNL     1     111.756 111.927 105.324  1.00  0.00    -0.507 OA
ATOM     49  H   UNL     1     110.905 112.197 104.862  1.00  0.00     0.293 HD
ENDBRANCH  34  48
BRANCH  37  50
ATOM     50  O   UNL     1     111.643 107.190 105.083  1.00  0.00    -0.508 OA
ATOM     51  H   UNL     1     110.739 106.941 104.765  1.00  0.00     0.293 HD
ENDBRANCH  37  50
ENDBRANCH  26  27
ENDBRANCH   5  26
BRANCH   4  52
ATOM     52  O   UNL     1     106.717 113.270 108.341  1.00  0.00    -0.384 OA
ATOM     53  H   UNL     1     106.389 113.605 107.439  1.00  0.00     0.211 HD
ENDBRANCH   4  52
TORSDOF 16
ENDMDL
