MODEL 1
REMARK VINA RESULT:     4.281      0.000      0.000
REMARK INTER + INTRA:           7.518
REMARK INTER:                   9.287
REMARK INTRA:                  -1.769
REMARK UNBOUND:                -1.769
REMARK SMILES CCCCCCCCCCCCCCCCCCCCCC(=O)[O-]
REMARK SMILES IDX 12 1 11 2 10 3 9 4 8 5 7 6 6 7 5 8 4 9 3 10 2 11 1 12 13 13
REMARK SMILES IDX 14 14 15 15 16 16 17 17 18 18 19 19 20 20 21 21 22 22 23 23
REMARK SMILES IDX 24 24
REMARK H PARENT
REMARK Flexibility Score: inf
ROOT
ATOM      1  C   UNL     1      -3.634  34.497  22.691  1.00  0.00     0.000 C 
ENDROOT
BRANCH   1   2
ATOM      2  C   UNL     1      -3.513  34.966  21.234  1.00  0.00     0.000 C 
BRANCH   2   3
ATOM      3  C   UNL     1      -4.547  36.058  20.920  1.00  0.00     0.000 C 
BRANCH   3   4
ATOM      4  C   UNL     1      -4.931  36.098  19.432  1.00  0.00    -0.000 C 
BRANCH   4   5
ATOM      5  C   UNL     1      -4.843  34.715  18.762  1.00  0.00    -0.000 C 
BRANCH   5   6
ATOM      6  C   UNL     1      -4.137  34.767  17.398  1.00  0.00    -0.000 C 
BRANCH   6   7
ATOM      7  C   UNL     1      -4.250  36.144  16.726  1.00  0.00    -0.000 C 
BRANCH   7   8
ATOM      8  C   UNL     1      -2.988  36.460  15.909  1.00  0.00    -0.000 C 
BRANCH   8   9
ATOM      9  C   UNL     1      -1.918  37.194  16.733  1.00  0.00    -0.000 C 
BRANCH   9  10
ATOM     10  C   UNL     1      -2.514  37.952  17.932  1.00  0.00    -0.000 C 
BRANCH  10  11
ATOM     11  C   UNL     1      -1.508  38.125  19.080  1.00  0.00    -0.003 C 
ATOM     12  C   UNL     1      -0.129  37.551  18.753  1.00  0.00     0.004 C 
ENDBRANCH  10  11
ENDBRANCH   9  10
ENDBRANCH   8   9
ENDBRANCH   7   8
ENDBRANCH   6   7
ENDBRANCH   5   6
ENDBRANCH   4   5
ENDBRANCH   3   4
ENDBRANCH   2   3
ENDBRANCH   1   2
BRANCH   1  13
ATOM     13  C   UNL     1      -5.041  34.715  23.275  1.00  0.00     0.000 C 
BRANCH  13  14
ATOM     14  C   UNL     1      -5.106  35.672  24.484  1.00  0.00     0.000 C 
BRANCH  14  15
ATOM     15  C   UNL     1      -5.098  37.170  24.132  1.00  0.00     0.000 C 
BRANCH  15  16
ATOM     16  C   UNL     1      -4.638  38.054  25.304  1.00  0.00     0.000 C 
BRANCH  16  17
ATOM     17  C   UNL     1      -3.880  37.259  26.380  1.00  0.00     0.000 C 
BRANCH  17  18
ATOM     18  C   UNL     1      -2.501  37.863  26.694  1.00  0.00     0.000 C 
BRANCH  18  19
ATOM     19  C   UNL     1      -1.856  37.261  27.957  1.00  0.00     0.000 C 
BRANCH  19  20
ATOM     20  C   UNL     1      -1.333  35.821  27.801  1.00  0.00     0.006 C 
BRANCH  20  21
ATOM     21  C   UNL     1      -2.108  34.806  28.652  1.00  0.00     0.053 C 
BRANCH  21  22
ATOM     22  C   UNL     1      -1.253  34.298  29.769  1.00  0.00     0.041 C 
ATOM     23  O   UNL     1      -1.733  34.169  30.926  1.00  0.00    -0.550 OA
ATOM     24  O   UNL     1       0.087  34.008  29.542  1.00  0.00    -0.550 OA
ENDBRANCH  21  22
ENDBRANCH  20  21
ENDBRANCH  19  20
ENDBRANCH  18  19
ENDBRANCH  17  18
ENDBRANCH  16  17
ENDBRANCH  15  16
ENDBRANCH  14  15
ENDBRANCH  13  14
ENDBRANCH   1  13
TORSDOF 20
ENDMDL
MODEL 2
REMARK VINA RESULT:     5.242      3.319      9.181
REMARK INTER + INTRA:           9.602
REMARK INTER:                   9.957
REMARK INTRA:                  -0.355
REMARK UNBOUND:                -1.769
REMARK SMILES CCCCCCCCCCCCCCCCCCCCCC(=O)[O-]
REMARK SMILES IDX 12 1 11 2 10 3 9 4 8 5 7 6 6 7 5 8 4 9 3 10 2 11 1 12 13 13
REMARK SMILES IDX 14 14 15 15 16 16 17 17 18 18 19 19 20 20 21 21 22 22 23 23
REMARK SMILES IDX 24 24
REMARK H PARENT
REMARK Flexibility Score: inf
ROOT
ATOM      1  C   UNL     1      -3.163  35.924  21.726  1.00  0.00     0.000 C 
ENDROOT
BRANCH   1   2
ATOM      2  C   UNL     1      -3.897  34.584  21.886  1.00  0.00     0.000 C 
BRANCH   2   3
ATOM      3  C   UNL     1      -4.750  34.574  23.163  1.00  0.00     0.000 C 
BRANCH   3   4
ATOM      4  C   UNL     1      -5.125  35.988  23.634  1.00  0.00    -0.000 C 
BRANCH   4   5
ATOM      5  C   UNL     1      -4.840  36.206  25.131  1.00  0.00    -0.000 C 
BRANCH   5   6
ATOM      6  C   UNL     1      -4.726  37.695  25.496  1.00  0.00    -0.000 C 
BRANCH   6   7
ATOM      7  C   UNL     1      -4.017  37.920  26.841  1.00  0.00    -0.000 C 
BRANCH   7   8
ATOM      8  C   UNL     1      -2.546  37.484  26.765  1.00  0.00    -0.000 C 
BRANCH   8   9
ATOM      9  C   UNL     1      -2.026  36.924  28.099  1.00  0.00    -0.000 C 
BRANCH   9  10
ATOM     10  C   UNL     1      -1.995  35.386  28.121  1.00  0.00    -0.000 C 
BRANCH  10  11
ATOM     11  C   UNL     1      -0.936  34.831  29.086  1.00  0.00    -0.003 C 
ATOM     12  C   UNL     1      -1.518  33.861  30.114  1.00  0.00     0.004 C 
ENDBRANCH  10  11
ENDBRANCH   9  10
ENDBRANCH   8   9
ENDBRANCH   7   8
ENDBRANCH   6   7
ENDBRANCH   5   6
ENDBRANCH   4   5
ENDBRANCH   3   4
ENDBRANCH   2   3
ENDBRANCH   1   2
BRANCH   1  13
ATOM     13  C   UNL     1      -4.032  37.006  21.062  1.00  0.00     0.000 C 
BRANCH  13  14
ATOM     14  C   UNL     1      -5.119  36.475  20.103  1.00  0.00     0.000 C 
BRANCH  14  15
ATOM     15  C   UNL     1      -4.674  36.311  18.639  1.00  0.00     0.000 C 
BRANCH  15  16
ATOM     16  C   UNL     1      -4.625  34.839  18.193  1.00  0.00     0.000 C 
BRANCH  16  17
ATOM     17  C   UNL     1      -3.785  34.636  16.922  1.00  0.00     0.000 C 
BRANCH  17  18
ATOM     18  C   UNL     1      -3.682  35.916  16.075  1.00  0.00     0.000 C 
BRANCH  18  19
ATOM     19  C   UNL     1      -2.270  36.147  15.506  1.00  0.00     0.000 C 
BRANCH  19  20
ATOM     20  C   UNL     1      -1.272  36.799  16.481  1.00  0.00     0.006 C 
BRANCH  20  21
ATOM     21  C   UNL     1      -1.943  37.754  17.476  1.00  0.00     0.053 C 
BRANCH  21  22
ATOM     22  C   UNL     1      -1.185  37.785  18.765  1.00  0.00     0.041 C 
ATOM     23  O   UNL     1      -1.787  37.999  19.850  1.00  0.00    -0.550 OA
ATOM     24  O   UNL     1       0.195  37.621  18.764  1.00  0.00    -0.550 OA
ENDBRANCH  21  22
ENDBRANCH  20  21
ENDBRANCH  19  20
ENDBRANCH  18  19
ENDBRANCH  17  18
ENDBRANCH  16  17
ENDBRANCH  15  16
ENDBRANCH  14  15
ENDBRANCH  13  14
ENDBRANCH   1  13
TORSDOF 20
ENDMDL
MODEL 3
REMARK VINA RESULT:     5.257      0.965      2.153
REMARK INTER + INTRA:           9.634
REMARK INTER:                   9.457
REMARK INTRA:                   0.176
REMARK UNBOUND:                -1.769
REMARK SMILES CCCCCCCCCCCCCCCCCCCCCC(=O)[O-]
REMARK SMILES IDX 12 1 11 2 10 3 9 4 8 5 7 6 6 7 5 8 4 9 3 10 2 11 1 12 13 13
REMARK SMILES IDX 14 14 15 15 16 16 17 17 18 18 19 19 20 20 21 21 22 22 23 23
REMARK SMILES IDX 24 24
REMARK H PARENT
REMARK Flexibility Score: inf
ROOT
ATOM      1  C   UNL     1      -3.428  34.377  22.838  1.00  0.00     0.000 C 
ENDROOT
BRANCH   1   2
ATOM      2  C   UNL     1      -3.066  34.782  21.401  1.00  0.00     0.000 C 
BRANCH   2   3
ATOM      3  C   UNL     1      -3.887  35.999  20.949  1.00  0.00     0.000 C 
BRANCH   3   4
ATOM      4  C   UNL     1      -4.755  35.701  19.716  1.00  0.00    -0.000 C 
BRANCH   4   5
ATOM      5  C   UNL     1      -4.258  36.427  18.453  1.00  0.00    -0.000 C 
BRANCH   5   6
ATOM      6  C   UNL     1      -3.386  37.650  18.783  1.00  0.00    -0.000 C 
BRANCH   6   7
ATOM      7  C   UNL     1      -1.977  37.551  18.179  1.00  0.00    -0.000 C 
BRANCH   7   8
ATOM      8  C   UNL     1      -2.044  37.439  16.648  1.00  0.00    -0.000 C 
BRANCH   8   9
ATOM      9  C   UNL     1      -2.715  36.138  16.179  1.00  0.00    -0.000 C 
BRANCH   9  10
ATOM     10  C   UNL     1      -2.712  35.993  14.647  1.00  0.00    -0.000 C 
BRANCH  10  11
ATOM     11  C   UNL     1      -3.433  37.152  13.943  1.00  0.00    -0.003 C 
ATOM     12  C   UNL     1      -4.025  38.166  14.923  1.00  0.00     0.004 C 
ENDBRANCH  10  11
ENDBRANCH   9  10
ENDBRANCH   8   9
ENDBRANCH   7   8
ENDBRANCH   6   7
ENDBRANCH   5   6
ENDBRANCH   4   5
ENDBRANCH   3   4
ENDBRANCH   2   3
ENDBRANCH   1   2
BRANCH   1  13
ATOM     13  C   UNL     1      -4.894  34.681  23.192  1.00  0.00     0.000 C 
BRANCH  13  14
ATOM     14  C   UNL     1      -5.125  35.216  24.620  1.00  0.00     0.000 C 
BRANCH  14  15
ATOM     15  C   UNL     1      -5.125  36.750  24.751  1.00  0.00     0.000 C 
BRANCH  15  16
ATOM     16  C   UNL     1      -4.923  37.224  26.200  1.00  0.00     0.000 C 
BRANCH  16  17
ATOM     17  C   UNL     1      -3.900  38.368  26.309  1.00  0.00     0.000 C 
BRANCH  17  18
ATOM     18  C   UNL     1      -2.666  37.974  27.138  1.00  0.00     0.000 C 
BRANCH  18  19
ATOM     19  C   UNL     1      -2.271  36.496  26.961  1.00  0.00     0.000 C 
BRANCH  19  20
ATOM     20  C   UNL     1      -1.409  35.910  28.095  1.00  0.00     0.006 C 
BRANCH  20  21
ATOM     21  C   UNL     1      -2.216  35.056  29.081  1.00  0.00     0.053 C 
BRANCH  21  22
ATOM     22  C   UNL     1      -1.311  34.143  29.845  1.00  0.00     0.041 C 
ATOM     23  O   UNL     1      -1.564  33.857  31.046  1.00  0.00    -0.550 OA
ATOM     24  O   UNL     1      -0.161  33.641  29.246  1.00  0.00    -0.550 OA
ENDBRANCH  21  22
ENDBRANCH  20  21
ENDBRANCH  19  20
ENDBRANCH  18  19
ENDBRANCH  17  18
ENDBRANCH  16  17
ENDBRANCH  15  16
ENDBRANCH  14  15
ENDBRANCH  13  14
ENDBRANCH   1  13
TORSDOF 20
ENDMDL
MODEL 4
REMARK VINA RESULT:     5.270      5.017      9.965
REMARK INTER + INTRA:           9.663
REMARK INTER:                  10.651
REMARK INTRA:                  -0.987
REMARK UNBOUND:                -1.769
REMARK SMILES CCCCCCCCCCCCCCCCCCCCCC(=O)[O-]
REMARK SMILES IDX 12 1 11 2 10 3 9 4 8 5 7 6 6 7 5 8 4 9 3 10 2 11 1 12 13 13
REMARK SMILES IDX 14 14 15 15 16 16 17 17 18 18 19 19 20 20 21 21 22 22 23 23
REMARK SMILES IDX 24 24
REMARK H PARENT
REMARK Flexibility Score: inf
ROOT
ATOM      1  C   UNL     1      -2.475  35.482  21.753  1.00  0.00     0.000 C 
ENDROOT
BRANCH   1   2
ATOM      2  C   UNL     1      -3.607  34.465  21.543  1.00  0.00     0.000 C 
BRANCH   2   3
ATOM      3  C   UNL     1      -4.516  34.390  22.779  1.00  0.00     0.000 C 
BRANCH   3   4
ATOM      4  C   UNL     1      -4.979  35.775  23.256  1.00  0.00    -0.000 C 
BRANCH   4   5
ATOM      5  C   UNL     1      -5.112  35.859  24.787  1.00  0.00    -0.000 C 
BRANCH   5   6
ATOM      6  C   UNL     1      -4.809  37.266  25.327  1.00  0.00    -0.000 C 
BRANCH   6   7
ATOM      7  C   UNL     1      -4.183  37.238  26.730  1.00  0.00    -0.000 C 
BRANCH   7   8
ATOM      8  C   UNL     1      -2.789  37.884  26.721  1.00  0.00    -0.000 C 
BRANCH   8   9
ATOM      9  C   UNL     1      -1.691  36.929  27.218  1.00  0.00    -0.000 C 
BRANCH   9  10
ATOM     10  C   UNL     1      -2.260  35.737  28.007  1.00  0.00    -0.000 C 
BRANCH  10  11
ATOM     11  C   UNL     1      -1.223  35.107  28.950  1.00  0.00    -0.003 C 
ATOM     12  C   UNL     1      -1.790  33.942  29.763  1.00  0.00     0.004 C 
ENDBRANCH  10  11
ENDBRANCH   9  10
ENDBRANCH   8   9
ENDBRANCH   7   8
ENDBRANCH   6   7
ENDBRANCH   5   6
ENDBRANCH   4   5
ENDBRANCH   3   4
ENDBRANCH   2   3
ENDBRANCH   1   2
BRANCH   1  13
ATOM     13  C   UNL     1      -2.222  36.358  20.514  1.00  0.00     0.000 C 
BRANCH  13  14
ATOM     14  C   UNL     1      -3.208  37.529  20.328  1.00  0.00     0.000 C 
BRANCH  14  15
ATOM     15  C   UNL     1      -4.264  37.324  19.227  1.00  0.00     0.000 C 
BRANCH  15  16
ATOM     16  C   UNL     1      -5.116  36.062  19.445  1.00  0.00     0.000 C 
BRANCH  16  17
ATOM     17  C   UNL     1      -4.812  34.960  18.417  1.00  0.00     0.000 C 
BRANCH  17  18
ATOM     18  C   UNL     1      -4.406  35.531  17.048  1.00  0.00     0.000 C 
BRANCH  18  19
ATOM     19  C   UNL     1      -2.891  35.780  16.927  1.00  0.00     0.000 C 
BRANCH  19  20
ATOM     20  C   UNL     1      -2.409  36.216  15.531  1.00  0.00     0.006 C 
BRANCH  20  21
ATOM     21  C   UNL     1      -2.568  37.722  15.286  1.00  0.00     0.053 C 
BRANCH  21  22
ATOM     22  C   UNL     1      -3.846  38.002  14.561  1.00  0.00     0.041 C 
ATOM     23  O   UNL     1      -4.398  37.100  13.877  1.00  0.00    -0.550 OA
ATOM     24  O   UNL     1      -4.407  39.273  14.605  1.00  0.00    -0.550 OA
ENDBRANCH  21  22
ENDBRANCH  20  21
ENDBRANCH  19  20
ENDBRANCH  18  19
ENDBRANCH  17  18
ENDBRANCH  16  17
ENDBRANCH  15  16
ENDBRANCH  14  15
ENDBRANCH  13  14
ENDBRANCH   1  13
TORSDOF 20
ENDMDL
MODEL 5
REMARK VINA RESULT:     6.483      4.926      9.521
REMARK INTER + INTRA:          12.294
REMARK INTER:                  12.796
REMARK INTRA:                  -0.502
REMARK UNBOUND:                -1.769
REMARK SMILES CCCCCCCCCCCCCCCCCCCCCC(=O)[O-]
REMARK SMILES IDX 12 1 11 2 10 3 9 4 8 5 7 6 6 7 5 8 4 9 3 10 2 11 1 12 13 13
REMARK SMILES IDX 14 14 15 15 16 16 17 17 18 18 19 19 20 20 21 21 22 22 23 23
REMARK SMILES IDX 24 24
REMARK H PARENT
REMARK Flexibility Score: inf
ROOT
ATOM      1  C   UNL     1      -5.109  35.565  19.392  1.00  0.00     0.000 C 
ENDROOT
BRANCH   1   2
ATOM      2  C   UNL     1      -4.742  34.215  20.025  1.00  0.00     0.000 C 
BRANCH   2   3
ATOM      3  C   UNL     1      -5.111  34.187  21.516  1.00  0.00     0.000 C 
BRANCH   3   4
ATOM      4  C   UNL     1      -3.923  34.540  22.425  1.00  0.00    -0.000 C 
BRANCH   4   5
ATOM      5  C   UNL     1      -4.368  35.092  23.791  1.00  0.00    -0.000 C 
BRANCH   5   6
ATOM      6  C   UNL     1      -5.125  36.424  23.669  1.00  0.00    -0.000 C 
BRANCH   6   7
ATOM      7  C   UNL     1      -4.485  37.545  24.502  1.00  0.00    -0.000 C 
BRANCH   7   8
ATOM      8  C   UNL     1      -4.490  37.189  25.996  1.00  0.00    -0.000 C 
BRANCH   8   9
ATOM      9  C   UNL     1      -3.535  38.070  26.818  1.00  0.00    -0.000 C 
BRANCH   9  10
ATOM     10  C   UNL     1      -2.116  37.480  26.905  1.00  0.00    -0.000 C 
BRANCH  10  11
ATOM     11  C   UNL     1      -1.821  36.855  28.277  1.00  0.00    -0.003 C 
ATOM     12  C   UNL     1      -1.688  35.333  28.220  1.00  0.00     0.004 C 
ENDBRANCH  10  11
ENDBRANCH   9  10
ENDBRANCH   8   9
ENDBRANCH   7   8
ENDBRANCH   6   7
ENDBRANCH   5   6
ENDBRANCH   4   5
ENDBRANCH   3   4
ENDBRANCH   2   3
ENDBRANCH   1   2
BRANCH   1  13
ATOM     13  C   UNL     1      -4.847  36.756  20.331  1.00  0.00     0.000 C 
BRANCH  13  14
ATOM     14  C   UNL     1      -4.176  37.976  19.667  1.00  0.00     0.000 C 
BRANCH  14  15
ATOM     15  C   UNL     1      -2.841  38.411  20.298  1.00  0.00     0.000 C 
BRANCH  15  16
ATOM     16  C   UNL     1      -1.620  37.963  19.476  1.00  0.00     0.000 C 
BRANCH  16  17
ATOM     17  C   UNL     1      -1.922  37.876  17.970  1.00  0.00     0.000 C 
BRANCH  17  18
ATOM     18  C   UNL     1      -1.026  36.854  17.250  1.00  0.00     0.000 C 
BRANCH  18  19
ATOM     19  C   UNL     1      -1.812  35.933  16.298  1.00  0.00     0.000 C 
BRANCH  19  20
ATOM     20  C   UNL     1      -3.342  35.972  16.468  1.00  0.00     0.006 C 
BRANCH  20  21
ATOM     21  C   UNL     1      -3.964  37.295  15.999  1.00  0.00     0.053 C 
BRANCH  21  22
ATOM     22  C   UNL     1      -3.668  37.528  14.552  1.00  0.00     0.041 C 
ATOM     23  O   UNL     1      -4.239  38.463  13.931  1.00  0.00    -0.550 OA
ATOM     24  O   UNL     1      -2.794  36.686  13.875  1.00  0.00    -0.550 OA
ENDBRANCH  21  22
ENDBRANCH  20  21
ENDBRANCH  19  20
ENDBRANCH  18  19
ENDBRANCH  17  18
ENDBRANCH  16  17
ENDBRANCH  15  16
ENDBRANCH  14  15
ENDBRANCH  13  14
ENDBRANCH   1  13
TORSDOF 20
ENDMDL
MODEL 6
REMARK VINA RESULT:     6.817      1.945      4.122
REMARK INTER + INTRA:          13.019
REMARK INTER:                  13.213
REMARK INTRA:                  -0.195
REMARK UNBOUND:                -1.769
REMARK SMILES CCCCCCCCCCCCCCCCCCCCCC(=O)[O-]
REMARK SMILES IDX 12 1 11 2 10 3 9 4 8 5 7 6 6 7 5 8 4 9 3 10 2 11 1 12 13 13
REMARK SMILES IDX 14 14 15 15 16 16 17 17 18 18 19 19 20 20 21 21 22 22 23 23
REMARK SMILES IDX 24 24
REMARK H PARENT
REMARK Flexibility Score: inf
ROOT
ATOM      1  C   UNL     1      -2.287  36.839  21.001  1.00  0.00     0.000 C 
ENDROOT
BRANCH   1   2
ATOM      2  C   UNL     1      -0.992  36.495  20.249  1.00  0.00     0.000 C 
BRANCH   2   3
ATOM      3  C   UNL     1      -0.691  37.541  19.166  1.00  0.00     0.000 C 
BRANCH   3   4
ATOM      4  C   UNL     1      -1.942  38.327  18.739  1.00  0.00    -0.000 C 
BRANCH   4   5
ATOM      5  C   UNL     1      -2.200  38.250  17.224  1.00  0.00    -0.000 C 
BRANCH   5   6
ATOM      6  C   UNL     1      -2.544  36.826  16.758  1.00  0.00    -0.000 C 
BRANCH   6   7
ATOM      7  C   UNL     1      -1.364  36.131  16.062  1.00  0.00    -0.000 C 
BRANCH   7   8
ATOM      8  C   UNL     1      -1.726  35.749  14.619  1.00  0.00    -0.000 C 
BRANCH   8   9
ATOM      9  C   UNL     1      -2.520  36.850  13.897  1.00  0.00    -0.000 C 
BRANCH   9  10
ATOM     10  C   UNL     1      -4.033  36.569  13.876  1.00  0.00    -0.000 C 
BRANCH  10  11
ATOM     11  C   UNL     1      -4.864  37.783  14.317  1.00  0.00    -0.003 C 
ATOM     12  C   UNL     1      -4.024  39.050  14.481  1.00  0.00     0.004 C 
ENDBRANCH  10  11
ENDBRANCH   9  10
ENDBRANCH   8   9
ENDBRANCH   7   8
ENDBRANCH   6   7
ENDBRANCH   5   6
ENDBRANCH   4   5
ENDBRANCH   3   4
ENDBRANCH   2   3
ENDBRANCH   1   2
BRANCH   1  13
ATOM     13  C   UNL     1      -3.534  36.778  20.102  1.00  0.00     0.000 C 
BRANCH  13  14
ATOM     14  C   UNL     1      -4.610  35.765  20.544  1.00  0.00     0.000 C 
BRANCH  14  15
ATOM     15  C   UNL     1      -4.070  34.488  21.212  1.00  0.00     0.000 C 
BRANCH  15  16
ATOM     16  C   UNL     1      -4.564  34.317  22.659  1.00  0.00     0.000 C 
BRANCH  16  17
ATOM     17  C   UNL     1      -5.119  35.624  23.250  1.00  0.00     0.000 C 
BRANCH  17  18
ATOM     18  C   UNL     1      -4.994  35.674  24.782  1.00  0.00     0.000 C 
BRANCH  18  19
ATOM     19  C   UNL     1      -5.124  37.102  25.347  1.00  0.00     0.000 C 
BRANCH  19  20
ATOM     20  C   UNL     1      -4.329  37.367  26.639  1.00  0.00     0.006 C 
BRANCH  20  21
ATOM     21  C   UNL     1      -3.115  38.279  26.419  1.00  0.00     0.053 C 
BRANCH  21  22
ATOM     22  C   UNL     1      -1.905  37.709  27.087  1.00  0.00     0.041 C 
ATOM     23  O   UNL     1      -0.829  38.363  27.116  1.00  0.00    -0.550 OA
ATOM     24  O   UNL     1      -1.951  36.436  27.642  1.00  0.00    -0.550 OA
ENDBRANCH  21  22
ENDBRANCH  20  21
ENDBRANCH  19  20
ENDBRANCH  18  19
ENDBRANCH  17  18
ENDBRANCH  16  17
ENDBRANCH  15  16
ENDBRANCH  14  15
ENDBRANCH  13  14
ENDBRANCH   1  13
TORSDOF 20
ENDMDL
MODEL 7
REMARK VINA RESULT:     6.886      3.861      5.444
REMARK INTER + INTRA:          13.168
REMARK INTER:                  13.526
REMARK INTRA:                  -0.358
REMARK UNBOUND:                -1.769
REMARK SMILES CCCCCCCCCCCCCCCCCCCCCC(=O)[O-]
REMARK SMILES IDX 12 1 11 2 10 3 9 4 8 5 7 6 6 7 5 8 4 9 3 10 2 11 1 12 13 13
REMARK SMILES IDX 14 14 15 15 16 16 17 17 18 18 19 19 20 20 21 21 22 22 23 23
REMARK SMILES IDX 24 24
REMARK H PARENT
REMARK Flexibility Score: inf
ROOT
ATOM      1  C   UNL     1      -2.311  36.837  21.013  1.00  0.00     0.000 C 
ENDROOT
BRANCH   1   2
ATOM      2  C   UNL     1      -0.998  36.462  20.311  1.00  0.00     0.000 C 
BRANCH   2   3
ATOM      3  C   UNL     1      -0.601  37.529  19.280  1.00  0.00     0.000 C 
BRANCH   3   4
ATOM      4  C   UNL     1      -1.804  38.351  18.789  1.00  0.00    -0.000 C 
BRANCH   4   5
ATOM      5  C   UNL     1      -2.003  38.254  17.266  1.00  0.00    -0.000 C 
BRANCH   5   6
ATOM      6  C   UNL     1      -2.812  37.012  16.857  1.00  0.00    -0.000 C 
BRANCH   6   7
ATOM      7  C   UNL     1      -1.940  35.931  16.201  1.00  0.00    -0.000 C 
BRANCH   7   8
ATOM      8  C   UNL     1      -2.427  35.624  14.776  1.00  0.00    -0.000 C 
BRANCH   8   9
ATOM      9  C   UNL     1      -2.930  36.877  14.041  1.00  0.00    -0.000 C 
BRANCH   9  10
ATOM     10  C   UNL     1      -4.460  36.888  13.875  1.00  0.00    -0.000 C 
BRANCH  10  11
ATOM     11  C   UNL     1      -5.076  38.263  14.177  1.00  0.00    -0.003 C 
ATOM     12  C   UNL     1      -4.028  39.319  14.529  1.00  0.00     0.004 C 
ENDBRANCH  10  11
ENDBRANCH   9  10
ENDBRANCH   8   9
ENDBRANCH   7   8
ENDBRANCH   6   7
ENDBRANCH   5   6
ENDBRANCH   4   5
ENDBRANCH   3   4
ENDBRANCH   2   3
ENDBRANCH   1   2
BRANCH   1  13
ATOM     13  C   UNL     1      -3.512  36.875  20.052  1.00  0.00     0.000 C 
BRANCH  13  14
ATOM     14  C   UNL     1      -4.642  35.876  20.376  1.00  0.00     0.000 C 
BRANCH  14  15
ATOM     15  C   UNL     1      -4.177  34.535  20.970  1.00  0.00     0.000 C 
BRANCH  15  16
ATOM     16  C   UNL     1      -4.668  34.319  22.412  1.00  0.00     0.000 C 
BRANCH  16  17
ATOM     17  C   UNL     1      -5.081  35.632  23.097  1.00  0.00     0.000 C 
BRANCH  17  18
ATOM     18  C   UNL     1      -5.100  35.514  24.630  1.00  0.00     0.000 C 
BRANCH  18  19
ATOM     19  C   UNL     1      -4.747  36.837  25.337  1.00  0.00     0.000 C 
BRANCH  19  20
ATOM     20  C   UNL     1      -4.127  37.916  24.431  1.00  0.00     0.006 C 
BRANCH  20  21
ATOM     21  C   UNL     1      -5.116  39.031  24.064  1.00  0.00     0.053 C 
BRANCH  21  22
ATOM     22  C   UNL     1      -4.789  39.599  22.720  1.00  0.00     0.041 C 
ATOM     23  O   UNL     1      -4.944  38.903  21.682  1.00  0.00    -0.550 OA
ATOM     24  O   UNL     1      -4.270  40.884  22.616  1.00  0.00    -0.550 OA
ENDBRANCH  21  22
ENDBRANCH  20  21
ENDBRANCH  19  20
ENDBRANCH  18  19
ENDBRANCH  17  18
ENDBRANCH  16  17
ENDBRANCH  15  16
ENDBRANCH  14  15
ENDBRANCH  13  14
ENDBRANCH   1  13
TORSDOF 20
ENDMDL
