MODEL 1
REMARK VINA RESULT:    -3.893      0.000      0.000
REMARK INTER + INTRA:          -8.914
REMARK INTER:                  -7.534
REMARK INTRA:                  -1.380
REMARK UNBOUND:                -1.380
REMARK SMILES CCCCCCCCCCCCCCCCCC(=O)[O-]
REMARK SMILES IDX 10 1 11 2 12 3 13 4 14 5 15 6 16 7 17 8 18 9 19 10 20 11
REMARK SMILES IDX 9 12 8 13 7 14 6 15 5 16 4 17 3 18 2 19 1 20
REMARK H PARENT
REMARK Flexibility Score: inf
ROOT
ATOM      1  C   UNL     1       1.974  14.855  17.980  1.00  0.00     0.000 C 
ENDROOT
BRANCH   1   2
ATOM      2  C   UNL     1       2.406  13.957  19.145  1.00  0.00     0.000 C 
BRANCH   2   3
ATOM      3  C   UNL     1       2.864  12.580  18.638  1.00  0.00     0.000 C 
BRANCH   3   4
ATOM      4  C   UNL     1       4.276  12.211  19.120  1.00  0.00     0.000 C 
BRANCH   4   5
ATOM      5  C   UNL     1       5.344  12.428  18.033  1.00  0.00     0.000 C 
BRANCH   5   6
ATOM      6  C   UNL     1       4.761  12.373  16.612  1.00  0.00     0.000 C 
BRANCH   6   7
ATOM      7  C   UNL     1       5.748  12.868  15.543  1.00  0.00     0.006 C 
BRANCH   7   8
ATOM      8  C   UNL     1       5.021  13.186  14.233  1.00  0.00     0.053 C 
BRANCH   8   9
ATOM      9  C   UNL     1       3.975  12.154  13.950  1.00  0.00     0.041 C 
ATOM     10  O   UNL     1       4.305  11.020  13.514  1.00  0.00    -0.550 OA
ATOM     11  O   UNL     1       2.631  12.461  14.122  1.00  0.00    -0.550 OA
ENDBRANCH   8   9
ENDBRANCH   7   8
ENDBRANCH   6   7
ENDBRANCH   5   6
ENDBRANCH   4   5
ENDBRANCH   3   4
ENDBRANCH   2   3
ENDBRANCH   1   2
BRANCH   1  12
ATOM     12  C   UNL     1       1.296  16.133  18.490  1.00  0.00     0.000 C 
BRANCH  12  13
ATOM     13  C   UNL     1      -0.138  16.245  17.960  1.00  0.00    -0.000 C 
BRANCH  13  14
ATOM     14  C   UNL     1      -1.159  15.956  19.067  1.00  0.00    -0.000 C 
BRANCH  14  15
ATOM     15  C   UNL     1      -2.091  17.158  19.282  1.00  0.00    -0.000 C 
BRANCH  15  16
ATOM     16  C   UNL     1      -1.885  17.828  20.649  1.00  0.00    -0.000 C 
BRANCH  16  17
ATOM     17  C   UNL     1      -1.629  19.341  20.536  1.00  0.00    -0.000 C 
BRANCH  17  18
ATOM     18  C   UNL     1      -1.055  19.743  19.168  1.00  0.00    -0.000 C 
BRANCH  18  19
ATOM     19  C   UNL     1       0.453  20.029  19.222  1.00  0.00    -0.003 C 
ATOM     20  C   UNL     1       1.099  19.834  17.854  1.00  0.00     0.004 C 
ENDBRANCH  18  19
ENDBRANCH  17  18
ENDBRANCH  16  17
ENDBRANCH  15  16
ENDBRANCH  14  15
ENDBRANCH  13  14
ENDBRANCH  12  13
ENDBRANCH   1  12
TORSDOF 16
ENDMDL
MODEL 2
REMARK VINA RESULT:    -3.767      3.095      8.253
REMARK INTER + INTRA:          -8.670
REMARK INTER:                  -7.402
REMARK INTRA:                  -1.268
REMARK UNBOUND:                -1.380
REMARK SMILES CCCCCCCCCCCCCCCCCC(=O)[O-]
REMARK SMILES IDX 10 1 11 2 12 3 13 4 14 5 15 6 16 7 17 8 18 9 19 10 20 11
REMARK SMILES IDX 9 12 8 13 7 14 6 15 5 16 4 17 3 18 2 19 1 20
REMARK H PARENT
REMARK Flexibility Score: inf
ROOT
ATOM      1  C   UNL     1       2.439  13.449  19.124  1.00  0.00     0.000 C 
ENDROOT
BRANCH   1   2
ATOM      2  C   UNL     1       2.187  14.506  18.043  1.00  0.00     0.000 C 
BRANCH   2   3
ATOM      3  C   UNL     1       1.579  15.780  18.652  1.00  0.00     0.000 C 
BRANCH   3   4
ATOM      4  C   UNL     1       0.285  16.215  17.945  1.00  0.00     0.000 C 
BRANCH   4   5
ATOM      5  C   UNL     1      -0.963  16.011  18.822  1.00  0.00     0.000 C 
BRANCH   5   6
ATOM      6  C   UNL     1      -1.699  17.328  19.117  1.00  0.00     0.000 C 
BRANCH   6   7
ATOM      7  C   UNL     1      -0.871  18.293  19.981  1.00  0.00     0.006 C 
BRANCH   7   8
ATOM      8  C   UNL     1      -0.952  19.722  19.435  1.00  0.00     0.053 C 
BRANCH   8   9
ATOM      9  C   UNL     1      -0.053  19.882  18.250  1.00  0.00     0.041 C 
ATOM     10  O   UNL     1      -0.539  20.125  17.114  1.00  0.00    -0.550 OA
ATOM     11  O   UNL     1       1.319  19.713  18.390  1.00  0.00    -0.550 OA
ENDBRANCH   8   9
ENDBRANCH   7   8
ENDBRANCH   6   7
ENDBRANCH   5   6
ENDBRANCH   4   5
ENDBRANCH   3   4
ENDBRANCH   2   3
ENDBRANCH   1   2
BRANCH   1  12
ATOM     12  C   UNL     1       3.108  12.202  18.530  1.00  0.00     0.000 C 
BRANCH  12  13
ATOM     13  C   UNL     1       4.429  11.893  19.246  1.00  0.00    -0.000 C 
BRANCH  13  14
ATOM     14  C   UNL     1       5.628  12.386  18.427  1.00  0.00    -0.000 C 
BRANCH  14  15
ATOM     15  C   UNL     1       5.175  12.947  17.071  1.00  0.00    -0.000 C 
BRANCH  15  16
ATOM     16  C   UNL     1       6.306  12.963  16.031  1.00  0.00    -0.000 C 
BRANCH  16  17
ATOM     17  C   UNL     1       5.802  12.686  14.603  1.00  0.00    -0.000 C 
BRANCH  17  18
ATOM     18  C   UNL     1       4.522  11.836  14.582  1.00  0.00    -0.000 C 
BRANCH  18  19
ATOM     19  C   UNL     1       3.366  12.531  13.848  1.00  0.00    -0.003 C 
ATOM     20  C   UNL     1       2.692  13.568  14.740  1.00  0.00     0.004 C 
ENDBRANCH  18  19
ENDBRANCH  17  18
ENDBRANCH  16  17
ENDBRANCH  15  16
ENDBRANCH  14  15
ENDBRANCH  13  14
ENDBRANCH  12  13
ENDBRANCH   1  12
TORSDOF 16
ENDMDL
MODEL 3
REMARK VINA RESULT:    -3.593      0.678      1.523
REMARK INTER + INTRA:          -8.334
REMARK INTER:                  -6.900
REMARK INTRA:                  -1.433
REMARK UNBOUND:                -1.380
REMARK SMILES CCCCCCCCCCCCCCCCCC(=O)[O-]
REMARK SMILES IDX 10 1 11 2 12 3 13 4 14 5 15 6 16 7 17 8 18 9 19 10 20 11
REMARK SMILES IDX 9 12 8 13 7 14 6 15 5 16 4 17 3 18 2 19 1 20
REMARK H PARENT
REMARK Flexibility Score: inf
ROOT
ATOM      1  C   UNL     1       2.557  13.780  18.852  1.00  0.00     0.000 C 
ENDROOT
BRANCH   1   2
ATOM      2  C   UNL     1       3.067  12.338  18.754  1.00  0.00     0.000 C 
BRANCH   2   3
ATOM      3  C   UNL     1       4.420  12.184  19.466  1.00  0.00     0.000 C 
BRANCH   3   4
ATOM      4  C   UNL     1       5.613  12.323  18.508  1.00  0.00     0.000 C 
BRANCH   4   5
ATOM      5  C   UNL     1       5.192  12.255  17.029  1.00  0.00     0.000 C 
BRANCH   5   6
ATOM      6  C   UNL     1       6.071  13.133  16.124  1.00  0.00     0.000 C 
BRANCH   6   7
ATOM      7  C   UNL     1       5.736  12.973  14.632  1.00  0.00     0.006 C 
BRANCH   7   8
ATOM      8  C   UNL     1       4.281  13.361  14.353  1.00  0.00     0.053 C 
BRANCH   8   9
ATOM      9  C   UNL     1       3.523  12.193  13.806  1.00  0.00     0.041 C 
ATOM     10  O   UNL     1       2.264  12.193  13.819  1.00  0.00    -0.550 OA
ATOM     11  O   UNL     1       4.207  11.082  13.328  1.00  0.00    -0.550 OA
ENDBRANCH   8   9
ENDBRANCH   7   8
ENDBRANCH   6   7
ENDBRANCH   5   6
ENDBRANCH   4   5
ENDBRANCH   3   4
ENDBRANCH   2   3
ENDBRANCH   1   2
BRANCH   1  12
ATOM     12  C   UNL     1       2.337  14.384  17.459  1.00  0.00     0.000 C 
BRANCH  12  13
ATOM     13  C   UNL     1       1.536  15.688  17.543  1.00  0.00    -0.000 C 
BRANCH  13  14
ATOM     14  C   UNL     1       0.500  15.626  18.672  1.00  0.00    -0.000 C 
BRANCH  14  15
ATOM     15  C   UNL     1      -0.766  16.414  18.301  1.00  0.00    -0.000 C 
BRANCH  15  16
ATOM     16  C   UNL     1      -1.641  16.736  19.522  1.00  0.00    -0.000 C 
BRANCH  16  17
ATOM     17  C   UNL     1      -1.308  18.102  20.148  1.00  0.00    -0.000 C 
BRANCH  17  18
ATOM     18  C   UNL     1      -1.091  19.198  19.094  1.00  0.00    -0.000 C 
BRANCH  18  19
ATOM     19  C   UNL     1       0.253  19.923  19.266  1.00  0.00    -0.003 C 
ATOM     20  C   UNL     1       1.207  19.591  18.123  1.00  0.00     0.004 C 
ENDBRANCH  18  19
ENDBRANCH  17  18
ENDBRANCH  16  17
ENDBRANCH  15  16
ENDBRANCH  14  15
ENDBRANCH  13  14
ENDBRANCH  12  13
ENDBRANCH   1  12
TORSDOF 16
ENDMDL
MODEL 4
REMARK VINA RESULT:    -3.513      3.157      8.155
REMARK INTER + INTRA:          -8.180
REMARK INTER:                  -6.911
REMARK INTRA:                  -1.269
REMARK UNBOUND:                -1.380
REMARK SMILES CCCCCCCCCCCCCCCCCC(=O)[O-]
REMARK SMILES IDX 10 1 11 2 12 3 13 4 14 5 15 6 16 7 17 8 18 9 19 10 20 11
REMARK SMILES IDX 9 12 8 13 7 14 6 15 5 16 4 17 3 18 2 19 1 20
REMARK H PARENT
REMARK Flexibility Score: inf
ROOT
ATOM      1  C   UNL     1       2.040  14.055  15.385  1.00  0.00     0.000 C 
ENDROOT
BRANCH   1   2
ATOM      2  C   UNL     1       2.795  14.488  16.647  1.00  0.00     0.000 C 
BRANCH   2   3
ATOM      3  C   UNL     1       1.843  14.582  17.851  1.00  0.00     0.000 C 
BRANCH   3   4
ATOM      4  C   UNL     1       1.260  15.992  18.036  1.00  0.00     0.000 C 
BRANCH   4   5
ATOM      5  C   UNL     1      -0.202  15.967  18.516  1.00  0.00     0.000 C 
BRANCH   5   6
ATOM      6  C   UNL     1      -0.880  17.343  18.420  1.00  0.00     0.000 C 
BRANCH   6   7
ATOM      7  C   UNL     1      -1.068  18.012  19.791  1.00  0.00     0.006 C 
BRANCH   7   8
ATOM      8  C   UNL     1      -0.550  19.453  19.772  1.00  0.00     0.053 C 
BRANCH   8   9
ATOM      9  C   UNL     1       0.062  19.773  18.445  1.00  0.00     0.041 C 
ATOM     10  O   UNL     1       1.313  19.767  18.307  1.00  0.00    -0.550 OA
ATOM     11  O   UNL     1      -0.748  20.125  17.372  1.00  0.00    -0.550 OA
ENDBRANCH   8   9
ENDBRANCH   7   8
ENDBRANCH   6   7
ENDBRANCH   5   6
ENDBRANCH   4   5
ENDBRANCH   3   4
ENDBRANCH   2   3
ENDBRANCH   1   2
BRANCH   1  12
ATOM     12  C   UNL     1       2.621  12.755  14.814  1.00  0.00     0.000 C 
BRANCH  12  13
ATOM     13  C   UNL     1       3.887  13.030  13.994  1.00  0.00    -0.000 C 
BRANCH  13  14
ATOM     14  C   UNL     1       5.084  12.250  14.550  1.00  0.00    -0.000 C 
BRANCH  14  15
ATOM     15  C   UNL     1       6.134  13.202  15.142  1.00  0.00    -0.000 C 
BRANCH  15  16
ATOM     16  C   UNL     1       6.320  13.012  16.655  1.00  0.00    -0.000 C 
BRANCH  16  17
ATOM     17  C   UNL     1       5.156  12.243  17.303  1.00  0.00    -0.000 C 
BRANCH  17  18
ATOM     18  C   UNL     1       5.215  12.264  18.839  1.00  0.00    -0.000 C 
BRANCH  18  19
ATOM     19  C   UNL     1       3.874  11.887  19.486  1.00  0.00    -0.003 C 
ATOM     20  C   UNL     1       2.953  11.202  18.482  1.00  0.00     0.004 C 
ENDBRANCH  18  19
ENDBRANCH  17  18
ENDBRANCH  16  17
ENDBRANCH  15  16
ENDBRANCH  14  15
ENDBRANCH  13  14
ENDBRANCH  12  13
ENDBRANCH   1  12
TORSDOF 16
ENDMDL
MODEL 5
REMARK VINA RESULT:    -3.410      3.645      8.484
REMARK INTER + INTRA:          -7.979
REMARK INTER:                  -6.923
REMARK INTRA:                  -1.056
REMARK UNBOUND:                -1.380
REMARK SMILES CCCCCCCCCCCCCCCCCC(=O)[O-]
REMARK SMILES IDX 10 1 11 2 12 3 13 4 14 5 15 6 16 7 17 8 18 9 19 10 20 11
REMARK SMILES IDX 9 12 8 13 7 14 6 15 5 16 4 17 3 18 2 19 1 20
REMARK H PARENT
REMARK Flexibility Score: inf
ROOT
ATOM      1  C   UNL     1       2.440  13.923  17.990  1.00  0.00     0.000 C 
ENDROOT
BRANCH   1   2
ATOM      2  C   UNL     1       1.786  15.076  18.760  1.00  0.00     0.000 C 
BRANCH   2   3
ATOM      3  C   UNL     1       0.812  15.854  17.860  1.00  0.00     0.000 C 
BRANCH   3   4
ATOM      4  C   UNL     1       0.240  17.104  18.548  1.00  0.00     0.000 C 
BRANCH   4   5
ATOM      5  C   UNL     1      -1.260  17.299  18.265  1.00  0.00     0.000 C 
BRANCH   5   6
ATOM      6  C   UNL     1      -2.107  16.100  18.722  1.00  0.00     0.000 C 
BRANCH   6   7
ATOM      7  C   UNL     1      -2.081  15.898  20.245  1.00  0.00     0.006 C 
BRANCH   7   8
ATOM      8  C   UNL     1      -2.080  14.408  20.599  1.00  0.00     0.053 C 
BRANCH   8   9
ATOM      9  C   UNL     1      -2.040  14.222  22.083  1.00  0.00     0.041 C 
ATOM     10  O   UNL     1      -2.125  15.217  22.848  1.00  0.00    -0.550 OA
ATOM     11  O   UNL     1      -1.859  12.953  22.620  1.00  0.00    -0.550 OA
ENDBRANCH   8   9
ENDBRANCH   7   8
ENDBRANCH   6   7
ENDBRANCH   5   6
ENDBRANCH   4   5
ENDBRANCH   3   4
ENDBRANCH   2   3
ENDBRANCH   1   2
BRANCH   1  12
ATOM     12  C   UNL     1       2.695  12.722  18.909  1.00  0.00     0.000 C 
BRANCH  12  13
ATOM     13  C   UNL     1       4.170  12.305  18.875  1.00  0.00    -0.000 C 
BRANCH  13  14
ATOM     14  C   UNL     1       4.636  12.043  17.437  1.00  0.00    -0.000 C 
BRANCH  14  15
ATOM     15  C   UNL     1       6.029  12.641  17.193  1.00  0.00    -0.000 C 
BRANCH  15  16
ATOM     16  C   UNL     1       6.144  13.333  15.826  1.00  0.00    -0.000 C 
BRANCH  16  17
ATOM     17  C   UNL     1       5.343  12.612  14.727  1.00  0.00    -0.000 C 
BRANCH  17  18
ATOM     18  C   UNL     1       3.931  13.192  14.549  1.00  0.00    -0.000 C 
BRANCH  18  19
ATOM     19  C   UNL     1       2.990  12.233  13.803  1.00  0.00    -0.003 C 
ATOM     20  C   UNL     1       3.779  11.215  12.986  1.00  0.00     0.004 C 
ENDBRANCH  18  19
ENDBRANCH  17  18
ENDBRANCH  16  17
ENDBRANCH  15  16
ENDBRANCH  14  15
ENDBRANCH  13  14
ENDBRANCH  12  13
ENDBRANCH   1  12
TORSDOF 16
ENDMDL
MODEL 6
REMARK VINA RESULT:    -3.181      2.373      3.355
REMARK INTER + INTRA:          -7.536
REMARK INTER:                  -6.503
REMARK INTRA:                  -1.032
REMARK UNBOUND:                -1.380
REMARK SMILES CCCCCCCCCCCCCCCCCC(=O)[O-]
REMARK SMILES IDX 10 1 11 2 12 3 13 4 14 5 15 6 16 7 17 8 18 9 19 10 20 11
REMARK SMILES IDX 9 12 8 13 7 14 6 15 5 16 4 17 3 18 2 19 1 20
REMARK H PARENT
REMARK Flexibility Score: inf
ROOT
ATOM      1  C   UNL     1       2.657  13.819  17.186  1.00  0.00     0.000 C 
ENDROOT
BRANCH   1   2
ATOM      2  C   UNL     1       2.372  14.511  15.848  1.00  0.00     0.000 C 
BRANCH   2   3
ATOM      3  C   UNL     1       2.600  13.549  14.671  1.00  0.00     0.000 C 
BRANCH   3   4
ATOM      4  C   UNL     1       3.538  12.386  15.031  1.00  0.00     0.000 C 
BRANCH   4   5
ATOM      5  C   UNL     1       4.986  12.632  14.570  1.00  0.00     0.000 C 
BRANCH   5   6
ATOM      6  C   UNL     1       5.925  12.986  15.735  1.00  0.00     0.000 C 
BRANCH   6   7
ATOM      7  C   UNL     1       5.348  12.596  17.105  1.00  0.00     0.006 C 
BRANCH   7   8
ATOM      8  C   UNL     1       6.442  12.589  18.177  1.00  0.00     0.053 C 
BRANCH   8   9
ATOM      9  C   UNL     1       5.880  12.162  19.497  1.00  0.00     0.041 C 
ATOM     10  O   UNL     1       4.635  12.148  19.680  1.00  0.00    -0.550 OA
ATOM     11  O   UNL     1       6.734  11.826  20.540  1.00  0.00    -0.550 OA
ENDBRANCH   8   9
ENDBRANCH   7   8
ENDBRANCH   6   7
ENDBRANCH   5   6
ENDBRANCH   4   5
ENDBRANCH   3   4
ENDBRANCH   2   3
ENDBRANCH   1   2
BRANCH   1  12
ATOM     12  C   UNL     1       2.104  14.638  18.359  1.00  0.00     0.000 C 
BRANCH  12  13
ATOM     13  C   UNL     1       1.086  15.677  17.875  1.00  0.00    -0.000 C 
BRANCH  13  14
ATOM     14  C   UNL     1      -0.154  15.695  18.776  1.00  0.00    -0.000 C 
BRANCH  14  15
ATOM     15  C   UNL     1      -1.125  16.808  18.354  1.00  0.00    -0.000 C 
BRANCH  15  16
ATOM     16  C   UNL     1      -1.959  17.343  19.528  1.00  0.00    -0.000 C 
BRANCH  16  17
ATOM     17  C   UNL     1      -1.346  18.602  20.166  1.00  0.00    -0.000 C 
BRANCH  17  18
ATOM     18  C   UNL     1      -0.987  19.676  19.128  1.00  0.00    -0.000 C 
BRANCH  18  19
ATOM     19  C   UNL     1       0.479  20.125  19.228  1.00  0.00    -0.003 C 
ATOM     20  C   UNL     1       1.281  19.654  18.018  1.00  0.00     0.004 C 
ENDBRANCH  18  19
ENDBRANCH  17  18
ENDBRANCH  16  17
ENDBRANCH  15  16
ENDBRANCH  14  15
ENDBRANCH  13  14
ENDBRANCH  12  13
ENDBRANCH   1  12
TORSDOF 16
ENDMDL
MODEL 7
REMARK VINA RESULT:    -3.165      3.390      8.023
REMARK INTER + INTRA:          -7.506
REMARK INTER:                  -5.924
REMARK INTRA:                  -1.582
REMARK UNBOUND:                -1.380
REMARK SMILES CCCCCCCCCCCCCCCCCC(=O)[O-]
REMARK SMILES IDX 10 1 11 2 12 3 13 4 14 5 15 6 16 7 17 8 18 9 19 10 20 11
REMARK SMILES IDX 9 12 8 13 7 14 6 15 5 16 4 17 3 18 2 19 1 20
REMARK H PARENT
REMARK Flexibility Score: inf
ROOT
ATOM      1  C   UNL     1       3.425  12.592  13.822  1.00  0.00     0.000 C 
ENDROOT
BRANCH   1   2
ATOM      2  C   UNL     1       2.362  13.340  14.635  1.00  0.00     0.000 C 
BRANCH   2   3
ATOM      3  C   UNL     1       2.920  13.773  16.000  1.00  0.00     0.000 C 
BRANCH   3   4
ATOM      4  C   UNL     1       2.077  14.877  16.660  1.00  0.00     0.000 C 
BRANCH   4   5
ATOM      5  C   UNL     1       2.043  14.754  18.194  1.00  0.00     0.000 C 
BRANCH   5   6
ATOM      6  C   UNL     1       1.192  15.850  18.856  1.00  0.00     0.000 C 
BRANCH   6   7
ATOM      7  C   UNL     1       0.063  16.358  17.946  1.00  0.00     0.006 C 
BRANCH   7   8
ATOM      8  C   UNL     1      -1.210  16.631  18.753  1.00  0.00     0.053 C 
BRANCH   8   9
ATOM      9  C   UNL     1      -1.075  17.904  19.529  1.00  0.00     0.041 C 
ATOM     10  O   UNL     1      -1.664  18.037  20.633  1.00  0.00    -0.550 OA
ATOM     11  O   UNL     1      -0.339  18.961  19.008  1.00  0.00    -0.550 OA
ENDBRANCH   8   9
ENDBRANCH   7   8
ENDBRANCH   6   7
ENDBRANCH   5   6
ENDBRANCH   4   5
ENDBRANCH   3   4
ENDBRANCH   2   3
ENDBRANCH   1   2
BRANCH   1  12
ATOM     12  C   UNL     1       4.587  12.140  14.716  1.00  0.00     0.000 C 
BRANCH  12  13
ATOM     13  C   UNL     1       5.863  12.929  14.403  1.00  0.00    -0.000 C 
BRANCH  13  14
ATOM     14  C   UNL     1       6.804  12.959  15.613  1.00  0.00    -0.000 C 
BRANCH  14  15
ATOM     15  C   UNL     1       6.010  12.944  16.928  1.00  0.00    -0.000 C 
BRANCH  15  16
ATOM     16  C   UNL     1       6.872  12.546  18.135  1.00  0.00    -0.000 C 
BRANCH  16  17
ATOM     17  C   UNL     1       6.032  12.211  19.380  1.00  0.00    -0.000 C 
BRANCH  17  18
ATOM     18  C   UNL     1       4.533  12.475  19.170  1.00  0.00    -0.000 C 
BRANCH  18  19
ATOM     19  C   UNL     1       3.670  11.239  19.468  1.00  0.00    -0.003 C 
ATOM     20  C   UNL     1       2.648  11.004  18.360  1.00  0.00     0.004 C 
ENDBRANCH  18  19
ENDBRANCH  17  18
ENDBRANCH  16  17
ENDBRANCH  15  16
ENDBRANCH  14  15
ENDBRANCH  13  14
ENDBRANCH  12  13
ENDBRANCH   1  12
TORSDOF 16
ENDMDL
MODEL 8
REMARK VINA RESULT:    -2.992      3.491      8.344
REMARK INTER + INTRA:          -7.170
REMARK INTER:                  -5.790
REMARK INTRA:                  -1.380
REMARK UNBOUND:                -1.380
REMARK SMILES CCCCCCCCCCCCCCCCCC(=O)[O-]
REMARK SMILES IDX 10 1 11 2 12 3 13 4 14 5 15 6 16 7 17 8 18 9 19 10 20 11
REMARK SMILES IDX 9 12 8 13 7 14 6 15 5 16 4 17 3 18 2 19 1 20
REMARK H PARENT
REMARK Flexibility Score: inf
ROOT
ATOM      1  C   UNL     1       2.290  13.877  17.511  1.00  0.00     0.000 C 
ENDROOT
BRANCH   1   2
ATOM      2  C   UNL     1       1.835  14.940  18.518  1.00  0.00     0.000 C 
BRANCH   2   3
ATOM      3  C   UNL     1       0.884  15.950  17.857  1.00  0.00     0.000 C 
BRANCH   3   4
ATOM      4  C   UNL     1       0.719  17.236  18.683  1.00  0.00     0.000 C 
BRANCH   4   5
ATOM      5  C   UNL     1      -0.698  17.826  18.578  1.00  0.00     0.000 C 
BRANCH   5   6
ATOM      6  C   UNL     1      -1.793  16.792  18.888  1.00  0.00     0.000 C 
BRANCH   6   7
ATOM      7  C   UNL     1      -1.759  16.306  20.345  1.00  0.00     0.006 C 
BRANCH   7   8
ATOM      8  C   UNL     1      -2.017  14.798  20.425  1.00  0.00     0.053 C 
BRANCH   8   9
ATOM      9  C   UNL     1      -2.017  14.342  21.850  1.00  0.00     0.041 C 
ATOM     10  O   UNL     1      -2.123  15.179  22.783  1.00  0.00    -0.550 OA
ATOM     11  O   UNL     1      -1.851  12.995  22.149  1.00  0.00    -0.550 OA
ENDBRANCH   8   9
ENDBRANCH   7   8
ENDBRANCH   6   7
ENDBRANCH   5   6
ENDBRANCH   4   5
ENDBRANCH   3   4
ENDBRANCH   2   3
ENDBRANCH   1   2
BRANCH   1  12
ATOM     12  C   UNL     1       2.541  14.496  16.130  1.00  0.00     0.000 C 
BRANCH  12  13
ATOM     13  C   UNL     1       2.456  13.435  15.027  1.00  0.00    -0.000 C 
BRANCH  13  14
ATOM     14  C   UNL     1       3.589  12.410  15.159  1.00  0.00    -0.000 C 
BRANCH  14  15
ATOM     15  C   UNL     1       4.794  12.808  14.294  1.00  0.00    -0.000 C 
BRANCH  15  16
ATOM     16  C   UNL     1       5.942  13.409  15.119  1.00  0.00    -0.000 C 
BRANCH  16  17
ATOM     17  C   UNL     1       6.550  12.401  16.111  1.00  0.00    -0.000 C 
BRANCH  17  18
ATOM     18  C   UNL     1       6.404  12.851  17.574  1.00  0.00    -0.000 C 
BRANCH  18  19
ATOM     19  C   UNL     1       5.137  12.293  18.239  1.00  0.00    -0.003 C 
ATOM     20  C   UNL     1       5.289  12.242  19.755  1.00  0.00     0.004 C 
ENDBRANCH  18  19
ENDBRANCH  17  18
ENDBRANCH  16  17
ENDBRANCH  15  16
ENDBRANCH  14  15
ENDBRANCH  13  14
ENDBRANCH  12  13
ENDBRANCH   1  12
TORSDOF 16
ENDMDL
