MODEL 1
REMARK VINA RESULT:    -2.663      0.000      0.000
REMARK INTER + INTRA:          -2.663
REMARK INTER:                  -2.663
REMARK INTRA:                   0.000
REMARK UNBOUND:                 0.000
REMARK SMILES CC1(C)O[C@]2(C)CC[C@H]1CC2
REMARK SMILES IDX 1 1 2 2 9 3 10 4 11 5 5 6 4 7 7 8 8 9 6 10 3 11
REMARK H PARENT
REMARK Flexibility Score: inf
ROOT
ATOM      1  C   UNL     1     128.426 124.722 115.754  1.00  0.00     0.042 C 
ATOM      2  C   UNL     1     128.779 126.177 116.130  1.00  0.00     0.066 C 
ATOM      3  C   UNL     1     129.798 126.210 117.333  1.00  0.00     0.021 C 
ATOM      4  C   UNL     1     130.075 127.688 117.699  1.00  0.00     0.009 C 
ATOM      5  C   UNL     1     128.727 128.422 117.904  1.00  0.00     0.035 C 
ATOM      6  C   UNL     1     127.551 127.413 117.765  1.00  0.00     0.066 C 
ATOM      7  O   UNL     1     127.558 126.865 116.446  1.00  0.00    -0.369 OA
ATOM      8  C   UNL     1     127.744 126.266 118.797  1.00  0.00     0.035 C 
ATOM      9  C   UNL     1     129.115 125.582 118.571  1.00  0.00     0.009 C 
ATOM     10  C   UNL     1     126.213 128.121 117.998  1.00  0.00     0.042 C 
ATOM     11  C   UNL     1     129.391 126.840 114.877  1.00  0.00     0.042 C 
ENDROOT
TORSDOF 0
ENDMDL
MODEL 2
REMARK VINA RESULT:    -2.658     14.676     16.467
REMARK INTER + INTRA:          -2.658
REMARK INTER:                  -2.658
REMARK INTRA:                   0.000
REMARK UNBOUND:                 0.000
REMARK SMILES CC1(C)O[C@]2(C)CC[C@H]1CC2
REMARK SMILES IDX 1 1 2 2 9 3 10 4 11 5 5 6 4 7 7 8 8 9 6 10 3 11
REMARK H PARENT
REMARK Flexibility Score: inf
ROOT
ATOM      1  C   UNL     1     114.297 128.448 115.776  1.00  0.00     0.042 C 
ATOM      2  C   UNL     1     112.839 128.789 116.149  1.00  0.00     0.066 C 
ATOM      3  C   UNL     1     112.794 129.783 117.373  1.00  0.00     0.021 C 
ATOM      4  C   UNL     1     111.313 130.048 117.735  1.00  0.00     0.009 C 
ATOM      5  C   UNL     1     110.583 128.694 117.908  1.00  0.00     0.035 C 
ATOM      6  C   UNL     1     111.597 127.524 117.752  1.00  0.00     0.066 C 
ATOM      7  O   UNL     1     112.154 127.560 116.437  1.00  0.00    -0.369 OA
ATOM      8  C   UNL     1     112.737 127.700 118.795  1.00  0.00     0.035 C 
ATOM      9  C   UNL     1     113.417 129.078 118.601  1.00  0.00     0.009 C 
ATOM     10  C   UNL     1     110.893 126.179 117.954  1.00  0.00     0.042 C 
ATOM     11  C   UNL     1     112.182 129.423 114.905  1.00  0.00     0.042 C 
ENDROOT
TORSDOF 0
ENDMDL
MODEL 3
REMARK VINA RESULT:    -2.595      3.005      4.928
REMARK INTER + INTRA:          -2.595
REMARK INTER:                  -2.595
REMARK INTRA:                   0.000
REMARK UNBOUND:                 0.000
REMARK SMILES CC1(C)O[C@]2(C)CC[C@H]1CC2
REMARK SMILES IDX 1 1 2 2 9 3 10 4 11 5 5 6 4 7 7 8 8 9 6 10 3 11
REMARK H PARENT
REMARK Flexibility Score: inf
ROOT
ATOM      1  C   UNL     1     124.969 129.936 120.880  1.00  0.00     0.042 C 
ATOM      2  C   UNL     1     126.030 129.172 120.060  1.00  0.00     0.066 C 
ATOM      3  C   UNL     1     125.519 128.915 118.590  1.00  0.00     0.021 C 
ATOM      4  C   UNL     1     126.598 128.105 117.831  1.00  0.00     0.009 C 
ATOM      5  C   UNL     1     126.977 126.858 118.668  1.00  0.00     0.035 C 
ATOM      6  C   UNL     1     126.086 126.786 119.941  1.00  0.00     0.066 C 
ATOM      7  O   UNL     1     126.323 127.944 120.744  1.00  0.00    -0.369 OA
ATOM      8  C   UNL     1     124.591 126.758 119.512  1.00  0.00     0.035 C 
ATOM      9  C   UNL     1     124.268 128.008 118.657  1.00  0.00     0.009 C 
ATOM     10  C   UNL     1     126.429 125.538 120.761  1.00  0.00     0.042 C 
ATOM     11  C   UNL     1     127.311 130.033 120.051  1.00  0.00     0.042 C 
ENDROOT
TORSDOF 0
ENDMDL
MODEL 4
REMARK VINA RESULT:    -2.587     12.546     14.130
REMARK INTER + INTRA:          -2.587
REMARK INTER:                  -2.587
REMARK INTRA:                   0.000
REMARK UNBOUND:                 0.000
REMARK SMILES CC1(C)O[C@]2(C)CC[C@H]1CC2
REMARK SMILES IDX 1 1 2 2 9 3 10 4 11 5 5 6 4 7 7 8 8 9 6 10 3 11
REMARK H PARENT
REMARK Flexibility Score: inf
ROOT
ATOM      1  C   UNL     1     129.954 114.070 120.863  1.00  0.00     0.042 C 
ATOM      2  C   UNL     1     129.174 113.022 120.041  1.00  0.00     0.066 C 
ATOM      3  C   UNL     1     128.869 113.564 118.592  1.00  0.00     0.021 C 
ATOM      4  C   UNL     1     128.045 112.497 117.833  1.00  0.00     0.009 C 
ATOM      5  C   UNL     1     126.827 112.087 118.697  1.00  0.00     0.035 C 
ATOM      6  C   UNL     1     126.786 112.947 119.993  1.00  0.00     0.066 C 
ATOM      7  O   UNL     1     127.970 112.702 120.754  1.00  0.00    -0.369 OA
ATOM      8  C   UNL     1     126.733 114.451 119.600  1.00  0.00     0.035 C 
ATOM      9  C   UNL     1     127.954 114.805 118.716  1.00  0.00     0.009 C 
ATOM     10  C   UNL     1     125.567 112.574 120.841  1.00  0.00     0.042 C 
ATOM     11  C   UNL     1     130.045 111.749 119.976  1.00  0.00     0.042 C 
ENDROOT
TORSDOF 0
ENDMDL
MODEL 5
REMARK VINA RESULT:    -2.534      1.241      3.638
REMARK INTER + INTRA:          -2.534
REMARK INTER:                  -2.534
REMARK INTRA:                   0.000
REMARK UNBOUND:                 0.000
REMARK SMILES CC1(C)O[C@]2(C)CC[C@H]1CC2
REMARK SMILES IDX 1 1 2 2 9 3 10 4 11 5 5 6 4 7 7 8 8 9 6 10 3 11
REMARK H PARENT
REMARK Flexibility Score: inf
ROOT
ATOM      1  C   UNL     1     126.061 129.523 118.649  1.00  0.00     0.042 C 
ATOM      2  C   UNL     1     126.471 128.035 118.634  1.00  0.00     0.066 C 
ATOM      3  C   UNL     1     127.738 127.797 119.543  1.00  0.00     0.021 C 
ATOM      4  C   UNL     1     128.134 126.304 119.450  1.00  0.00     0.009 C 
ATOM      5  C   UNL     1     128.258 125.904 117.960  1.00  0.00     0.035 C 
ATOM      6  C   UNL     1     128.035 127.152 117.058  1.00  0.00     0.066 C 
ATOM      7  O   UNL     1     126.715 127.654 117.272  1.00  0.00    -0.369 OA
ATOM      8  C   UNL     1     129.068 128.248 117.448  1.00  0.00     0.035 C 
ATOM      9  C   UNL     1     128.924 128.594 118.950  1.00  0.00     0.009 C 
ATOM     10  C   UNL     1     128.188 126.777 115.581  1.00  0.00     0.042 C 
ATOM     11  C   UNL     1     125.266 127.221 119.152  1.00  0.00     0.042 C 
ENDROOT
TORSDOF 0
ENDMDL
MODEL 6
REMARK VINA RESULT:    -2.527     13.683     15.467
REMARK INTER + INTRA:          -2.527
REMARK INTER:                  -2.527
REMARK INTRA:                   0.000
REMARK UNBOUND:                 0.000
REMARK SMILES CC1(C)O[C@]2(C)CC[C@H]1CC2
REMARK SMILES IDX 1 1 2 2 9 3 10 4 11 5 5 6 4 7 7 8 8 9 6 10 3 11
REMARK H PARENT
REMARK Flexibility Score: inf
ROOT
ATOM      1  C   UNL     1     129.892 112.898 118.707  1.00  0.00     0.042 C 
ATOM      2  C   UNL     1     128.376 112.624 118.796  1.00  0.00     0.066 C 
ATOM      3  C   UNL     1     128.091 111.353 119.685  1.00  0.00     0.021 C 
ATOM      4  C   UNL     1     126.564 111.097 119.698  1.00  0.00     0.009 C 
ATOM      5  C   UNL     1     126.044 111.060 118.240  1.00  0.00     0.035 C 
ATOM      6  C   UNL     1     127.237 111.201 117.251  1.00  0.00     0.066 C 
ATOM      7  O   UNL     1     127.872 112.463 117.461  1.00  0.00    -0.369 OA
ATOM      8  C   UNL     1     128.259 110.062 117.525  1.00  0.00     0.035 C 
ATOM      9  C   UNL     1     128.728 110.122 119.000  1.00  0.00     0.009 C 
ATOM     10  C   UNL     1     126.739 111.134 115.804  1.00  0.00     0.042 C 
ATOM     11  C   UNL     1     127.717 113.879 119.408  1.00  0.00     0.042 C 
ENDROOT
TORSDOF 0
ENDMDL
MODEL 7
REMARK VINA RESULT:    -2.515     12.789     14.206
REMARK INTER + INTRA:          -2.515
REMARK INTER:                  -2.515
REMARK INTRA:                   0.000
REMARK UNBOUND:                 0.000
REMARK SMILES CC1(C)O[C@]2(C)CC[C@H]1CC2
REMARK SMILES IDX 1 1 2 2 9 3 10 4 11 5 5 6 4 7 7 8 8 9 6 10 3 11
REMARK H PARENT
REMARK Flexibility Score: inf
ROOT
ATOM      1  C   UNL     1     129.143 110.691 118.598  1.00  0.00     0.042 C 
ATOM      2  C   UNL     1     128.268 111.963 118.562  1.00  0.00     0.066 C 
ATOM      3  C   UNL     1     129.169 113.257 118.535  1.00  0.00     0.021 C 
ATOM      4  C   UNL     1     128.244 114.498 118.551  1.00  0.00     0.009 C 
ATOM      5  C   UNL     1     127.242 114.368 119.725  1.00  0.00     0.035 C 
ATOM      6  C   UNL     1     127.556 113.085 120.548  1.00  0.00     0.066 C 
ATOM      7  O   UNL     1     127.402 111.941 119.707  1.00  0.00    -0.369 OA
ATOM      8  C   UNL     1     129.026 113.156 121.051  1.00  0.00     0.035 C 
ATOM      9  C   UNL     1     129.986 113.314 119.847  1.00  0.00     0.009 C 
ATOM     10  C   UNL     1     126.592 112.962 121.731  1.00  0.00     0.042 C 
ATOM     11  C   UNL     1     127.390 111.881 117.296  1.00  0.00     0.042 C 
ENDROOT
TORSDOF 0
ENDMDL
MODEL 8
REMARK VINA RESULT:    -2.491      2.536      4.471
REMARK INTER + INTRA:          -2.491
REMARK INTER:                  -2.491
REMARK INTRA:                   0.000
REMARK UNBOUND:                 0.000
REMARK SMILES CC1(C)O[C@]2(C)CC[C@H]1CC2
REMARK SMILES IDX 1 1 2 2 9 3 10 4 11 5 5 6 4 7 7 8 8 9 6 10 3 11
REMARK H PARENT
REMARK Flexibility Score: inf
ROOT
ATOM      1  C   UNL     1     128.297 129.274 118.670  1.00  0.00     0.042 C 
ATOM      2  C   UNL     1     127.075 128.334 118.598  1.00  0.00     0.066 C 
ATOM      3  C   UNL     1     125.733 129.163 118.609  1.00  0.00     0.021 C 
ATOM      4  C   UNL     1     124.545 128.171 118.587  1.00  0.00     0.009 C 
ATOM      5  C   UNL     1     124.733 127.130 119.718  1.00  0.00     0.035 C 
ATOM      6  C   UNL     1     125.998 127.479 120.553  1.00  0.00     0.066 C 
ATOM      7  O   UNL     1     127.147 127.423 119.706  1.00  0.00    -0.369 OA
ATOM      8  C   UNL     1     125.848 128.921 121.117  1.00  0.00     0.035 C 
ATOM      9  C   UNL     1     125.635 129.920 119.954  1.00  0.00     0.009 C 
ATOM     10  C   UNL     1     126.177 126.475 121.695  1.00  0.00     0.042 C 
ATOM     11  C   UNL     1     127.201 127.515 117.296  1.00  0.00     0.042 C 
ENDROOT
TORSDOF 0
ENDMDL
MODEL 9
REMARK VINA RESULT:    -2.393      3.700      5.136
REMARK INTER + INTRA:          -2.393
REMARK INTER:                  -2.393
REMARK INTRA:                   0.000
REMARK UNBOUND:                 0.000
REMARK SMILES CC1(C)O[C@]2(C)CC[C@H]1CC2
REMARK SMILES IDX 1 1 2 2 9 3 10 4 11 5 5 6 4 7 7 8 8 9 6 10 3 11
REMARK H PARENT
REMARK Flexibility Score: inf
ROOT
ATOM      1  C   UNL     1     125.984 125.772 120.126  1.00  0.00     0.042 C 
ATOM      2  C   UNL     1     125.926 127.214 120.674  1.00  0.00     0.066 C 
ATOM      3  C   UNL     1     124.480 127.820 120.496  1.00  0.00     0.021 C 
ATOM      4  C   UNL     1     124.494 129.278 121.014  1.00  0.00     0.009 C 
ATOM      5  C   UNL     1     125.660 130.044 120.343  1.00  0.00     0.035 C 
ATOM      6  C   UNL     1     126.370 129.124 119.309  1.00  0.00     0.066 C 
ATOM      7  O   UNL     1     126.918 127.992 119.987  1.00  0.00    -0.369 OA
ATOM      8  C   UNL     1     125.326 128.637 118.264  1.00  0.00     0.035 C 
ATOM      9  C   UNL     1     124.167 127.904 118.984  1.00  0.00     0.009 C 
ATOM     10  C   UNL     1     127.506 129.881 118.614  1.00  0.00     0.042 C 
ATOM     11  C   UNL     1     126.313 127.154 122.167  1.00  0.00     0.042 C 
ENDROOT
TORSDOF 0
ENDMDL
