MODEL 1
REMARK VINA RESULT:    -5.795      0.000      0.000
REMARK INTER + INTRA:         -15.050
REMARK INTER:                 -12.571
REMARK INTRA:                  -2.479
REMARK UNBOUND:                -2.479
REMARK SMILES CCCCCCCCCCCCCCCCCCCCCC(=O)[O-]
REMARK SMILES IDX 12 1 11 2 10 3 9 4 8 5 7 6 6 7 5 8 4 9 3 10 2 11 1 12 13 13
REMARK SMILES IDX 14 14 15 15 16 16 17 17 18 18 19 19 20 20 21 21 22 22 23 23
REMARK SMILES IDX 24 24
REMARK H PARENT
REMARK Flexibility Score: inf
ROOT
ATOM      1  C   UNL     1      -2.091  25.389  46.917  1.00  0.00     0.000 C 
ENDROOT
BRANCH   1   2
ATOM      2  C   UNL     1      -1.445  25.816  48.251  1.00  0.00     0.000 C 
BRANCH   2   3
ATOM      3  C   UNL     1      -0.018  25.280  48.485  1.00  0.00     0.000 C 
BRANCH   3   4
ATOM      4  C   UNL     1       0.294  25.067  49.976  1.00  0.00    -0.000 C 
BRANCH   4   5
ATOM      5  C   UNL     1       1.731  25.469  50.344  1.00  0.00    -0.000 C 
BRANCH   5   6
ATOM      6  C   UNL     1       2.381  24.501  51.349  1.00  0.00    -0.000 C 
BRANCH   6   7
ATOM      7  C   UNL     1       1.371  23.499  51.941  1.00  0.00    -0.000 C 
BRANCH   7   8
ATOM      8  C   UNL     1       1.666  22.052  51.513  1.00  0.00    -0.000 C 
BRANCH   8   9
ATOM      9  C   UNL     1       0.371  21.297  51.179  1.00  0.00    -0.000 C 
BRANCH   9  10
ATOM     10  C   UNL     1      -0.885  21.986  51.745  1.00  0.00    -0.000 C 
BRANCH  10  11
ATOM     11  C   UNL     1      -1.619  21.146  52.813  1.00  0.00    -0.003 C 
ATOM     12  C   UNL     1      -0.930  21.190  54.180  1.00  0.00     0.004 C 
ENDBRANCH  10  11
ENDBRANCH   9  10
ENDBRANCH   8   9
ENDBRANCH   7   8
ENDBRANCH   6   7
ENDBRANCH   5   6
ENDBRANCH   4   5
ENDBRANCH   3   4
ENDBRANCH   2   3
ENDBRANCH   1   2
BRANCH   1  13
ATOM     13  C   UNL     1      -1.093  25.240  45.751  1.00  0.00     0.000 C 
BRANCH  13  14
ATOM     14  C   UNL     1      -1.546  24.192  44.709  1.00  0.00     0.000 C 
BRANCH  14  15
ATOM     15  C   UNL     1      -2.104  22.914  45.361  1.00  0.00     0.000 C 
BRANCH  15  16
ATOM     16  C   UNL     1      -1.003  21.887  45.679  1.00  0.00     0.000 C 
BRANCH  16  17
ATOM     17  C   UNL     1      -0.734  21.778  47.191  1.00  0.00     0.000 C 
BRANCH  17  18
ATOM     18  C   UNL     1      -0.232  20.376  47.582  1.00  0.00     0.000 C 
BRANCH  18  19
ATOM     19  C   UNL     1       0.880  19.863  46.652  1.00  0.00     0.000 C 
BRANCH  19  20
ATOM     20  C   UNL     1       1.966  19.071  47.400  1.00  0.00     0.006 C 
BRANCH  20  21
ATOM     21  C   UNL     1       1.952  19.357  48.906  1.00  0.00     0.053 C 
BRANCH  21  22
ATOM     22  C   UNL     1       3.273  19.047  49.541  1.00  0.00     0.041 C 
ATOM     23  O   UNL     1       3.562  17.868  49.869  1.00  0.00    -0.550 OA
ATOM     24  O   UNL     1       4.173  20.074  49.805  1.00  0.00    -0.550 OA
ENDBRANCH  21  22
ENDBRANCH  20  21
ENDBRANCH  19  20
ENDBRANCH  18  19
ENDBRANCH  17  18
ENDBRANCH  16  17
ENDBRANCH  15  16
ENDBRANCH  14  15
ENDBRANCH  13  14
ENDBRANCH   1  13
TORSDOF 20
ENDMDL
MODEL 2
REMARK VINA RESULT:    -5.721      2.415      5.619
REMARK INTER + INTRA:         -14.889
REMARK INTER:                 -12.360
REMARK INTRA:                  -2.529
REMARK UNBOUND:                -2.479
REMARK SMILES CCCCCCCCCCCCCCCCCCCCCC(=O)[O-]
REMARK SMILES IDX 12 1 11 2 10 3 9 4 8 5 7 6 6 7 5 8 4 9 3 10 2 11 1 12 13 13
REMARK SMILES IDX 14 14 15 15 16 16 17 17 18 18 19 19 20 20 21 21 22 22 23 23
REMARK SMILES IDX 24 24
REMARK H PARENT
REMARK Flexibility Score: inf
ROOT
ATOM      1  C   UNL     1      -0.827  24.702  47.855  1.00  0.00     0.000 C 
ENDROOT
BRANCH   1   2
ATOM      2  C   UNL     1      -0.705  25.384  46.476  1.00  0.00     0.000 C 
BRANCH   2   3
ATOM      3  C   UNL     1      -1.428  24.658  45.324  1.00  0.00     0.000 C 
BRANCH   3   4
ATOM      4  C   UNL     1      -1.993  23.293  45.751  1.00  0.00    -0.000 C 
BRANCH   4   5
ATOM      5  C   UNL     1      -1.141  22.116  45.251  1.00  0.00    -0.000 C 
BRANCH   5   6
ATOM      6  C   UNL     1      -0.526  21.296  46.400  1.00  0.00    -0.000 C 
BRANCH   6   7
ATOM      7  C   UNL     1       0.431  20.198  45.896  1.00  0.00    -0.000 C 
BRANCH   7   8
ATOM      8  C   UNL     1       0.744  19.154  46.979  1.00  0.00    -0.000 C 
BRANCH   8   9
ATOM      9  C   UNL     1       0.747  19.789  48.378  1.00  0.00    -0.000 C 
BRANCH   9  10
ATOM     10  C   UNL     1       1.608  19.007  49.388  1.00  0.00    -0.000 C 
BRANCH  10  11
ATOM     11  C   UNL     1       3.113  19.001  49.039  1.00  0.00    -0.003 C 
ATOM     12  C   UNL     1       3.923  19.981  49.892  1.00  0.00     0.004 C 
ENDBRANCH  10  11
ENDBRANCH   9  10
ENDBRANCH   8   9
ENDBRANCH   7   8
ENDBRANCH   6   7
ENDBRANCH   5   6
ENDBRANCH   4   5
ENDBRANCH   3   4
ENDBRANCH   2   3
ENDBRANCH   1   2
BRANCH   1  13
ATOM     13  C   UNL     1      -0.385  25.586  49.039  1.00  0.00     0.000 C 
BRANCH  13  14
ATOM     14  C   UNL     1       1.054  26.125  48.874  1.00  0.00     0.000 C 
BRANCH  14  15
ATOM     15  C   UNL     1       1.992  25.660  50.003  1.00  0.00     0.000 C 
BRANCH  15  16
ATOM     16  C   UNL     1       1.257  24.844  51.081  1.00  0.00     0.000 C 
BRANCH  16  17
ATOM     17  C   UNL     1       2.160  23.765  51.705  1.00  0.00     0.000 C 
BRANCH  17  18
ATOM     18  C   UNL     1       1.607  22.348  51.461  1.00  0.00     0.000 C 
BRANCH  18  19
ATOM     19  C   UNL     1       0.274  22.355  50.693  1.00  0.00     0.000 C 
BRANCH  19  20
ATOM     20  C   UNL     1      -0.873  21.701  51.481  1.00  0.00     0.006 C 
BRANCH  20  21
ATOM     21  C   UNL     1      -0.406  21.169  52.842  1.00  0.00     0.053 C 
BRANCH  21  22
ATOM     22  C   UNL     1      -1.512  21.181  53.851  1.00  0.00     0.041 C 
ATOM     23  O   UNL     1      -1.398  20.547  54.930  1.00  0.00    -0.550 OA
ATOM     24  O   UNL     1      -2.691  21.869  53.580  1.00  0.00    -0.550 OA
ENDBRANCH  21  22
ENDBRANCH  20  21
ENDBRANCH  19  20
ENDBRANCH  18  19
ENDBRANCH  17  18
ENDBRANCH  16  17
ENDBRANCH  15  16
ENDBRANCH  14  15
ENDBRANCH  13  14
ENDBRANCH   1  13
TORSDOF 20
ENDMDL
MODEL 3
REMARK VINA RESULT:    -5.560      2.373      5.934
REMARK INTER + INTRA:         -14.540
REMARK INTER:                 -12.074
REMARK INTRA:                  -2.467
REMARK UNBOUND:                -2.479
REMARK SMILES CCCCCCCCCCCCCCCCCCCCCC(=O)[O-]
REMARK SMILES IDX 12 1 11 2 10 3 9 4 8 5 7 6 6 7 5 8 4 9 3 10 2 11 1 12 13 13
REMARK SMILES IDX 14 14 15 15 16 16 17 17 18 18 19 19 20 20 21 21 22 22 23 23
REMARK SMILES IDX 24 24
REMARK H PARENT
REMARK Flexibility Score: inf
ROOT
ATOM      1  C   UNL     1       0.470  19.898  46.287  1.00  0.00     0.000 C 
ENDROOT
BRANCH   1   2
ATOM      2  C   UNL     1      -0.497  20.690  47.192  1.00  0.00     0.000 C 
BRANCH   2   3
ATOM      3  C   UNL     1      -0.706  22.163  46.788  1.00  0.00     0.000 C 
BRANCH   3   4
ATOM      4  C   UNL     1      -1.488  22.308  45.472  1.00  0.00    -0.000 C 
BRANCH   4   5
ATOM      5  C   UNL     1      -1.658  23.773  45.041  1.00  0.00    -0.000 C 
BRANCH   5   6
ATOM      6  C   UNL     1      -1.678  24.746  46.234  1.00  0.00    -0.000 C 
BRANCH   6   7
ATOM      7  C   UNL     1      -0.505  25.746  46.200  1.00  0.00    -0.000 C 
BRANCH   7   8
ATOM      8  C   UNL     1       0.085  26.001  47.596  1.00  0.00    -0.000 C 
BRANCH   8   9
ATOM      9  C   UNL     1      -0.839  25.457  48.696  1.00  0.00    -0.000 C 
BRANCH   9  10
ATOM     10  C   UNL     1      -0.072  24.717  49.808  1.00  0.00    -0.000 C 
BRANCH  10  11
ATOM     11  C   UNL     1       1.330  25.303  50.085  1.00  0.00    -0.003 C 
ATOM     12  C   UNL     1       2.007  24.672  51.305  1.00  0.00     0.004 C 
ENDBRANCH  10  11
ENDBRANCH   9  10
ENDBRANCH   8   9
ENDBRANCH   7   8
ENDBRANCH   6   7
ENDBRANCH   5   6
ENDBRANCH   4   5
ENDBRANCH   3   4
ENDBRANCH   2   3
ENDBRANCH   1   2
BRANCH   1  13
ATOM     13  C   UNL     1       1.870  19.678  46.897  1.00  0.00     0.000 C 
BRANCH  13  14
ATOM     14  C   UNL     1       1.810  19.109  48.333  1.00  0.00     0.000 C 
BRANCH  14  15
ATOM     15  C   UNL     1       3.204  18.776  48.895  1.00  0.00     0.000 C 
BRANCH  15  16
ATOM     16  C   UNL     1       3.477  19.471  50.241  1.00  0.00     0.000 C 
BRANCH  16  17
ATOM     17  C   UNL     1       3.002  20.935  50.242  1.00  0.00     0.000 C 
BRANCH  17  18
ATOM     18  C   UNL     1       1.852  21.162  51.240  1.00  0.00     0.000 C 
BRANCH  18  19
ATOM     19  C   UNL     1       0.473  21.190  50.560  1.00  0.00     0.000 C 
BRANCH  19  20
ATOM     20  C   UNL     1      -0.651  21.649  51.506  1.00  0.00     0.006 C 
BRANCH  20  21
ATOM     21  C   UNL     1      -0.257  21.502  52.981  1.00  0.00     0.053 C 
BRANCH  21  22
ATOM     22  C   UNL     1      -1.446  21.216  53.846  1.00  0.00     0.041 C 
ATOM     23  O   UNL     1      -1.377  20.356  54.759  1.00  0.00    -0.550 OA
ATOM     24  O   UNL     1      -2.647  21.878  53.615  1.00  0.00    -0.550 OA
ENDBRANCH  21  22
ENDBRANCH  20  21
ENDBRANCH  19  20
ENDBRANCH  18  19
ENDBRANCH  17  18
ENDBRANCH  16  17
ENDBRANCH  15  16
ENDBRANCH  14  15
ENDBRANCH  13  14
ENDBRANCH   1  13
TORSDOF 20
ENDMDL
MODEL 4
REMARK VINA RESULT:    -5.197      2.419      6.491
REMARK INTER + INTRA:         -13.752
REMARK INTER:                 -11.301
REMARK INTRA:                  -2.451
REMARK UNBOUND:                -2.479
REMARK SMILES CCCCCCCCCCCCCCCCCCCCCC(=O)[O-]
REMARK SMILES IDX 12 1 11 2 10 3 9 4 8 5 7 6 6 7 5 8 4 9 3 10 2 11 1 12 13 13
REMARK SMILES IDX 14 14 15 15 16 16 17 17 18 18 19 19 20 20 21 21 22 22 23 23
REMARK SMILES IDX 24 24
REMARK H PARENT
REMARK Flexibility Score: inf
ROOT
ATOM      1  C   UNL     1       0.762  19.019  47.710  1.00  0.00     0.000 C 
ENDROOT
BRANCH   1   2
ATOM      2  C   UNL     1      -0.140  20.055  48.413  1.00  0.00     0.000 C 
BRANCH   2   3
ATOM      3  C   UNL     1      -0.601  21.227  47.525  1.00  0.00     0.000 C 
BRANCH   3   4
ATOM      4  C   UNL     1      -0.440  20.928  46.025  1.00  0.00    -0.000 C 
BRANCH   4   5
ATOM      5  C   UNL     1      -0.985  22.055  45.134  1.00  0.00    -0.000 C 
BRANCH   5   6
ATOM      6  C   UNL     1      -1.659  23.180  45.941  1.00  0.00    -0.000 C 
BRANCH   6   7
ATOM      7  C   UNL     1      -1.465  24.567  45.298  1.00  0.00    -0.000 C 
BRANCH   7   8
ATOM      8  C   UNL     1      -0.876  25.589  46.283  1.00  0.00    -0.000 C 
BRANCH   8   9
ATOM      9  C   UNL     1      -1.649  25.589  47.610  1.00  0.00    -0.000 C 
BRANCH   9  10
ATOM     10  C   UNL     1      -0.728  25.723  48.838  1.00  0.00    -0.000 C 
BRANCH  10  11
ATOM     11  C   UNL     1       0.720  26.125  48.481  1.00  0.00    -0.003 C 
ATOM     12  C   UNL     1       1.677  26.017  49.671  1.00  0.00     0.004 C 
ENDBRANCH  10  11
ENDBRANCH   9  10
ENDBRANCH   8   9
ENDBRANCH   7   8
ENDBRANCH   6   7
ENDBRANCH   5   6
ENDBRANCH   4   5
ENDBRANCH   3   4
ENDBRANCH   2   3
ENDBRANCH   1   2
BRANCH   1  13
ATOM     13  C   UNL     1       2.264  19.370  47.734  1.00  0.00     0.000 C 
BRANCH  13  14
ATOM     14  C   UNL     1       2.972  18.866  49.011  1.00  0.00     0.000 C 
BRANCH  14  15
ATOM     15  C   UNL     1       3.452  20.016  49.915  1.00  0.00     0.000 C 
BRANCH  15  16
ATOM     16  C   UNL     1       2.322  20.590  50.788  1.00  0.00     0.000 C 
BRANCH  16  17
ATOM     17  C   UNL     1       2.701  21.949  51.405  1.00  0.00     0.000 C 
BRANCH  17  18
ATOM     18  C   UNL     1       1.461  22.719  51.895  1.00  0.00     0.000 C 
BRANCH  18  19
ATOM     19  C   UNL     1       0.320  22.724  50.864  1.00  0.00     0.000 C 
BRANCH  19  20
ATOM     20  C   UNL     1      -0.960  22.049  51.385  1.00  0.00     0.006 C 
BRANCH  20  21
ATOM     21  C   UNL     1      -0.668  21.063  52.523  1.00  0.00     0.053 C 
BRANCH  21  22
ATOM     22  C   UNL     1      -1.608  21.250  53.674  1.00  0.00     0.041 C 
ATOM     23  O   UNL     1      -2.626  21.977  53.553  1.00  0.00    -0.550 OA
ATOM     24  O   UNL     1      -1.335  20.648  54.898  1.00  0.00    -0.550 OA
ENDBRANCH  21  22
ENDBRANCH  20  21
ENDBRANCH  19  20
ENDBRANCH  18  19
ENDBRANCH  17  18
ENDBRANCH  16  17
ENDBRANCH  15  16
ENDBRANCH  14  15
ENDBRANCH  13  14
ENDBRANCH   1  13
TORSDOF 20
ENDMDL
MODEL 5
REMARK VINA RESULT:    -4.827      2.830      6.750
REMARK INTER + INTRA:         -12.950
REMARK INTER:                 -10.770
REMARK INTRA:                  -2.180
REMARK UNBOUND:                -2.479
REMARK SMILES CCCCCCCCCCCCCCCCCCCCCC(=O)[O-]
REMARK SMILES IDX 12 1 11 2 10 3 9 4 8 5 7 6 6 7 5 8 4 9 3 10 2 11 1 12 13 13
REMARK SMILES IDX 14 14 15 15 16 16 17 17 18 18 19 19 20 20 21 21 22 22 23 23
REMARK SMILES IDX 24 24
REMARK H PARENT
REMARK Flexibility Score: inf
ROOT
ATOM      1  C   UNL     1       0.336  21.964  52.149  1.00  0.00     0.000 C 
ENDROOT
BRANCH   1   2
ATOM      2  C   UNL     1      -0.738  21.514  51.137  1.00  0.00     0.000 C 
BRANCH   2   3
ATOM      3  C   UNL     1      -0.189  20.861  49.852  1.00  0.00     0.000 C 
BRANCH   3   4
ATOM      4  C   UNL     1      -0.514  21.679  48.591  1.00  0.00    -0.000 C 
BRANCH   4   5
ATOM      5  C   UNL     1      -1.172  20.834  47.490  1.00  0.00    -0.000 C 
BRANCH   5   6
ATOM      6  C   UNL     1      -0.604  21.133  46.090  1.00  0.00    -0.000 C 
BRANCH   6   7
ATOM      7  C   UNL     1       0.759  20.454  45.850  1.00  0.00    -0.000 C 
BRANCH   7   8
ATOM      8  C   UNL     1       0.935  19.183  46.695  1.00  0.00    -0.000 C 
BRANCH   8   9
ATOM      9  C   UNL     1       2.292  19.178  47.414  1.00  0.00    -0.000 C 
BRANCH   9  10
ATOM     10  C   UNL     1       2.156  19.179  48.948  1.00  0.00    -0.000 C 
BRANCH  10  11
ATOM     11  C   UNL     1       3.463  18.807  49.682  1.00  0.00    -0.003 C 
ATOM     12  C   UNL     1       4.375  20.014  49.919  1.00  0.00     0.004 C 
ENDBRANCH  10  11
ENDBRANCH   9  10
ENDBRANCH   8   9
ENDBRANCH   7   8
ENDBRANCH   6   7
ENDBRANCH   5   6
ENDBRANCH   4   5
ENDBRANCH   3   4
ENDBRANCH   2   3
ENDBRANCH   1   2
BRANCH   1  13
ATOM     13  C   UNL     1       1.776  21.932  51.598  1.00  0.00     0.000 C 
BRANCH  13  14
ATOM     14  C   UNL     1       2.494  23.294  51.730  1.00  0.00     0.000 C 
BRANCH  14  15
ATOM     15  C   UNL     1       1.553  24.486  51.477  1.00  0.00     0.000 C 
BRANCH  15  16
ATOM     16  C   UNL     1       2.204  25.575  50.605  1.00  0.00     0.000 C 
BRANCH  16  17
ATOM     17  C   UNL     1       1.291  26.007  49.443  1.00  0.00     0.000 C 
BRANCH  17  18
ATOM     18  C   UNL     1      -0.016  25.193  49.411  1.00  0.00     0.000 C 
BRANCH  18  19
ATOM     19  C   UNL     1      -1.029  25.738  48.391  1.00  0.00     0.000 C 
BRANCH  19  20
ATOM     20  C   UNL     1      -0.658  25.396  46.938  1.00  0.00     0.006 C 
BRANCH  20  21
ATOM     21  C   UNL     1      -1.880  24.967  46.117  1.00  0.00     0.053 C 
BRANCH  21  22
ATOM     22  C   UNL     1      -1.506  24.615  44.710  1.00  0.00     0.041 C 
ATOM     23  O   UNL     1      -0.995  25.477  43.952  1.00  0.00    -0.550 OA
ATOM     24  O   UNL     1      -1.760  23.336  44.225  1.00  0.00    -0.550 OA
ENDBRANCH  21  22
ENDBRANCH  20  21
ENDBRANCH  19  20
ENDBRANCH  18  19
ENDBRANCH  17  18
ENDBRANCH  16  17
ENDBRANCH  15  16
ENDBRANCH  14  15
ENDBRANCH  13  14
ENDBRANCH   1  13
TORSDOF 20
ENDMDL
MODEL 6
REMARK VINA RESULT:    -4.701      2.035      5.224
REMARK INTER + INTRA:         -12.675
REMARK INTER:                 -10.828
REMARK INTRA:                  -1.847
REMARK UNBOUND:                -2.479
REMARK SMILES CCCCCCCCCCCCCCCCCCCCCC(=O)[O-]
REMARK SMILES IDX 12 1 11 2 10 3 9 4 8 5 7 6 6 7 5 8 4 9 3 10 2 11 1 12 13 13
REMARK SMILES IDX 14 14 15 15 16 16 17 17 18 18 19 19 20 20 21 21 22 22 23 23
REMARK SMILES IDX 24 24
REMARK H PARENT
REMARK Flexibility Score: inf
ROOT
ATOM      1  C   UNL     1      -1.324  24.809  45.309  1.00  0.00     0.000 C 
ENDROOT
BRANCH   1   2
ATOM      2  C   UNL     1      -2.395  23.755  44.957  1.00  0.00     0.000 C 
BRANCH   2   3
ATOM      3  C   UNL     1      -2.133  22.346  45.523  1.00  0.00     0.000 C 
BRANCH   3   4
ATOM      4  C   UNL     1      -0.818  21.738  45.005  1.00  0.00    -0.000 C 
BRANCH   4   5
ATOM      5  C   UNL     1      -0.111  20.870  46.058  1.00  0.00    -0.000 C 
BRANCH   5   6
ATOM      6  C   UNL     1      -0.512  21.237  47.499  1.00  0.00    -0.000 C 
BRANCH   6   7
ATOM      7  C   UNL     1      -0.245  20.091  48.495  1.00  0.00    -0.000 C 
BRANCH   7   8
ATOM      8  C   UNL     1       0.717  19.036  47.927  1.00  0.00    -0.000 C 
BRANCH   8   9
ATOM      9  C   UNL     1       2.171  19.347  48.312  1.00  0.00    -0.000 C 
BRANCH   9  10
ATOM     10  C   UNL     1       2.776  18.293  49.259  1.00  0.00    -0.000 C 
BRANCH  10  11
ATOM     11  C   UNL     1       3.771  18.884  50.282  1.00  0.00    -0.003 C 
ATOM     12  C   UNL     1       4.463  20.151  49.774  1.00  0.00     0.004 C 
ENDBRANCH  10  11
ENDBRANCH   9  10
ENDBRANCH   8   9
ENDBRANCH   7   8
ENDBRANCH   6   7
ENDBRANCH   5   6
ENDBRANCH   4   5
ENDBRANCH   3   4
ENDBRANCH   2   3
ENDBRANCH   1   2
BRANCH   1  13
ATOM     13  C   UNL     1      -1.531  25.486  46.680  1.00  0.00     0.000 C 
BRANCH  13  14
ATOM     14  C   UNL     1      -0.197  25.806  47.392  1.00  0.00     0.000 C 
BRANCH  14  15
ATOM     15  C   UNL     1      -0.278  25.607  48.916  1.00  0.00     0.000 C 
BRANCH  15  16
ATOM     16  C   UNL     1       1.103  25.683  49.593  1.00  0.00     0.000 C 
BRANCH  16  17
ATOM     17  C   UNL     1       1.055  25.213  51.058  1.00  0.00     0.000 C 
BRANCH  17  18
ATOM     18  C   UNL     1       2.324  24.432  51.448  1.00  0.00     0.000 C 
BRANCH  18  19
ATOM     19  C   UNL     1       2.009  23.072  52.094  1.00  0.00     0.000 C 
BRANCH  19  20
ATOM     20  C   UNL     1       1.959  21.923  51.073  1.00  0.00     0.006 C 
BRANCH  20  21
ATOM     21  C   UNL     1       0.811  20.947  51.362  1.00  0.00     0.053 C 
BRANCH  21  22
ATOM     22  C   UNL     1      -0.444  21.666  51.749  1.00  0.00     0.041 C 
ATOM     23  O   UNL     1      -1.103  21.301  52.754  1.00  0.00    -0.550 OA
ATOM     24  O   UNL     1      -0.906  22.723  50.970  1.00  0.00    -0.550 OA
ENDBRANCH  21  22
ENDBRANCH  20  21
ENDBRANCH  19  20
ENDBRANCH  18  19
ENDBRANCH  17  18
ENDBRANCH  16  17
ENDBRANCH  15  16
ENDBRANCH  14  15
ENDBRANCH  13  14
ENDBRANCH   1  13
TORSDOF 20
ENDMDL
MODEL 7
REMARK VINA RESULT:    -4.573      2.365      5.182
REMARK INTER + INTRA:         -12.398
REMARK INTER:                  -9.991
REMARK INTRA:                  -2.408
REMARK UNBOUND:                -2.479
REMARK SMILES CCCCCCCCCCCCCCCCCCCCCC(=O)[O-]
REMARK SMILES IDX 12 1 11 2 10 3 9 4 8 5 7 6 6 7 5 8 4 9 3 10 2 11 1 12 13 13
REMARK SMILES IDX 14 14 15 15 16 16 17 17 18 18 19 19 20 20 21 21 22 22 23 23
REMARK SMILES IDX 24 24
REMARK H PARENT
REMARK Flexibility Score: inf
ROOT
ATOM      1  C   UNL     1       1.710  19.319  46.909  1.00  0.00     0.000 C 
ENDROOT
BRANCH   1   2
ATOM      2  C   UNL     1       1.763  19.200  48.446  1.00  0.00     0.000 C 
BRANCH   2   3
ATOM      3  C   UNL     1       3.175  19.012  49.036  1.00  0.00     0.000 C 
BRANCH   3   4
ATOM      4  C   UNL     1       3.439  19.933  50.239  1.00  0.00    -0.000 C 
BRANCH   4   5
ATOM      5  C   UNL     1       2.159  20.600  50.767  1.00  0.00    -0.000 C 
BRANCH   5   6
ATOM      6  C   UNL     1       2.418  21.995  51.364  1.00  0.00    -0.000 C 
BRANCH   6   7
ATOM      7  C   UNL     1       1.125  22.822  51.513  1.00  0.00    -0.000 C 
BRANCH   7   8
ATOM      8  C   UNL     1      -0.105  22.086  50.960  1.00  0.00    -0.000 C 
BRANCH   8   9
ATOM      9  C   UNL     1      -1.231  22.027  52.003  1.00  0.00    -0.000 C 
BRANCH   9  10
ATOM     10  C   UNL     1      -1.138  20.789  52.915  1.00  0.00    -0.000 C 
BRANCH  10  11
ATOM     11  C   UNL     1      -1.267  21.120  54.418  1.00  0.00    -0.003 C 
ATOM     12  C   UNL     1      -0.042  21.854  54.971  1.00  0.00     0.004 C 
ENDBRANCH  10  11
ENDBRANCH   9  10
ENDBRANCH   8   9
ENDBRANCH   7   8
ENDBRANCH   6   7
ENDBRANCH   5   6
ENDBRANCH   4   5
ENDBRANCH   3   4
ENDBRANCH   2   3
ENDBRANCH   1   2
BRANCH   1  13
ATOM     13  C   UNL     1       0.516  20.138  46.379  1.00  0.00     0.000 C 
BRANCH  13  14
ATOM     14  C   UNL     1      -0.345  20.736  47.514  1.00  0.00     0.000 C 
BRANCH  14  15
ATOM     15  C   UNL     1      -0.979  22.084  47.128  1.00  0.00     0.000 C 
BRANCH  15  16
ATOM     16  C   UNL     1      -1.577  22.069  45.710  1.00  0.00     0.000 C 
BRANCH  16  17
ATOM     17  C   UNL     1      -2.191  23.428  45.326  1.00  0.00     0.000 C 
BRANCH  17  18
ATOM     18  C   UNL     1      -1.189  24.310  44.559  1.00  0.00     0.000 C 
BRANCH  18  19
ATOM     19  C   UNL     1      -1.030  25.707  45.182  1.00  0.00     0.000 C 
BRANCH  19  20
ATOM     20  C   UNL     1      -1.016  25.678  46.720  1.00  0.00     0.006 C 
BRANCH  20  21
ATOM     21  C   UNL     1       0.353  26.069  47.291  1.00  0.00     0.053 C 
BRANCH  21  22
ATOM     22  C   UNL     1       0.446  25.774  48.756  1.00  0.00     0.041 C 
ATOM     23  O   UNL     1       1.459  26.124  49.413  1.00  0.00    -0.550 OA
ATOM     24  O   UNL     1      -0.577  25.077  49.391  1.00  0.00    -0.550 OA
ENDBRANCH  21  22
ENDBRANCH  20  21
ENDBRANCH  19  20
ENDBRANCH  18  19
ENDBRANCH  17  18
ENDBRANCH  16  17
ENDBRANCH  15  16
ENDBRANCH  14  15
ENDBRANCH  13  14
ENDBRANCH   1  13
TORSDOF 20
ENDMDL
MODEL 8
REMARK VINA RESULT:    -4.409      1.122      5.266
REMARK INTER + INTRA:         -12.042
REMARK INTER:                  -9.872
REMARK INTRA:                  -2.169
REMARK UNBOUND:                -2.479
REMARK SMILES CCCCCCCCCCCCCCCCCCCCCC(=O)[O-]
REMARK SMILES IDX 12 1 11 2 10 3 9 4 8 5 7 6 6 7 5 8 4 9 3 10 2 11 1 12 13 13
REMARK SMILES IDX 14 14 15 15 16 16 17 17 18 18 19 19 20 20 21 21 22 22 23 23
REMARK SMILES IDX 24 24
REMARK H PARENT
REMARK Flexibility Score: inf
ROOT
ATOM      1  C   UNL     1      -0.223  25.052  48.841  1.00  0.00     0.000 C 
ENDROOT
BRANCH   1   2
ATOM      2  C   UNL     1      -1.552  25.790  48.578  1.00  0.00     0.000 C 
BRANCH   2   3
ATOM      3  C   UNL     1      -2.109  25.638  47.148  1.00  0.00     0.000 C 
BRANCH   3   4
ATOM      4  C   UNL     1      -1.015  25.294  46.123  1.00  0.00    -0.000 C 
BRANCH   4   5
ATOM      5  C   UNL     1      -1.589  24.815  44.781  1.00  0.00    -0.000 C 
BRANCH   5   6
ATOM      6  C   UNL     1      -1.435  23.297  44.574  1.00  0.00    -0.000 C 
BRANCH   6   7
ATOM      7  C   UNL     1      -2.029  22.480  45.738  1.00  0.00    -0.000 C 
BRANCH   7   8
ATOM      8  C   UNL     1      -0.942  21.856  46.627  1.00  0.00    -0.000 C 
BRANCH   8   9
ATOM      9  C   UNL     1      -0.235  20.698  45.908  1.00  0.00    -0.000 C 
BRANCH   9  10
ATOM     10  C   UNL     1       0.351  19.658  46.882  1.00  0.00    -0.000 C 
BRANCH  10  11
ATOM     11  C   UNL     1       1.870  19.436  46.705  1.00  0.00    -0.003 C 
ATOM     12  C   UNL     1       2.390  19.942  45.357  1.00  0.00     0.004 C 
ENDBRANCH  10  11
ENDBRANCH   9  10
ENDBRANCH   8   9
ENDBRANCH   7   8
ENDBRANCH   6   7
ENDBRANCH   5   6
ENDBRANCH   4   5
ENDBRANCH   3   4
ENDBRANCH   2   3
ENDBRANCH   1   2
BRANCH   1  13
ATOM     13  C   UNL     1       0.982  25.985  49.077  1.00  0.00     0.000 C 
BRANCH  13  14
ATOM     14  C   UNL     1       1.915  25.479  50.200  1.00  0.00     0.000 C 
BRANCH  14  15
ATOM     15  C   UNL     1       1.158  24.708  51.296  1.00  0.00     0.000 C 
BRANCH  15  16
ATOM     16  C   UNL     1       2.004  23.577  51.911  1.00  0.00     0.000 C 
BRANCH  16  17
ATOM     17  C   UNL     1       1.135  22.399  52.386  1.00  0.00     0.000 C 
BRANCH  17  18
ATOM     18  C   UNL     1      -0.035  22.128  51.422  1.00  0.00     0.000 C 
BRANCH  18  19
ATOM     19  C   UNL     1       0.418  21.469  50.108  1.00  0.00     0.000 C 
BRANCH  19  20
ATOM     20  C   UNL     1       1.256  20.199  50.335  1.00  0.00     0.006 C 
BRANCH  20  21
ATOM     21  C   UNL     1       2.762  20.491  50.310  1.00  0.00     0.053 C 
BRANCH  21  22
ATOM     22  C   UNL     1       3.544  19.325  49.788  1.00  0.00     0.041 C 
ATOM     23  O   UNL     1       4.649  19.504  49.216  1.00  0.00    -0.550 OA
ATOM     24  O   UNL     1       3.030  18.038  49.904  1.00  0.00    -0.550 OA
ENDBRANCH  21  22
ENDBRANCH  20  21
ENDBRANCH  19  20
ENDBRANCH  18  19
ENDBRANCH  17  18
ENDBRANCH  16  17
ENDBRANCH  15  16
ENDBRANCH  14  15
ENDBRANCH  13  14
ENDBRANCH   1  13
TORSDOF 20
ENDMDL
MODEL 9
REMARK VINA RESULT:    -4.197      1.167      1.811
REMARK INTER + INTRA:         -11.583
REMARK INTER:                  -9.488
REMARK INTRA:                  -2.095
REMARK UNBOUND:                -2.479
REMARK SMILES CCCCCCCCCCCCCCCCCCCCCC(=O)[O-]
REMARK SMILES IDX 12 1 11 2 10 3 9 4 8 5 7 6 6 7 5 8 4 9 3 10 2 11 1 12 13 13
REMARK SMILES IDX 14 14 15 15 16 16 17 17 18 18 19 19 20 20 21 21 22 22 23 23
REMARK SMILES IDX 24 24
REMARK H PARENT
REMARK Flexibility Score: inf
ROOT
ATOM      1  C   UNL     1      -1.474  24.988  44.469  1.00  0.00     0.000 C 
ENDROOT
BRANCH   1   2
ATOM      2  C   UNL     1      -0.635  25.781  45.493  1.00  0.00     0.000 C 
BRANCH   2   3
ATOM      3  C   UNL     1      -1.210  25.810  46.923  1.00  0.00     0.000 C 
BRANCH   3   4
ATOM      4  C   UNL     1      -0.117  25.715  48.001  1.00  0.00    -0.000 C 
BRANCH   4   5
ATOM      5  C   UNL     1      -0.358  24.564  48.990  1.00  0.00    -0.000 C 
BRANCH   5   6
ATOM      6  C   UNL     1       0.306  24.806  50.358  1.00  0.00    -0.000 C 
BRANCH   6   7
ATOM      7  C   UNL     1       0.789  23.500  51.019  1.00  0.00    -0.000 C 
BRANCH   7   8
ATOM      8  C   UNL     1       0.137  22.255  50.396  1.00  0.00    -0.000 C 
BRANCH   8   9
ATOM      9  C   UNL     1      -0.414  21.317  51.480  1.00  0.00    -0.000 C 
BRANCH   9  10
ATOM     10  C   UNL     1      -0.892  22.070  52.737  1.00  0.00    -0.000 C 
BRANCH  10  11
ATOM     11  C   UNL     1      -1.957  21.300  53.548  1.00  0.00    -0.003 C 
ATOM     12  C   UNL     1      -1.366  20.553  54.746  1.00  0.00     0.004 C 
ENDBRANCH  10  11
ENDBRANCH   9  10
ENDBRANCH   8   9
ENDBRANCH   7   8
ENDBRANCH   6   7
ENDBRANCH   5   6
ENDBRANCH   4   5
ENDBRANCH   3   4
ENDBRANCH   2   3
ENDBRANCH   1   2
BRANCH   1  13
ATOM     13  C   UNL     1      -1.347  23.456  44.600  1.00  0.00     0.000 C 
BRANCH  13  14
ATOM     14  C   UNL     1      -2.530  22.825  45.367  1.00  0.00     0.000 C 
BRANCH  14  15
ATOM     15  C   UNL     1      -2.108  21.605  46.206  1.00  0.00     0.000 C 
BRANCH  15  16
ATOM     16  C   UNL     1      -0.620  21.649  46.601  1.00  0.00     0.000 C 
BRANCH  16  17
ATOM     17  C   UNL     1       0.181  20.500  45.963  1.00  0.00     0.000 C 
BRANCH  17  18
ATOM     18  C   UNL     1       0.260  19.275  46.892  1.00  0.00     0.000 C 
BRANCH  18  19
ATOM     19  C   UNL     1       1.052  19.557  48.180  1.00  0.00     0.000 C 
BRANCH  19  20
ATOM     20  C   UNL     1       2.518  19.100  48.093  1.00  0.00     0.006 C 
BRANCH  20  21
ATOM     21  C   UNL     1       3.111  18.802  49.476  1.00  0.00     0.053 C 
BRANCH  21  22
ATOM     22  C   UNL     1       3.764  20.012  50.070  1.00  0.00     0.041 C 
ATOM     23  O   UNL     1       4.973  20.263  49.837  1.00  0.00    -0.550 OA
ATOM     24  O   UNL     1       3.040  20.846  50.916  1.00  0.00    -0.550 OA
ENDBRANCH  21  22
ENDBRANCH  20  21
ENDBRANCH  19  20
ENDBRANCH  18  19
ENDBRANCH  17  18
ENDBRANCH  16  17
ENDBRANCH  15  16
ENDBRANCH  14  15
ENDBRANCH  13  14
ENDBRANCH   1  13
TORSDOF 20
ENDMDL
