MODEL 1
REMARK VINA RESULT:    25.898      0.000      0.000
REMARK INTER + INTRA:          32.288
REMARK INTER:                  31.954
REMARK INTRA:                   0.334
REMARK UNBOUND:                 0.334
REMARK SMILES Oc1cc(O)c2cc(O)c(-c3cc(O)c(O)c(O)c3)[o+]c2c1
REMARK SMILES IDX 10 1 20 2 21 3 22 4 2 5 3 6 4 7 6 8 7 9 8 10 11 11 12 12
REMARK SMILES IDX 13 13 19 14 15 15 17 16 14 17 16 19 18 21 9 23 1 25 5 27
REMARK H PARENT 14 18 16 20 18 22 9 24 1 26 5 28
REMARK Flexibility Score: inf
ROOT
ATOM      1  C   UNL     1      -5.975  -2.425  12.936  1.00  0.00     0.402 A 
ATOM      2  O   UNL     1      -4.959  -3.056  13.518  1.00  0.00    -0.202 OA
ATOM      3  C   UNL     1      -3.690  -2.875  13.168  1.00  0.00     0.368 A 
ATOM      4  C   UNL     1      -2.691  -3.583  13.842  1.00  0.00     0.162 A 
ATOM      5  C   UNL     1      -1.350  -3.410  13.498  1.00  0.00     0.128 A 
ATOM      6  C   UNL     1      -1.002  -2.522  12.474  1.00  0.00     0.093 A 
ATOM      7  C   UNL     1      -1.984  -1.800  11.784  1.00  0.00     0.136 A 
ATOM      8  C   UNL     1      -3.349  -1.976  12.129  1.00  0.00     0.125 A 
ATOM      9  C   UNL     1      -4.401  -1.305  11.484  1.00  0.00     0.078 A 
ATOM     10  C   UNL     1      -5.724  -1.534  11.876  1.00  0.00     0.223 A 
ENDROOT
BRANCH   1  11
ATOM     11  C   UNL     1      -7.345  -2.705  13.422  1.00  0.00     0.091 A 
ATOM     12  C   UNL     1      -7.524  -3.261  14.698  1.00  0.00     0.068 A 
ATOM     13  C   UNL     1      -8.811  -3.517  15.192  1.00  0.00     0.162 A 
ATOM     14  C   UNL     1      -8.476  -2.374  12.655  1.00  0.00     0.068 A 
ATOM     15  C   UNL     1      -9.935  -3.202  14.410  1.00  0.00     0.200 A 
ATOM     16  C   UNL     1      -9.765  -2.626  13.145  1.00  0.00     0.162 A 
BRANCH  13  17
ATOM     17  O   UNL     1      -8.977  -4.082  16.455  1.00  0.00    -0.504 OA
ATOM     18  H   UNL     1      -8.434  -4.886  16.752  1.00  0.00     0.293 HD
ENDBRANCH  13  17
BRANCH  15  19
ATOM     19  O   UNL     1     -11.226  -3.449  14.878  1.00  0.00    -0.502 OA
ATOM     20  H   UNL     1     -11.668  -4.357  14.786  1.00  0.00     0.293 HD
ENDBRANCH  15  19
BRANCH  16  21
ATOM     21  O   UNL     1     -10.884  -2.302  12.378  1.00  0.00    -0.504 OA
ATOM     22  H   UNL     1     -11.413  -1.455  12.544  1.00  0.00     0.293 HD
ENDBRANCH  16  21
ENDBRANCH   1  11
BRANCH  10  23
ATOM     23  O   UNL     1      -6.772  -0.906  11.203  1.00  0.00    -0.500 OA
ATOM     24  H   UNL     1      -7.554  -0.494  11.699  1.00  0.00     0.294 HD
ENDBRANCH  10  23
BRANCH   5  25
ATOM     25  O   UNL     1      -0.368  -4.125  14.181  1.00  0.00    -0.507 OA
ATOM     26  H   UNL     1       0.038  -4.969  13.796  1.00  0.00     0.293 HD
ENDBRANCH   5  25
BRANCH   7  27
ATOM     27  O   UNL     1      -1.556  -0.931  10.776  1.00  0.00    -0.507 OA
ATOM     28  H   UNL     1      -1.965  -0.880   9.856  1.00  0.00     0.293 HD
ENDBRANCH   7  27
TORSDOF 7
ENDMDL
MODEL 2
REMARK VINA RESULT:    27.192     10.762     12.162
REMARK INTER + INTRA:          33.884
REMARK INTER:                  34.190
REMARK INTRA:                  -0.307
REMARK UNBOUND:                 0.334
REMARK SMILES Oc1cc(O)c2cc(O)c(-c3cc(O)c(O)c(O)c3)[o+]c2c1
REMARK SMILES IDX 10 1 20 2 21 3 22 4 2 5 3 6 4 7 6 8 7 9 8 10 11 11 12 12
REMARK SMILES IDX 13 13 19 14 15 15 17 16 14 17 16 19 18 21 9 23 1 25 5 27
REMARK H PARENT 14 18 16 20 18 22 9 24 1 26 5 28
REMARK Flexibility Score: inf
ROOT
ATOM      1  C   UNL     1      -6.043   7.590  16.748  1.00  0.00     0.402 A 
ATOM      2  O   UNL     1      -6.667   7.067  15.695  1.00  0.00    -0.202 OA
ATOM      3  C   UNL     1      -6.733   5.761  15.460  1.00  0.00     0.368 A 
ATOM      4  C   UNL     1      -7.414   5.308  14.327  1.00  0.00     0.162 A 
ATOM      5  C   UNL     1      -7.503   3.943  14.057  1.00  0.00     0.128 A 
ATOM      6  C   UNL     1      -6.908   3.020  14.925  1.00  0.00     0.093 A 
ATOM      7  C   UNL     1      -6.220   3.448  16.067  1.00  0.00     0.136 A 
ATOM      8  C   UNL     1      -6.126   4.837  16.344  1.00  0.00     0.125 A 
ATOM      9  C   UNL     1      -5.446   5.358  17.457  1.00  0.00     0.078 A 
ATOM     10  C   UNL     1      -5.391   6.740  17.661  1.00  0.00     0.223 A 
ENDROOT
BRANCH   1  11
ATOM     11  C   UNL     1      -6.047   9.061  16.906  1.00  0.00     0.091 A 
ATOM     12  C   UNL     1      -7.208   9.703  17.366  1.00  0.00     0.068 A 
ATOM     13  C   UNL     1      -7.232  11.093  17.544  1.00  0.00     0.162 A 
ATOM     14  C   UNL     1      -4.895   9.828  16.658  1.00  0.00     0.068 A 
ATOM     15  C   UNL     1      -6.082  11.853  17.274  1.00  0.00     0.200 A 
ATOM     16  C   UNL     1      -4.914  11.218  16.836  1.00  0.00     0.162 A 
BRANCH  13  17
ATOM     17  O   UNL     1      -8.395  11.721  17.989  1.00  0.00    -0.504 OA
ATOM     18  H   UNL     1      -8.765  11.556  18.918  1.00  0.00     0.293 HD
ENDBRANCH  13  17
BRANCH  15  19
ATOM     19  O   UNL     1      -6.082  13.239  17.441  1.00  0.00    -0.502 OA
ATOM     20  H   UNL     1      -5.234  13.789  17.380  1.00  0.00     0.293 HD
ENDBRANCH  15  19
BRANCH  16  21
ATOM     21  O   UNL     1      -3.770  11.974  16.582  1.00  0.00    -0.504 OA
ATOM     22  H   UNL     1      -3.484  12.725  17.199  1.00  0.00     0.293 HD
ENDBRANCH  16  21
ENDBRANCH   1  11
BRANCH  10  23
ATOM     23  O   UNL     1      -4.674   7.260  18.739  1.00  0.00    -0.500 OA
ATOM     24  H   UNL     1      -5.121   7.476  19.622  1.00  0.00     0.294 HD
ENDBRANCH  10  23
BRANCH   5  25
ATOM     25  O   UNL     1      -8.187   3.510  12.922  1.00  0.00    -0.507 OA
ATOM     26  H   UNL     1      -8.820   2.720  12.953  1.00  0.00     0.293 HD
ENDBRANCH   5  25
BRANCH   7  27
ATOM     27  O   UNL     1      -5.657   2.465  16.886  1.00  0.00    -0.507 OA
ATOM     28  H   UNL     1      -4.935   1.824  16.593  1.00  0.00     0.293 HD
ENDBRANCH   7  27
TORSDOF 7
ENDMDL
MODEL 3
REMARK VINA RESULT:    27.311     10.707     12.118
REMARK INTER + INTRA:          34.031
REMARK INTER:                  34.350
REMARK INTRA:                  -0.319
REMARK UNBOUND:                 0.334
REMARK SMILES Oc1cc(O)c2cc(O)c(-c3cc(O)c(O)c(O)c3)[o+]c2c1
REMARK SMILES IDX 10 1 20 2 21 3 22 4 2 5 3 6 4 7 6 8 7 9 8 10 11 11 12 12
REMARK SMILES IDX 13 13 19 14 15 15 17 16 14 17 16 19 18 21 9 23 1 25 5 27
REMARK H PARENT 14 18 16 20 18 22 9 24 1 26 5 28
REMARK Flexibility Score: inf
ROOT
ATOM      1  C   UNL     1      -6.032   7.525  16.769  1.00  0.00     0.402 A 
ATOM      2  O   UNL     1      -6.658   7.028  15.706  1.00  0.00    -0.202 OA
ATOM      3  C   UNL     1      -6.747   5.726  15.454  1.00  0.00     0.368 A 
ATOM      4  C   UNL     1      -7.429   5.301  14.311  1.00  0.00     0.162 A 
ATOM      5  C   UNL     1      -7.541   3.940  14.023  1.00  0.00     0.128 A 
ATOM      6  C   UNL     1      -6.970   2.996  14.883  1.00  0.00     0.093 A 
ATOM      7  C   UNL     1      -6.281   3.397  16.035  1.00  0.00     0.136 A 
ATOM      8  C   UNL     1      -6.162   4.779  16.329  1.00  0.00     0.125 A 
ATOM      9  C   UNL     1      -5.481   5.274  17.453  1.00  0.00     0.078 A 
ATOM     10  C   UNL     1      -5.401   6.652  17.676  1.00  0.00     0.223 A 
ENDROOT
BRANCH   1  11
ATOM     11  C   UNL     1      -6.009   8.995  16.946  1.00  0.00     0.091 A 
ATOM     12  C   UNL     1      -4.842   9.709  16.631  1.00  0.00     0.068 A 
ATOM     13  C   UNL     1      -4.800  11.104  16.769  1.00  0.00     0.162 A 
ATOM     14  C   UNL     1      -7.149   9.699  17.370  1.00  0.00     0.068 A 
ATOM     15  C   UNL     1      -5.937  11.797  17.214  1.00  0.00     0.200 A 
ATOM     16  C   UNL     1      -7.112  11.093  17.509  1.00  0.00     0.162 A 
BRANCH  13  17
ATOM     17  O   UNL     1      -3.632  11.801  16.467  1.00  0.00    -0.504 OA
ATOM     18  H   UNL     1      -2.729  11.506  16.823  1.00  0.00     0.293 HD
ENDBRANCH  13  17
BRANCH  15  19
ATOM     19  O   UNL     1      -5.919  13.185  17.362  1.00  0.00    -0.502 OA
ATOM     20  H   UNL     1      -5.702  13.629  18.246  1.00  0.00     0.293 HD
ENDBRANCH  15  19
BRANCH  16  21
ATOM     21  O   UNL     1      -8.243  11.787  17.936  1.00  0.00    -0.504 OA
ATOM     22  H   UNL     1      -9.159  11.355  17.943  1.00  0.00     0.293 HD
ENDBRANCH  16  21
ENDBRANCH   1  11
BRANCH  10  23
ATOM     23  O   UNL     1      -4.681   7.145  18.764  1.00  0.00    -0.500 OA
ATOM     24  H   UNL     1      -4.833   6.798  19.705  1.00  0.00     0.294 HD
ENDBRANCH  10  23
BRANCH   5  25
ATOM     25  O   UNL     1      -8.226   3.535  12.878  1.00  0.00    -0.507 OA
ATOM     26  H   UNL     1      -7.762   3.026  12.136  1.00  0.00     0.293 HD
ENDBRANCH   5  25
BRANCH   7  27
ATOM     27  O   UNL     1      -5.741   2.393  16.844  1.00  0.00    -0.507 OA
ATOM     28  H   UNL     1      -5.150   2.562  17.644  1.00  0.00     0.293 HD
ENDBRANCH   7  27
TORSDOF 7
ENDMDL
MODEL 4
REMARK VINA RESULT:    27.385     11.390     12.699
REMARK INTER + INTRA:          34.123
REMARK INTER:                  34.489
REMARK INTRA:                  -0.367
REMARK UNBOUND:                 0.334
REMARK SMILES Oc1cc(O)c2cc(O)c(-c3cc(O)c(O)c(O)c3)[o+]c2c1
REMARK SMILES IDX 10 1 20 2 21 3 22 4 2 5 3 6 4 7 6 8 7 9 8 10 11 11 12 12
REMARK SMILES IDX 13 13 19 14 15 15 17 16 14 17 16 19 18 21 9 23 1 25 5 27
REMARK H PARENT 14 18 16 20 18 22 9 24 1 26 5 28
REMARK Flexibility Score: inf
ROOT
ATOM      1  C   UNL     1      -6.261   8.051  16.639  1.00  0.00     0.402 A 
ATOM      2  O   UNL     1      -7.386   8.686  16.956  1.00  0.00    -0.202 OA
ATOM      3  C   UNL     1      -7.443   9.989  17.212  1.00  0.00     0.368 A 
ATOM      4  C   UNL     1      -8.674  10.565  17.534  1.00  0.00     0.162 A 
ATOM      5  C   UNL     1      -8.764  11.930  17.804  1.00  0.00     0.128 A 
ATOM      6  C   UNL     1      -7.616  12.729  17.752  1.00  0.00     0.093 A 
ATOM      7  C   UNL     1      -6.370  12.175  17.432  1.00  0.00     0.136 A 
ATOM      8  C   UNL     1      -6.274  10.786  17.159  1.00  0.00     0.125 A 
ATOM      9  C   UNL     1      -5.066  10.143  16.842  1.00  0.00     0.078 A 
ATOM     10  C   UNL     1      -5.050   8.767  16.590  1.00  0.00     0.223 A 
ENDROOT
BRANCH   1  11
ATOM     11  C   UNL     1      -6.328   6.598  16.365  1.00  0.00     0.091 A 
ATOM     12  C   UNL     1      -6.636   6.154  15.070  1.00  0.00     0.068 A 
ATOM     13  C   UNL     1      -6.686   4.783  14.778  1.00  0.00     0.162 A 
ATOM     14  C   UNL     1      -6.035   5.651  17.362  1.00  0.00     0.068 A 
ATOM     15  C   UNL     1      -6.412   3.843  15.786  1.00  0.00     0.200 A 
ATOM     16  C   UNL     1      -6.082   4.280  17.075  1.00  0.00     0.162 A 
BRANCH  13  17
ATOM     17  O   UNL     1      -7.006   4.353  13.492  1.00  0.00    -0.504 OA
ATOM     18  H   UNL     1      -6.533   4.723  12.675  1.00  0.00     0.293 HD
ENDBRANCH  13  17
BRANCH  15  19
ATOM     19  O   UNL     1      -6.458   2.474  15.521  1.00  0.00    -0.502 OA
ATOM     20  H   UNL     1      -6.569   2.111  14.582  1.00  0.00     0.293 HD
ENDBRANCH  15  19
BRANCH  16  21
ATOM     21  O   UNL     1      -5.797   3.343  18.068  1.00  0.00    -0.504 OA
ATOM     22  H   UNL     1      -5.643   3.621  19.030  1.00  0.00     0.293 HD
ENDBRANCH  16  21
ENDBRANCH   1  11
BRANCH  10  23
ATOM     23  O   UNL     1      -3.843   8.119  16.325  1.00  0.00    -0.500 OA
ATOM     24  H   UNL     1      -3.482   7.395  16.935  1.00  0.00     0.294 HD
ENDBRANCH  10  23
BRANCH   5  25
ATOM     25  O   UNL     1     -10.001  12.487  18.123  1.00  0.00    -0.507 OA
ATOM     26  H   UNL     1     -10.864  11.973  17.993  1.00  0.00     0.293 HD
ENDBRANCH   5  25
BRANCH   7  27
ATOM     27  O   UNL     1      -5.271  13.039  17.397  1.00  0.00    -0.507 OA
ATOM     28  H   UNL     1      -4.847  13.387  16.551  1.00  0.00     0.293 HD
ENDBRANCH   7  27
TORSDOF 7
ENDMDL
MODEL 5
REMARK VINA RESULT:    27.724     10.297     11.566
REMARK INTER + INTRA:          34.541
REMARK INTER:                  34.921
REMARK INTRA:                  -0.380
REMARK UNBOUND:                 0.334
REMARK SMILES Oc1cc(O)c2cc(O)c(-c3cc(O)c(O)c(O)c3)[o+]c2c1
REMARK SMILES IDX 10 1 20 2 21 3 22 4 2 5 3 6 4 7 6 8 7 9 8 10 11 11 12 12
REMARK SMILES IDX 13 13 19 14 15 15 17 16 14 17 16 19 18 21 9 23 1 25 5 27
REMARK H PARENT 14 18 16 20 18 22 9 24 1 26 5 28
REMARK Flexibility Score: inf
ROOT
ATOM      1  C   UNL     1      -6.173   7.331  15.963  1.00  0.00     0.402 A 
ATOM      2  O   UNL     1      -5.951   6.340  16.822  1.00  0.00    -0.202 OA
ATOM      3  C   UNL     1      -6.131   5.058  16.521  1.00  0.00     0.368 A 
ATOM      4  C   UNL     1      -5.869   4.089  17.493  1.00  0.00     0.162 A 
ATOM      5  C   UNL     1      -6.044   2.736  17.203  1.00  0.00     0.128 A 
ATOM      6  C   UNL     1      -6.484   2.345  15.933  1.00  0.00     0.093 A 
ATOM      7  C   UNL     1      -6.754   3.298  14.942  1.00  0.00     0.136 A 
ATOM      8  C   UNL     1      -6.579   4.675  15.234  1.00  0.00     0.125 A 
ATOM      9  C   UNL     1      -6.836   5.700  14.308  1.00  0.00     0.078 A 
ATOM     10  C   UNL     1      -6.645   7.037  14.670  1.00  0.00     0.223 A 
ENDROOT
BRANCH   1  11
ATOM     11  C   UNL     1      -5.927   8.719  16.415  1.00  0.00     0.091 A 
ATOM     12  C   UNL     1      -4.669   9.303  16.195  1.00  0.00     0.068 A 
ATOM     13  C   UNL     1      -4.416  10.623  16.594  1.00  0.00     0.162 A 
ATOM     14  C   UNL     1      -6.943   9.487  17.009  1.00  0.00     0.068 A 
ATOM     15  C   UNL     1      -5.431  11.376  17.207  1.00  0.00     0.200 A 
ATOM     16  C   UNL     1      -6.695  10.807  17.408  1.00  0.00     0.162 A 
BRANCH  13  17
ATOM     17  O   UNL     1      -3.159  11.188  16.384  1.00  0.00    -0.504 OA
ATOM     18  H   UNL     1      -3.004  12.186  16.475  1.00  0.00     0.293 HD
ENDBRANCH  13  17
BRANCH  15  19
ATOM     19  O   UNL     1      -5.203  12.691  17.615  1.00  0.00    -0.502 OA
ATOM     20  H   UNL     1      -4.293  13.007  17.929  1.00  0.00     0.293 HD
ENDBRANCH  15  19
BRANCH  16  21
ATOM     21  O   UNL     1      -7.705  11.563  18.004  1.00  0.00    -0.504 OA
ATOM     22  H   UNL     1      -7.711  11.749  18.999  1.00  0.00     0.293 HD
ENDBRANCH  16  21
ENDBRANCH   1  11
BRANCH  10  23
ATOM     23  O   UNL     1      -6.948   8.056  13.767  1.00  0.00    -0.500 OA
ATOM     24  H   UNL     1      -7.897   8.388  13.637  1.00  0.00     0.294 HD
ENDBRANCH  10  23
BRANCH   5  25
ATOM     25  O   UNL     1      -5.778   1.783  18.185  1.00  0.00    -0.507 OA
ATOM     26  H   UNL     1      -5.261   0.937  17.977  1.00  0.00     0.293 HD
ENDBRANCH   5  25
BRANCH   7  27
ATOM     27  O   UNL     1      -7.187   2.829  13.699  1.00  0.00    -0.507 OA
ATOM     28  H   UNL     1      -6.856   3.177  12.812  1.00  0.00     0.293 HD
ENDBRANCH   7  27
TORSDOF 7
ENDMDL
MODEL 6
REMARK VINA RESULT:    28.858     10.972     12.095
REMARK INTER + INTRA:          35.940
REMARK INTER:                  35.787
REMARK INTRA:                   0.153
REMARK UNBOUND:                 0.334
REMARK SMILES Oc1cc(O)c2cc(O)c(-c3cc(O)c(O)c(O)c3)[o+]c2c1
REMARK SMILES IDX 10 1 20 2 21 3 22 4 2 5 3 6 4 7 6 8 7 9 8 10 11 11 12 12
REMARK SMILES IDX 13 13 19 14 15 15 17 16 14 17 16 19 18 21 9 23 1 25 5 27
REMARK H PARENT 14 18 16 20 18 22 9 24 1 26 5 28
REMARK Flexibility Score: inf
ROOT
ATOM      1  C   UNL     1      -6.846   7.925  16.666  1.00  0.00     0.402 A 
ATOM      2  O   UNL     1      -7.303   7.183  15.661  1.00  0.00    -0.202 OA
ATOM      3  C   UNL     1      -6.877   5.949  15.411  1.00  0.00     0.368 A 
ATOM      4  C   UNL     1      -7.420   5.248  14.331  1.00  0.00     0.162 A 
ATOM      5  C   UNL     1      -6.994   3.950  14.048  1.00  0.00     0.128 A 
ATOM      6  C   UNL     1      -6.019   3.345  14.849  1.00  0.00     0.093 A 
ATOM      7  C   UNL     1      -5.459   4.027  15.937  1.00  0.00     0.136 A 
ATOM      8  C   UNL     1      -5.887   5.348  16.226  1.00  0.00     0.125 A 
ATOM      9  C   UNL     1      -5.374   6.112  17.288  1.00  0.00     0.078 A 
ATOM     10  C   UNL     1      -5.842   7.411  17.508  1.00  0.00     0.223 A 
ENDROOT
BRANCH   1  11
ATOM     11  C   UNL     1      -7.407   9.283  16.847  1.00  0.00     0.091 A 
ATOM     12  C   UNL     1      -7.897   9.980  15.731  1.00  0.00     0.068 A 
ATOM     13  C   UNL     1      -8.452  11.260  15.877  1.00  0.00     0.162 A 
ATOM     14  C   UNL     1      -7.511   9.868  18.120  1.00  0.00     0.068 A 
ATOM     15  C   UNL     1      -8.533  11.846  17.151  1.00  0.00     0.200 A 
ATOM     16  C   UNL     1      -8.067  11.146  18.271  1.00  0.00     0.162 A 
BRANCH  13  17
ATOM     17  O   UNL     1      -8.923  11.949  14.761  1.00  0.00    -0.504 OA
ATOM     18  H   UNL     1      -8.626  11.706  13.822  1.00  0.00     0.293 HD
ENDBRANCH  13  17
BRANCH  15  19
ATOM     19  O   UNL     1      -9.079  13.119  17.322  1.00  0.00    -0.502 OA
ATOM     20  H   UNL     1     -10.035  13.258  17.627  1.00  0.00     0.293 HD
ENDBRANCH  15  19
BRANCH  16  21
ATOM     21  O   UNL     1      -8.162  11.726  19.536  1.00  0.00    -0.504 OA
ATOM     22  H   UNL     1      -8.995  12.222  19.830  1.00  0.00     0.293 HD
ENDBRANCH  16  21
ENDBRANCH   1  11
BRANCH  10  23
ATOM     23  O   UNL     1      -5.296   8.187  18.530  1.00  0.00    -0.500 OA
ATOM     24  H   UNL     1      -5.874   8.591  19.260  1.00  0.00     0.294 HD
ENDBRANCH  10  23
BRANCH   5  25
ATOM     25  O   UNL     1      -7.548   3.266  12.967  1.00  0.00    -0.507 OA
ATOM     26  H   UNL     1      -8.150   2.463  13.100  1.00  0.00     0.293 HD
ENDBRANCH   5  25
BRANCH   7  27
ATOM     27  O   UNL     1      -4.493   3.354  16.690  1.00  0.00    -0.507 OA
ATOM     28  H   UNL     1      -3.996   2.534  16.377  1.00  0.00     0.293 HD
ENDBRANCH   7  27
TORSDOF 7
ENDMDL
