MODEL 1
REMARK VINA RESULT:    -6.554      0.000      0.000
REMARK INTER + INTRA:          -7.870
REMARK INTER:                  -7.703
REMARK INTRA:                  -0.167
REMARK UNBOUND:                -0.167
REMARK SMILES O=c1c(O)c(-c2ccc(O)cc2)oc2cc(O)cc(O)c12
REMARK SMILES IDX 5 1 3 2 2 3 1 4 21 5 19 6 18 7 16 8 15 9 14 10 13 11 6 12
REMARK SMILES IDX 7 13 8 14 9 15 12 16 11 17 10 18 4 20 20 22 17 24
REMARK H PARENT 10 19 4 21 20 23 17 25
REMARK Flexibility Score: inf
ROOT
ATOM      1  C   UNL     1      30.874 -92.222  37.351  1.00  0.00     0.180 A 
ATOM      2  C   UNL     1      29.648 -92.828  37.012  1.00  0.00     0.208 A 
ATOM      3  C   UNL     1      29.508 -94.215  37.175  1.00  0.00     0.238 A 
ATOM      4  O   UNL     1      28.412 -94.766  36.886  1.00  0.00    -0.285 OA
ATOM      5  C   UNL     1      30.597 -94.973  37.653  1.00  0.00     0.111 A 
ATOM      6  C   UNL     1      30.540 -96.375  37.842  1.00  0.00     0.134 A 
ATOM      7  C   UNL     1      31.670 -97.060  38.312  1.00  0.00     0.093 A 
ATOM      8  C   UNL     1      32.853 -96.374  38.596  1.00  0.00     0.123 A 
ATOM      9  C   UNL     1      32.915 -94.988  38.411  1.00  0.00     0.094 A 
ATOM     10  C   UNL     1      31.799 -94.287  37.945  1.00  0.00     0.146 A 
ATOM     11  O   UNL     1      31.883 -92.972  37.784  1.00  0.00    -0.452 OA
ENDROOT
BRANCH   1  12
ATOM     12  C   UNL     1      31.092 -90.763  37.224  1.00  0.00     0.021 A 
ATOM     13  C   UNL     1      32.073 -90.285  36.338  1.00  0.00     0.016 A 
ATOM     14  C   UNL     1      32.312 -88.913  36.220  1.00  0.00     0.047 A 
ATOM     15  C   UNL     1      31.584 -88.002  36.996  1.00  0.00     0.115 A 
ATOM     16  C   UNL     1      30.380 -89.844  38.015  1.00  0.00     0.016 A 
ATOM     17  C   UNL     1      30.621 -88.471  37.895  1.00  0.00     0.047 A 
BRANCH  15  18
ATOM     18  O   UNL     1      31.813 -86.632  36.887  1.00  0.00    -0.508 OA
ATOM     19  H   UNL     1      31.369 -85.970  37.513  1.00  0.00     0.293 HD
ENDBRANCH  15  18
ENDBRANCH   1  12
BRANCH   2  20
ATOM     20  O   UNL     1      28.601 -92.060  36.494  1.00  0.00    -0.502 OA
ATOM     21  H   UNL     1      27.689 -92.452  36.295  1.00  0.00     0.293 HD
ENDBRANCH   2  20
BRANCH   6  22
ATOM     22  O   UNL     1      29.374 -97.090  37.568  1.00  0.00    -0.507 OA
ATOM     23  H   UNL     1      28.472 -96.632  37.497  1.00  0.00     0.293 HD
ENDBRANCH   6  22
BRANCH   8  24
ATOM     24  O   UNL     1      33.961 -97.078  39.061  1.00  0.00    -0.508 OA
ATOM     25  H   UNL     1      34.657 -97.451  38.426  1.00  0.00     0.293 HD
ENDBRANCH   8  24
TORSDOF 5
ENDMDL
MODEL 2
REMARK VINA RESULT:    -5.799      9.565     10.857
REMARK INTER + INTRA:          -6.983
REMARK INTER:                  -6.700
REMARK INTRA:                  -0.283
REMARK UNBOUND:                -0.167
REMARK SMILES O=c1c(O)c(-c2ccc(O)cc2)oc2cc(O)cc(O)c12
REMARK SMILES IDX 5 1 3 2 2 3 1 4 21 5 19 6 18 7 16 8 15 9 14 10 13 11 6 12
REMARK SMILES IDX 7 13 8 14 9 15 12 16 11 17 10 18 4 20 20 22 17 24
REMARK H PARENT 10 19 4 21 20 23 17 25
REMARK Flexibility Score: inf
ROOT
ATOM      1  C   UNL     1      36.094 -95.462  29.582  1.00  0.00     0.180 A 
ATOM      2  C   UNL     1      37.181 -95.833  28.766  1.00  0.00     0.208 A 
ATOM      3  C   UNL     1      38.471 -95.849  29.319  1.00  0.00     0.238 A 
ATOM      4  O   UNL     1      39.449 -96.190  28.601  1.00  0.00    -0.285 OA
ATOM      5  C   UNL     1      38.656 -95.476  30.667  1.00  0.00     0.111 A 
ATOM      6  C   UNL     1      39.922 -95.461  31.299  1.00  0.00     0.134 A 
ATOM      7  C   UNL     1      40.025 -95.068  32.641  1.00  0.00     0.093 A 
ATOM      8  C   UNL     1      38.890 -94.690  33.362  1.00  0.00     0.123 A 
ATOM      9  C   UNL     1      37.636 -94.703  32.743  1.00  0.00     0.094 A 
ATOM     10  C   UNL     1      37.512 -95.093  31.406  1.00  0.00     0.146 A 
ATOM     11  O   UNL     1      36.309 -95.102  30.845  1.00  0.00    -0.452 OA
ENDROOT
BRANCH   1  12
ATOM     12  C   UNL     1      34.703 -95.439  29.077  1.00  0.00     0.021 A 
ATOM     13  C   UNL     1      33.891 -96.575  29.234  1.00  0.00     0.016 A 
ATOM     14  C   UNL     1      32.582 -96.584  28.744  1.00  0.00     0.047 A 
ATOM     15  C   UNL     1      32.072 -95.462  28.079  1.00  0.00     0.115 A 
ATOM     16  C   UNL     1      34.191 -94.323  28.391  1.00  0.00     0.016 A 
ATOM     17  C   UNL     1      32.880 -94.334  27.901  1.00  0.00     0.047 A 
BRANCH  15  18
ATOM     18  O   UNL     1      30.768 -95.458  27.587  1.00  0.00    -0.508 OA
ATOM     19  H   UNL     1      30.181 -94.634  27.652  1.00  0.00     0.293 HD
ENDBRANCH  15  18
ENDBRANCH   1  12
BRANCH   2  20
ATOM     20  O   UNL     1      36.976 -96.150  27.420  1.00  0.00    -0.502 OA
ATOM     21  H   UNL     1      37.651 -96.677  26.880  1.00  0.00     0.293 HD
ENDBRANCH   2  20
BRANCH   6  22
ATOM     22  O   UNL     1      41.075 -95.832  30.606  1.00  0.00    -0.507 OA
ATOM     23  H   UNL     1      41.122 -95.801  29.594  1.00  0.00     0.293 HD
ENDBRANCH   6  22
BRANCH   8  24
ATOM     24  O   UNL     1      39.019 -94.304  34.694  1.00  0.00    -0.508 OA
ATOM     25  H   UNL     1      39.911 -94.346  35.175  1.00  0.00     0.293 HD
ENDBRANCH   8  24
TORSDOF 5
ENDMDL
MODEL 3
REMARK VINA RESULT:    -5.554      9.533     11.028
REMARK INTER + INTRA:          -6.695
REMARK INTER:                  -6.503
REMARK INTRA:                  -0.192
REMARK UNBOUND:                -0.167
REMARK SMILES O=c1c(O)c(-c2ccc(O)cc2)oc2cc(O)cc(O)c12
REMARK SMILES IDX 5 1 3 2 2 3 1 4 21 5 19 6 18 7 16 8 15 9 14 10 13 11 6 12
REMARK SMILES IDX 7 13 8 14 9 15 12 16 11 17 10 18 4 20 20 22 17 24
REMARK H PARENT 10 19 4 21 20 23 17 25
REMARK Flexibility Score: inf
ROOT
ATOM      1  C   UNL     1      37.358 -95.553  30.702  1.00  0.00     0.180 A 
ATOM      2  C   UNL     1      37.944 -96.298  29.660  1.00  0.00     0.208 A 
ATOM      3  C   UNL     1      37.244 -96.444  28.453  1.00  0.00     0.238 A 
ATOM      4  O   UNL     1      37.764 -97.099  27.510  1.00  0.00    -0.285 OA
ATOM      5  C   UNL     1      35.966 -95.864  28.314  1.00  0.00     0.111 A 
ATOM      6  C   UNL     1      35.193 -95.967  27.132  1.00  0.00     0.134 A 
ATOM      7  C   UNL     1      33.926 -95.370  27.075  1.00  0.00     0.093 A 
ATOM      8  C   UNL     1      33.416 -94.673  28.173  1.00  0.00     0.123 A 
ATOM      9  C   UNL     1      34.176 -94.566  29.344  1.00  0.00     0.094 A 
ATOM     10  C   UNL     1      35.442 -95.154  29.419  1.00  0.00     0.146 A 
ATOM     11  O   UNL     1      36.144 -95.033  30.540  1.00  0.00    -0.452 OA
ENDROOT
BRANCH   1  12
ATOM     12  C   UNL     1      38.041 -95.339  31.998  1.00  0.00     0.021 A 
ATOM     13  C   UNL     1      37.493 -95.891  33.168  1.00  0.00     0.016 A 
ATOM     14  C   UNL     1      38.109 -95.681  34.406  1.00  0.00     0.047 A 
ATOM     15  C   UNL     1      39.273 -94.906  34.491  1.00  0.00     0.115 A 
ATOM     16  C   UNL     1      39.198 -94.545  32.093  1.00  0.00     0.016 A 
ATOM     17  C   UNL     1      39.812 -94.337  33.333  1.00  0.00     0.047 A 
BRANCH  15  18
ATOM     18  O   UNL     1      39.896 -94.691  35.718  1.00  0.00    -0.508 OA
ATOM     19  H   UNL     1      40.704 -95.232  36.002  1.00  0.00     0.293 HD
ENDBRANCH  15  18
ENDBRANCH   1  12
BRANCH   2  20
ATOM     20  O   UNL     1      39.190 -96.905  29.842  1.00  0.00    -0.502 OA
ATOM     21  H   UNL     1      39.692 -97.350  29.083  1.00  0.00     0.293 HD
ENDBRANCH   2  20
BRANCH   6  22
ATOM     22  O   UNL     1      35.673 -96.657  26.018  1.00  0.00    -0.507 OA
ATOM     23  H   UNL     1      35.936 -96.176  25.166  1.00  0.00     0.293 HD
ENDBRANCH   6  22
BRANCH   8  24
ATOM     24  O   UNL     1      32.155 -94.088  28.091  1.00  0.00    -0.508 OA
ATOM     25  H   UNL     1      31.515 -94.310  27.337  1.00  0.00     0.293 HD
ENDBRANCH   8  24
TORSDOF 5
ENDMDL
MODEL 4
REMARK VINA RESULT:    -5.410      7.769     10.262
REMARK INTER + INTRA:          -6.526
REMARK INTER:                  -6.340
REMARK INTRA:                  -0.186
REMARK UNBOUND:                -0.167
REMARK SMILES O=c1c(O)c(-c2ccc(O)cc2)oc2cc(O)cc(O)c12
REMARK SMILES IDX 5 1 3 2 2 3 1 4 21 5 19 6 18 7 16 8 15 9 14 10 13 11 6 12
REMARK SMILES IDX 7 13 8 14 9 15 12 16 11 17 10 18 4 20 20 22 17 24
REMARK H PARENT 10 19 4 21 20 23 17 25
REMARK Flexibility Score: inf
ROOT
ATOM      1  C   UNL     1      39.813 -95.455  35.180  1.00  0.00     0.180 A 
ATOM      2  C   UNL     1      40.837 -95.085  36.074  1.00  0.00     0.208 A 
ATOM      3  C   UNL     1      40.610 -95.203  37.454  1.00  0.00     0.238 A 
ATOM      4  O   UNL     1      41.523 -94.884  38.262  1.00  0.00    -0.285 OA
ATOM      5  C   UNL     1      39.361 -95.668  37.917  1.00  0.00     0.111 A 
ATOM      6  C   UNL     1      39.050 -95.813  39.290  1.00  0.00     0.134 A 
ATOM      7  C   UNL     1      37.781 -96.273  39.670  1.00  0.00     0.093 A 
ATOM      8  C   UNL     1      36.819 -96.590  38.709  1.00  0.00     0.123 A 
ATOM      9  C   UNL     1      37.121 -96.450  37.350  1.00  0.00     0.094 A 
ATOM     10  C   UNL     1      38.381 -95.994  36.950  1.00  0.00     0.146 A 
ATOM     11  O   UNL     1      38.644 -95.875  35.654  1.00  0.00    -0.452 OA
ENDROOT
BRANCH   1  12
ATOM     12  C   UNL     1      39.984 -95.377  33.712  1.00  0.00     0.021 A 
ATOM     13  C   UNL     1      39.191 -94.484  32.970  1.00  0.00     0.016 A 
ATOM     14  C   UNL     1      39.319 -94.411  31.580  1.00  0.00     0.047 A 
ATOM     15  C   UNL     1      40.231 -95.237  30.912  1.00  0.00     0.115 A 
ATOM     16  C   UNL     1      40.884 -96.218  33.032  1.00  0.00     0.016 A 
ATOM     17  C   UNL     1      41.009 -96.142  31.641  1.00  0.00     0.047 A 
BRANCH  15  18
ATOM     18  O   UNL     1      40.368 -95.173  29.527  1.00  0.00    -0.508 OA
ATOM     19  H   UNL     1      41.190 -94.765  29.096  1.00  0.00     0.293 HD
ENDBRANCH  15  18
ENDBRANCH   1  12
BRANCH   2  20
ATOM     20  O   UNL     1      42.048 -94.579  35.590  1.00  0.00    -0.502 OA
ATOM     21  H   UNL     1      42.532 -94.993  34.804  1.00  0.00     0.293 HD
ENDBRANCH   2  20
BRANCH   6  22
ATOM     22  O   UNL     1      39.988 -95.503  40.275  1.00  0.00    -0.507 OA
ATOM     23  H   UNL     1      40.250 -94.546  40.480  1.00  0.00     0.293 HD
ENDBRANCH   6  22
BRANCH   8  24
ATOM     24  O   UNL     1      35.566 -97.045  39.113  1.00  0.00    -0.508 OA
ATOM     25  H   UNL     1      35.374 -98.033  39.233  1.00  0.00     0.293 HD
ENDBRANCH   8  24
TORSDOF 5
ENDMDL
MODEL 5
REMARK VINA RESULT:    -5.273     15.242     16.820
REMARK INTER + INTRA:          -6.365
REMARK INTER:                  -6.143
REMARK INTRA:                  -0.222
REMARK UNBOUND:                -0.167
REMARK SMILES O=c1c(O)c(-c2ccc(O)cc2)oc2cc(O)cc(O)c12
REMARK SMILES IDX 5 1 3 2 2 3 1 4 21 5 19 6 18 7 16 8 15 9 14 10 13 11 6 12
REMARK SMILES IDX 7 13 8 14 9 15 12 16 11 17 10 18 4 20 20 22 17 24
REMARK H PARENT 10 19 4 21 20 23 17 25
REMARK Flexibility Score: inf
ROOT
ATOM      1  C   UNL     1      37.301 -78.005  37.656  1.00  0.00     0.180 A 
ATOM      2  C   UNL     1      37.878 -77.894  36.376  1.00  0.00     0.208 A 
ATOM      3  C   UNL     1      37.037 -77.839  35.254  1.00  0.00     0.238 A 
ATOM      4  O   UNL     1      37.541 -77.728  34.105  1.00  0.00    -0.285 OA
ATOM      5  C   UNL     1      35.639 -77.917  35.428  1.00  0.00     0.111 A 
ATOM      6  C   UNL     1      34.722 -77.873  34.351  1.00  0.00     0.134 A 
ATOM      7  C   UNL     1      33.346 -77.967  34.605  1.00  0.00     0.093 A 
ATOM      8  C   UNL     1      32.869 -78.103  35.910  1.00  0.00     0.123 A 
ATOM      9  C   UNL     1      33.771 -78.146  36.979  1.00  0.00     0.094 A 
ATOM     10  C   UNL     1      35.146 -78.053  36.747  1.00  0.00     0.146 A 
ATOM     11  O   UNL     1      35.980 -78.091  37.779  1.00  0.00    -0.452 OA
ENDROOT
BRANCH   1  12
ATOM     12  C   UNL     1      38.122 -78.050  38.888  1.00  0.00     0.021 A 
ATOM     13  C   UNL     1      38.744 -76.877  39.347  1.00  0.00     0.016 A 
ATOM     14  C   UNL     1      39.542 -76.901  40.495  1.00  0.00     0.047 A 
ATOM     15  C   UNL     1      39.740 -78.101  41.190  1.00  0.00     0.115 A 
ATOM     16  C   UNL     1      38.340 -79.255  39.579  1.00  0.00     0.016 A 
ATOM     17  C   UNL     1      39.140 -79.276  40.727  1.00  0.00     0.047 A 
BRANCH  15  18
ATOM     18  O   UNL     1      40.532 -78.138  42.335  1.00  0.00    -0.508 OA
ATOM     19  H   UNL     1      40.872 -77.288  42.770  1.00  0.00     0.293 HD
ENDBRANCH  15  18
ENDBRANCH   1  12
BRANCH   2  20
ATOM     20  O   UNL     1      39.268 -77.868  36.228  1.00  0.00    -0.502 OA
ATOM     21  H   UNL     1      39.722 -78.058  35.343  1.00  0.00     0.293 HD
ENDBRANCH   2  20
BRANCH   6  22
ATOM     22  O   UNL     1      35.165 -77.738  33.035  1.00  0.00    -0.507 OA
ATOM     23  H   UNL     1      34.524 -77.767  32.251  1.00  0.00     0.293 HD
ENDBRANCH   6  22
BRANCH   8  24
ATOM     24  O   UNL     1      31.498 -78.194  36.136  1.00  0.00    -0.508 OA
ATOM     25  H   UNL     1      30.825 -77.977  35.409  1.00  0.00     0.293 HD
ENDBRANCH   8  24
TORSDOF 5
ENDMDL
MODEL 6
REMARK VINA RESULT:    -5.160      9.208     10.611
REMARK INTER + INTRA:          -6.231
REMARK INTER:                  -5.979
REMARK INTRA:                  -0.253
REMARK UNBOUND:                -0.167
REMARK SMILES O=c1c(O)c(-c2ccc(O)cc2)oc2cc(O)cc(O)c12
REMARK SMILES IDX 5 1 3 2 2 3 1 4 21 5 19 6 18 7 16 8 15 9 14 10 13 11 6 12
REMARK SMILES IDX 7 13 8 14 9 15 12 16 11 17 10 18 4 20 20 22 17 24
REMARK H PARENT 10 19 4 21 20 23 17 25
REMARK Flexibility Score: inf
ROOT
ATOM      1  C   UNL     1      31.071 -96.082  28.828  1.00  0.00     0.180 A 
ATOM      2  C   UNL     1      30.633 -96.320  30.145  1.00  0.00     0.208 A 
ATOM      3  C   UNL     1      29.273 -96.579  30.373  1.00  0.00     0.238 A 
ATOM      4  O   UNL     1      28.872 -96.804  31.546  1.00  0.00    -0.285 OA
ATOM      5  C   UNL     1      28.372 -96.577  29.287  1.00  0.00     0.111 A 
ATOM      6  C   UNL     1      26.986 -96.826  29.431  1.00  0.00     0.134 A 
ATOM      7  C   UNL     1      26.154 -96.796  28.303  1.00  0.00     0.093 A 
ATOM      8  C   UNL     1      26.677 -96.523  27.037  1.00  0.00     0.123 A 
ATOM      9  C   UNL     1      28.047 -96.278  26.888  1.00  0.00     0.094 A 
ATOM     10  C   UNL     1      28.893 -96.304  28.001  1.00  0.00     0.146 A 
ATOM     11  O   UNL     1      30.190 -96.073  27.831  1.00  0.00    -0.452 OA
ENDROOT
BRANCH   1  12
ATOM     12  C   UNL     1      32.492 -95.819  28.505  1.00  0.00     0.021 A 
ATOM     13  C   UNL     1      33.400 -96.891  28.458  1.00  0.00     0.016 A 
ATOM     14  C   UNL     1      34.750 -96.663  28.178  1.00  0.00     0.047 A 
ATOM     15  C   UNL     1      35.213 -95.359  27.957  1.00  0.00     0.115 A 
ATOM     16  C   UNL     1      32.967 -94.511  28.302  1.00  0.00     0.016 A 
ATOM     17  C   UNL     1      34.319 -94.286  28.023  1.00  0.00     0.047 A 
BRANCH  15  18
ATOM     18  O   UNL     1      36.557 -95.119  27.677  1.00  0.00    -0.508 OA
ATOM     19  H   UNL     1      36.880 -94.969  26.729  1.00  0.00     0.293 HD
ENDBRANCH  15  18
ENDBRANCH   1  12
BRANCH   2  20
ATOM     20  O   UNL     1      31.538 -96.267  31.210  1.00  0.00    -0.502 OA
ATOM     21  H   UNL     1      31.238 -96.270  32.176  1.00  0.00     0.293 HD
ENDBRANCH   2  20
BRANCH   6  22
ATOM     22  O   UNL     1      26.432 -97.100  30.682  1.00  0.00    -0.507 OA
ATOM     23  H   UNL     1      26.032 -98.006  30.900  1.00  0.00     0.293 HD
ENDBRANCH   6  22
BRANCH   8  24
ATOM     24  O   UNL     1      25.829 -96.500  25.933  1.00  0.00    -0.508 OA
ATOM     25  H   UNL     1      25.179 -95.738  25.780  1.00  0.00     0.293 HD
ENDBRANCH   8  24
TORSDOF 5
ENDMDL
MODEL 7
REMARK VINA RESULT:    -4.980     10.747     11.913
REMARK INTER + INTRA:          -6.020
REMARK INTER:                  -5.727
REMARK INTRA:                  -0.293
REMARK UNBOUND:                -0.167
REMARK SMILES O=c1c(O)c(-c2ccc(O)cc2)oc2cc(O)cc(O)c12
REMARK SMILES IDX 5 1 3 2 2 3 1 4 21 5 19 6 18 7 16 8 15 9 14 10 13 11 6 12
REMARK SMILES IDX 7 13 8 14 9 15 12 16 11 17 10 18 4 20 20 22 17 24
REMARK H PARENT 10 19 4 21 20 23 17 25
REMARK Flexibility Score: inf
ROOT
ATOM      1  C   UNL     1      36.547 -95.599  29.097  1.00  0.00     0.180 A 
ATOM      2  C   UNL     1      36.862 -95.595  30.469  1.00  0.00     0.208 A 
ATOM      3  C   UNL     1      38.209 -95.657  30.857  1.00  0.00     0.238 A 
ATOM      4  O   UNL     1      38.504 -95.643  32.083  1.00  0.00    -0.285 OA
ATOM      5  C   UNL     1      39.215 -95.742  29.871  1.00  0.00     0.111 A 
ATOM      6  C   UNL     1      40.595 -95.812  30.177  1.00  0.00     0.134 A 
ATOM      7  C   UNL     1      41.534 -95.905  29.140  1.00  0.00     0.093 A 
ATOM      8  C   UNL     1      41.122 -95.930  27.806  1.00  0.00     0.123 A 
ATOM      9  C   UNL     1      39.759 -95.860  27.496  1.00  0.00     0.094 A 
ATOM     10  C   UNL     1      38.807 -95.766  28.517  1.00  0.00     0.146 A 
ATOM     11  O   UNL     1      37.521 -95.696  28.196  1.00  0.00    -0.452 OA
ENDROOT
BRANCH   1  12
ATOM     12  C   UNL     1      35.152 -95.518  28.609  1.00  0.00     0.021 A 
ATOM     13  C   UNL     1      34.481 -96.694  28.234  1.00  0.00     0.016 A 
ATOM     14  C   UNL     1      33.170 -96.638  27.748  1.00  0.00     0.047 A 
ATOM     15  C   UNL     1      32.520 -95.405  27.619  1.00  0.00     0.115 A 
ATOM     16  C   UNL     1      34.499 -94.281  28.458  1.00  0.00     0.016 A 
ATOM     17  C   UNL     1      33.188 -94.228  27.972  1.00  0.00     0.047 A 
BRANCH  15  18
ATOM     18  O   UNL     1      31.214 -95.336  27.138  1.00  0.00    -0.508 OA
ATOM     19  H   UNL     1      30.974 -95.668  26.211  1.00  0.00     0.293 HD
ENDBRANCH  15  18
ENDBRANCH   1  12
BRANCH   2  20
ATOM     20  O   UNL     1      35.844 -95.560  31.427  1.00  0.00    -0.502 OA
ATOM     21  H   UNL     1      35.382 -94.701  31.696  1.00  0.00     0.293 HD
ENDBRANCH   2  20
BRANCH   6  22
ATOM     22  O   UNL     1      41.039 -95.790  31.500  1.00  0.00    -0.507 OA
ATOM     23  H   UNL     1      40.392 -95.815  32.280  1.00  0.00     0.293 HD
ENDBRANCH   6  22
BRANCH   8  24
ATOM     24  O   UNL     1      42.074 -96.022  26.794  1.00  0.00    -0.508 OA
ATOM     25  H   UNL     1      42.728 -95.270  26.610  1.00  0.00     0.293 HD
ENDBRANCH   8  24
TORSDOF 5
ENDMDL
MODEL 8
REMARK VINA RESULT:    -4.921     15.502     16.411
REMARK INTER + INTRA:          -5.950
REMARK INTER:                  -5.983
REMARK INTRA:                   0.032
REMARK UNBOUND:                -0.167
REMARK SMILES O=c1c(O)c(-c2ccc(O)cc2)oc2cc(O)cc(O)c12
REMARK SMILES IDX 5 1 3 2 2 3 1 4 21 5 19 6 18 7 16 8 15 9 14 10 13 11 6 12
REMARK SMILES IDX 7 13 8 14 9 15 12 16 11 17 10 18 4 20 20 22 17 24
REMARK H PARENT 10 19 4 21 20 23 17 25
REMARK Flexibility Score: inf
ROOT
ATOM      1  C   UNL     1      36.219 -77.913  37.612  1.00  0.00     0.180 A 
ATOM      2  C   UNL     1      37.281 -77.567  36.755  1.00  0.00     0.208 A 
ATOM      3  C   UNL     1      38.596 -77.853  37.154  1.00  0.00     0.238 A 
ATOM      4  O   UNL     1      39.554 -77.557  36.391  1.00  0.00    -0.285 OA
ATOM      5  C   UNL     1      38.828 -78.460  38.406  1.00  0.00     0.111 A 
ATOM      6  C   UNL     1      40.121 -78.778  38.885  1.00  0.00     0.134 A 
ATOM      7  C   UNL     1      40.269 -79.372  40.146  1.00  0.00     0.093 A 
ATOM      8  C   UNL     1      39.153 -79.654  40.938  1.00  0.00     0.123 A 
ATOM      9  C   UNL     1      37.872 -79.342  40.470  1.00  0.00     0.094 A 
ATOM     10  C   UNL     1      37.703 -78.751  39.214  1.00  0.00     0.146 A 
ATOM     11  O   UNL     1      36.476 -78.470  38.792  1.00  0.00    -0.452 OA
ENDROOT
BRANCH   1  12
ATOM     12  C   UNL     1      34.804 -77.661  37.254  1.00  0.00     0.021 A 
ATOM     13  C   UNL     1      33.938 -77.101  38.208  1.00  0.00     0.016 A 
ATOM     14  C   UNL     1      32.594 -76.875  37.899  1.00  0.00     0.047 A 
ATOM     15  C   UNL     1      32.094 -77.220  36.637  1.00  0.00     0.115 A 
ATOM     16  C   UNL     1      34.291 -78.023  35.995  1.00  0.00     0.016 A 
ATOM     17  C   UNL     1      32.945 -77.796  35.688  1.00  0.00     0.047 A 
BRANCH  15  18
ATOM     18  O   UNL     1      30.757 -77.000  36.316  1.00  0.00    -0.508 OA
ATOM     19  H   UNL     1      30.025 -77.087  37.012  1.00  0.00     0.293 HD
ENDBRANCH  15  18
ENDBRANCH   1  12
BRANCH   2  20
ATOM     20  O   UNL     1      37.028 -76.921  35.542  1.00  0.00    -0.502 OA
ATOM     21  H   UNL     1      36.807 -75.934  35.489  1.00  0.00     0.293 HD
ENDBRANCH   2  20
BRANCH   6  22
ATOM     22  O   UNL     1      41.256 -78.509  38.119  1.00  0.00    -0.507 OA
ATOM     23  H   UNL     1      41.733 -79.236  37.599  1.00  0.00     0.293 HD
ENDBRANCH   6  22
BRANCH   8  24
ATOM     24  O   UNL     1      39.328 -80.244  42.187  1.00  0.00    -0.508 OA
ATOM     25  H   UNL     1      39.978 -79.866  42.866  1.00  0.00     0.293 HD
ENDBRANCH   8  24
TORSDOF 5
ENDMDL
MODEL 9
REMARK VINA RESULT:    -4.848      8.051      9.752
REMARK INTER + INTRA:          -5.865
REMARK INTER:                  -5.665
REMARK INTRA:                  -0.200
REMARK UNBOUND:                -0.167
REMARK SMILES O=c1c(O)c(-c2ccc(O)cc2)oc2cc(O)cc(O)c12
REMARK SMILES IDX 5 1 3 2 2 3 1 4 21 5 19 6 18 7 16 8 15 9 14 10 13 11 6 12
REMARK SMILES IDX 7 13 8 14 9 15 12 16 11 17 10 18 4 20 20 22 17 24
REMARK H PARENT 10 19 4 21 20 23 17 25
REMARK Flexibility Score: inf
ROOT
ATOM      1  C   UNL     1      39.111 -95.751  34.865  1.00  0.00     0.180 A 
ATOM      2  C   UNL     1      37.891 -96.395  35.145  1.00  0.00     0.208 A 
ATOM      3  C   UNL     1      37.474 -96.511  36.480  1.00  0.00     0.238 A 
ATOM      4  O   UNL     1      36.379 -97.076  36.741  1.00  0.00    -0.285 OA
ATOM      5  C   UNL     1      38.290 -96.000  37.511  1.00  0.00     0.111 A 
ATOM      6  C   UNL     1      37.946 -96.079  38.882  1.00  0.00     0.134 A 
ATOM      7  C   UNL     1      38.816 -95.555  39.849  1.00  0.00     0.093 A 
ATOM      8  C   UNL     1      40.021 -94.957  39.474  1.00  0.00     0.123 A 
ATOM      9  C   UNL     1      40.367 -94.875  38.121  1.00  0.00     0.094 A 
ATOM     10  C   UNL     1      39.512 -95.390  37.142  1.00  0.00     0.146 A 
ATOM     11  O   UNL     1      39.861 -95.295  35.865  1.00  0.00    -0.452 OA
ENDROOT
BRANCH   1  12
ATOM     12  C   UNL     1      39.609 -95.574  33.482  1.00  0.00     0.021 A 
ATOM     13  C   UNL     1      38.963 -94.666  32.626  1.00  0.00     0.016 A 
ATOM     14  C   UNL     1      39.402 -94.500  31.308  1.00  0.00     0.047 A 
ATOM     15  C   UNL     1      40.482 -95.250  30.826  1.00  0.00     0.115 A 
ATOM     16  C   UNL     1      40.681 -96.338  32.985  1.00  0.00     0.016 A 
ATOM     17  C   UNL     1      41.117 -96.170  31.667  1.00  0.00     0.047 A 
BRANCH  15  18
ATOM     18  O   UNL     1      40.929 -95.093  29.516  1.00  0.00    -0.508 OA
ATOM     19  H   UNL     1      41.905 -95.216  29.272  1.00  0.00     0.293 HD
ENDBRANCH  15  18
ENDBRANCH   1  12
BRANCH   2  20
ATOM     20  O   UNL     1      37.125 -96.937  34.108  1.00  0.00    -0.502 OA
ATOM     21  H   UNL     1      36.131 -96.768  34.025  1.00  0.00     0.293 HD
ENDBRANCH   2  20
BRANCH   6  22
ATOM     22  O   UNL     1      36.750 -96.671  39.289  1.00  0.00    -0.507 OA
ATOM     23  H   UNL     1      36.307 -96.428  40.167  1.00  0.00     0.293 HD
ENDBRANCH   6  22
BRANCH   8  24
ATOM     24  O   UNL     1      40.868 -94.444  40.454  1.00  0.00    -0.508 OA
ATOM     25  H   UNL     1      40.780 -94.717  41.427  1.00  0.00     0.293 HD
ENDBRANCH   8  24
TORSDOF 5
ENDMDL
