MODEL 1
REMARK VINA RESULT:    -4.655      0.000      0.000
REMARK INTER + INTRA:          -6.789
REMARK INTER:                  -6.288
REMARK INTRA:                  -0.501
REMARK UNBOUND:                -0.501
REMARK SMILES C=C[C@](C)(CCC=C(C)C)OC(C)=O
REMARK SMILES IDX 3 1 4 2 5 3 6 4 7 5 9 6 8 7 10 8 2 9 1 10 11 11 12 12 14 13
REMARK SMILES IDX 13 14
REMARK H PARENT
REMARK Flexibility Score: inf
ROOT
ATOM      1  C   UNL     1      -7.237  -5.929   6.299  1.00  0.00     0.127 C 
ATOM      2  C   UNL     1      -6.115  -4.910   6.007  1.00  0.00     0.061 C 
ENDROOT
BRANCH   1   3
ATOM      3  C   UNL     1      -7.183  -7.091   5.270  1.00  0.00     0.057 C 
BRANCH   3   4
ATOM      4  C   UNL     1      -8.553  -7.543   4.728  1.00  0.00     0.032 C 
BRANCH   4   5
ATOM      5  C   UNL     1      -8.495  -7.723   3.231  1.00  0.00    -0.028 C 
ATOM      6  C   UNL     1      -9.740  -5.601   2.762  1.00  0.00     0.039 C 
ATOM      7  C   UNL     1      -9.000  -6.847   2.334  1.00  0.00    -0.080 C 
ATOM      8  C   UNL     1      -8.830  -7.143   0.867  1.00  0.00     0.039 C 
ENDBRANCH   4   5
ENDBRANCH   3   4
ENDBRANCH   1   3
BRANCH   1   9
ATOM      9  C   UNL     1      -8.596  -5.245   6.257  1.00  0.00     0.013 C 
ATOM     10  C   UNL     1      -8.730  -3.946   5.966  1.00  0.00     0.008 C 
ENDBRANCH   1   9
BRANCH   1  11
ATOM     11  O   UNL     1      -7.017  -6.510   7.594  1.00  0.00    -0.455 OA
BRANCH  11  12
ATOM     12  C   UNL     1      -7.386  -5.940   8.823  1.00  0.00     0.303 C 
ATOM     13  O   UNL     1      -7.327  -4.693   9.008  1.00  0.00    -0.253 OA
ATOM     14  C   UNL     1      -7.916  -6.818   9.903  1.00  0.00     0.139 C 
ENDBRANCH  11  12
ENDBRANCH   1  11
TORSDOF 6
ENDMDL
MODEL 2
REMARK VINA RESULT:    -4.449      2.948      5.990
REMARK INTER + INTRA:          -6.511
REMARK INTER:                  -6.028
REMARK INTRA:                  -0.483
REMARK UNBOUND:                -0.501
REMARK SMILES C=C[C@](C)(CCC=C(C)C)OC(C)=O
REMARK SMILES IDX 3 1 4 2 5 3 6 4 7 5 9 6 8 7 10 8 2 9 1 10 11 11 12 12 14 13
REMARK SMILES IDX 13 14
REMARK H PARENT
REMARK Flexibility Score: inf
ROOT
ATOM      1  C   UNL     1      -8.491  -8.653   2.991  1.00  0.00     0.127 C 
ATOM      2  C   UNL     1      -7.365  -9.691   2.791  1.00  0.00     0.061 C 
ENDROOT
BRANCH   1   3
ATOM      3  C   UNL     1      -8.457  -8.103   4.443  1.00  0.00     0.057 C 
BRANCH   3   4
ATOM      4  C   UNL     1      -8.044  -6.623   4.567  1.00  0.00     0.032 C 
BRANCH   4   5
ATOM      5  C   UNL     1      -7.342  -6.380   5.880  1.00  0.00    -0.028 C 
ATOM      6  C   UNL     1      -8.534  -4.218   6.304  1.00  0.00     0.039 C 
ATOM      7  C   UNL     1      -7.570  -5.318   6.684  1.00  0.00    -0.080 C 
ATOM      8  C   UNL     1      -6.820  -5.231   7.988  1.00  0.00     0.039 C 
ENDBRANCH   4   5
ENDBRANCH   3   4
ENDBRANCH   1   3
BRANCH   1   9
ATOM      9  C   UNL     1      -9.845  -9.279   2.690  1.00  0.00     0.013 C 
ATOM     10  C   UNL     1     -10.679  -9.672   3.659  1.00  0.00     0.008 C 
ENDBRANCH   1   9
BRANCH   1  11
ATOM     11  O   UNL     1      -8.257  -7.536   2.117  1.00  0.00    -0.455 OA
BRANCH  11  12
ATOM     12  C   UNL     1      -9.166  -7.028   1.176  1.00  0.00     0.303 C 
ATOM     13  O   UNL     1      -9.277  -7.544   0.031  1.00  0.00    -0.253 OA
ATOM     14  C   UNL     1     -10.058  -5.898   1.561  1.00  0.00     0.139 C 
ENDBRANCH  11  12
ENDBRANCH   1  11
TORSDOF 6
ENDMDL
MODEL 3
REMARK VINA RESULT:    -4.338      1.167      1.720
REMARK INTER + INTRA:          -6.361
REMARK INTER:                  -5.834
REMARK INTRA:                  -0.527
REMARK UNBOUND:                -0.501
REMARK SMILES C=C[C@](C)(CCC=C(C)C)OC(C)=O
REMARK SMILES IDX 3 1 4 2 5 3 6 4 7 5 9 6 8 7 10 8 2 9 1 10 11 11 12 12 14 13
REMARK SMILES IDX 13 14
REMARK H PARENT
REMARK Flexibility Score: inf
ROOT
ATOM      1  C   UNL     1      -7.127  -5.192   6.642  1.00  0.00     0.127 C 
ATOM      2  C   UNL     1      -5.880  -4.991   5.754  1.00  0.00     0.061 C 
ENDROOT
BRANCH   1   3
ATOM      3  C   UNL     1      -7.855  -6.507   6.249  1.00  0.00     0.057 C 
BRANCH   3   4
ATOM      4  C   UNL     1      -7.298  -7.207   4.995  1.00  0.00     0.032 C 
BRANCH   4   5
ATOM      5  C   UNL     1      -8.312  -7.176   3.878  1.00  0.00    -0.028 C 
ATOM      6  C   UNL     1      -7.532  -9.340   2.887  1.00  0.00     0.039 C 
ATOM      7  C   UNL     1      -8.447  -8.138   2.939  1.00  0.00    -0.080 C 
ATOM      8  C   UNL     1      -9.535  -7.988   1.908  1.00  0.00     0.039 C 
ENDBRANCH   4   5
ENDBRANCH   3   4
ENDBRANCH   1   3
BRANCH   1   9
ATOM      9  C   UNL     1      -8.068  -4.003   6.507  1.00  0.00     0.013 C 
ATOM     10  C   UNL     1      -9.166  -4.047   5.745  1.00  0.00     0.008 C 
ENDBRANCH   1   9
BRANCH   1  11
ATOM     11  O   UNL     1      -6.710  -5.340   8.009  1.00  0.00    -0.455 OA
BRANCH  11  12
ATOM     12  C   UNL     1      -7.295  -6.195   8.956  1.00  0.00     0.303 C 
ATOM     13  O   UNL     1      -6.924  -7.395   9.070  1.00  0.00    -0.253 OA
ATOM     14  C   UNL     1      -8.327  -5.655   9.886  1.00  0.00     0.139 C 
ENDBRANCH  11  12
ENDBRANCH   1  11
TORSDOF 6
ENDMDL
MODEL 4
REMARK VINA RESULT:    -4.310      2.960      5.640
REMARK INTER + INTRA:          -6.323
REMARK INTER:                  -5.881
REMARK INTRA:                  -0.442
REMARK UNBOUND:                -0.501
REMARK SMILES C=C[C@](C)(CCC=C(C)C)OC(C)=O
REMARK SMILES IDX 3 1 4 2 5 3 6 4 7 5 9 6 8 7 10 8 2 9 1 10 11 11 12 12 14 13
REMARK SMILES IDX 13 14
REMARK H PARENT
REMARK Flexibility Score: inf
ROOT
ATOM      1  C   UNL     1      -9.313  -7.950   2.159  1.00  0.00     0.127 C 
ATOM      2  C   UNL     1     -10.691  -8.006   2.852  1.00  0.00     0.061 C 
ENDROOT
BRANCH   1   3
ATOM      3  C   UNL     1      -8.356  -7.013   2.946  1.00  0.00     0.057 C 
BRANCH   3   4
ATOM      4  C   UNL     1      -8.951  -6.415   4.235  1.00  0.00     0.032 C 
BRANCH   4   5
ATOM      5  C   UNL     1      -7.883  -6.271   5.292  1.00  0.00    -0.028 C 
ATOM      6  C   UNL     1      -8.757  -4.071   6.110  1.00  0.00     0.039 C 
ATOM      7  C   UNL     1      -7.798  -5.237   6.158  1.00  0.00    -0.080 C 
ATOM      8  C   UNL     1      -6.698  -5.252   7.187  1.00  0.00     0.039 C 
ENDBRANCH   4   5
ENDBRANCH   3   4
ENDBRANCH   1   3
BRANCH   1   9
ATOM      9  C   UNL     1      -9.464  -7.471   0.722  1.00  0.00     0.013 C 
ATOM     10  C   UNL     1     -10.356  -8.007  -0.118  1.00  0.00     0.008 C 
ENDBRANCH   1   9
BRANCH   1  11
ATOM     11  O   UNL     1      -8.724  -9.261   2.183  1.00  0.00    -0.455 OA
BRANCH  11  12
ATOM     12  C   UNL     1      -7.843  -9.746   3.162  1.00  0.00     0.303 C 
ATOM     13  O   UNL     1      -6.602  -9.815   2.948  1.00  0.00    -0.253 OA
ATOM     14  C   UNL     1      -8.379 -10.125   4.500  1.00  0.00     0.139 C 
ENDBRANCH  11  12
ENDBRANCH   1  11
TORSDOF 6
ENDMDL
MODEL 5
REMARK VINA RESULT:    -4.301      3.362      6.426
REMARK INTER + INTRA:          -6.311
REMARK INTER:                  -5.812
REMARK INTRA:                  -0.499
REMARK UNBOUND:                -0.501
REMARK SMILES C=C[C@](C)(CCC=C(C)C)OC(C)=O
REMARK SMILES IDX 3 1 4 2 5 3 6 4 7 5 9 6 8 7 10 8 2 9 1 10 11 11 12 12 14 13
REMARK SMILES IDX 13 14
REMARK H PARENT
REMARK Flexibility Score: inf
ROOT
ATOM      1  C   UNL     1      -8.949  -7.982   2.274  1.00  0.00     0.127 C 
ATOM      2  C   UNL     1      -8.093  -6.804   1.763  1.00  0.00     0.061 C 
ENDROOT
BRANCH   1   3
ATOM      3  C   UNL     1      -9.289  -7.783   3.777  1.00  0.00     0.057 C 
BRANCH   3   4
ATOM      4  C   UNL     1      -9.175  -6.331   4.280  1.00  0.00     0.032 C 
BRANCH   4   5
ATOM      5  C   UNL     1      -8.034  -6.200   5.260  1.00  0.00    -0.028 C 
ATOM      6  C   UNL     1      -8.850  -4.014   6.170  1.00  0.00     0.039 C 
ATOM      7  C   UNL     1      -7.888  -5.179   6.132  1.00  0.00    -0.080 C 
ATOM      8  C   UNL     1      -6.717  -5.205   7.079  1.00  0.00     0.039 C 
ENDBRANCH   4   5
ENDBRANCH   3   4
ENDBRANCH   1   3
BRANCH   1   9
ATOM      9  C   UNL     1      -8.214  -9.298   2.065  1.00  0.00     0.013 C 
ATOM     10  C   UNL     1      -7.318  -9.761   2.945  1.00  0.00     0.008 C 
ENDBRANCH   1   9
BRANCH   1  11
ATOM     11  O   UNL     1     -10.198  -7.996   1.564  1.00  0.00    -0.455 OA
BRANCH  11  12
ATOM     12  C   UNL     1     -10.415  -7.479   0.277  1.00  0.00     0.303 C 
ATOM     13  O   UNL     1     -10.041  -8.108  -0.751  1.00  0.00    -0.253 OA
ATOM     14  C   UNL     1     -11.156  -6.196   0.122  1.00  0.00     0.139 C 
ENDBRANCH  11  12
ENDBRANCH   1  11
TORSDOF 6
ENDMDL
MODEL 6
REMARK VINA RESULT:    -4.250      1.954      3.812
REMARK INTER + INTRA:          -6.242
REMARK INTER:                  -5.271
REMARK INTRA:                  -0.971
REMARK UNBOUND:                -0.501
REMARK SMILES C=C[C@](C)(CCC=C(C)C)OC(C)=O
REMARK SMILES IDX 3 1 4 2 5 3 6 4 7 5 9 6 8 7 10 8 2 9 1 10 11 11 12 12 14 13
REMARK SMILES IDX 13 14
REMARK H PARENT
REMARK Flexibility Score: inf
ROOT
ATOM      1  C   UNL     1      -8.623  -7.033   3.717  1.00  0.00     0.127 C 
ATOM      2  C   UNL     1     -10.011  -6.537   4.176  1.00  0.00     0.061 C 
ENDROOT
BRANCH   1   3
ATOM      3  C   UNL     1      -8.406  -6.700   2.216  1.00  0.00     0.057 C 
BRANCH   3   4
ATOM      4  C   UNL     1      -9.683  -6.731   1.354  1.00  0.00     0.032 C 
BRANCH   4   5
ATOM      5  C   UNL     1      -9.638  -7.889   0.387  1.00  0.00    -0.028 C 
ATOM      6  C   UNL     1     -11.259  -9.269   1.707  1.00  0.00     0.039 C 
ATOM      7  C   UNL     1     -10.359  -9.024   0.518  1.00  0.00    -0.080 C 
ATOM      8  C   UNL     1     -10.241 -10.078  -0.552  1.00  0.00     0.039 C 
ENDBRANCH   4   5
ENDBRANCH   3   4
ENDBRANCH   1   3
BRANCH   1   9
ATOM      9  C   UNL     1      -8.493  -8.531   3.954  1.00  0.00     0.013 C 
ATOM     10  C   UNL     1      -7.537  -9.264   3.372  1.00  0.00     0.008 C 
ENDBRANCH   1   9
BRANCH   1  11
ATOM     11  O   UNL     1      -7.608  -6.328   4.450  1.00  0.00    -0.455 OA
BRANCH  11  12
ATOM     12  C   UNL     1      -7.577  -6.149   5.842  1.00  0.00     0.303 C 
ATOM     13  O   UNL     1      -7.195  -7.074   6.611  1.00  0.00    -0.253 OA
ATOM     14  C   UNL     1      -7.941  -4.823   6.415  1.00  0.00     0.139 C 
ENDBRANCH  11  12
ENDBRANCH   1  11
TORSDOF 6
ENDMDL
MODEL 7
REMARK VINA RESULT:    -4.249      2.712      5.860
REMARK INTER + INTRA:          -6.241
REMARK INTER:                  -5.573
REMARK INTRA:                  -0.668
REMARK UNBOUND:                -0.501
REMARK SMILES C=C[C@](C)(CCC=C(C)C)OC(C)=O
REMARK SMILES IDX 3 1 4 2 5 3 6 4 7 5 9 6 8 7 10 8 2 9 1 10 11 11 12 12 14 13
REMARK SMILES IDX 13 14
REMARK H PARENT
REMARK Flexibility Score: inf
ROOT
ATOM      1  C   UNL     1      -9.221  -7.724   3.664  1.00  0.00     0.127 C 
ATOM      2  C   UNL     1     -10.318  -8.808   3.752  1.00  0.00     0.061 C 
ENDROOT
BRANCH   1   3
ATOM      3  C   UNL     1      -8.201  -7.903   4.822  1.00  0.00     0.057 C 
BRANCH   3   4
ATOM      4  C   UNL     1      -7.272  -6.697   5.059  1.00  0.00     0.032 C 
BRANCH   4   5
ATOM      5  C   UNL     1      -7.182  -6.382   6.532  1.00  0.00    -0.028 C 
ATOM      6  C   UNL     1      -8.435  -4.224   6.315  1.00  0.00     0.039 C 
ATOM      7  C   UNL     1      -7.721  -5.289   7.115  1.00  0.00    -0.080 C 
ATOM      8  C   UNL     1      -7.584  -5.129   8.607  1.00  0.00     0.039 C 
ENDBRANCH   4   5
ENDBRANCH   3   4
ENDBRANCH   1   3
BRANCH   1   9
ATOM      9  C   UNL     1      -9.845  -6.337   3.713  1.00  0.00     0.013 C 
ATOM     10  C   UNL     1      -9.857  -5.523   2.652  1.00  0.00     0.008 C 
ENDBRANCH   1   9
BRANCH   1  11
ATOM     11  O   UNL     1      -8.492  -7.895   2.438  1.00  0.00    -0.455 OA
BRANCH  11  12
ATOM     12  C   UNL     1      -8.734  -8.884   1.471  1.00  0.00     0.303 C 
ATOM     13  O   UNL     1      -8.198 -10.023   1.554  1.00  0.00    -0.253 OA
ATOM     14  C   UNL     1      -9.689  -8.603   0.363  1.00  0.00     0.139 C 
ENDBRANCH  11  12
ENDBRANCH   1  11
TORSDOF 6
ENDMDL
MODEL 8
REMARK VINA RESULT:    -4.189      1.170      2.410
REMARK INTER + INTRA:          -6.160
REMARK INTER:                  -5.479
REMARK INTRA:                  -0.681
REMARK UNBOUND:                -0.501
REMARK SMILES C=C[C@](C)(CCC=C(C)C)OC(C)=O
REMARK SMILES IDX 3 1 4 2 5 3 6 4 7 5 9 6 8 7 10 8 2 9 1 10 11 11 12 12 14 13
REMARK SMILES IDX 13 14
REMARK H PARENT
REMARK Flexibility Score: inf
ROOT
ATOM      1  C   UNL     1      -7.257  -5.883   6.512  1.00  0.00     0.127 C 
ATOM      2  C   UNL     1      -7.140  -6.542   7.903  1.00  0.00     0.061 C 
ENDROOT
BRANCH   1   3
ATOM      3  C   UNL     1      -7.037  -6.944   5.399  1.00  0.00     0.057 C 
BRANCH   3   4
ATOM      4  C   UNL     1      -8.322  -7.620   4.885  1.00  0.00     0.032 C 
BRANCH   4   5
ATOM      5  C   UNL     1      -8.282  -7.757   3.382  1.00  0.00    -0.028 C 
ATOM      6  C   UNL     1      -9.576  -5.649   2.990  1.00  0.00     0.039 C 
ATOM      7  C   UNL     1      -8.818  -6.867   2.518  1.00  0.00    -0.080 C 
ATOM      8  C   UNL     1      -8.663  -7.118   1.041  1.00  0.00     0.039 C 
ENDBRANCH   4   5
ENDBRANCH   3   4
ENDBRANCH   1   3
BRANCH   1   9
ATOM      9  C   UNL     1      -6.246  -4.753   6.377  1.00  0.00     0.013 C 
ATOM     10  C   UNL     1      -5.139  -4.873   5.634  1.00  0.00     0.008 C 
ENDBRANCH   1   9
BRANCH   1  11
ATOM     11  O   UNL     1      -8.590  -5.375   6.345  1.00  0.00    -0.455 OA
BRANCH  11  12
ATOM     12  C   UNL     1      -9.045  -4.114   6.758  1.00  0.00     0.303 C 
ATOM     13  O   UNL     1      -9.010  -3.772   7.972  1.00  0.00    -0.253 OA
ATOM     14  C   UNL     1      -9.519  -3.139   5.736  1.00  0.00     0.139 C 
ENDBRANCH  11  12
ENDBRANCH   1  11
TORSDOF 6
ENDMDL
MODEL 9
REMARK VINA RESULT:    -4.077      3.696      6.795
REMARK INTER + INTRA:          -6.009
REMARK INTER:                  -5.084
REMARK INTRA:                  -0.924
REMARK UNBOUND:                -0.501
REMARK SMILES C=C[C@](C)(CCC=C(C)C)OC(C)=O
REMARK SMILES IDX 3 1 4 2 5 3 6 4 7 5 9 6 8 7 10 8 2 9 1 10 11 11 12 12 14 13
REMARK SMILES IDX 13 14
REMARK H PARENT
REMARK Flexibility Score: inf
ROOT
ATOM      1  C   UNL     1      -9.840  -6.993   1.638  1.00  0.00     0.127 C 
ATOM      2  C   UNL     1      -8.387  -7.193   1.157  1.00  0.00     0.061 C 
ENDROOT
BRANCH   1   3
ATOM      3  C   UNL     1      -9.923  -5.770   2.592  1.00  0.00     0.057 C 
BRANCH   3   4
ATOM      4  C   UNL     1     -10.097  -6.121   4.083  1.00  0.00     0.032 C 
BRANCH   4   5
ATOM      5  C   UNL     1      -8.930  -5.604   4.887  1.00  0.00    -0.028 C 
ATOM      6  C   UNL     1      -7.779  -7.828   4.952  1.00  0.00     0.039 C 
ATOM      7  C   UNL     1      -7.869  -6.352   5.263  1.00  0.00    -0.080 C 
ATOM      8  C   UNL     1      -6.757  -5.685   6.030  1.00  0.00     0.039 C 
ENDBRANCH   4   5
ENDBRANCH   3   4
ENDBRANCH   1   3
BRANCH   1   9
ATOM      9  C   UNL     1     -10.342  -8.248   2.337  1.00  0.00     0.013 C 
ATOM     10  C   UNL     1      -9.712  -9.424   2.230  1.00  0.00     0.008 C 
ENDBRANCH   1   9
BRANCH   1  11
ATOM     11  O   UNL     1     -10.671  -6.693   0.505  1.00  0.00    -0.455 OA
BRANCH  11  12
ATOM     12  C   UNL     1     -10.452  -7.130  -0.811  1.00  0.00     0.303 C 
ATOM     13  O   UNL     1      -9.893  -6.385  -1.662  1.00  0.00    -0.253 OA
ATOM     14  C   UNL     1     -10.828  -8.521  -1.189  1.00  0.00     0.139 C 
ENDBRANCH  11  12
ENDBRANCH   1  11
TORSDOF 6
ENDMDL
