MODEL 1
REMARK VINA RESULT:    -4.893      0.000      0.000
REMARK INTER + INTRA:         -10.458
REMARK INTER:                  -8.898
REMARK INTRA:                  -1.560
REMARK UNBOUND:                -1.560
REMARK SMILES CCCCCCCCCCCCCCCC(=O)[O-]
REMARK SMILES IDX 9 1 10 2 11 3 12 4 13 5 14 6 15 7 16 8 17 9 18 10 8 11 7 12
REMARK SMILES IDX 6 13 5 14 4 15 3 16 2 17 1 18
REMARK H PARENT
REMARK Flexibility Score: inf
ROOT
ATOM      1  C   UNL     1      30.539  -9.947  13.314  1.00  0.00     0.000 C 
ENDROOT
BRANCH   1   2
ATOM      2  C   UNL     1      31.126  -8.855  12.406  1.00  0.00     0.000 C 
BRANCH   2   3
ATOM      3  C   UNL     1      30.610  -7.451  12.766  1.00  0.00     0.000 C 
BRANCH   3   4
ATOM      4  C   UNL     1      30.618  -6.483  11.568  1.00  0.00     0.000 C 
BRANCH   4   5
ATOM      5  C   UNL     1      31.401  -6.972  10.336  1.00  0.00     0.000 C 
BRANCH   5   6
ATOM      6  C   UNL     1      32.457  -5.961   9.855  1.00  0.00     0.006 C 
BRANCH   6   7
ATOM      7  C   UNL     1      33.269  -5.376  11.019  1.00  0.00     0.053 C 
BRANCH   7   8
ATOM      8  C   UNL     1      34.354  -6.308  11.467  1.00  0.00     0.041 C 
ATOM      9  O   UNL     1      34.196  -7.017  12.494  1.00  0.00    -0.550 OA
ATOM     10  O   UNL     1      35.528  -6.414  10.732  1.00  0.00    -0.550 OA
ENDBRANCH   7   8
ENDBRANCH   6   7
ENDBRANCH   5   6
ENDBRANCH   4   5
ENDBRANCH   3   4
ENDBRANCH   2   3
ENDBRANCH   1   2
BRANCH   1  11
ATOM     11  C   UNL     1      29.696  -9.374  14.465  1.00  0.00     0.000 C 
BRANCH  11  12
ATOM     12  C   UNL     1      28.327 -10.062  14.602  1.00  0.00    -0.000 C 
BRANCH  12  13
ATOM     13  C   UNL     1      28.186 -11.333  13.736  1.00  0.00    -0.000 C 
BRANCH  13  14
ATOM     14  C   UNL     1      26.968 -12.180  14.144  1.00  0.00    -0.000 C 
BRANCH  14  15
ATOM     15  C   UNL     1      27.152 -12.871  15.505  1.00  0.00    -0.000 C 
BRANCH  15  16
ATOM     16  C   UNL     1      28.505 -13.593  15.624  1.00  0.00    -0.000 C 
BRANCH  16  17
ATOM     17  C   UNL     1      29.346 -13.075  16.801  1.00  0.00    -0.003 C 
ATOM     18  C   UNL     1      30.654 -12.420  16.353  1.00  0.00     0.004 C 
ENDBRANCH  16  17
ENDBRANCH  15  16
ENDBRANCH  14  15
ENDBRANCH  13  14
ENDBRANCH  12  13
ENDBRANCH  11  12
ENDBRANCH   1  11
TORSDOF 14
ENDMDL
MODEL 2
REMARK VINA RESULT:    -4.819      1.060      1.852
REMARK INTER + INTRA:         -10.323
REMARK INTER:                  -9.131
REMARK INTRA:                  -1.192
REMARK UNBOUND:                -1.560
REMARK SMILES CCCCCCCCCCCCCCCC(=O)[O-]
REMARK SMILES IDX 9 1 10 2 11 3 12 4 13 5 14 6 15 7 16 8 17 9 18 10 8 11 7 12
REMARK SMILES IDX 6 13 5 14 4 15 3 16 2 17 1 18
REMARK H PARENT
REMARK Flexibility Score: inf
ROOT
ATOM      1  C   UNL     1      31.189  -9.772  13.483  1.00  0.00     0.000 C 
ENDROOT
BRANCH   1   2
ATOM      2  C   UNL     1      31.056  -8.864  12.250  1.00  0.00     0.000 C 
BRANCH   2   3
ATOM      3  C   UNL     1      30.593  -7.442  12.614  1.00  0.00     0.000 C 
BRANCH   3   4
ATOM      4  C   UNL     1      30.779  -6.438  11.462  1.00  0.00     0.000 C 
BRANCH   4   5
ATOM      5  C   UNL     1      31.628  -6.944  10.281  1.00  0.00     0.000 C 
BRANCH   5   6
ATOM      6  C   UNL     1      32.627  -5.893   9.765  1.00  0.00     0.006 C 
BRANCH   6   7
ATOM      7  C   UNL     1      33.499  -5.322  10.891  1.00  0.00     0.053 C 
BRANCH   7   8
ATOM      8  C   UNL     1      34.495  -6.326  11.389  1.00  0.00     0.041 C 
ATOM      9  O   UNL     1      35.595  -6.475  10.796  1.00  0.00    -0.550 OA
ATOM     10  O   UNL     1      34.219  -7.076  12.526  1.00  0.00    -0.550 OA
ENDBRANCH   7   8
ENDBRANCH   6   7
ENDBRANCH   5   6
ENDBRANCH   4   5
ENDBRANCH   3   4
ENDBRANCH   2   3
ENDBRANCH   1   2
BRANCH   1  11
ATOM     11  C   UNL     1      30.833  -9.051  14.793  1.00  0.00     0.000 C 
BRANCH  11  12
ATOM     12  C   UNL     1      29.766  -9.797  15.614  1.00  0.00    -0.000 C 
BRANCH  12  13
ATOM     13  C   UNL     1      28.344  -9.219  15.447  1.00  0.00    -0.000 C 
BRANCH  13  14
ATOM     14  C   UNL     1      27.274 -10.324  15.376  1.00  0.00    -0.000 C 
BRANCH  14  15
ATOM     15  C   UNL     1      27.819 -11.643  14.804  1.00  0.00    -0.000 C 
BRANCH  15  16
ATOM     16  C   UNL     1      27.581 -12.838  15.743  1.00  0.00    -0.000 C 
BRANCH  16  17
ATOM     17  C   UNL     1      27.943 -14.181  15.089  1.00  0.00    -0.003 C 
ATOM     18  C   UNL     1      27.077 -14.499  13.869  1.00  0.00     0.004 C 
ENDBRANCH  16  17
ENDBRANCH  15  16
ENDBRANCH  14  15
ENDBRANCH  13  14
ENDBRANCH  12  13
ENDBRANCH  11  12
ENDBRANCH   1  11
TORSDOF 14
ENDMDL
MODEL 3
REMARK VINA RESULT:    -4.813      3.868      8.229
REMARK INTER + INTRA:         -10.313
REMARK INTER:                  -9.084
REMARK INTRA:                  -1.229
REMARK UNBOUND:                -1.560
REMARK SMILES CCCCCCCCCCCCCCCC(=O)[O-]
REMARK SMILES IDX 9 1 10 2 11 3 12 4 13 5 14 6 15 7 16 8 17 9 18 10 8 11 7 12
REMARK SMILES IDX 6 13 5 14 4 15 3 16 2 17 1 18
REMARK H PARENT
REMARK Flexibility Score: inf
ROOT
ATOM      1  C   UNL     1      30.845  -9.487  12.925  1.00  0.00     0.000 C 
ENDROOT
BRANCH   1   2
ATOM      2  C   UNL     1      30.580  -8.749  14.247  1.00  0.00     0.000 C 
BRANCH   2   3
ATOM      3  C   UNL     1      29.728  -9.579  15.223  1.00  0.00     0.000 C 
BRANCH   3   4
ATOM      4  C   UNL     1      28.234  -9.207  15.180  1.00  0.00     0.000 C 
BRANCH   4   5
ATOM      5  C   UNL     1      27.264 -10.398  15.067  1.00  0.00     0.000 C 
BRANCH   5   6
ATOM      6  C   UNL     1      27.960 -11.700  14.634  1.00  0.00     0.006 C 
BRANCH   6   7
ATOM      7  C   UNL     1      27.262 -12.945  15.199  1.00  0.00     0.053 C 
BRANCH   7   8
ATOM      8  C   UNL     1      27.758 -14.204  14.555  1.00  0.00     0.041 C 
ATOM      9  O   UNL     1      27.299 -14.570  13.441  1.00  0.00    -0.550 OA
ATOM     10  O   UNL     1      28.749 -14.958  15.171  1.00  0.00    -0.550 OA
ENDBRANCH   7   8
ENDBRANCH   6   7
ENDBRANCH   5   6
ENDBRANCH   4   5
ENDBRANCH   3   4
ENDBRANCH   2   3
ENDBRANCH   1   2
BRANCH   1  11
ATOM     11  C   UNL     1      31.131  -8.529  11.757  1.00  0.00     0.000 C 
BRANCH  11  12
ATOM     12  C   UNL     1      30.791  -7.065  12.088  1.00  0.00    -0.000 C 
BRANCH  12  13
ATOM     13  C   UNL     1      31.374  -6.053  11.079  1.00  0.00    -0.000 C 
BRANCH  13  14
ATOM     14  C   UNL     1      32.618  -5.334  11.633  1.00  0.00    -0.000 C 
BRANCH  14  15
ATOM     15  C   UNL     1      33.782  -5.300  10.628  1.00  0.00    -0.000 C 
BRANCH  15  16
ATOM     16  C   UNL     1      34.957  -6.195  11.055  1.00  0.00    -0.000 C 
BRANCH  16  17
ATOM     17  C   UNL     1      34.697  -7.683  10.770  1.00  0.00    -0.003 C 
ATOM     18  C   UNL     1      34.167  -7.933   9.358  1.00  0.00     0.004 C 
ENDBRANCH  16  17
ENDBRANCH  15  16
ENDBRANCH  14  15
ENDBRANCH  13  14
ENDBRANCH  12  13
ENDBRANCH  11  12
ENDBRANCH   1  11
TORSDOF 14
ENDMDL
MODEL 4
REMARK VINA RESULT:    -4.762      3.644      7.585
REMARK INTER + INTRA:         -10.220
REMARK INTER:                  -8.468
REMARK INTRA:                  -1.751
REMARK UNBOUND:                -1.560
REMARK SMILES CCCCCCCCCCCCCCCC(=O)[O-]
REMARK SMILES IDX 9 1 10 2 11 3 12 4 13 5 14 6 15 7 16 8 17 9 18 10 8 11 7 12
REMARK SMILES IDX 6 13 5 14 4 15 3 16 2 17 1 18
REMARK H PARENT
REMARK Flexibility Score: inf
ROOT
ATOM      1  C   UNL     1      32.353 -10.493  14.032  1.00  0.00     0.000 C 
ENDROOT
BRANCH   1   2
ATOM      2  C   UNL     1      31.019 -10.745  14.752  1.00  0.00     0.000 C 
BRANCH   2   3
ATOM      3  C   UNL     1      30.782  -9.762  15.912  1.00  0.00     0.000 C 
BRANCH   3   4
ATOM      4  C   UNL     1      29.288  -9.493  16.174  1.00  0.00     0.000 C 
BRANCH   4   5
ATOM      5  C   UNL     1      28.413  -9.364  14.913  1.00  0.00     0.000 C 
BRANCH   5   6
ATOM      6  C   UNL     1      27.265 -10.386  14.872  1.00  0.00     0.006 C 
BRANCH   6   7
ATOM      7  C   UNL     1      27.534 -11.519  13.871  1.00  0.00     0.053 C 
BRANCH   7   8
ATOM      8  C   UNL     1      27.685 -12.844  14.556  1.00  0.00     0.041 C 
ATOM      9  O   UNL     1      27.703 -12.909  15.813  1.00  0.00    -0.550 OA
ATOM     10  O   UNL     1      27.776 -14.010  13.805  1.00  0.00    -0.550 OA
ENDBRANCH   7   8
ENDBRANCH   6   7
ENDBRANCH   5   6
ENDBRANCH   4   5
ENDBRANCH   3   4
ENDBRANCH   2   3
ENDBRANCH   1   2
BRANCH   1  11
ATOM     11  C   UNL     1      32.491  -9.048  13.524  1.00  0.00     0.000 C 
BRANCH  11  12
ATOM     12  C   UNL     1      31.521  -8.725  12.375  1.00  0.00    -0.000 C 
BRANCH  12  13
ATOM     13  C   UNL     1      30.610  -7.511  12.660  1.00  0.00    -0.000 C 
BRANCH  13  14
ATOM     14  C   UNL     1      30.720  -6.434  11.566  1.00  0.00    -0.000 C 
BRANCH  14  15
ATOM     15  C   UNL     1      31.418  -6.946  10.295  1.00  0.00    -0.000 C 
BRANCH  15  16
ATOM     16  C   UNL     1      32.493  -5.975   9.778  1.00  0.00    -0.000 C 
BRANCH  16  17
ATOM     17  C   UNL     1      33.320  -5.355  10.915  1.00  0.00    -0.003 C 
ATOM     18  C   UNL     1      34.466  -6.257  11.376  1.00  0.00     0.004 C 
ENDBRANCH  16  17
ENDBRANCH  15  16
ENDBRANCH  14  15
ENDBRANCH  13  14
ENDBRANCH  12  13
ENDBRANCH  11  12
ENDBRANCH   1  11
TORSDOF 14
ENDMDL
MODEL 5
REMARK VINA RESULT:    -4.738      1.433      2.384
REMARK INTER + INTRA:         -10.176
REMARK INTER:                  -8.484
REMARK INTRA:                  -1.691
REMARK UNBOUND:                -1.560
REMARK SMILES CCCCCCCCCCCCCCCC(=O)[O-]
REMARK SMILES IDX 9 1 10 2 11 3 12 4 13 5 14 6 15 7 16 8 17 9 18 10 8 11 7 12
REMARK SMILES IDX 6 13 5 14 4 15 3 16 2 17 1 18
REMARK H PARENT
REMARK Flexibility Score: inf
ROOT
ATOM      1  C   UNL     1      31.341  -9.532  12.064  1.00  0.00     0.000 C 
ENDROOT
BRANCH   1   2
ATOM      2  C   UNL     1      31.644  -8.142  12.647  1.00  0.00     0.000 C 
BRANCH   2   3
ATOM      3  C   UNL     1      30.638  -7.076  12.178  1.00  0.00     0.000 C 
BRANCH   3   4
ATOM      4  C   UNL     1      31.267  -6.031  11.239  1.00  0.00     0.000 C 
BRANCH   4   5
ATOM      5  C   UNL     1      32.582  -5.405  11.740  1.00  0.00     0.000 C 
BRANCH   5   6
ATOM      6  C   UNL     1      33.657  -5.308  10.643  1.00  0.00     0.006 C 
BRANCH   6   7
ATOM      7  C   UNL     1      34.787  -6.326  10.848  1.00  0.00     0.053 C 
BRANCH   7   8
ATOM      8  C   UNL     1      34.457  -7.655  10.239  1.00  0.00     0.041 C 
ATOM      9  O   UNL     1      34.937  -8.712  10.726  1.00  0.00    -0.550 OA
ATOM     10  O   UNL     1      33.597  -7.729   9.150  1.00  0.00    -0.550 OA
ENDBRANCH   7   8
ENDBRANCH   6   7
ENDBRANCH   5   6
ENDBRANCH   4   5
ENDBRANCH   3   4
ENDBRANCH   2   3
ENDBRANCH   1   2
BRANCH   1  11
ATOM     11  C   UNL     1      30.450 -10.381  12.985  1.00  0.00     0.000 C 
BRANCH  11  12
ATOM     12  C   UNL     1      30.958 -10.421  14.437  1.00  0.00    -0.000 C 
BRANCH  12  13
ATOM     13  C   UNL     1      29.919  -9.930  15.468  1.00  0.00    -0.000 C 
BRANCH  13  14
ATOM     14  C   UNL     1      28.635  -9.411  14.796  1.00  0.00    -0.000 C 
BRANCH  14  15
ATOM     15  C   UNL     1      27.392 -10.235  15.173  1.00  0.00    -0.000 C 
BRANCH  15  16
ATOM     16  C   UNL     1      26.951 -11.188  14.050  1.00  0.00    -0.000 C 
BRANCH  16  17
ATOM     17  C   UNL     1      27.340 -12.648  14.331  1.00  0.00    -0.003 C 
ATOM     18  C   UNL     1      27.473 -12.950  15.824  1.00  0.00     0.004 C 
ENDBRANCH  16  17
ENDBRANCH  15  16
ENDBRANCH  14  15
ENDBRANCH  13  14
ENDBRANCH  12  13
ENDBRANCH  11  12
ENDBRANCH   1  11
TORSDOF 14
ENDMDL
MODEL 6
REMARK VINA RESULT:    -4.679      3.690      8.288
REMARK INTER + INTRA:         -10.068
REMARK INTER:                  -8.393
REMARK INTRA:                  -1.675
REMARK UNBOUND:                -1.560
REMARK SMILES CCCCCCCCCCCCCCCC(=O)[O-]
REMARK SMILES IDX 9 1 10 2 11 3 12 4 13 5 14 6 15 7 16 8 17 9 18 10 8 11 7 12
REMARK SMILES IDX 6 13 5 14 4 15 3 16 2 17 1 18
REMARK H PARENT
REMARK Flexibility Score: inf
ROOT
ATOM      1  C   UNL     1      30.636  -6.833  11.759  1.00  0.00     0.000 C 
ENDROOT
BRANCH   1   2
ATOM      2  C   UNL     1      31.511  -8.087  11.597  1.00  0.00     0.000 C 
BRANCH   2   3
ATOM      3  C   UNL     1      31.153  -9.188  12.610  1.00  0.00     0.000 C 
BRANCH   3   4
ATOM      4  C   UNL     1      30.242  -8.685  13.745  1.00  0.00     0.000 C 
BRANCH   4   5
ATOM      5  C   UNL     1      29.535  -9.787  14.556  1.00  0.00     0.000 C 
BRANCH   5   6
ATOM      6  C   UNL     1      29.023 -10.943  13.679  1.00  0.00     0.006 C 
BRANCH   6   7
ATOM      7  C   UNL     1      27.582 -11.340  14.028  1.00  0.00     0.053 C 
BRANCH   7   8
ATOM      8  C   UNL     1      27.508 -12.716  14.616  1.00  0.00     0.041 C 
ATOM      9  O   UNL     1      26.986 -12.895  15.747  1.00  0.00    -0.550 OA
ATOM     10  O   UNL     1      27.990 -13.806  13.901  1.00  0.00    -0.550 OA
ENDBRANCH   7   8
ENDBRANCH   6   7
ENDBRANCH   5   6
ENDBRANCH   4   5
ENDBRANCH   3   4
ENDBRANCH   2   3
ENDBRANCH   1   2
BRANCH   1  11
ATOM     11  C   UNL     1      31.377  -5.539  11.382  1.00  0.00     0.000 C 
BRANCH  11  12
ATOM     12  C   UNL     1      32.858  -5.556  11.799  1.00  0.00    -0.000 C 
BRANCH  12  13
ATOM     13  C   UNL     1      33.830  -5.270  10.635  1.00  0.00    -0.000 C 
BRANCH  13  14
ATOM     14  C   UNL     1      34.828  -6.421  10.417  1.00  0.00    -0.000 C 
BRANCH  14  15
ATOM     15  C   UNL     1      34.365  -7.414   9.337  1.00  0.00    -0.000 C 
BRANCH  15  16
ATOM     16  C   UNL     1      33.578  -6.732   8.205  1.00  0.00    -0.000 C 
BRANCH  16  17
ATOM     17  C   UNL     1      32.311  -7.512   7.818  1.00  0.00    -0.003 C 
ATOM     18  C   UNL     1      31.044  -6.658   7.888  1.00  0.00     0.004 C 
ENDBRANCH  16  17
ENDBRANCH  15  16
ENDBRANCH  14  15
ENDBRANCH  13  14
ENDBRANCH  12  13
ENDBRANCH  11  12
ENDBRANCH   1  11
TORSDOF 14
ENDMDL
MODEL 7
REMARK VINA RESULT:    -4.671      3.385      7.818
REMARK INTER + INTRA:         -10.055
REMARK INTER:                  -8.236
REMARK INTRA:                  -1.819
REMARK UNBOUND:                -1.560
REMARK SMILES CCCCCCCCCCCCCCCC(=O)[O-]
REMARK SMILES IDX 9 1 10 2 11 3 12 4 13 5 14 6 15 7 16 8 17 9 18 10 8 11 7 12
REMARK SMILES IDX 6 13 5 14 4 15 3 16 2 17 1 18
REMARK H PARENT
REMARK Flexibility Score: inf
ROOT
ATOM      1  C   UNL     1      30.467  -6.896  12.103  1.00  0.00     0.000 C 
ENDROOT
BRANCH   1   2
ATOM      2  C   UNL     1      30.621  -7.997  13.163  1.00  0.00     0.000 C 
BRANCH   2   3
ATOM      3  C   UNL     1      30.880  -9.381  12.542  1.00  0.00     0.000 C 
BRANCH   3   4
ATOM      4  C   UNL     1      30.542 -10.540  13.497  1.00  0.00     0.000 C 
BRANCH   4   5
ATOM      5  C   UNL     1      29.049 -10.909  13.579  1.00  0.00     0.000 C 
BRANCH   5   6
ATOM      6  C   UNL     1      28.368 -10.374  14.851  1.00  0.00     0.006 C 
BRANCH   6   7
ATOM      7  C   UNL     1      29.025 -10.913  16.129  1.00  0.00     0.053 C 
BRANCH   7   8
ATOM      8  C   UNL     1      28.830 -12.391  16.277  1.00  0.00     0.041 C 
ATOM      9  O   UNL     1      29.825 -13.150  16.422  1.00  0.00    -0.550 OA
ATOM     10  O   UNL     1      27.549 -12.929  16.283  1.00  0.00    -0.550 OA
ENDBRANCH   7   8
ENDBRANCH   6   7
ENDBRANCH   5   6
ENDBRANCH   4   5
ENDBRANCH   3   4
ENDBRANCH   2   3
ENDBRANCH   1   2
BRANCH   1  11
ATOM     11  C   UNL     1      31.012  -7.315  10.727  1.00  0.00     0.000 C 
BRANCH  11  12
ATOM     12  C   UNL     1      31.979  -6.279  10.128  1.00  0.00    -0.000 C 
BRANCH  12  13
ATOM     13  C   UNL     1      32.484  -5.241  11.154  1.00  0.00    -0.000 C 
BRANCH  13  14
ATOM     14  C   UNL     1      33.996  -4.983  11.021  1.00  0.00    -0.000 C 
BRANCH  14  15
ATOM     15  C   UNL     1      34.775  -6.229  10.568  1.00  0.00    -0.000 C 
BRANCH  15  16
ATOM     16  C   UNL     1      35.357  -7.024  11.748  1.00  0.00    -0.000 C 
BRANCH  16  17
ATOM     17  C   UNL     1      34.486  -8.232  12.131  1.00  0.00    -0.003 C 
ATOM     18  C   UNL     1      34.250  -9.187  10.960  1.00  0.00     0.004 C 
ENDBRANCH  16  17
ENDBRANCH  15  16
ENDBRANCH  14  15
ENDBRANCH  13  14
ENDBRANCH  12  13
ENDBRANCH  11  12
ENDBRANCH   1  11
TORSDOF 14
ENDMDL
MODEL 8
REMARK VINA RESULT:    -4.639      1.617      2.563
REMARK INTER + INTRA:          -9.996
REMARK INTER:                  -8.506
REMARK INTRA:                  -1.490
REMARK UNBOUND:                -1.560
REMARK SMILES CCCCCCCCCCCCCCCC(=O)[O-]
REMARK SMILES IDX 9 1 10 2 11 3 12 4 13 5 14 6 15 7 16 8 17 9 18 10 8 11 7 12
REMARK SMILES IDX 6 13 5 14 4 15 3 16 2 17 1 18
REMARK H PARENT
REMARK Flexibility Score: inf
ROOT
ATOM      1  C   UNL     1      30.021  -9.589  16.550  1.00  0.00     0.000 C 
ENDROOT
BRANCH   1   2
ATOM      2  C   UNL     1      31.125  -9.282  15.526  1.00  0.00     0.000 C 
BRANCH   2   3
ATOM      3  C   UNL     1      31.123 -10.269  14.345  1.00  0.00     0.000 C 
BRANCH   3   4
ATOM      4  C   UNL     1      30.713  -9.610  13.015  1.00  0.00     0.000 C 
BRANCH   4   5
ATOM      5  C   UNL     1      30.619  -8.073  13.045  1.00  0.00     0.000 C 
BRANCH   5   6
ATOM      6  C   UNL     1      31.709  -7.389  12.202  1.00  0.00     0.006 C 
BRANCH   6   7
ATOM      7  C   UNL     1      31.247  -7.124  10.762  1.00  0.00     0.053 C 
BRANCH   7   8
ATOM      8  C   UNL     1      32.169  -6.187  10.043  1.00  0.00     0.041 C 
ATOM      9  O   UNL     1      33.053  -5.556  10.679  1.00  0.00    -0.550 OA
ATOM     10  O   UNL     1      32.070  -6.032   8.666  1.00  0.00    -0.550 OA
ENDBRANCH   7   8
ENDBRANCH   6   7
ENDBRANCH   5   6
ENDBRANCH   4   5
ENDBRANCH   3   4
ENDBRANCH   2   3
ENDBRANCH   1   2
BRANCH   1  11
ATOM     11  C   UNL     1      28.652  -9.024  16.135  1.00  0.00     0.000 C 
BRANCH  11  12
ATOM     12  C   UNL     1      27.625 -10.123  15.815  1.00  0.00    -0.000 C 
BRANCH  12  13
ATOM     13  C   UNL     1      27.599 -10.528  14.325  1.00  0.00    -0.000 C 
BRANCH  13  14
ATOM     14  C   UNL     1      26.875 -11.868  14.101  1.00  0.00    -0.000 C 
BRANCH  14  15
ATOM     15  C   UNL     1      27.839 -13.013  13.747  1.00  0.00    -0.000 C 
BRANCH  15  16
ATOM     16  C   UNL     1      27.576 -14.284  14.572  1.00  0.00    -0.000 C 
BRANCH  16  17
ATOM     17  C   UNL     1      28.740 -14.624  15.516  1.00  0.00    -0.003 C 
ATOM     18  C   UNL     1      29.359 -13.386  16.165  1.00  0.00     0.004 C 
ENDBRANCH  16  17
ENDBRANCH  15  16
ENDBRANCH  14  15
ENDBRANCH  13  14
ENDBRANCH  12  13
ENDBRANCH  11  12
ENDBRANCH   1  11
TORSDOF 14
ENDMDL
MODEL 9
REMARK VINA RESULT:    -4.618      3.144      7.458
REMARK INTER + INTRA:          -9.958
REMARK INTER:                  -7.399
REMARK INTRA:                  -2.559
REMARK UNBOUND:                -1.560
REMARK SMILES CCCCCCCCCCCCCCCC(=O)[O-]
REMARK SMILES IDX 9 1 10 2 11 3 12 4 13 5 14 6 15 7 16 8 17 9 18 10 8 11 7 12
REMARK SMILES IDX 6 13 5 14 4 15 3 16 2 17 1 18
REMARK H PARENT
REMARK Flexibility Score: inf
ROOT
ATOM      1  C   UNL     1      32.984  -5.799  11.757  1.00  0.00     0.000 C 
ENDROOT
BRANCH   1   2
ATOM      2  C   UNL     1      31.549  -5.533  11.272  1.00  0.00     0.000 C 
BRANCH   2   3
ATOM      3  C   UNL     1      30.614  -6.730  11.518  1.00  0.00     0.000 C 
BRANCH   3   4
ATOM      4  C   UNL     1      31.217  -7.775  12.474  1.00  0.00     0.000 C 
BRANCH   4   5
ATOM      5  C   UNL     1      30.971  -9.244  12.081  1.00  0.00     0.000 C 
BRANCH   5   6
ATOM      6  C   UNL     1      31.073 -10.210  13.274  1.00  0.00     0.006 C 
BRANCH   6   7
ATOM      7  C   UNL     1      29.723 -10.856  13.613  1.00  0.00     0.053 C 
BRANCH   7   8
ATOM      8  C   UNL     1      29.002 -10.108  14.693  1.00  0.00     0.041 C 
ATOM      9  O   UNL     1      27.755  -9.947  14.628  1.00  0.00    -0.550 OA
ATOM     10  O   UNL     1      29.703  -9.614  15.786  1.00  0.00    -0.550 OA
ENDBRANCH   7   8
ENDBRANCH   6   7
ENDBRANCH   5   6
ENDBRANCH   4   5
ENDBRANCH   3   4
ENDBRANCH   2   3
ENDBRANCH   1   2
BRANCH   1  11
ATOM     11  C   UNL     1      34.048  -5.306  10.762  1.00  0.00     0.000 C 
BRANCH  11  12
ATOM     12  C   UNL     1      34.874  -6.454  10.156  1.00  0.00    -0.000 C 
BRANCH  12  13
ATOM     13  C   UNL     1      34.714  -7.793  10.907  1.00  0.00    -0.000 C 
BRANCH  13  14
ATOM     14  C   UNL     1      34.105  -8.890  10.016  1.00  0.00    -0.000 C 
BRANCH  14  15
ATOM     15  C   UNL     1      33.492  -8.331   8.721  1.00  0.00    -0.000 C 
BRANCH  15  16
ATOM     16  C   UNL     1      31.974  -8.563   8.636  1.00  0.00    -0.000 C 
BRANCH  16  17
ATOM     17  C   UNL     1      31.241  -7.411   7.931  1.00  0.00    -0.003 C 
ATOM     18  C   UNL     1      32.155  -6.221   7.632  1.00  0.00     0.004 C 
ENDBRANCH  16  17
ENDBRANCH  15  16
ENDBRANCH  14  15
ENDBRANCH  13  14
ENDBRANCH  12  13
ENDBRANCH  11  12
ENDBRANCH   1  11
TORSDOF 14
ENDMDL
