MODEL 1
REMARK VINA RESULT:    -6.683      0.000      0.000
REMARK INTER + INTRA:         -11.265
REMARK INTER:                  -9.222
REMARK INTRA:                  -2.043
REMARK UNBOUND:                -2.043
REMARK SMILES CC[C@H](CC[C@H](C)[C@H]1CC[C@@H]2[C@@H]3CC=C4C[C@H](O)CC[C@@]4(C)[C@@H]3CC[C@]21C)C(C)C
REMARK SMILES IDX 5 1 4 2 3 3 2 4 1 5 28 6 29 7 30 8 6 9 7 10 8 11 9 12 26 13
REMARK SMILES IDX 10 14 11 15 25 16 27 17 12 18 24 19 23 20 13 21 21 22 14 23
REMARK SMILES IDX 15 24 20 25 22 26 16 27 19 28 17 29 18 30
REMARK H PARENT 18 31
REMARK Flexibility Score: inf
ROOT
ATOM      1  C   UNL     1     187.267 191.486 187.961  1.00  0.00     0.004 C 
ENDROOT
BRANCH   1   2
ATOM      2  C   UNL     1     187.651 191.187 186.492  1.00  0.00     0.004 C 
BRANCH   2   3
ATOM      3  C   UNL     1     188.496 189.892 186.326  1.00  0.00    -0.009 C 
BRANCH   3   4
ATOM      4  C   UNL     1     188.727 189.258 187.730  1.00  0.00     0.000 C 
ATOM      5  C   UNL     1     188.896 187.739 187.716  1.00  0.00     0.004 C 
ENDBRANCH   3   4
BRANCH   3   6
ATOM      6  C   UNL     1     187.864 188.929 185.256  1.00  0.00    -0.014 C 
ATOM      7  C   UNL     1     188.852 188.449 184.180  1.00  0.00     0.007 C 
ATOM      8  C   UNL     1     186.595 189.510 184.613  1.00  0.00     0.007 C 
ENDBRANCH   3   6
ENDBRANCH   2   3
ENDBRANCH   1   2
BRANCH   1   9
ATOM      9  C   UNL     1     185.920 192.255 188.086  1.00  0.00    -0.011 C 
ATOM     10  C   UNL     1     186.097 193.440 189.063  1.00  0.00     0.008 C 
BRANCH   9  11
ATOM     11  C   UNL     1     184.742 191.265 188.430  1.00  0.00    -0.002 C 
ATOM     12  C   UNL     1     184.166 190.486 187.209  1.00  0.00     0.005 C 
ATOM     13  C   UNL     1     184.990 190.166 189.522  1.00  0.00    -0.026 C 
ATOM     14  C   UNL     1     184.330 188.984 187.493  1.00  0.00     0.005 C 
ATOM     15  C   UNL     1     185.303 188.935 188.658  1.00  0.00    -0.001 C 
ATOM     16  C   UNL     1     186.166 190.365 190.505  1.00  0.00     0.007 C 
ATOM     17  C   UNL     1     183.671 190.053 190.351  1.00  0.00     0.012 C 
ATOM     18  C   UNL     1     185.528 187.602 189.414  1.00  0.00     0.000 C 
ATOM     19  C   UNL     1     186.421 189.094 191.350  1.00  0.00     0.005 C 
ATOM     20  C   UNL     1     186.632 187.791 190.504  1.00  0.00     0.003 C 
ATOM     21  C   UNL     1     184.241 186.889 189.899  1.00  0.00     0.031 C 
ATOM     22  C   UNL     1     186.829 186.492 191.380  1.00  0.00    -0.008 C 
ATOM     23  C   UNL     1     184.335 186.217 191.243  1.00  0.00    -0.027 C 
ATOM     24  C   UNL     1     185.493 185.966 191.889  1.00  0.00    -0.065 C 
ATOM     25  C   UNL     1     187.459 185.333 190.545  1.00  0.00     0.014 C 
ATOM     26  C   UNL     1     187.777 186.817 192.572  1.00  0.00     0.016 C 
ATOM     27  C   UNL     1     185.550 184.735 192.765  1.00  0.00     0.063 C 
ATOM     28  C   UNL     1     187.513 183.982 191.305  1.00  0.00     0.033 C 
ATOM     29  C   UNL     1     186.155 183.586 191.933  1.00  0.00     0.118 C 
BRANCH  29  30
ATOM     30  O   UNL     1     186.337 182.452 192.738  1.00  0.00    -0.393 OA
ATOM     31  H   UNL     1     185.580 181.839 192.545  1.00  0.00     0.210 HD
ENDBRANCH  29  30
ENDBRANCH   9  11
ENDBRANCH   1   9
TORSDOF 7
ENDMDL
MODEL 2
REMARK VINA RESULT:    -6.664      1.622      3.743
REMARK INTER + INTRA:         -11.239
REMARK INTER:                  -9.355
REMARK INTRA:                  -1.884
REMARK UNBOUND:                -2.043
REMARK SMILES CC[C@H](CC[C@H](C)[C@H]1CC[C@@H]2[C@@H]3CC=C4C[C@H](O)CC[C@@]4(C)[C@@H]3CC[C@]21C)C(C)C
REMARK SMILES IDX 5 1 4 2 3 3 2 4 1 5 28 6 29 7 30 8 6 9 7 10 8 11 9 12 26 13
REMARK SMILES IDX 10 14 11 15 25 16 27 17 12 18 24 19 23 20 13 21 21 22 14 23
REMARK SMILES IDX 15 24 20 25 22 26 16 27 19 28 17 29 18 30
REMARK H PARENT 18 31
REMARK Flexibility Score: inf
ROOT
ATOM      1  C   UNL     1     184.250 190.933 188.445  1.00  0.00     0.004 C 
ENDROOT
BRANCH   1   2
ATOM      2  C   UNL     1     185.180 191.656 187.441  1.00  0.00     0.004 C 
BRANCH   2   3
ATOM      3  C   UNL     1     186.280 192.516 188.126  1.00  0.00    -0.009 C 
BRANCH   3   4
ATOM      4  C   UNL     1     185.727 193.054 189.479  1.00  0.00     0.000 C 
ATOM      5  C   UNL     1     186.125 194.497 189.794  1.00  0.00     0.004 C 
ENDBRANCH   3   4
BRANCH   3   6
ATOM      6  C   UNL     1     187.639 191.734 188.225  1.00  0.00    -0.014 C 
ATOM      7  C   UNL     1     187.805 190.622 187.176  1.00  0.00     0.007 C 
ATOM      8  C   UNL     1     187.911 191.195 189.639  1.00  0.00     0.007 C 
ENDBRANCH   3   6
ENDBRANCH   2   3
ENDBRANCH   1   2
BRANCH   1   9
ATOM      9  C   UNL     1     184.700 189.473 188.738  1.00  0.00    -0.011 C 
ATOM     10  C   UNL     1     183.875 188.499 187.866  1.00  0.00     0.008 C 
BRANCH   9  11
ATOM     11  C   UNL     1     184.674 189.181 190.287  1.00  0.00    -0.002 C 
ATOM     12  C   UNL     1     183.278 188.778 190.853  1.00  0.00     0.005 C 
ATOM     13  C   UNL     1     185.660 188.102 190.857  1.00  0.00    -0.026 C 
ATOM     14  C   UNL     1     183.417 187.386 191.491  1.00  0.00     0.005 C 
ATOM     15  C   UNL     1     184.746 186.872 190.967  1.00  0.00    -0.001 C 
ATOM     16  C   UNL     1     186.884 187.706 190.000  1.00  0.00     0.007 C 
ATOM     17  C   UNL     1     186.176 188.645 192.227  1.00  0.00     0.012 C 
ATOM     18  C   UNL     1     185.375 185.599 191.586  1.00  0.00     0.000 C 
ATOM     19  C   UNL     1     187.613 186.472 190.585  1.00  0.00     0.005 C 
ATOM     20  C   UNL     1     186.686 185.230 190.820  1.00  0.00     0.003 C 
ATOM     21  C   UNL     1     185.495 185.602 193.130  1.00  0.00     0.031 C 
ATOM     22  C   UNL     1     187.429 184.000 191.476  1.00  0.00    -0.008 C 
ATOM     23  C   UNL     1     186.743 184.972 193.689  1.00  0.00    -0.027 C 
ATOM     24  C   UNL     1     187.583 184.191 192.979  1.00  0.00    -0.065 C 
ATOM     25  C   UNL     1     186.618 182.680 191.289  1.00  0.00     0.014 C 
ATOM     26  C   UNL     1     188.823 183.826 190.802  1.00  0.00     0.016 C 
ATOM     27  C   UNL     1     188.306 183.089 193.721  1.00  0.00     0.063 C 
ATOM     28  C   UNL     1     187.212 181.475 192.062  1.00  0.00     0.033 C 
ATOM     29  C   UNL     1     187.492 181.789 193.551  1.00  0.00     0.118 C 
BRANCH  29  30
ATOM     30  O   UNL     1     188.183 180.712 194.125  1.00  0.00    -0.393 OA
ATOM     31  H   UNL     1     188.881 180.439 193.472  1.00  0.00     0.210 HD
ENDBRANCH  29  30
ENDBRANCH   9  11
ENDBRANCH   1   9
TORSDOF 7
ENDMDL
MODEL 3
REMARK VINA RESULT:    -6.637      3.572      7.933
REMARK INTER + INTRA:         -11.202
REMARK INTER:                 -10.250
REMARK INTRA:                  -0.952
REMARK UNBOUND:                -2.043
REMARK SMILES CC[C@H](CC[C@H](C)[C@H]1CC[C@@H]2[C@@H]3CC=C4C[C@H](O)CC[C@@]4(C)[C@@H]3CC[C@]21C)C(C)C
REMARK SMILES IDX 5 1 4 2 3 3 2 4 1 5 28 6 29 7 30 8 6 9 7 10 8 11 9 12 26 13
REMARK SMILES IDX 10 14 11 15 25 16 27 17 12 18 24 19 23 20 13 21 21 22 14 23
REMARK SMILES IDX 15 24 20 25 22 26 16 27 19 28 17 29 18 30
REMARK H PARENT 18 31
REMARK Flexibility Score: inf
ROOT
ATOM      1  C   UNL     1     185.340 184.612 191.547  1.00  0.00     0.004 C 
ENDROOT
BRANCH   1   2
ATOM      2  C   UNL     1     186.436 183.570 191.875  1.00  0.00     0.004 C 
BRANCH   2   3
ATOM      3  C   UNL     1     185.985 182.101 191.632  1.00  0.00    -0.009 C 
BRANCH   3   4
ATOM      4  C   UNL     1     187.059 181.382 190.764  1.00  0.00     0.000 C 
ATOM      5  C   UNL     1     188.428 182.064 190.762  1.00  0.00     0.004 C 
ENDBRANCH   3   4
BRANCH   3   6
ATOM      6  C   UNL     1     185.629 181.381 192.983  1.00  0.00    -0.014 C 
ATOM      7  C   UNL     1     186.101 182.130 194.240  1.00  0.00     0.007 C 
ATOM      8  C   UNL     1     186.093 179.916 193.014  1.00  0.00     0.007 C 
ENDBRANCH   3   6
ENDBRANCH   2   3
ENDBRANCH   1   2
BRANCH   1   9
ATOM      9  C   UNL     1     185.848 186.077 191.665  1.00  0.00    -0.011 C 
ATOM     10  C   UNL     1     185.832 186.506 193.149  1.00  0.00     0.008 C 
BRANCH   9  11
ATOM     11  C   UNL     1     185.059 187.022 190.679  1.00  0.00    -0.002 C 
ATOM     12  C   UNL     1     183.606 187.367 191.127  1.00  0.00     0.005 C 
ATOM     13  C   UNL     1     185.698 188.405 190.305  1.00  0.00    -0.026 C 
ATOM     14  C   UNL     1     183.508 188.896 191.260  1.00  0.00     0.005 C 
ATOM     15  C   UNL     1     184.954 189.358 191.253  1.00  0.00    -0.001 C 
ATOM     16  C   UNL     1     187.214 188.596 190.537  1.00  0.00     0.007 C 
ATOM     17  C   UNL     1     185.401 188.642 188.790  1.00  0.00     0.012 C 
ATOM     18  C   UNL     1     185.277 190.866 191.107  1.00  0.00     0.000 C 
ATOM     19  C   UNL     1     187.637 190.073 190.349  1.00  0.00     0.005 C 
ATOM     20  C   UNL     1     186.820 191.091 191.217  1.00  0.00     0.003 C 
ATOM     21  C   UNL     1     184.593 191.578 189.913  1.00  0.00     0.031 C 
ATOM     22  C   UNL     1     187.218 192.599 190.969  1.00  0.00    -0.008 C 
ATOM     23  C   UNL     1     185.427 192.614 189.206  1.00  0.00    -0.027 C 
ATOM     24  C   UNL     1     186.569 193.135 189.699  1.00  0.00    -0.065 C 
ATOM     25  C   UNL     1     186.720 193.517 192.129  1.00  0.00     0.014 C 
ATOM     26  C   UNL     1     188.769 192.710 190.878  1.00  0.00     0.016 C 
ATOM     27  C   UNL     1     186.896 194.566 189.336  1.00  0.00     0.063 C 
ATOM     28  C   UNL     1     186.929 195.029 191.853  1.00  0.00     0.033 C 
ATOM     29  C   UNL     1     186.386 195.473 190.474  1.00  0.00     0.118 C 
BRANCH  29  30
ATOM     30  O   UNL     1     186.770 196.802 190.238  1.00  0.00    -0.393 OA
ATOM     31  H   UNL     1     187.610 196.768 189.709  1.00  0.00     0.210 HD
ENDBRANCH  29  30
ENDBRANCH   9  11
ENDBRANCH   1   9
TORSDOF 7
ENDMDL
MODEL 4
REMARK VINA RESULT:    -6.596      4.203      8.219
REMARK INTER + INTRA:         -11.144
REMARK INTER:                  -9.256
REMARK INTRA:                  -1.888
REMARK UNBOUND:                -2.043
REMARK SMILES CC[C@H](CC[C@H](C)[C@H]1CC[C@@H]2[C@@H]3CC=C4C[C@H](O)CC[C@@]4(C)[C@@H]3CC[C@]21C)C(C)C
REMARK SMILES IDX 5 1 4 2 3 3 2 4 1 5 28 6 29 7 30 8 6 9 7 10 8 11 9 12 26 13
REMARK SMILES IDX 10 14 11 15 25 16 27 17 12 18 24 19 23 20 13 21 21 22 14 23
REMARK SMILES IDX 15 24 20 25 22 26 16 27 19 28 17 29 18 30
REMARK H PARENT 18 31
REMARK Flexibility Score: inf
ROOT
ATOM      1  C   UNL     1     185.099 189.625 186.959  1.00  0.00     0.004 C 
ENDROOT
BRANCH   1   2
ATOM      2  C   UNL     1     185.316 188.665 188.153  1.00  0.00     0.004 C 
BRANCH   2   3
ATOM      3  C   UNL     1     184.011 188.352 188.939  1.00  0.00    -0.009 C 
BRANCH   3   4
ATOM      4  C   UNL     1     183.418 187.010 188.417  1.00  0.00     0.000 C 
ATOM      5  C   UNL     1     182.632 186.219 189.463  1.00  0.00     0.004 C 
ENDBRANCH   3   4
BRANCH   3   6
ATOM      6  C   UNL     1     184.248 188.417 190.492  1.00  0.00    -0.014 C 
ATOM      7  C   UNL     1     183.887 189.769 191.129  1.00  0.00     0.007 C 
ATOM      8  C   UNL     1     185.669 187.986 190.892  1.00  0.00     0.007 C 
ENDBRANCH   3   6
ENDBRANCH   2   3
ENDBRANCH   1   2
BRANCH   1   9
ATOM      9  C   UNL     1     186.132 190.788 186.927  1.00  0.00    -0.011 C 
ATOM     10  C   UNL     1     186.894 190.759 185.583  1.00  0.00     0.008 C 
BRANCH   9  11
ATOM     11  C   UNL     1     187.037 190.766 188.218  1.00  0.00    -0.002 C 
ATOM     12  C   UNL     1     188.565 190.628 187.943  1.00  0.00     0.005 C 
ATOM     13  C   UNL     1     186.922 191.963 189.227  1.00  0.00    -0.026 C 
ATOM     14  C   UNL     1     189.263 191.855 188.553  1.00  0.00     0.005 C 
ATOM     15  C   UNL     1     188.127 192.826 188.825  1.00  0.00    -0.001 C 
ATOM     16  C   UNL     1     185.660 192.854 189.162  1.00  0.00     0.007 C 
ATOM     17  C   UNL     1     187.016 191.351 190.661  1.00  0.00     0.012 C 
ATOM     18  C   UNL     1     188.387 194.089 189.682  1.00  0.00     0.000 C 
ATOM     19  C   UNL     1     185.810 194.117 190.044  1.00  0.00     0.005 C 
ATOM     20  C   UNL     1     187.094 194.964 189.741  1.00  0.00     0.003 C 
ATOM     21  C   UNL     1     189.071 193.835 191.048  1.00  0.00     0.031 C 
ATOM     22  C   UNL     1     187.267 196.214 190.690  1.00  0.00    -0.008 C 
ATOM     23  C   UNL     1     188.588 194.690 192.189  1.00  0.00    -0.027 C 
ATOM     24  C   UNL     1     187.838 195.802 192.042  1.00  0.00    -0.065 C 
ATOM     25  C   UNL     1     188.273 197.247 190.093  1.00  0.00     0.014 C 
ATOM     26  C   UNL     1     185.887 196.914 190.872  1.00  0.00     0.016 C 
ATOM     27  C   UNL     1     188.026 196.910 193.052  1.00  0.00     0.063 C 
ATOM     28  C   UNL     1     188.614 198.408 191.063  1.00  0.00     0.033 C 
ATOM     29  C   UNL     1     189.035 197.920 192.469  1.00  0.00     0.118 C 
BRANCH  29  30
ATOM     30  O   UNL     1     189.155 199.027 193.321  1.00  0.00    -0.393 OA
ATOM     31  H   UNL     1     189.662 198.721 194.119  1.00  0.00     0.210 HD
ENDBRANCH  29  30
ENDBRANCH   9  11
ENDBRANCH   1   9
TORSDOF 7
ENDMDL
MODEL 5
REMARK VINA RESULT:    -6.517      1.560      3.500
REMARK INTER + INTRA:         -11.036
REMARK INTER:                  -8.885
REMARK INTRA:                  -2.151
REMARK UNBOUND:                -2.043
REMARK SMILES CC[C@H](CC[C@H](C)[C@H]1CC[C@@H]2[C@@H]3CC=C4C[C@H](O)CC[C@@]4(C)[C@@H]3CC[C@]21C)C(C)C
REMARK SMILES IDX 5 1 4 2 3 3 2 4 1 5 28 6 29 7 30 8 6 9 7 10 8 11 9 12 26 13
REMARK SMILES IDX 10 14 11 15 25 16 27 17 12 18 24 19 23 20 13 21 21 22 14 23
REMARK SMILES IDX 15 24 20 25 22 26 16 27 19 28 17 29 18 30
REMARK H PARENT 18 31
REMARK Flexibility Score: inf
ROOT
ATOM      1  C   UNL     1     184.247 190.039 187.134  1.00  0.00     0.004 C 
ENDROOT
BRANCH   1   2
ATOM      2  C   UNL     1     185.528 190.864 186.861  1.00  0.00     0.004 C 
BRANCH   2   3
ATOM      3  C   UNL     1     186.755 189.989 186.475  1.00  0.00    -0.009 C 
BRANCH   3   4
ATOM      4  C   UNL     1     186.886 189.962 184.923  1.00  0.00     0.000 C 
ATOM      5  C   UNL     1     187.727 191.099 184.341  1.00  0.00     0.004 C 
ENDBRANCH   3   4
BRANCH   3   6
ATOM      6  C   UNL     1     188.048 190.446 187.244  1.00  0.00    -0.014 C 
ATOM      7  C   UNL     1     188.942 189.287 187.715  1.00  0.00     0.007 C 
ATOM      8  C   UNL     1     187.739 191.404 188.406  1.00  0.00     0.007 C 
ENDBRANCH   3   6
ENDBRANCH   2   3
ENDBRANCH   1   2
BRANCH   1   9
ATOM      9  C   UNL     1     184.534 188.720 187.906  1.00  0.00    -0.011 C 
ATOM     10  C   UNL     1     183.325 187.768 187.760  1.00  0.00     0.008 C 
BRANCH   9  11
ATOM     11  C   UNL     1     184.979 189.026 189.387  1.00  0.00    -0.002 C 
ATOM     12  C   UNL     1     183.809 189.334 190.370  1.00  0.00     0.005 C 
ATOM     13  C   UNL     1     185.855 187.961 190.135  1.00  0.00    -0.026 C 
ATOM     14  C   UNL     1     183.867 188.299 191.506  1.00  0.00     0.005 C 
ATOM     15  C   UNL     1     184.801 187.225 190.977  1.00  0.00    -0.001 C 
ATOM     16  C   UNL     1     186.604 186.906 189.288  1.00  0.00     0.007 C 
ATOM     17  C   UNL     1     186.909 188.754 190.972  1.00  0.00     0.012 C 
ATOM     18  C   UNL     1     185.327 186.126 191.933  1.00  0.00     0.000 C 
ATOM     19  C   UNL     1     187.217 185.796 190.176  1.00  0.00     0.005 C 
ATOM     20  C   UNL     1     186.192 185.098 191.134  1.00  0.00     0.003 C 
ATOM     21  C   UNL     1     185.965 186.640 193.247  1.00  0.00     0.031 C 
ATOM     22  C   UNL     1     186.843 184.012 192.077  1.00  0.00    -0.008 C 
ATOM     23  C   UNL     1     187.170 185.877 193.730  1.00  0.00    -0.027 C 
ATOM     24  C   UNL     1     187.538 184.664 193.267  1.00  0.00    -0.065 C 
ATOM     25  C   UNL     1     185.764 183.058 192.678  1.00  0.00     0.014 C 
ATOM     26  C   UNL     1     187.856 183.161 191.255  1.00  0.00     0.016 C 
ATOM     27  C   UNL     1     188.226 183.728 194.233  1.00  0.00     0.063 C 
ATOM     28  C   UNL     1     186.324 182.085 193.746  1.00  0.00     0.033 C 
ATOM     29  C   UNL     1     187.154 182.799 194.839  1.00  0.00     0.118 C 
BRANCH  29  30
ATOM     30  O   UNL     1     187.761 181.833 195.657  1.00  0.00    -0.393 OA
ATOM     31  H   UNL     1     187.359 180.958 195.413  1.00  0.00     0.210 HD
ENDBRANCH  29  30
ENDBRANCH   9  11
ENDBRANCH   1   9
TORSDOF 7
ENDMDL
MODEL 6
REMARK VINA RESULT:    -6.463      1.615      3.796
REMARK INTER + INTRA:         -10.962
REMARK INTER:                  -9.211
REMARK INTRA:                  -1.751
REMARK UNBOUND:                -2.043
REMARK SMILES CC[C@H](CC[C@H](C)[C@H]1CC[C@@H]2[C@@H]3CC=C4C[C@H](O)CC[C@@]4(C)[C@@H]3CC[C@]21C)C(C)C
REMARK SMILES IDX 5 1 4 2 3 3 2 4 1 5 28 6 29 7 30 8 6 9 7 10 8 11 9 12 26 13
REMARK SMILES IDX 10 14 11 15 25 16 27 17 12 18 24 19 23 20 13 21 21 22 14 23
REMARK SMILES IDX 15 24 20 25 22 26 16 27 19 28 17 29 18 30
REMARK H PARENT 18 31
REMARK Flexibility Score: inf
ROOT
ATOM      1  C   UNL     1     185.799 193.327 188.310  1.00  0.00     0.004 C 
ENDROOT
BRANCH   1   2
ATOM      2  C   UNL     1     185.720 193.947 189.725  1.00  0.00     0.004 C 
BRANCH   2   3
ATOM      3  C   UNL     1     187.042 194.635 190.173  1.00  0.00    -0.009 C 
BRANCH   3   4
ATOM      4  C   UNL     1     186.756 196.141 190.451  1.00  0.00     0.000 C 
ATOM      5  C   UNL     1     187.645 197.106 189.666  1.00  0.00     0.004 C 
ENDBRANCH   3   4
BRANCH   3   6
ATOM      6  C   UNL     1     187.720 193.856 191.358  1.00  0.00    -0.014 C 
ATOM      7  C   UNL     1     188.823 192.879 190.920  1.00  0.00     0.007 C 
ATOM      8  C   UNL     1     186.698 193.154 192.268  1.00  0.00     0.007 C 
ENDBRANCH   3   6
ENDBRANCH   2   3
ENDBRANCH   1   2
BRANCH   1   9
ATOM      9  C   UNL     1     186.210 191.826 188.333  1.00  0.00    -0.011 C 
ATOM     10  C   UNL     1     186.864 191.455 186.983  1.00  0.00     0.008 C 
BRANCH   9  11
ATOM     11  C   UNL     1     184.994 190.922 188.766  1.00  0.00    -0.002 C 
ATOM     12  C   UNL     1     184.298 190.159 187.599  1.00  0.00     0.005 C 
ATOM     13  C   UNL     1     185.235 189.829 189.866  1.00  0.00    -0.026 C 
ATOM     14  C   UNL     1     184.383 188.654 187.907  1.00  0.00     0.005 C 
ATOM     15  C   UNL     1     185.418 188.564 189.014  1.00  0.00    -0.001 C 
ATOM     16  C   UNL     1     186.478 189.970 190.775  1.00  0.00     0.007 C 
ATOM     17  C   UNL     1     183.964 189.817 190.774  1.00  0.00     0.012 C 
ATOM     18  C   UNL     1     185.602 187.234 189.786  1.00  0.00     0.000 C 
ATOM     19  C   UNL     1     186.702 188.701 191.632  1.00  0.00     0.005 C 
ATOM     20  C   UNL     1     186.779 187.372 190.805  1.00  0.00     0.003 C 
ATOM     21  C   UNL     1     184.304 186.615 190.361  1.00  0.00     0.031 C 
ATOM     22  C   UNL     1     186.944 186.079 191.697  1.00  0.00    -0.008 C 
ATOM     23  C   UNL     1     184.434 185.964 191.712  1.00  0.00    -0.027 C 
ATOM     24  C   UNL     1     185.610 185.650 192.295  1.00  0.00    -0.065 C 
ATOM     25  C   UNL     1     187.449 184.866 190.854  1.00  0.00     0.014 C 
ATOM     26  C   UNL     1     187.980 186.364 192.825  1.00  0.00     0.016 C 
ATOM     27  C   UNL     1     185.641 184.435 193.194  1.00  0.00     0.063 C 
ATOM     28  C   UNL     1     187.462 183.530 191.639  1.00  0.00     0.033 C 
ATOM     29  C   UNL     1     186.121 183.234 192.353  1.00  0.00     0.118 C 
BRANCH  29  30
ATOM     30  O   UNL     1     186.278 182.106 193.173  1.00  0.00    -0.393 OA
ATOM     31  H   UNL     1     187.241 181.863 193.144  1.00  0.00     0.210 HD
ENDBRANCH  29  30
ENDBRANCH   9  11
ENDBRANCH   1   9
TORSDOF 7
ENDMDL
MODEL 7
REMARK VINA RESULT:    -6.421      5.038      8.604
REMARK INTER + INTRA:         -10.904
REMARK INTER:                  -8.478
REMARK INTRA:                  -2.426
REMARK UNBOUND:                -2.043
REMARK SMILES CC[C@H](CC[C@H](C)[C@H]1CC[C@@H]2[C@@H]3CC=C4C[C@H](O)CC[C@@]4(C)[C@@H]3CC[C@]21C)C(C)C
REMARK SMILES IDX 5 1 4 2 3 3 2 4 1 5 28 6 29 7 30 8 6 9 7 10 8 11 9 12 26 13
REMARK SMILES IDX 10 14 11 15 25 16 27 17 12 18 24 19 23 20 13 21 21 22 14 23
REMARK SMILES IDX 15 24 20 25 22 26 16 27 19 28 17 29 18 30
REMARK H PARENT 18 31
REMARK Flexibility Score: inf
ROOT
ATOM      1  C   UNL     1     189.826 197.593 193.799  1.00  0.00     0.004 C 
ENDROOT
BRANCH   1   2
ATOM      2  C   UNL     1     189.026 198.857 193.402  1.00  0.00     0.004 C 
BRANCH   2   3
ATOM      3  C   UNL     1     187.725 199.051 194.232  1.00  0.00    -0.009 C 
BRANCH   3   4
ATOM      4  C   UNL     1     186.562 199.422 193.265  1.00  0.00     0.000 C 
ATOM      5  C   UNL     1     187.017 199.896 191.884  1.00  0.00     0.004 C 
ENDBRANCH   3   4
BRANCH   3   6
ATOM      6  C   UNL     1     187.450 197.815 195.163  1.00  0.00    -0.014 C 
ATOM      7  C   UNL     1     186.148 197.062 194.842  1.00  0.00     0.007 C 
ATOM      8  C   UNL     1     187.522 198.170 196.657  1.00  0.00     0.007 C 
ENDBRANCH   3   6
ENDBRANCH   2   3
ENDBRANCH   1   2
BRANCH   1   9
ATOM      9  C   UNL     1     189.999 196.595 192.619  1.00  0.00    -0.011 C 
ATOM     10  C   UNL     1     191.423 196.734 192.036  1.00  0.00     0.008 C 
BRANCH   9  11
ATOM     11  C   UNL     1     188.824 196.752 191.579  1.00  0.00    -0.002 C 
ATOM     12  C   UNL     1     189.280 197.042 190.117  1.00  0.00     0.005 C 
ATOM     13  C   UNL     1     187.787 195.583 191.446  1.00  0.00    -0.026 C 
ATOM     14  C   UNL     1     188.735 195.915 189.224  1.00  0.00     0.005 C 
ATOM     15  C   UNL     1     188.312 194.839 190.209  1.00  0.00    -0.001 C 
ATOM     16  C   UNL     1     187.685 194.563 192.604  1.00  0.00     0.007 C 
ATOM     17  C   UNL     1     186.385 196.246 191.253  1.00  0.00     0.012 C 
ATOM     18  C   UNL     1     187.467 193.637 189.717  1.00  0.00     0.000 C 
ATOM     19  C   UNL     1     186.803 193.351 192.217  1.00  0.00     0.005 C 
ATOM     20  C   UNL     1     187.240 192.634 190.893  1.00  0.00     0.003 C 
ATOM     21  C   UNL     1     186.197 194.005 188.912  1.00  0.00     0.031 C 
ATOM     22  C   UNL     1     186.293 191.439 190.478  1.00  0.00    -0.008 C 
ATOM     23  C   UNL     1     184.990 193.140 189.165  1.00  0.00    -0.027 C 
ATOM     24  C   UNL     1     185.027 191.952 189.803  1.00  0.00    -0.065 C 
ATOM     25  C   UNL     1     186.985 190.499 189.441  1.00  0.00     0.014 C 
ATOM     26  C   UNL     1     185.937 190.605 191.744  1.00  0.00     0.016 C 
ATOM     27  C   UNL     1     184.025 190.902 189.380  1.00  0.00     0.063 C 
ATOM     28  C   UNL     1     186.041 189.412 188.867  1.00  0.00     0.033 C 
ATOM     29  C   UNL     1     184.705 189.986 188.342  1.00  0.00     0.118 C 
BRANCH  29  30
ATOM     30  O   UNL     1     183.851 188.925 188.005  1.00  0.00    -0.393 OA
ATOM     31  H   UNL     1     183.935 188.249 188.729  1.00  0.00     0.210 HD
ENDBRANCH  29  30
ENDBRANCH   9  11
ENDBRANCH   1   9
TORSDOF 7
ENDMDL
MODEL 8
REMARK VINA RESULT:    -6.390      3.897      7.018
REMARK INTER + INTRA:         -10.861
REMARK INTER:                  -9.185
REMARK INTRA:                  -1.676
REMARK UNBOUND:                -2.043
REMARK SMILES CC[C@H](CC[C@H](C)[C@H]1CC[C@@H]2[C@@H]3CC=C4C[C@H](O)CC[C@@]4(C)[C@@H]3CC[C@]21C)C(C)C
REMARK SMILES IDX 5 1 4 2 3 3 2 4 1 5 28 6 29 7 30 8 6 9 7 10 8 11 9 12 26 13
REMARK SMILES IDX 10 14 11 15 25 16 27 17 12 18 24 19 23 20 13 21 21 22 14 23
REMARK SMILES IDX 15 24 20 25 22 26 16 27 19 28 17 29 18 30
REMARK H PARENT 18 31
REMARK Flexibility Score: inf
ROOT
ATOM      1  C   UNL     1     188.247 196.980 189.856  1.00  0.00     0.004 C 
ENDROOT
BRANCH   1   2
ATOM      2  C   UNL     1     187.855 198.324 190.517  1.00  0.00     0.004 C 
BRANCH   2   3
ATOM      3  C   UNL     1     188.928 198.861 191.507  1.00  0.00    -0.009 C 
BRANCH   3   4
ATOM      4  C   UNL     1     188.278 199.951 192.409  1.00  0.00     0.000 C 
ATOM      5  C   UNL     1     186.750 199.906 192.452  1.00  0.00     0.004 C 
ENDBRANCH   3   4
BRANCH   3   6
ATOM      6  C   UNL     1     189.630 197.687 192.282  1.00  0.00    -0.014 C 
ATOM      7  C   UNL     1     189.237 197.587 193.765  1.00  0.00     0.007 C 
ATOM      8  C   UNL     1     191.159 197.703 192.121  1.00  0.00     0.007 C 
ENDBRANCH   3   6
ENDBRANCH   2   3
ENDBRANCH   1   2
BRANCH   1   9
ATOM      9  C   UNL     1     187.221 195.846 190.144  1.00  0.00    -0.011 C 
ATOM     10  C   UNL     1     186.037 196.422 190.953  1.00  0.00     0.008 C 
BRANCH   9  11
ATOM     11  C   UNL     1     187.936 194.597 190.788  1.00  0.00    -0.002 C 
ATOM     12  C   UNL     1     187.884 194.545 192.345  1.00  0.00     0.005 C 
ATOM     13  C   UNL     1     187.489 193.166 190.327  1.00  0.00    -0.026 C 
ATOM     14  C   UNL     1     187.183 193.236 192.745  1.00  0.00     0.005 C 
ATOM     15  C   UNL     1     186.533 192.759 191.458  1.00  0.00    -0.001 C 
ATOM     16  C   UNL     1     186.723 193.035 188.991  1.00  0.00     0.007 C 
ATOM     17  C   UNL     1     188.786 192.299 190.236  1.00  0.00     0.012 C 
ATOM     18  C   UNL     1     185.943 191.329 191.381  1.00  0.00     0.000 C 
ATOM     19  C   UNL     1     186.149 191.610 188.802  1.00  0.00     0.005 C 
ATOM     20  C   UNL     1     185.258 191.113 189.993  1.00  0.00     0.003 C 
ATOM     21  C   UNL     1     186.896 190.193 191.828  1.00  0.00     0.031 C 
ATOM     22  C   UNL     1     184.731 189.635 189.816  1.00  0.00    -0.008 C 
ATOM     23  C   UNL     1     186.812 188.919 191.030  1.00  0.00    -0.027 C 
ATOM     24  C   UNL     1     185.810 188.621 190.177  1.00  0.00    -0.065 C 
ATOM     25  C   UNL     1     183.528 189.342 190.767  1.00  0.00     0.014 C 
ATOM     26  C   UNL     1     184.262 189.432 188.345  1.00  0.00     0.016 C 
ATOM     27  C   UNL     1     185.435 187.165 190.022  1.00  0.00     0.063 C 
ATOM     28  C   UNL     1     183.084 187.857 190.762  1.00  0.00     0.033 C 
ATOM     29  C   UNL     1     184.258 186.873 190.977  1.00  0.00     0.118 C 
BRANCH  29  30
ATOM     30  O   UNL     1     183.798 185.562 190.785  1.00  0.00    -0.393 OA
ATOM     31  H   UNL     1     182.906 185.505 191.220  1.00  0.00     0.210 HD
ENDBRANCH  29  30
ENDBRANCH   9  11
ENDBRANCH   1   9
TORSDOF 7
ENDMDL
MODEL 9
REMARK VINA RESULT:    -6.247      3.504      6.888
REMARK INTER + INTRA:         -10.663
REMARK INTER:                  -8.471
REMARK INTRA:                  -2.191
REMARK UNBOUND:                -2.043
REMARK SMILES CC[C@H](CC[C@H](C)[C@H]1CC[C@@H]2[C@@H]3CC=C4C[C@H](O)CC[C@@]4(C)[C@@H]3CC[C@]21C)C(C)C
REMARK SMILES IDX 5 1 4 2 3 3 2 4 1 5 28 6 29 7 30 8 6 9 7 10 8 11 9 12 26 13
REMARK SMILES IDX 10 14 11 15 25 16 27 17 12 18 24 19 23 20 13 21 21 22 14 23
REMARK SMILES IDX 15 24 20 25 22 26 16 27 19 28 17 29 18 30
REMARK H PARENT 18 31
REMARK Flexibility Score: inf
ROOT
ATOM      1  C   UNL     1     185.232 191.188 191.405  1.00  0.00     0.004 C 
ENDROOT
BRANCH   1   2
ATOM      2  C   UNL     1     186.749 191.362 191.655  1.00  0.00     0.004 C 
BRANCH   2   3
ATOM      3  C   UNL     1     187.399 192.463 190.771  1.00  0.00    -0.009 C 
BRANCH   3   4
ATOM      4  C   UNL     1     186.872 193.854 191.231  1.00  0.00     0.000 C 
ATOM      5  C   UNL     1     186.277 194.706 190.109  1.00  0.00     0.004 C 
ENDBRANCH   3   4
BRANCH   3   6
ATOM      6  C   UNL     1     188.965 192.321 190.738  1.00  0.00    -0.014 C 
ATOM      7  C   UNL     1     189.634 192.999 189.531  1.00  0.00     0.007 C 
ATOM      8  C   UNL     1     189.430 190.862 190.873  1.00  0.00     0.007 C 
ENDBRANCH   3   6
ENDBRANCH   2   3
ENDBRANCH   1   2
BRANCH   1   9
ATOM      9  C   UNL     1     184.888 189.847 190.696  1.00  0.00    -0.011 C 
ATOM     10  C   UNL     1     185.943 188.783 191.075  1.00  0.00     0.008 C 
BRANCH   9  11
ATOM     11  C   UNL     1     184.678 190.071 189.150  1.00  0.00    -0.002 C 
ATOM     12  C   UNL     1     184.253 191.516 188.750  1.00  0.00     0.005 C 
ATOM     13  C   UNL     1     185.863 189.724 188.181  1.00  0.00    -0.026 C 
ATOM     14  C   UNL     1     185.316 192.067 187.786  1.00  0.00     0.005 C 
ATOM     15  C   UNL     1     186.483 191.108 187.940  1.00  0.00    -0.001 C 
ATOM     16  C   UNL     1     186.980 188.789 188.700  1.00  0.00     0.007 C 
ATOM     17  C   UNL     1     185.228 189.072 186.912  1.00  0.00     0.012 C 
ATOM     18  C   UNL     1     187.664 191.170 186.939  1.00  0.00     0.000 C 
ATOM     19  C   UNL     1     188.180 188.743 187.723  1.00  0.00     0.005 C 
ATOM     20  C   UNL     1     188.770 190.150 187.362  1.00  0.00     0.003 C 
ATOM     21  C   UNL     1     187.267 191.127 185.443  1.00  0.00     0.031 C 
ATOM     22  C   UNL     1     189.953 190.091 186.317  1.00  0.00    -0.008 C 
ATOM     23  C   UNL     1     188.187 190.340 184.546  1.00  0.00    -0.027 C 
ATOM     24  C   UNL     1     189.423 189.929 184.897  1.00  0.00    -0.065 C 
ATOM     25  C   UNL     1     190.780 191.415 186.320  1.00  0.00     0.014 C 
ATOM     26  C   UNL     1     190.902 188.912 186.683  1.00  0.00     0.016 C 
ATOM     27  C   UNL     1     190.463 189.834 183.804  1.00  0.00     0.063 C 
ATOM     28  C   UNL     1     191.843 191.481 185.193  1.00  0.00     0.033 C 
ATOM     29  C   UNL     1     191.267 191.150 183.797  1.00  0.00     0.118 C 
BRANCH  29  30
ATOM     30  O   UNL     1     192.321 191.064 182.875  1.00  0.00    -0.393 OA
ATOM     31  H   UNL     1     191.925 190.767 182.014  1.00  0.00     0.210 HD
ENDBRANCH  29  30
ENDBRANCH   9  11
ENDBRANCH   1   9
TORSDOF 7
ENDMDL
