MODEL 1
REMARK VINA RESULT:    -5.167      0.000      0.000
REMARK INTER + INTRA:         -10.039
REMARK INTER:                  -9.396
REMARK INTRA:                  -0.643
REMARK UNBOUND:                -0.643
REMARK SMILES CCCCCCCCCCCCCCCC(=O)[O-]
REMARK SMILES IDX 9 1 10 2 11 3 12 4 13 5 14 6 15 7 16 8 17 9 18 10 8 11 7 12
REMARK SMILES IDX 6 13 5 14 4 15 3 16 2 17 1 18
REMARK H PARENT
REMARK Flexibility Score: inf
ROOT
ATOM      1  C   UNL     1      12.882  22.220  45.111  1.00  0.00     0.000 C 
ENDROOT
BRANCH   1   2
ATOM      2  C   UNL     1      12.563  22.227  46.614  1.00  0.00     0.000 C 
BRANCH   2   3
ATOM      3  C   UNL     1      13.578  23.048  47.427  1.00  0.00     0.000 C 
BRANCH   3   4
ATOM      4  C   UNL     1      14.997  23.005  46.831  1.00  0.00     0.000 C 
BRANCH   4   5
ATOM      5  C   UNL     1      16.134  23.278  47.834  1.00  0.00     0.000 C 
BRANCH   5   6
ATOM      6  C   UNL     1      17.560  23.199  47.255  1.00  0.00     0.006 C 
BRANCH   6   7
ATOM      7  C   UNL     1      18.638  22.845  48.295  1.00  0.00     0.053 C 
BRANCH   7   8
ATOM      8  C   UNL     1      19.528  24.007  48.616  1.00  0.00     0.041 C 
ATOM      9  O   UNL     1      20.548  23.847  49.337  1.00  0.00    -0.550 OA
ATOM     10  O   UNL     1      19.250  25.263  48.090  1.00  0.00    -0.550 OA
ENDBRANCH   7   8
ENDBRANCH   6   7
ENDBRANCH   5   6
ENDBRANCH   4   5
ENDBRANCH   3   4
ENDBRANCH   2   3
ENDBRANCH   1   2
BRANCH   1  11
ATOM     11  C   UNL     1      12.000  23.201  44.318  1.00  0.00     0.000 C 
BRANCH  11  12
ATOM     12  C   UNL     1      11.485  22.601  42.998  1.00  0.00    -0.000 C 
BRANCH  12  13
ATOM     13  C   UNL     1      10.022  22.980  42.711  1.00  0.00    -0.000 C 
BRANCH  13  14
ATOM     14  C   UNL     1       9.580  22.595  41.289  1.00  0.00    -0.000 C 
BRANCH  14  15
ATOM     15  C   UNL     1      10.107  21.218  40.856  1.00  0.00    -0.000 C 
BRANCH  15  16
ATOM     16  C   UNL     1      10.311  21.164  39.334  1.00  0.00    -0.000 C 
BRANCH  16  17
ATOM     17  C   UNL     1      11.268  22.254  38.826  1.00  0.00    -0.003 C 
ATOM     18  C   UNL     1      11.424  22.243  37.306  1.00  0.00     0.004 C 
ENDBRANCH  16  17
ENDBRANCH  15  16
ENDBRANCH  14  15
ENDBRANCH  13  14
ENDBRANCH  12  13
ENDBRANCH  11  12
ENDBRANCH   1  11
TORSDOF 14
ENDMDL
MODEL 2
REMARK VINA RESULT:    -5.154      7.883     10.829
REMARK INTER + INTRA:         -10.016
REMARK INTER:                  -9.212
REMARK INTRA:                  -0.804
REMARK UNBOUND:                -0.643
REMARK SMILES CCCCCCCCCCCCCCCC(=O)[O-]
REMARK SMILES IDX 9 1 10 2 11 3 12 4 13 5 14 6 15 7 16 8 17 9 18 10 8 11 7 12
REMARK SMILES IDX 6 13 5 14 4 15 3 16 2 17 1 18
REMARK H PARENT
REMARK Flexibility Score: inf
ROOT
ATOM      1  C   UNL     1      14.253  21.062  34.349  1.00  0.00     0.000 C 
ENDROOT
BRANCH   1   2
ATOM      2  C   UNL     1      15.126  21.498  35.536  1.00  0.00     0.000 C 
BRANCH   2   3
ATOM      3  C   UNL     1      16.381  22.268  35.090  1.00  0.00     0.000 C 
BRANCH   3   4
ATOM      4  C   UNL     1      16.922  21.795  33.729  1.00  0.00     0.000 C 
BRANCH   4   5
ATOM      5  C   UNL     1      18.233  22.468  33.279  1.00  0.00     0.000 C 
BRANCH   5   6
ATOM      6  C   UNL     1      19.205  21.563  32.495  1.00  0.00     0.006 C 
BRANCH   6   7
ATOM      7  C   UNL     1      19.845  20.450  33.345  1.00  0.00     0.053 C 
BRANCH   7   8
ATOM      8  C   UNL     1      20.514  20.982  34.576  1.00  0.00     0.041 C 
ATOM      9  O   UNL     1      19.944  20.901  35.695  1.00  0.00    -0.550 OA
ATOM     10  O   UNL     1      21.785  21.539  34.492  1.00  0.00    -0.550 OA
ENDBRANCH   7   8
ENDBRANCH   6   7
ENDBRANCH   5   6
ENDBRANCH   4   5
ENDBRANCH   3   4
ENDBRANCH   2   3
ENDBRANCH   1   2
BRANCH   1  11
ATOM     11  C   UNL     1      12.748  21.130  34.669  1.00  0.00     0.000 C 
BRANCH  11  12
ATOM     12  C   UNL     1      12.365  22.399  35.449  1.00  0.00    -0.000 C 
BRANCH  12  13
ATOM     13  C   UNL     1      11.332  22.121  36.554  1.00  0.00    -0.000 C 
BRANCH  13  14
ATOM     14  C   UNL     1      11.976  21.987  37.945  1.00  0.00    -0.000 C 
BRANCH  14  15
ATOM     15  C   UNL     1      11.093  22.557  39.065  1.00  0.00    -0.000 C 
BRANCH  15  16
ATOM     16  C   UNL     1      10.345  21.433  39.798  1.00  0.00    -0.000 C 
BRANCH  16  17
ATOM     17  C   UNL     1       9.389  21.966  40.878  1.00  0.00    -0.003 C 
ATOM     18  C   UNL     1       9.141  23.469  40.759  1.00  0.00     0.004 C 
ENDBRANCH  16  17
ENDBRANCH  15  16
ENDBRANCH  14  15
ENDBRANCH  13  14
ENDBRANCH  12  13
ENDBRANCH  11  12
ENDBRANCH   1  11
TORSDOF 14
ENDMDL
MODEL 3
REMARK VINA RESULT:    -5.038      1.073      2.214
REMARK INTER + INTRA:          -9.803
REMARK INTER:                  -9.205
REMARK INTRA:                  -0.598
REMARK UNBOUND:                -0.643
REMARK SMILES CCCCCCCCCCCCCCCC(=O)[O-]
REMARK SMILES IDX 9 1 10 2 11 3 12 4 13 5 14 6 15 7 16 8 17 9 18 10 8 11 7 12
REMARK SMILES IDX 6 13 5 14 4 15 3 16 2 17 1 18
REMARK H PARENT
REMARK Flexibility Score: inf
ROOT
ATOM      1  C   UNL     1      13.184  23.254  47.198  1.00  0.00     0.000 C 
ENDROOT
BRANCH   1   2
ATOM      2  C   UNL     1      14.621  23.528  46.729  1.00  0.00     0.000 C 
BRANCH   2   3
ATOM      3  C   UNL     1      15.674  23.000  47.720  1.00  0.00     0.000 C 
BRANCH   3   4
ATOM      4  C   UNL     1      17.014  23.750  47.625  1.00  0.00     0.000 C 
BRANCH   4   5
ATOM      5  C   UNL     1      18.075  23.080  46.732  1.00  0.00     0.000 C 
BRANCH   5   6
ATOM      6  C   UNL     1      18.853  21.920  47.385  1.00  0.00     0.006 C 
BRANCH   6   7
ATOM      7  C   UNL     1      19.449  22.265  48.762  1.00  0.00     0.053 C 
BRANCH   7   8
ATOM      8  C   UNL     1      20.345  23.466  48.713  1.00  0.00     0.041 C 
ATOM      9  O   UNL     1      21.427  23.425  48.072  1.00  0.00    -0.550 OA
ATOM     10  O   UNL     1      19.968  24.643  49.349  1.00  0.00    -0.550 OA
ENDBRANCH   7   8
ENDBRANCH   6   7
ENDBRANCH   5   6
ENDBRANCH   4   5
ENDBRANCH   3   4
ENDBRANCH   2   3
ENDBRANCH   1   2
BRANCH   1  11
ATOM     11  C   UNL     1      12.502  22.138  46.386  1.00  0.00     0.000 C 
BRANCH  11  12
ATOM     12  C   UNL     1      12.786  22.244  44.878  1.00  0.00    -0.000 C 
BRANCH  12  13
ATOM     13  C   UNL     1      11.869  23.261  44.177  1.00  0.00    -0.000 C 
BRANCH  13  14
ATOM     14  C   UNL     1      11.587  22.890  42.711  1.00  0.00    -0.000 C 
BRANCH  14  15
ATOM     15  C   UNL     1      10.087  22.870  42.382  1.00  0.00    -0.000 C 
BRANCH  15  16
ATOM     16  C   UNL     1       9.835  23.359  40.947  1.00  0.00    -0.000 C 
BRANCH  16  17
ATOM     17  C   UNL     1      10.176  22.294  39.892  1.00  0.00    -0.003 C 
ATOM     18  C   UNL     1       9.861  20.875  40.361  1.00  0.00     0.004 C 
ENDBRANCH  16  17
ENDBRANCH  15  16
ENDBRANCH  14  15
ENDBRANCH  13  14
ENDBRANCH  12  13
ENDBRANCH  11  12
ENDBRANCH   1  11
TORSDOF 14
ENDMDL
MODEL 4
REMARK VINA RESULT:    -4.987      3.218      5.741
REMARK INTER + INTRA:          -9.712
REMARK INTER:                  -8.735
REMARK INTRA:                  -0.976
REMARK UNBOUND:                -0.643
REMARK SMILES CCCCCCCCCCCCCCCC(=O)[O-]
REMARK SMILES IDX 9 1 10 2 11 3 12 4 13 5 14 6 15 7 16 8 17 9 18 10 8 11 7 12
REMARK SMILES IDX 6 13 5 14 4 15 3 16 2 17 1 18
REMARK H PARENT
REMARK Flexibility Score: inf
ROOT
ATOM      1  C   UNL     1       9.985  21.352  40.546  1.00  0.00     0.000 C 
ENDROOT
BRANCH   1   2
ATOM      2  C   UNL     1       9.191  22.549  41.089  1.00  0.00     0.000 C 
BRANCH   2   3
ATOM      3  C   UNL     1       9.723  23.042  42.446  1.00  0.00     0.000 C 
BRANCH   3   4
ATOM      4  C   UNL     1      11.163  22.577  42.728  1.00  0.00     0.000 C 
BRANCH   4   5
ATOM      5  C   UNL     1      11.788  23.136  44.020  1.00  0.00     0.000 C 
BRANCH   5   6
ATOM      6  C   UNL     1      12.802  22.209  44.720  1.00  0.00     0.006 C 
BRANCH   6   7
ATOM      7  C   UNL     1      12.516  21.987  46.216  1.00  0.00     0.053 C 
BRANCH   7   8
ATOM      8  C   UNL     1      13.093  23.071  47.076  1.00  0.00     0.041 C 
ATOM      9  O   UNL     1      12.355  23.989  47.522  1.00  0.00    -0.550 OA
ATOM     10  O   UNL     1      14.441  23.049  47.413  1.00  0.00    -0.550 OA
ENDBRANCH   7   8
ENDBRANCH   6   7
ENDBRANCH   5   6
ENDBRANCH   4   5
ENDBRANCH   3   4
ENDBRANCH   2   3
ENDBRANCH   1   2
BRANCH   1  11
ATOM     11  C   UNL     1      10.606  21.634  39.166  1.00  0.00     0.000 C 
BRANCH  11  12
ATOM     12  C   UNL     1      12.143  21.664  39.201  1.00  0.00    -0.000 C 
BRANCH  12  13
ATOM     13  C   UNL     1      12.731  22.771  38.310  1.00  0.00    -0.000 C 
BRANCH  13  14
ATOM     14  C   UNL     1      14.097  22.389  37.716  1.00  0.00    -0.000 C 
BRANCH  14  15
ATOM     15  C   UNL     1      14.129  22.493  36.184  1.00  0.00    -0.000 C 
BRANCH  15  16
ATOM     16  C   UNL     1      12.733  22.812  35.628  1.00  0.00    -0.000 C 
BRANCH  16  17
ATOM     17  C   UNL     1      12.236  21.749  34.635  1.00  0.00    -0.003 C 
ATOM     18  C   UNL     1      13.077  20.475  34.663  1.00  0.00     0.004 C 
ENDBRANCH  16  17
ENDBRANCH  15  16
ENDBRANCH  14  15
ENDBRANCH  13  14
ENDBRANCH  12  13
ENDBRANCH  11  12
ENDBRANCH   1  11
TORSDOF 14
ENDMDL
MODEL 5
REMARK VINA RESULT:    -4.976      4.260      9.631
REMARK INTER + INTRA:          -9.692
REMARK INTER:                  -9.002
REMARK INTRA:                  -0.690
REMARK UNBOUND:                -0.643
REMARK SMILES CCCCCCCCCCCCCCCC(=O)[O-]
REMARK SMILES IDX 9 1 10 2 11 3 12 4 13 5 14 6 15 7 16 8 17 9 18 10 8 11 7 12
REMARK SMILES IDX 6 13 5 14 4 15 3 16 2 17 1 18
REMARK H PARENT
REMARK Flexibility Score: inf
ROOT
ATOM      1  C   UNL     1      12.374  21.954  45.455  1.00  0.00     0.000 C 
ENDROOT
BRANCH   1   2
ATOM      2  C   UNL     1      12.326  23.365  44.849  1.00  0.00     0.000 C 
BRANCH   2   3
ATOM      3  C   UNL     1      12.266  23.345  43.312  1.00  0.00     0.000 C 
BRANCH   3   4
ATOM      4  C   UNL     1      11.115  22.478  42.770  1.00  0.00     0.000 C 
BRANCH   4   5
ATOM      5  C   UNL     1      10.205  23.173  41.740  1.00  0.00     0.000 C 
BRANCH   5   6
ATOM      6  C   UNL     1       9.272  22.239  40.945  1.00  0.00     0.006 C 
BRANCH   6   7
ATOM      7  C   UNL     1      10.000  21.075  40.246  1.00  0.00     0.053 C 
BRANCH   7   8
ATOM      8  C   UNL     1      11.085  21.549  39.328  1.00  0.00     0.041 C 
ATOM      9  O   UNL     1      12.295  21.372  39.629  1.00  0.00    -0.550 OA
ATOM     10  O   UNL     1      10.760  22.156  38.121  1.00  0.00    -0.550 OA
ENDBRANCH   7   8
ENDBRANCH   6   7
ENDBRANCH   5   6
ENDBRANCH   4   5
ENDBRANCH   3   4
ENDBRANCH   2   3
ENDBRANCH   1   2
BRANCH   1  11
ATOM     11  C   UNL     1      12.872  21.954  46.911  1.00  0.00     0.000 C 
BRANCH  11  12
ATOM     12  C   UNL     1      13.369  23.337  47.367  1.00  0.00    -0.000 C 
BRANCH  12  13
ATOM     13  C   UNL     1      14.693  23.258  48.145  1.00  0.00    -0.000 C 
BRANCH  13  14
ATOM     14  C   UNL     1      15.908  23.050  47.225  1.00  0.00    -0.000 C 
BRANCH  14  15
ATOM     15  C   UNL     1      17.237  23.009  47.994  1.00  0.00    -0.000 C 
BRANCH  15  16
ATOM     16  C   UNL     1      18.222  24.049  47.440  1.00  0.00    -0.000 C 
BRANCH  16  17
ATOM     17  C   UNL     1      19.231  24.529  48.495  1.00  0.00    -0.003 C 
ATOM     18  C   UNL     1      20.154  23.413  48.982  1.00  0.00     0.004 C 
ENDBRANCH  16  17
ENDBRANCH  15  16
ENDBRANCH  14  15
ENDBRANCH  13  14
ENDBRANCH  12  13
ENDBRANCH  11  12
ENDBRANCH   1  11
TORSDOF 14
ENDMDL
MODEL 6
REMARK VINA RESULT:    -4.966      4.867      9.502
REMARK INTER + INTRA:          -9.674
REMARK INTER:                  -8.584
REMARK INTRA:                  -1.089
REMARK UNBOUND:                -0.643
REMARK SMILES CCCCCCCCCCCCCCCC(=O)[O-]
REMARK SMILES IDX 9 1 10 2 11 3 12 4 13 5 14 6 15 7 16 8 17 9 18 10 8 11 7 12
REMARK SMILES IDX 6 13 5 14 4 15 3 16 2 17 1 18
REMARK H PARENT
REMARK Flexibility Score: inf
ROOT
ATOM      1  C   UNL     1      13.382  21.861  46.693  1.00  0.00     0.000 C 
ENDROOT
BRANCH   1   2
ATOM      2  C   UNL     1      12.308  22.155  45.635  1.00  0.00     0.000 C 
BRANCH   2   3
ATOM      3  C   UNL     1      12.409  23.584  45.075  1.00  0.00     0.000 C 
BRANCH   3   4
ATOM      4  C   UNL     1      12.841  23.619  43.598  1.00  0.00     0.000 C 
BRANCH   4   5
ATOM      5  C   UNL     1      12.876  22.249  42.896  1.00  0.00     0.000 C 
BRANCH   5   6
ATOM      6  C   UNL     1      11.695  21.961  41.948  1.00  0.00     0.006 C 
BRANCH   6   7
ATOM      7  C   UNL     1      10.477  22.876  42.172  1.00  0.00     0.053 C 
BRANCH   7   8
ATOM      8  C   UNL     1       9.359  22.584  41.217  1.00  0.00     0.041 C 
ATOM      9  O   UNL     1       8.509  23.472  40.943  1.00  0.00    -0.550 OA
ATOM     10  O   UNL     1       9.274  21.340  40.603  1.00  0.00    -0.550 OA
ENDBRANCH   7   8
ENDBRANCH   6   7
ENDBRANCH   5   6
ENDBRANCH   4   5
ENDBRANCH   3   4
ENDBRANCH   2   3
ENDBRANCH   1   2
BRANCH   1  11
ATOM     11  C   UNL     1      13.601  23.042  47.655  1.00  0.00     0.000 C 
BRANCH  11  12
ATOM     12  C   UNL     1      15.089  23.351  47.887  1.00  0.00    -0.000 C 
BRANCH  12  13
ATOM     13  C   UNL     1      15.901  23.349  46.580  1.00  0.00    -0.000 C 
BRANCH  13  14
ATOM     14  C   UNL     1      17.220  22.568  46.706  1.00  0.00    -0.000 C 
BRANCH  14  15
ATOM     15  C   UNL     1      17.817  22.634  48.120  1.00  0.00    -0.000 C 
BRANCH  15  16
ATOM     16  C   UNL     1      18.834  23.779  48.232  1.00  0.00    -0.000 C 
BRANCH  16  17
ATOM     17  C   UNL     1      20.209  23.302  48.726  1.00  0.00    -0.003 C 
ATOM     18  C   UNL     1      21.313  23.506  47.689  1.00  0.00     0.004 C 
ENDBRANCH  16  17
ENDBRANCH  15  16
ENDBRANCH  14  15
ENDBRANCH  13  14
ENDBRANCH  12  13
ENDBRANCH  11  12
ENDBRANCH   1  11
TORSDOF 14
ENDMDL
MODEL 7
REMARK VINA RESULT:    -4.954      9.210     11.376
REMARK INTER + INTRA:          -9.652
REMARK INTER:                  -8.726
REMARK INTRA:                  -0.926
REMARK UNBOUND:                -0.643
REMARK SMILES CCCCCCCCCCCCCCCC(=O)[O-]
REMARK SMILES IDX 9 1 10 2 11 3 12 4 13 5 14 6 15 7 16 8 17 9 18 10 8 11 7 12
REMARK SMILES IDX 6 13 5 14 4 15 3 16 2 17 1 18
REMARK H PARENT
REMARK Flexibility Score: inf
ROOT
ATOM      1  C   UNL     1      19.469  21.558  32.345  1.00  0.00     0.000 C 
ENDROOT
BRANCH   1   2
ATOM      2  C   UNL     1      19.955  20.565  33.413  1.00  0.00     0.000 C 
BRANCH   2   3
ATOM      3  C   UNL     1      21.182  21.084  34.183  1.00  0.00     0.000 C 
BRANCH   3   4
ATOM      4  C   UNL     1      20.849  21.501  35.627  1.00  0.00     0.000 C 
BRANCH   4   5
ATOM      5  C   UNL     1      22.059  21.583  36.576  1.00  0.00     0.000 C 
BRANCH   5   6
ATOM      6  C   UNL     1      23.339  22.188  35.966  1.00  0.00     0.006 C 
BRANCH   6   7
ATOM      7  C   UNL     1      24.638  21.712  36.641  1.00  0.00     0.053 C 
BRANCH   7   8
ATOM      8  C   UNL     1      24.737  22.156  38.069  1.00  0.00     0.041 C 
ATOM      9  O   UNL     1      25.093  21.345  38.964  1.00  0.00    -0.550 OA
ATOM     10  O   UNL     1      24.469  23.476  38.408  1.00  0.00    -0.550 OA
ENDBRANCH   7   8
ENDBRANCH   6   7
ENDBRANCH   5   6
ENDBRANCH   4   5
ENDBRANCH   3   4
ENDBRANCH   2   3
ENDBRANCH   1   2
BRANCH   1  11
ATOM     11  C   UNL     1      18.456  22.573  32.903  1.00  0.00     0.000 C 
BRANCH  11  12
ATOM     12  C   UNL     1      17.202  21.901  33.486  1.00  0.00    -0.000 C 
BRANCH  12  13
ATOM     13  C   UNL     1      16.928  22.325  34.939  1.00  0.00    -0.000 C 
BRANCH  13  14
ATOM     14  C   UNL     1      15.773  21.535  35.577  1.00  0.00    -0.000 C 
BRANCH  14  15
ATOM     15  C   UNL     1      14.604  21.305  34.607  1.00  0.00    -0.000 C 
BRANCH  15  16
ATOM     16  C   UNL     1      13.690  22.538  34.550  1.00  0.00    -0.000 C 
BRANCH  16  17
ATOM     17  C   UNL     1      12.201  22.176  34.674  1.00  0.00    -0.003 C 
ATOM     18  C   UNL     1      11.736  22.074  36.125  1.00  0.00     0.004 C 
ENDBRANCH  16  17
ENDBRANCH  15  16
ENDBRANCH  14  15
ENDBRANCH  13  14
ENDBRANCH  12  13
ENDBRANCH  11  12
ENDBRANCH   1  11
TORSDOF 14
ENDMDL
MODEL 8
REMARK VINA RESULT:    -4.945     10.485     14.020
REMARK INTER + INTRA:          -9.636
REMARK INTER:                  -8.013
REMARK INTRA:                  -1.622
REMARK UNBOUND:                -0.643
REMARK SMILES CCCCCCCCCCCCCCCC(=O)[O-]
REMARK SMILES IDX 9 1 10 2 11 3 12 4 13 5 14 6 15 7 16 8 17 9 18 10 8 11 7 12
REMARK SMILES IDX 6 13 5 14 4 15 3 16 2 17 1 18
REMARK H PARENT
REMARK Flexibility Score: inf
ROOT
ATOM      1  C   UNL     1      21.204  21.489  35.939  1.00  0.00     0.000 C 
ENDROOT
BRANCH   1   2
ATOM      2  C   UNL     1      21.366  21.494  34.411  1.00  0.00     0.000 C 
BRANCH   2   3
ATOM      3  C   UNL     1      20.302  20.636  33.704  1.00  0.00     0.000 C 
BRANCH   3   4
ATOM      4  C   UNL     1      19.552  21.403  32.600  1.00  0.00     0.000 C 
BRANCH   4   5
ATOM      5  C   UNL     1      18.248  22.087  33.053  1.00  0.00     0.000 C 
BRANCH   5   6
ATOM      6  C   UNL     1      17.613  21.517  34.337  1.00  0.00     0.006 C 
BRANCH   6   7
ATOM      7  C   UNL     1      16.699  22.512  35.076  1.00  0.00     0.053 C 
BRANCH   7   8
ATOM      8  C   UNL     1      15.254  22.331  34.724  1.00  0.00     0.041 C 
ATOM      9  O   UNL     1      14.443  23.286  34.858  1.00  0.00    -0.550 OA
ATOM     10  O   UNL     1      14.807  21.118  34.215  1.00  0.00    -0.550 OA
ENDBRANCH   7   8
ENDBRANCH   6   7
ENDBRANCH   5   6
ENDBRANCH   4   5
ENDBRANCH   3   4
ENDBRANCH   2   3
ENDBRANCH   1   2
BRANCH   1  11
ATOM     11  C   UNL     1      20.555  22.781  36.467  1.00  0.00     0.000 C 
BRANCH  11  12
ATOM     12  C   UNL     1      21.075  23.181  37.857  1.00  0.00    -0.000 C 
BRANCH  12  13
ATOM     13  C   UNL     1      22.190  24.239  37.786  1.00  0.00    -0.000 C 
BRANCH  13  14
ATOM     14  C   UNL     1      23.166  24.148  38.972  1.00  0.00    -0.000 C 
BRANCH  14  15
ATOM     15  C   UNL     1      24.357  23.219  38.691  1.00  0.00    -0.000 C 
BRANCH  15  16
ATOM     16  C   UNL     1      24.806  23.332  37.226  1.00  0.00    -0.000 C 
BRANCH  16  17
ATOM     17  C   UNL     1      24.868  21.969  36.520  1.00  0.00    -0.003 C 
ATOM     18  C   UNL     1      25.035  20.804  37.495  1.00  0.00     0.004 C 
ENDBRANCH  16  17
ENDBRANCH  15  16
ENDBRANCH  14  15
ENDBRANCH  13  14
ENDBRANCH  12  13
ENDBRANCH  11  12
ENDBRANCH   1  11
TORSDOF 14
ENDMDL
MODEL 9
REMARK VINA RESULT:    -4.910     10.253     14.455
REMARK INTER + INTRA:          -9.571
REMARK INTER:                  -8.600
REMARK INTRA:                  -0.971
REMARK UNBOUND:                -0.643
REMARK SMILES CCCCCCCCCCCCCCCC(=O)[O-]
REMARK SMILES IDX 9 1 10 2 11 3 12 4 13 5 14 6 15 7 16 8 17 9 18 10 8 11 7 12
REMARK SMILES IDX 6 13 5 14 4 15 3 16 2 17 1 18
REMARK H PARENT
REMARK Flexibility Score: inf
ROOT
ATOM      1  C   UNL     1      21.018  21.049  34.105  1.00  0.00     0.000 C 
ENDROOT
BRANCH   1   2
ATOM      2  C   UNL     1      19.830  20.688  33.201  1.00  0.00     0.000 C 
BRANCH   2   3
ATOM      3  C   UNL     1      19.153  21.929  32.594  1.00  0.00     0.000 C 
BRANCH   3   4
ATOM      4  C   UNL     1      17.618  21.880  32.687  1.00  0.00     0.000 C 
BRANCH   4   5
ATOM      5  C   UNL     1      17.039  22.178  34.083  1.00  0.00     0.000 C 
BRANCH   5   6
ATOM      6  C   UNL     1      15.697  21.491  34.403  1.00  0.00     0.006 C 
BRANCH   6   7
ATOM      7  C   UNL     1      14.516  22.467  34.555  1.00  0.00     0.053 C 
BRANCH   7   8
ATOM      8  C   UNL     1      13.190  21.768  34.549  1.00  0.00     0.041 C 
ATOM      9  O   UNL     1      12.143  22.394  34.239  1.00  0.00    -0.550 OA
ATOM     10  O   UNL     1      13.116  20.415  34.855  1.00  0.00    -0.550 OA
ENDBRANCH   7   8
ENDBRANCH   6   7
ENDBRANCH   5   6
ENDBRANCH   4   5
ENDBRANCH   3   4
ENDBRANCH   2   3
ENDBRANCH   1   2
BRANCH   1  11
ATOM     11  C   UNL     1      20.595  21.291  35.565  1.00  0.00     0.000 C 
BRANCH  11  12
ATOM     12  C   UNL     1      21.781  21.659  36.473  1.00  0.00    -0.000 C 
BRANCH  12  13
ATOM     13  C   UNL     1      23.067  21.940  35.676  1.00  0.00    -0.000 C 
BRANCH  13  14
ATOM     14  C   UNL     1      24.325  21.920  36.561  1.00  0.00    -0.000 C 
BRANCH  14  15
ATOM     15  C   UNL     1      24.673  23.304  37.130  1.00  0.00    -0.000 C 
BRANCH  15  16
ATOM     16  C   UNL     1      24.770  23.257  38.662  1.00  0.00    -0.000 C 
BRANCH  16  17
ATOM     17  C   UNL     1      24.417  21.875  39.235  1.00  0.00    -0.003 C 
ATOM     18  C   UNL     1      23.171  21.902  40.119  1.00  0.00     0.004 C 
ENDBRANCH  16  17
ENDBRANCH  15  16
ENDBRANCH  14  15
ENDBRANCH  13  14
ENDBRANCH  12  13
ENDBRANCH  11  12
ENDBRANCH   1  11
TORSDOF 14
ENDMDL
