MODEL 1
REMARK VINA RESULT:    11.500      0.000      0.000
REMARK INTER + INTRA:          31.849
REMARK INTER:                  30.323
REMARK INTRA:                   1.526
REMARK UNBOUND:                 1.526
REMARK SMILES CCCCCCCCCCCCCCCCCCCCCCCCCCCCCC(=O)[O-]
REMARK SMILES IDX 16 1 17 2 18 3 19 4 20 5 21 6 22 7 23 8 24 9 25 10 26 11
REMARK SMILES IDX 27 12 28 13 29 14 30 15 31 16 32 17 15 18 14 19 13 20 12 21
REMARK SMILES IDX 11 22 10 23 9 24 8 25 7 26 6 27 5 28 4 29 3 30 2 31 1 32
REMARK H PARENT
REMARK Flexibility Score: inf
ROOT
ATOM      1  C   UNL     1      36.261 105.586 270.173  1.00  0.00     0.000 C 
ENDROOT
BRANCH   1   2
ATOM      2  C   UNL     1      37.478 106.497 270.435  1.00  0.00     0.000 C 
BRANCH   2   3
ATOM      3  C   UNL     1      38.511 105.960 271.448  1.00  0.00     0.000 C 
BRANCH   3   4
ATOM      4  C   UNL     1      38.608 104.426 271.542  1.00  0.00     0.000 C 
BRANCH   4   5
ATOM      5  C   UNL     1      38.060 103.823 272.847  1.00  0.00     0.000 C 
BRANCH   5   6
ATOM      6  C   UNL     1      39.167 103.489 273.861  1.00  0.00     0.000 C 
BRANCH   6   7
ATOM      7  C   UNL     1      39.447 101.979 273.938  1.00  0.00     0.000 C 
BRANCH   7   8
ATOM      8  C   UNL     1      40.917 101.648 273.637  1.00  0.00     0.000 C 
BRANCH   8   9
ATOM      9  C   UNL     1      41.286 100.249 274.151  1.00  0.00     0.000 C 
BRANCH   9  10
ATOM     10  C   UNL     1      42.416  99.600 273.335  1.00  0.00     0.000 C 
BRANCH  10  11
ATOM     11  C   UNL     1      43.504  98.970 274.222  1.00  0.00     0.000 C 
BRANCH  11  12
ATOM     12  C   UNL     1      44.479  98.087 273.426  1.00  0.00     0.000 C 
BRANCH  12  13
ATOM     13  C   UNL     1      44.265  96.585 273.686  1.00  0.00     0.006 C 
BRANCH  13  14
ATOM     14  C   UNL     1      43.966  95.810 272.398  1.00  0.00     0.053 C 
BRANCH  14  15
ATOM     15  C   UNL     1      42.796  96.383 271.654  1.00  0.00     0.041 C 
ATOM     16  O   UNL     1      42.005  95.623 271.035  1.00  0.00    -0.550 OA
ATOM     17  O   UNL     1      42.565  97.753 271.667  1.00  0.00    -0.550 OA
ENDBRANCH  14  15
ENDBRANCH  13  14
ENDBRANCH  12  13
ENDBRANCH  11  12
ENDBRANCH  10  11
ENDBRANCH   9  10
ENDBRANCH   8   9
ENDBRANCH   7   8
ENDBRANCH   6   7
ENDBRANCH   5   6
ENDBRANCH   4   5
ENDBRANCH   3   4
ENDBRANCH   2   3
ENDBRANCH   1   2
BRANCH   1  18
ATOM     18  C   UNL     1      34.977 106.329 269.740  1.00  0.00     0.000 C 
BRANCH  18  19
ATOM     19  C   UNL     1      34.952 106.725 268.251  1.00  0.00     0.000 C 
BRANCH  19  20
ATOM     20  C   UNL     1      35.985 107.791 267.844  1.00  0.00     0.000 C 
BRANCH  20  21
ATOM     21  C   UNL     1      35.580 108.655 266.636  1.00  0.00     0.000 C 
BRANCH  21  22
ATOM     22  C   UNL     1      34.892 107.857 265.507  1.00  0.00     0.000 C 
BRANCH  22  23
ATOM     23  C   UNL     1      35.576 106.503 265.250  1.00  0.00     0.000 C 
BRANCH  23  24
ATOM     24  C   UNL     1      34.878 105.692 264.137  1.00  0.00    -0.000 C 
BRANCH  24  25
ATOM     25  C   UNL     1      35.754 105.469 262.893  1.00  0.00    -0.000 C 
BRANCH  25  26
ATOM     26  C   UNL     1      35.666 104.034 262.351  1.00  0.00    -0.000 C 
BRANCH  26  27
ATOM     27  C   UNL     1      36.435 103.854 261.033  1.00  0.00    -0.000 C 
BRANCH  27  28
ATOM     28  C   UNL     1      36.778 105.197 260.364  1.00  0.00    -0.000 C 
BRANCH  28  29
ATOM     29  C   UNL     1      37.702 105.019 259.142  1.00  0.00    -0.000 C 
BRANCH  29  30
ATOM     30  C   UNL     1      37.198 105.734 257.876  1.00  0.00    -0.000 C 
BRANCH  30  31
ATOM     31  C   UNL     1      35.772 106.280 258.022  1.00  0.00    -0.003 C 
ATOM     32  C   UNL     1      35.782 107.761 258.389  1.00  0.00     0.004 C 
ENDBRANCH  30  31
ENDBRANCH  29  30
ENDBRANCH  28  29
ENDBRANCH  27  28
ENDBRANCH  26  27
ENDBRANCH  25  26
ENDBRANCH  24  25
ENDBRANCH  23  24
ENDBRANCH  22  23
ENDBRANCH  21  22
ENDBRANCH  20  21
ENDBRANCH  19  20
ENDBRANCH  18  19
ENDBRANCH   1  18
TORSDOF 28
ENDMDL
MODEL 2
REMARK VINA RESULT:    11.669      3.761      4.632
REMARK INTER + INTRA:          32.297
REMARK INTER:                  33.165
REMARK INTRA:                  -0.869
REMARK UNBOUND:                 1.526
REMARK SMILES CCCCCCCCCCCCCCCCCCCCCCCCCCCCCC(=O)[O-]
REMARK SMILES IDX 16 1 17 2 18 3 19 4 20 5 21 6 22 7 23 8 24 9 25 10 26 11
REMARK SMILES IDX 27 12 28 13 29 14 30 15 31 16 32 17 15 18 14 19 13 20 12 21
REMARK SMILES IDX 11 22 10 23 9 24 8 25 7 26 6 27 5 28 4 29 3 30 2 31 1 32
REMARK H PARENT
REMARK Flexibility Score: inf
ROOT
ATOM      1  C   UNL     1      36.908 105.634 270.379  1.00  0.00     0.000 C 
ENDROOT
BRANCH   1   2
ATOM      2  C   UNL     1      38.107 106.270 271.113  1.00  0.00     0.000 C 
BRANCH   2   3
ATOM      3  C   UNL     1      38.828 105.361 272.130  1.00  0.00     0.000 C 
BRANCH   3   4
ATOM      4  C   UNL     1      38.208 103.965 272.324  1.00  0.00     0.000 C 
BRANCH   4   5
ATOM      5  C   UNL     1      38.947 103.064 273.328  1.00  0.00     0.000 C 
BRANCH   5   6
ATOM      6  C   UNL     1      40.322 102.602 272.816  1.00  0.00     0.000 C 
BRANCH   6   7
ATOM      7  C   UNL     1      41.477 103.354 273.497  1.00  0.00     0.000 C 
BRANCH   7   8
ATOM      8  C   UNL     1      42.635 102.417 273.872  1.00  0.00     0.000 C 
BRANCH   8   9
ATOM      9  C   UNL     1      43.917 103.210 274.168  1.00  0.00     0.000 C 
BRANCH   9  10
ATOM     10  C   UNL     1      45.191 102.423 273.819  1.00  0.00     0.000 C 
BRANCH  10  11
ATOM     11  C   UNL     1      46.050 103.125 272.754  1.00  0.00     0.000 C 
BRANCH  11  12
ATOM     12  C   UNL     1      45.383 103.135 271.368  1.00  0.00     0.000 C 
BRANCH  12  13
ATOM     13  C   UNL     1      45.418 104.525 270.706  1.00  0.00     0.006 C 
BRANCH  13  14
ATOM     14  C   UNL     1      44.653 105.575 271.521  1.00  0.00     0.053 C 
BRANCH  14  15
ATOM     15  C   UNL     1      44.820 106.955 270.958  1.00  0.00     0.041 C 
ATOM     16  O   UNL     1      43.892 107.800 271.065  1.00  0.00    -0.550 OA
ATOM     17  O   UNL     1      46.011 107.316 270.339  1.00  0.00    -0.550 OA
ENDBRANCH  14  15
ENDBRANCH  13  14
ENDBRANCH  12  13
ENDBRANCH  11  12
ENDBRANCH  10  11
ENDBRANCH   9  10
ENDBRANCH   8   9
ENDBRANCH   7   8
ENDBRANCH   6   7
ENDBRANCH   5   6
ENDBRANCH   4   5
ENDBRANCH   3   4
ENDBRANCH   2   3
ENDBRANCH   1   2
BRANCH   1  18
ATOM     18  C   UNL     1      35.728 106.595 270.111  1.00  0.00     0.000 C 
BRANCH  18  19
ATOM     19  C   UNL     1      34.955 106.295 268.812  1.00  0.00     0.000 C 
BRANCH  19  20
ATOM     20  C   UNL     1      35.431 107.077 267.576  1.00  0.00     0.000 C 
BRANCH  20  21
ATOM     21  C   UNL     1      35.095 106.419 266.225  1.00  0.00     0.000 C 
BRANCH  21  22
ATOM     22  C   UNL     1      34.875 104.893 266.318  1.00  0.00     0.000 C 
BRANCH  22  23
ATOM     23  C   UNL     1      35.709 104.120 265.281  1.00  0.00     0.000 C 
BRANCH  23  24
ATOM     24  C   UNL     1      35.063 104.132 263.879  1.00  0.00    -0.000 C 
BRANCH  24  25
ATOM     25  C   UNL     1      35.129 105.499 263.180  1.00  0.00    -0.000 C 
BRANCH  25  26
ATOM     26  C   UNL     1      36.530 105.826 262.638  1.00  0.00    -0.000 C 
BRANCH  26  27
ATOM     27  C   UNL     1      36.680 105.481 261.149  1.00  0.00    -0.000 C 
BRANCH  27  28
ATOM     28  C   UNL     1      38.153 105.386 260.713  1.00  0.00    -0.000 C 
BRANCH  28  29
ATOM     29  C   UNL     1      38.355 105.817 259.246  1.00  0.00    -0.000 C 
BRANCH  29  30
ATOM     30  C   UNL     1      37.426 105.095 258.255  1.00  0.00    -0.000 C 
BRANCH  30  31
ATOM     31  C   UNL     1      35.964 105.546 258.364  1.00  0.00    -0.003 C 
ATOM     32  C   UNL     1      35.800 106.998 257.924  1.00  0.00     0.004 C 
ENDBRANCH  30  31
ENDBRANCH  29  30
ENDBRANCH  28  29
ENDBRANCH  27  28
ENDBRANCH  26  27
ENDBRANCH  25  26
ENDBRANCH  24  25
ENDBRANCH  23  24
ENDBRANCH  22  23
ENDBRANCH  21  22
ENDBRANCH  20  21
ENDBRANCH  19  20
ENDBRANCH  18  19
ENDBRANCH   1  18
TORSDOF 28
ENDMDL
MODEL 3
REMARK VINA RESULT:    12.399      5.147     12.696
REMARK INTER + INTRA:          34.219
REMARK INTER:                  35.322
REMARK INTRA:                  -1.103
REMARK UNBOUND:                 1.526
REMARK SMILES CCCCCCCCCCCCCCCCCCCCCCCCCCCCCC(=O)[O-]
REMARK SMILES IDX 16 1 17 2 18 3 19 4 20 5 21 6 22 7 23 8 24 9 25 10 26 11
REMARK SMILES IDX 27 12 28 13 29 14 30 15 31 16 32 17 15 18 14 19 13 20 12 21
REMARK SMILES IDX 11 22 10 23 9 24 8 25 7 26 6 27 5 28 4 29 3 30 2 31 1 32
REMARK H PARENT
REMARK Flexibility Score: inf
ROOT
ATOM      1  C   UNL     1      37.866 106.018 270.559  1.00  0.00     0.000 C 
ENDROOT
BRANCH   1   2
ATOM      2  C   UNL     1      36.408 106.295 270.136  1.00  0.00     0.000 C 
BRANCH   2   3
ATOM      3  C   UNL     1      36.223 107.346 269.021  1.00  0.00     0.000 C 
BRANCH   3   4
ATOM      4  C   UNL     1      34.884 107.275 268.263  1.00  0.00     0.000 C 
BRANCH   4   5
ATOM      5  C   UNL     1      34.998 106.847 266.790  1.00  0.00     0.000 C 
BRANCH   5   6
ATOM      6  C   UNL     1      34.966 105.320 266.608  1.00  0.00     0.000 C 
BRANCH   6   7
ATOM      7  C   UNL     1      35.274 104.903 265.160  1.00  0.00     0.000 C 
BRANCH   7   8
ATOM      8  C   UNL     1      34.880 105.990 264.149  1.00  0.00     0.000 C 
BRANCH   8   9
ATOM      9  C   UNL     1      36.108 106.508 263.385  1.00  0.00     0.000 C 
BRANCH   9  10
ATOM     10  C   UNL     1      36.155 106.005 261.933  1.00  0.00     0.000 C 
BRANCH  10  11
ATOM     11  C   UNL     1      35.850 104.503 261.814  1.00  0.00     0.000 C 
BRANCH  11  12
ATOM     12  C   UNL     1      36.536 103.854 260.600  1.00  0.00     0.000 C 
BRANCH  12  13
ATOM     13  C   UNL     1      37.760 104.652 260.116  1.00  0.00     0.006 C 
BRANCH  13  14
ATOM     14  C   UNL     1      37.566 105.213 258.703  1.00  0.00     0.053 C 
BRANCH  14  15
ATOM     15  C   UNL     1      36.426 106.185 258.635  1.00  0.00     0.041 C 
ATOM     16  O   UNL     1      36.496 107.287 259.240  1.00  0.00    -0.550 OA
ATOM     17  O   UNL     1      35.297 105.885 257.881  1.00  0.00    -0.550 OA
ENDBRANCH  14  15
ENDBRANCH  13  14
ENDBRANCH  12  13
ENDBRANCH  11  12
ENDBRANCH  10  11
ENDBRANCH   9  10
ENDBRANCH   8   9
ENDBRANCH   7   8
ENDBRANCH   6   7
ENDBRANCH   5   6
ENDBRANCH   4   5
ENDBRANCH   3   4
ENDBRANCH   2   3
ENDBRANCH   1   2
BRANCH   1  18
ATOM     18  C   UNL     1      38.040 105.562 272.026  1.00  0.00     0.000 C 
BRANCH  18  19
ATOM     19  C   UNL     1      38.573 104.125 272.178  1.00  0.00     0.000 C 
BRANCH  19  20
ATOM     20  C   UNL     1      38.262 103.454 273.527  1.00  0.00     0.000 C 
BRANCH  20  21
ATOM     21  C   UNL     1      39.418 102.628 274.121  1.00  0.00     0.000 C 
BRANCH  21  22
ATOM     22  C   UNL     1      39.632 101.270 273.418  1.00  0.00     0.000 C 
BRANCH  22  23
ATOM     23  C   UNL     1      41.115 100.857 273.386  1.00  0.00     0.000 C 
BRANCH  23  24
ATOM     24  C   UNL     1      42.051 101.986 273.869  1.00  0.00    -0.000 C 
BRANCH  24  25
ATOM     25  C   UNL     1      43.412 102.008 273.154  1.00  0.00    -0.000 C 
BRANCH  25  26
ATOM     26  C   UNL     1      44.379 103.046 273.745  1.00  0.00    -0.000 C 
BRANCH  26  27
ATOM     27  C   UNL     1      44.524 104.289 272.855  1.00  0.00    -0.000 C 
BRANCH  27  28
ATOM     28  C   UNL     1      44.745 103.931 271.375  1.00  0.00    -0.000 C 
BRANCH  28  29
ATOM     29  C   UNL     1      45.537 105.020 270.623  1.00  0.00    -0.000 C 
BRANCH  29  30
ATOM     30  C   UNL     1      45.514 106.393 271.318  1.00  0.00    -0.000 C 
BRANCH  30  31
ATOM     31  C   UNL     1      45.060 107.527 270.392  1.00  0.00    -0.003 C 
ATOM     32  C   UNL     1      43.681 108.048 270.790  1.00  0.00     0.004 C 
ENDBRANCH  30  31
ENDBRANCH  29  30
ENDBRANCH  28  29
ENDBRANCH  27  28
ENDBRANCH  26  27
ENDBRANCH  25  26
ENDBRANCH  24  25
ENDBRANCH  23  24
ENDBRANCH  22  23
ENDBRANCH  21  22
ENDBRANCH  20  21
ENDBRANCH  19  20
ENDBRANCH  18  19
ENDBRANCH   1  18
TORSDOF 28
ENDMDL
MODEL 4
REMARK VINA RESULT:    12.498      4.706     12.063
REMARK INTER + INTRA:          34.481
REMARK INTER:                  32.216
REMARK INTRA:                   2.265
REMARK UNBOUND:                 1.526
REMARK SMILES CCCCCCCCCCCCCCCCCCCCCCCCCCCCCC(=O)[O-]
REMARK SMILES IDX 16 1 17 2 18 3 19 4 20 5 21 6 22 7 23 8 24 9 25 10 26 11
REMARK SMILES IDX 27 12 28 13 29 14 30 15 31 16 32 17 15 18 14 19 13 20 12 21
REMARK SMILES IDX 11 22 10 23 9 24 8 25 7 26 6 27 5 28 4 29 3 30 2 31 1 32
REMARK H PARENT
REMARK Flexibility Score: inf
ROOT
ATOM      1  C   UNL     1      36.194 106.371 270.275  1.00  0.00     0.000 C 
ENDROOT
BRANCH   1   2
ATOM      2  C   UNL     1      35.435 106.987 269.081  1.00  0.00     0.000 C 
BRANCH   2   3
ATOM      3  C   UNL     1      34.956 105.990 268.004  1.00  0.00     0.000 C 
BRANCH   3   4
ATOM      4  C   UNL     1      35.078 104.502 268.382  1.00  0.00     0.000 C 
BRANCH   4   5
ATOM      5  C   UNL     1      34.926 103.523 267.205  1.00  0.00     0.000 C 
BRANCH   5   6
ATOM      6  C   UNL     1      34.885 104.232 265.840  1.00  0.00     0.000 C 
BRANCH   6   7
ATOM      7  C   UNL     1      35.466 103.358 264.716  1.00  0.00     0.000 C 
BRANCH   7   8
ATOM      8  C   UNL     1      34.875 103.715 263.343  1.00  0.00     0.000 C 
BRANCH   8   9
ATOM      9  C   UNL     1      35.436 105.049 262.828  1.00  0.00     0.000 C 
BRANCH   9  10
ATOM     10  C   UNL     1      35.320 106.178 263.864  1.00  0.00     0.000 C 
BRANCH  10  11
ATOM     11  C   UNL     1      36.681 106.587 264.454  1.00  0.00     0.000 C 
BRANCH  11  12
ATOM     12  C   UNL     1      37.616 107.213 263.406  1.00  0.00     0.000 C 
BRANCH  12  13
ATOM     13  C   UNL     1      38.047 106.209 262.322  1.00  0.00     0.006 C 
BRANCH  13  14
ATOM     14  C   UNL     1      37.029 106.115 261.180  1.00  0.00     0.053 C 
BRANCH  14  15
ATOM     15  C   UNL     1      37.412 105.077 260.168  1.00  0.00     0.041 C 
ATOM     16  O   UNL     1      38.610 104.964 259.798  1.00  0.00    -0.550 OA
ATOM     17  O   UNL     1      36.449 104.217 259.653  1.00  0.00    -0.550 OA
ENDBRANCH  14  15
ENDBRANCH  13  14
ENDBRANCH  12  13
ENDBRANCH  11  12
ENDBRANCH  10  11
ENDBRANCH   9  10
ENDBRANCH   8   9
ENDBRANCH   7   8
ENDBRANCH   6   7
ENDBRANCH   5   6
ENDBRANCH   4   5
ENDBRANCH   3   4
ENDBRANCH   2   3
ENDBRANCH   1   2
BRANCH   1  18
ATOM     18  C   UNL     1      37.725 106.571 270.243  1.00  0.00     0.000 C 
BRANCH  18  19
ATOM     19  C   UNL     1      38.478 105.839 271.370  1.00  0.00     0.000 C 
BRANCH  19  20
ATOM     20  C   UNL     1      38.081 104.365 271.569  1.00  0.00     0.000 C 
BRANCH  20  21
ATOM     21  C   UNL     1      38.318 103.817 272.988  1.00  0.00     0.000 C 
BRANCH  21  22
ATOM     22  C   UNL     1      38.680 102.316 273.019  1.00  0.00     0.000 C 
BRANCH  22  23
ATOM     23  C   UNL     1      40.042 102.059 273.689  1.00  0.00     0.000 C 
BRANCH  23  24
ATOM     24  C   UNL     1      41.185 102.857 273.025  1.00  0.00    -0.000 C 
BRANCH  24  25
ATOM     25  C   UNL     1      42.552 102.655 273.699  1.00  0.00    -0.000 C 
BRANCH  25  26
ATOM     26  C   UNL     1      43.572 103.740 273.317  1.00  0.00    -0.000 C 
BRANCH  26  27
ATOM     27  C   UNL     1      44.994 103.182 273.161  1.00  0.00    -0.000 C 
BRANCH  27  28
ATOM     28  C   UNL     1      45.468 103.180 271.697  1.00  0.00    -0.000 C 
BRANCH  28  29
ATOM     29  C   UNL     1      45.042 104.458 270.945  1.00  0.00    -0.000 C 
BRANCH  29  30
ATOM     30  C   UNL     1      44.831 105.675 271.862  1.00  0.00    -0.000 C 
BRANCH  30  31
ATOM     31  C   UNL     1      45.631 106.906 271.419  1.00  0.00    -0.003 C 
ATOM     32  C   UNL     1      44.949 107.620 270.256  1.00  0.00     0.004 C 
ENDBRANCH  30  31
ENDBRANCH  29  30
ENDBRANCH  28  29
ENDBRANCH  27  28
ENDBRANCH  26  27
ENDBRANCH  25  26
ENDBRANCH  24  25
ENDBRANCH  23  24
ENDBRANCH  22  23
ENDBRANCH  21  22
ENDBRANCH  20  21
ENDBRANCH  19  20
ENDBRANCH  18  19
ENDBRANCH   1  18
TORSDOF 28
ENDMDL
MODEL 5
REMARK VINA RESULT:    12.687      4.028     12.819
REMARK INTER + INTRA:          34.980
REMARK INTER:                  34.974
REMARK INTRA:                   0.005
REMARK UNBOUND:                 1.526
REMARK SMILES CCCCCCCCCCCCCCCCCCCCCCCCCCCCCC(=O)[O-]
REMARK SMILES IDX 16 1 17 2 18 3 19 4 20 5 21 6 22 7 23 8 24 9 25 10 26 11
REMARK SMILES IDX 27 12 28 13 29 14 30 15 31 16 32 17 15 18 14 19 13 20 12 21
REMARK SMILES IDX 11 22 10 23 9 24 8 25 7 26 6 27 5 28 4 29 3 30 2 31 1 32
REMARK H PARENT
REMARK Flexibility Score: inf
ROOT
ATOM      1  C   UNL     1      35.951 105.308 270.249  1.00  0.00     0.000 C 
ENDROOT
BRANCH   1   2
ATOM      2  C   UNL     1      35.350 106.694 269.935  1.00  0.00     0.000 C 
BRANCH   2   3
ATOM      3  C   UNL     1      34.990 106.951 268.457  1.00  0.00     0.000 C 
BRANCH   3   4
ATOM      4  C   UNL     1      35.724 108.132 267.794  1.00  0.00     0.000 C 
BRANCH   4   5
ATOM      5  C   UNL     1      35.947 107.985 266.279  1.00  0.00     0.000 C 
BRANCH   5   6
ATOM      6  C   UNL     1      34.875 107.116 265.599  1.00  0.00     0.000 C 
BRANCH   6   7
ATOM      7  C   UNL     1      35.134 105.614 265.802  1.00  0.00     0.000 C 
BRANCH   7   8
ATOM      8  C   UNL     1      35.169 104.848 264.471  1.00  0.00     0.000 C 
BRANCH   8   9
ATOM      9  C   UNL     1      34.910 105.787 263.284  1.00  0.00     0.000 C 
BRANCH   9  10
ATOM     10  C   UNL     1      36.092 105.838 262.303  1.00  0.00     0.000 C 
BRANCH  10  11
ATOM     11  C   UNL     1      37.351 105.144 262.851  1.00  0.00     0.000 C 
BRANCH  11  12
ATOM     12  C   UNL     1      38.576 106.072 262.874  1.00  0.00     0.000 C 
BRANCH  12  13
ATOM     13  C   UNL     1      38.676 106.951 261.614  1.00  0.00     0.006 C 
BRANCH  13  14
ATOM     14  C   UNL     1      38.971 106.128 260.354  1.00  0.00     0.053 C 
BRANCH  14  15
ATOM     15  C   UNL     1      37.723 105.555 259.752  1.00  0.00     0.041 C 
ATOM     16  O   UNL     1      37.669 104.334 259.448  1.00  0.00    -0.550 OA
ATOM     17  O   UNL     1      36.611 106.363 259.550  1.00  0.00    -0.550 OA
ENDBRANCH  14  15
ENDBRANCH  13  14
ENDBRANCH  12  13
ENDBRANCH  11  12
ENDBRANCH  10  11
ENDBRANCH   9  10
ENDBRANCH   8   9
ENDBRANCH   7   8
ENDBRANCH   6   7
ENDBRANCH   5   6
ENDBRANCH   4   5
ENDBRANCH   3   4
ENDBRANCH   2   3
ENDBRANCH   1   2
BRANCH   1  18
ATOM     18  C   UNL     1      37.492 105.280 270.356  1.00  0.00     0.000 C 
BRANCH  18  19
ATOM     19  C   UNL     1      38.020 105.249 271.803  1.00  0.00     0.000 C 
BRANCH  19  20
ATOM     20  C   UNL     1      38.570 103.889 272.267  1.00  0.00     0.000 C 
BRANCH  20  21
ATOM     21  C   UNL     1      38.617 103.697 273.794  1.00  0.00     0.000 C 
BRANCH  21  22
ATOM     22  C   UNL     1      39.360 102.417 274.235  1.00  0.00     0.000 C 
BRANCH  22  23
ATOM     23  C   UNL     1      40.051 101.709 273.055  1.00  0.00     0.000 C 
BRANCH  23  24
ATOM     24  C   UNL     1      41.092 100.668 273.521  1.00  0.00    -0.000 C 
BRANCH  24  25
ATOM     25  C   UNL     1      42.456 101.278 273.881  1.00  0.00    -0.000 C 
BRANCH  25  26
ATOM     26  C   UNL     1      43.455 100.235 274.410  1.00  0.00    -0.000 C 
BRANCH  26  27
ATOM     27  C   UNL     1      43.069  98.800 274.021  1.00  0.00    -0.000 C 
BRANCH  27  28
ATOM     28  C   UNL     1      44.290  97.868 273.927  1.00  0.00    -0.000 C 
BRANCH  28  29
ATOM     29  C   UNL     1      44.381  97.164 272.557  1.00  0.00    -0.000 C 
BRANCH  29  30
ATOM     30  C   UNL     1      43.146  96.311 272.216  1.00  0.00    -0.000 C 
BRANCH  30  31
ATOM     31  C   UNL     1      42.173  97.018 271.265  1.00  0.00    -0.003 C 
ATOM     32  C   UNL     1      41.861  96.151 270.048  1.00  0.00     0.004 C 
ENDBRANCH  30  31
ENDBRANCH  29  30
ENDBRANCH  28  29
ENDBRANCH  27  28
ENDBRANCH  26  27
ENDBRANCH  25  26
ENDBRANCH  24  25
ENDBRANCH  23  24
ENDBRANCH  22  23
ENDBRANCH  21  22
ENDBRANCH  20  21
ENDBRANCH  19  20
ENDBRANCH  18  19
ENDBRANCH   1  18
TORSDOF 28
ENDMDL
MODEL 6
REMARK VINA RESULT:    12.713      4.086     12.703
REMARK INTER + INTRA:          35.050
REMARK INTER:                  36.025
REMARK INTRA:                  -0.975
REMARK UNBOUND:                 1.526
REMARK SMILES CCCCCCCCCCCCCCCCCCCCCCCCCCCCCC(=O)[O-]
REMARK SMILES IDX 16 1 17 2 18 3 19 4 20 5 21 6 22 7 23 8 24 9 25 10 26 11
REMARK SMILES IDX 27 12 28 13 29 14 30 15 31 16 32 17 15 18 14 19 13 20 12 21
REMARK SMILES IDX 11 22 10 23 9 24 8 25 7 26 6 27 5 28 4 29 3 30 2 31 1 32
REMARK H PARENT
REMARK Flexibility Score: inf
ROOT
ATOM      1  C   UNL     1      36.280 105.754 269.882  1.00  0.00     0.000 C 
ENDROOT
BRANCH   1   2
ATOM      2  C   UNL     1      35.209 106.865 269.876  1.00  0.00     0.000 C 
BRANCH   2   3
ATOM      3  C   UNL     1      34.951 107.540 268.512  1.00  0.00     0.000 C 
BRANCH   3   4
ATOM      4  C   UNL     1      36.207 107.818 267.665  1.00  0.00     0.000 C 
BRANCH   4   5
ATOM      5  C   UNL     1      36.196 107.180 266.266  1.00  0.00     0.000 C 
BRANCH   5   6
ATOM      6  C   UNL     1      34.875 106.459 265.949  1.00  0.00     0.000 C 
BRANCH   6   7
ATOM      7  C   UNL     1      35.055 104.934 265.855  1.00  0.00     0.000 C 
BRANCH   7   8
ATOM      8  C   UNL     1      35.840 104.521 264.601  1.00  0.00     0.000 C 
BRANCH   8   9
ATOM      9  C   UNL     1      35.455 105.389 263.395  1.00  0.00     0.000 C 
BRANCH   9  10
ATOM     10  C   UNL     1      36.492 106.486 263.103  1.00  0.00     0.000 C 
BRANCH  10  11
ATOM     11  C   UNL     1      37.314 106.206 261.833  1.00  0.00     0.000 C 
BRANCH  11  12
ATOM     12  C   UNL     1      36.708 106.858 260.580  1.00  0.00     0.000 C 
BRANCH  12  13
ATOM     13  C   UNL     1      36.326 105.827 259.503  1.00  0.00     0.006 C 
BRANCH  13  14
ATOM     14  C   UNL     1      36.967 104.457 259.758  1.00  0.00     0.053 C 
BRANCH  14  15
ATOM     15  C   UNL     1      38.395 104.411 259.304  1.00  0.00     0.041 C 
ATOM     16  O   UNL     1      39.290 103.963 260.069  1.00  0.00    -0.550 OA
ATOM     17  O   UNL     1      38.735 104.840 258.026  1.00  0.00    -0.550 OA
ENDBRANCH  14  15
ENDBRANCH  13  14
ENDBRANCH  12  13
ENDBRANCH  11  12
ENDBRANCH  10  11
ENDBRANCH   9  10
ENDBRANCH   8   9
ENDBRANCH   7   8
ENDBRANCH   6   7
ENDBRANCH   5   6
ENDBRANCH   4   5
ENDBRANCH   3   4
ENDBRANCH   2   3
ENDBRANCH   1   2
BRANCH   1  18
ATOM     18  C   UNL     1      37.727 106.246 269.659  1.00  0.00     0.000 C 
BRANCH  18  19
ATOM     19  C   UNL     1      38.532 106.438 270.959  1.00  0.00     0.000 C 
BRANCH  19  20
ATOM     20  C   UNL     1      37.970 105.702 272.188  1.00  0.00     0.000 C 
BRANCH  20  21
ATOM     21  C   UNL     1      38.535 104.287 272.409  1.00  0.00     0.000 C 
BRANCH  21  22
ATOM     22  C   UNL     1      37.988 103.594 273.676  1.00  0.00     0.000 C 
BRANCH  22  23
ATOM     23  C   UNL     1      38.969 102.550 274.239  1.00  0.00     0.000 C 
BRANCH  23  24
ATOM     24  C   UNL     1      40.109 102.220 273.251  1.00  0.00    -0.000 C 
BRANCH  24  25
ATOM     25  C   UNL     1      40.856 100.918 273.583  1.00  0.00    -0.000 C 
BRANCH  25  26
ATOM     26  C   UNL     1      42.372 101.025 273.349  1.00  0.00    -0.000 C 
BRANCH  26  27
ATOM     27  C   UNL     1      43.165  99.977 274.145  1.00  0.00    -0.000 C 
BRANCH  27  28
ATOM     28  C   UNL     1      44.534 100.504 274.610  1.00  0.00    -0.000 C 
BRANCH  28  29
ATOM     29  C   UNL     1      44.591 102.046 274.621  1.00  0.00    -0.000 C 
BRANCH  29  30
ATOM     30  C   UNL     1      45.706 102.631 273.737  1.00  0.00    -0.000 C 
BRANCH  30  31
ATOM     31  C   UNL     1      45.168 103.419 272.536  1.00  0.00    -0.003 C 
ATOM     32  C   UNL     1      43.771 103.967 272.815  1.00  0.00     0.004 C 
ENDBRANCH  30  31
ENDBRANCH  29  30
ENDBRANCH  28  29
ENDBRANCH  27  28
ENDBRANCH  26  27
ENDBRANCH  25  26
ENDBRANCH  24  25
ENDBRANCH  23  24
ENDBRANCH  22  23
ENDBRANCH  21  22
ENDBRANCH  20  21
ENDBRANCH  19  20
ENDBRANCH  18  19
ENDBRANCH   1  18
TORSDOF 28
ENDMDL
MODEL 7
REMARK VINA RESULT:    12.786      3.687     12.714
REMARK INTER + INTRA:          35.240
REMARK INTER:                  35.267
REMARK INTRA:                  -0.027
REMARK UNBOUND:                 1.526
REMARK SMILES CCCCCCCCCCCCCCCCCCCCCCCCCCCCCC(=O)[O-]
REMARK SMILES IDX 16 1 17 2 18 3 19 4 20 5 21 6 22 7 23 8 24 9 25 10 26 11
REMARK SMILES IDX 27 12 28 13 29 14 30 15 31 16 32 17 15 18 14 19 13 20 12 21
REMARK SMILES IDX 11 22 10 23 9 24 8 25 7 26 6 27 5 28 4 29 3 30 2 31 1 32
REMARK H PARENT
REMARK Flexibility Score: inf
ROOT
ATOM      1  C   UNL     1      35.158 105.058 267.000  1.00  0.00     0.000 C 
ENDROOT
BRANCH   1   2
ATOM      2  C   UNL     1      34.906 103.994 265.911  1.00  0.00     0.000 C 
BRANCH   2   3
ATOM      3  C   UNL     1      34.968 104.498 264.454  1.00  0.00     0.000 C 
BRANCH   3   4
ATOM      4  C   UNL     1      35.010 106.028 264.286  1.00  0.00     0.000 C 
BRANCH   4   5
ATOM      5  C   UNL     1      35.469 106.513 262.900  1.00  0.00     0.000 C 
BRANCH   5   6
ATOM      6  C   UNL     1      35.826 105.357 261.951  1.00  0.00     0.000 C 
BRANCH   6   7
ATOM      7  C   UNL     1      36.387 105.859 260.610  1.00  0.00     0.000 C 
BRANCH   7   8
ATOM      8  C   UNL     1      36.217 104.824 259.488  1.00  0.00     0.000 C 
BRANCH   8   9
ATOM      9  C   UNL     1      37.164 105.117 258.315  1.00  0.00     0.000 C 
BRANCH   9  10
ATOM     10  C   UNL     1      38.616 104.710 258.612  1.00  0.00     0.000 C 
BRANCH  10  11
ATOM     11  C   UNL     1      38.804 104.176 260.042  1.00  0.00     0.000 C 
BRANCH  11  12
ATOM     12  C   UNL     1      39.937 104.890 260.797  1.00  0.00     0.000 C 
BRANCH  12  13
ATOM     13  C   UNL     1      39.814 106.423 260.735  1.00  0.00     0.006 C 
BRANCH  13  14
ATOM     14  C   UNL     1      38.766 106.961 261.717  1.00  0.00     0.053 C 
BRANCH  14  15
ATOM     15  C   UNL     1      39.066 106.569 263.132  1.00  0.00     0.041 C 
ATOM     16  O   UNL     1      38.195 106.716 264.030  1.00  0.00    -0.550 OA
ATOM     17  O   UNL     1      40.300 106.016 263.456  1.00  0.00    -0.550 OA
ENDBRANCH  14  15
ENDBRANCH  13  14
ENDBRANCH  12  13
ENDBRANCH  11  12
ENDBRANCH  10  11
ENDBRANCH   9  10
ENDBRANCH   8   9
ENDBRANCH   7   8
ENDBRANCH   6   7
ENDBRANCH   5   6
ENDBRANCH   4   5
ENDBRANCH   3   4
ENDBRANCH   2   3
ENDBRANCH   1   2
BRANCH   1  18
ATOM     18  C   UNL     1      35.077 104.533 268.451  1.00  0.00     0.000 C 
BRANCH  18  19
ATOM     19  C   UNL     1      34.879 105.636 269.508  1.00  0.00     0.000 C 
BRANCH  19  20
ATOM     20  C   UNL     1      35.970 106.722 269.527  1.00  0.00     0.000 C 
BRANCH  20  21
ATOM     21  C   UNL     1      36.806 106.776 270.818  1.00  0.00     0.000 C 
BRANCH  21  22
ATOM     22  C   UNL     1      38.013 105.813 270.814  1.00  0.00     0.000 C 
BRANCH  22  23
ATOM     23  C   UNL     1      37.735 104.526 271.613  1.00  0.00     0.000 C 
BRANCH  23  24
ATOM     24  C   UNL     1      38.773 104.290 272.730  1.00  0.00    -0.000 C 
BRANCH  24  25
ATOM     25  C   UNL     1      38.439 103.099 273.642  1.00  0.00    -0.000 C 
BRANCH  25  26
ATOM     26  C   UNL     1      39.099 101.790 273.179  1.00  0.00    -0.000 C 
BRANCH  26  27
ATOM     27  C   UNL     1      40.633 101.853 273.231  1.00  0.00    -0.000 C 
BRANCH  27  28
ATOM     28  C   UNL     1      41.249 100.632 273.937  1.00  0.00    -0.000 C 
BRANCH  28  29
ATOM     29  C   UNL     1      42.728 100.423 273.554  1.00  0.00    -0.000 C 
BRANCH  29  30
ATOM     30  C   UNL     1      43.695 100.509 274.748  1.00  0.00    -0.000 C 
BRANCH  30  31
ATOM     31  C   UNL     1      44.910 101.404 274.473  1.00  0.00    -0.003 C 
ATOM     32  C   UNL     1      44.494 102.710 273.802  1.00  0.00     0.004 C 
ENDBRANCH  30  31
ENDBRANCH  29  30
ENDBRANCH  28  29
ENDBRANCH  27  28
ENDBRANCH  26  27
ENDBRANCH  25  26
ENDBRANCH  24  25
ENDBRANCH  23  24
ENDBRANCH  22  23
ENDBRANCH  21  22
ENDBRANCH  20  21
ENDBRANCH  19  20
ENDBRANCH  18  19
ENDBRANCH   1  18
TORSDOF 28
ENDMDL
MODEL 8
REMARK VINA RESULT:    13.149      4.042     13.012
REMARK INTER + INTRA:          36.199
REMARK INTER:                  36.007
REMARK INTRA:                   0.192
REMARK UNBOUND:                 1.526
REMARK SMILES CCCCCCCCCCCCCCCCCCCCCCCCCCCCCC(=O)[O-]
REMARK SMILES IDX 16 1 17 2 18 3 19 4 20 5 21 6 22 7 23 8 24 9 25 10 26 11
REMARK SMILES IDX 27 12 28 13 29 14 30 15 31 16 32 17 15 18 14 19 13 20 12 21
REMARK SMILES IDX 11 22 10 23 9 24 8 25 7 26 6 27 5 28 4 29 3 30 2 31 1 32
REMARK H PARENT
REMARK Flexibility Score: inf
ROOT
ATOM      1  C   UNL     1      36.347 106.287 269.955  1.00  0.00     0.000 C 
ENDROOT
BRANCH   1   2
ATOM      2  C   UNL     1      35.574 106.978 268.812  1.00  0.00     0.000 C 
BRANCH   2   3
ATOM      3  C   UNL     1      34.879 106.036 267.807  1.00  0.00     0.000 C 
BRANCH   3   4
ATOM      4  C   UNL     1      35.070 104.531 268.072  1.00  0.00     0.000 C 
BRANCH   4   5
ATOM      5  C   UNL     1      34.929 103.633 266.831  1.00  0.00     0.000 C 
BRANCH   5   6
ATOM      6  C   UNL     1      34.875 104.434 265.518  1.00  0.00     0.000 C 
BRANCH   6   7
ATOM      7  C   UNL     1      35.570 103.697 264.361  1.00  0.00     0.000 C 
BRANCH   7   8
ATOM      8  C   UNL     1      35.003 104.104 262.993  1.00  0.00     0.000 C 
BRANCH   8   9
ATOM      9  C   UNL     1      35.338 105.567 262.666  1.00  0.00     0.000 C 
BRANCH   9  10
ATOM     10  C   UNL     1      36.455 106.130 263.560  1.00  0.00     0.000 C 
BRANCH  10  11
ATOM     11  C   UNL     1      37.842 106.050 262.899  1.00  0.00     0.000 C 
BRANCH  11  12
ATOM     12  C   UNL     1      37.878 106.717 261.514  1.00  0.00     0.000 C 
BRANCH  12  13
ATOM     13  C   UNL     1      36.604 106.445 260.694  1.00  0.00     0.006 C 
BRANCH  13  14
ATOM     14  C   UNL     1      36.910 106.208 259.210  1.00  0.00     0.053 C 
BRANCH  14  15
ATOM     15  C   UNL     1      37.667 104.933 258.988  1.00  0.00     0.041 C 
ATOM     16  O   UNL     1      37.434 103.924 259.704  1.00  0.00    -0.550 OA
ATOM     17  O   UNL     1      38.613 104.851 257.973  1.00  0.00    -0.550 OA
ENDBRANCH  14  15
ENDBRANCH  13  14
ENDBRANCH  12  13
ENDBRANCH  11  12
ENDBRANCH  10  11
ENDBRANCH   9  10
ENDBRANCH   8   9
ENDBRANCH   7   8
ENDBRANCH   6   7
ENDBRANCH   5   6
ENDBRANCH   4   5
ENDBRANCH   3   4
ENDBRANCH   2   3
ENDBRANCH   1   2
BRANCH   1  18
ATOM     18  C   UNL     1      37.795 106.786 270.153  1.00  0.00     0.000 C 
BRANCH  18  19
ATOM     19  C   UNL     1      38.525 106.139 271.345  1.00  0.00     0.000 C 
BRANCH  19  20
ATOM     20  C   UNL     1      38.217 104.647 271.565  1.00  0.00     0.000 C 
BRANCH  20  21
ATOM     21  C   UNL     1      38.471 104.139 272.997  1.00  0.00     0.000 C 
BRANCH  21  22
ATOM     22  C   UNL     1      38.747 102.622 273.075  1.00  0.00     0.000 C 
BRANCH  22  23
ATOM     23  C   UNL     1      40.075 102.307 273.787  1.00  0.00     0.000 C 
BRANCH  23  24
ATOM     24  C   UNL     1      41.241 103.176 273.269  1.00  0.00    -0.000 C 
BRANCH  24  25
ATOM     25  C   UNL     1      42.628 102.657 273.681  1.00  0.00    -0.000 C 
BRANCH  25  26
ATOM     26  C   UNL     1      42.803 101.152 273.422  1.00  0.00    -0.000 C 
BRANCH  26  27
ATOM     27  C   UNL     1      43.853 100.514 274.344  1.00  0.00    -0.000 C 
BRANCH  27  28
ATOM     28  C   UNL     1      43.337  99.237 275.029  1.00  0.00    -0.000 C 
BRANCH  28  29
ATOM     29  C   UNL     1      42.466  98.381 274.085  1.00  0.00    -0.000 C 
BRANCH  29  30
ATOM     30  C   UNL     1      43.146  98.053 272.744  1.00  0.00    -0.000 C 
BRANCH  30  31
ATOM     31  C   UNL     1      44.011  96.788 272.803  1.00  0.00    -0.003 C 
ATOM     32  C   UNL     1      43.337  95.623 272.084  1.00  0.00     0.004 C 
ENDBRANCH  30  31
ENDBRANCH  29  30
ENDBRANCH  28  29
ENDBRANCH  27  28
ENDBRANCH  26  27
ENDBRANCH  25  26
ENDBRANCH  24  25
ENDBRANCH  23  24
ENDBRANCH  22  23
ENDBRANCH  21  22
ENDBRANCH  20  21
ENDBRANCH  19  20
ENDBRANCH  18  19
ENDBRANCH   1  18
TORSDOF 28
ENDMDL
MODEL 9
REMARK VINA RESULT:    13.370      4.794     13.033
REMARK INTER + INTRA:          36.781
REMARK INTER:                  37.714
REMARK INTRA:                  -0.932
REMARK UNBOUND:                 1.526
REMARK SMILES CCCCCCCCCCCCCCCCCCCCCCCCCCCCCC(=O)[O-]
REMARK SMILES IDX 16 1 17 2 18 3 19 4 20 5 21 6 22 7 23 8 24 9 25 10 26 11
REMARK SMILES IDX 27 12 28 13 29 14 30 15 31 16 32 17 15 18 14 19 13 20 12 21
REMARK SMILES IDX 11 22 10 23 9 24 8 25 7 26 6 27 5 28 4 29 3 30 2 31 1 32
REMARK H PARENT
REMARK Flexibility Score: inf
ROOT
ATOM      1  C   UNL     1      38.011 104.938 270.910  1.00  0.00     0.000 C 
ENDROOT
BRANCH   1   2
ATOM      2  C   UNL     1      37.081 106.145 270.667  1.00  0.00     0.000 C 
BRANCH   2   3
ATOM      3  C   UNL     1      35.852 105.875 269.773  1.00  0.00     0.000 C 
BRANCH   3   4
ATOM      4  C   UNL     1      34.893 107.066 269.593  1.00  0.00     0.000 C 
BRANCH   4   5
ATOM      5  C   UNL     1      35.150 107.918 268.338  1.00  0.00     0.000 C 
BRANCH   5   6
ATOM      6  C   UNL     1      34.875 107.156 267.031  1.00  0.00     0.000 C 
BRANCH   6   7
ATOM      7  C   UNL     1      35.810 107.599 265.894  1.00  0.00     0.000 C 
BRANCH   7   8
ATOM      8  C   UNL     1      35.210 107.314 264.508  1.00  0.00     0.000 C 
BRANCH   8   9
ATOM      9  C   UNL     1      35.203 105.809 264.206  1.00  0.00     0.000 C 
BRANCH   9  10
ATOM     10  C   UNL     1      36.048 105.450 262.973  1.00  0.00     0.000 C 
BRANCH  10  11
ATOM     11  C   UNL     1      37.482 105.999 263.054  1.00  0.00     0.000 C 
BRANCH  11  12
ATOM     12  C   UNL     1      37.983 106.549 261.708  1.00  0.00     0.000 C 
BRANCH  12  13
ATOM     13  C   UNL     1      38.442 105.437 260.749  1.00  0.00     0.006 C 
BRANCH  13  14
ATOM     14  C   UNL     1      38.055 105.729 259.294  1.00  0.00     0.053 C 
BRANCH  14  15
ATOM     15  C   UNL     1      36.570 105.690 259.087  1.00  0.00     0.041 C 
ATOM     16  O   UNL     1      35.812 105.292 260.011  1.00  0.00    -0.550 OA
ATOM     17  O   UNL     1      36.022 106.116 257.883  1.00  0.00    -0.550 OA
ENDBRANCH  14  15
ENDBRANCH  13  14
ENDBRANCH  12  13
ENDBRANCH  11  12
ENDBRANCH  10  11
ENDBRANCH   9  10
ENDBRANCH   8   9
ENDBRANCH   7   8
ENDBRANCH   6   7
ENDBRANCH   5   6
ENDBRANCH   4   5
ENDBRANCH   3   4
ENDBRANCH   2   3
ENDBRANCH   1   2
BRANCH   1  18
ATOM     18  C   UNL     1      37.976 104.371 272.347  1.00  0.00     0.000 C 
BRANCH  18  19
ATOM     19  C   UNL     1      39.216 103.538 272.724  1.00  0.00     0.000 C 
BRANCH  19  20
ATOM     20  C   UNL     1      38.995 102.516 273.854  1.00  0.00     0.000 C 
BRANCH  20  21
ATOM     21  C   UNL     1      39.662 101.147 273.628  1.00  0.00     0.000 C 
BRANCH  21  22
ATOM     22  C   UNL     1      41.206 101.199 273.658  1.00  0.00     0.000 C 
BRANCH  22  23
ATOM     23  C   UNL     1      41.805 100.160 274.623  1.00  0.00     0.000 C 
BRANCH  23  24
ATOM     24  C   UNL     1      42.994  99.396 274.001  1.00  0.00    -0.000 C 
BRANCH  24  25
ATOM     25  C   UNL     1      44.210 100.287 273.699  1.00  0.00    -0.000 C 
BRANCH  25  26
ATOM     26  C   UNL     1      44.717 101.044 274.937  1.00  0.00    -0.000 C 
BRANCH  26  27
ATOM     27  C   UNL     1      44.501 102.561 274.828  1.00  0.00    -0.000 C 
BRANCH  27  28
ATOM     28  C   UNL     1      44.269 103.020 273.378  1.00  0.00    -0.000 C 
BRANCH  28  29
ATOM     29  C   UNL     1      45.577 103.053 272.561  1.00  0.00    -0.000 C 
BRANCH  29  30
ATOM     30  C   UNL     1      46.038 104.473 272.187  1.00  0.00    -0.000 C 
BRANCH  30  31
ATOM     31  C   UNL     1      44.876 105.464 272.047  1.00  0.00    -0.003 C 
ATOM     32  C   UNL     1      44.838 106.078 270.651  1.00  0.00     0.004 C 
ENDBRANCH  30  31
ENDBRANCH  29  30
ENDBRANCH  28  29
ENDBRANCH  27  28
ENDBRANCH  26  27
ENDBRANCH  25  26
ENDBRANCH  24  25
ENDBRANCH  23  24
ENDBRANCH  22  23
ENDBRANCH  21  22
ENDBRANCH  20  21
ENDBRANCH  19  20
ENDBRANCH  18  19
ENDBRANCH   1  18
TORSDOF 28
ENDMDL
