MODEL 1
REMARK VINA RESULT:    -4.057      0.000      0.000
REMARK INTER + INTRA:          -6.571
REMARK INTER:                  -6.428
REMARK INTRA:                  -0.143
REMARK UNBOUND:                -0.143
REMARK SMILES CCCCCCCCCCCC(=O)[O-]
REMARK SMILES IDX 7 1 8 2 9 3 10 4 11 5 12 6 13 7 14 8 6 9 5 10 4 11 3 12 2 13
REMARK SMILES IDX 1 14
REMARK H PARENT
REMARK Flexibility Score: inf
ROOT
ATOM      1  C   UNL     1      40.659  51.259   8.824  1.00  0.00     0.000 C 
ENDROOT
BRANCH   1   2
ATOM      2  C   UNL     1      40.333  52.712   9.200  1.00  0.00     0.000 C 
BRANCH   2   3
ATOM      3  C   UNL     1      41.579  53.599   9.092  1.00  0.00     0.000 C 
BRANCH   3   4
ATOM      4  C   UNL     1      42.048  53.714   7.634  1.00  0.00     0.006 C 
BRANCH   4   5
ATOM      5  C   UNL     1      43.298  54.593   7.493  1.00  0.00     0.053 C 
BRANCH   5   6
ATOM      6  C   UNL     1      44.455  53.825   6.930  1.00  0.00     0.041 C 
ATOM      7  O   UNL     1      45.021  54.214   5.875  1.00  0.00    -0.550 OA
ATOM      8  O   UNL     1      44.887  52.662   7.554  1.00  0.00    -0.550 OA
ENDBRANCH   5   6
ENDBRANCH   4   5
ENDBRANCH   3   4
ENDBRANCH   2   3
ENDBRANCH   1   2
BRANCH   1   9
ATOM      9  C   UNL     1      42.166  50.961   8.867  1.00  0.00     0.000 C 
BRANCH   9  10
ATOM     10  C   UNL     1      42.500  49.524   8.424  1.00  0.00    -0.000 C 
BRANCH  10  11
ATOM     11  C   UNL     1      44.004  49.207   8.568  1.00  0.00    -0.000 C 
BRANCH  11  12
ATOM     12  C   UNL     1      44.380  48.616   9.938  1.00  0.00    -0.000 C 
BRANCH  12  13
ATOM     13  C   UNL     1      45.072  47.251   9.828  1.00  0.00    -0.003 C 
ATOM     14  C   UNL     1      44.800  46.604   8.473  1.00  0.00     0.004 C 
ENDBRANCH  12  13
ENDBRANCH  11  12
ENDBRANCH  10  11
ENDBRANCH   9  10
ENDBRANCH   1   9
TORSDOF 10
ENDMDL
MODEL 2
REMARK VINA RESULT:    -3.992     19.181     20.510
REMARK INTER + INTRA:          -6.468
REMARK INTER:                  -5.880
REMARK INTRA:                  -0.589
REMARK UNBOUND:                -0.143
REMARK SMILES CCCCCCCCCCCC(=O)[O-]
REMARK SMILES IDX 7 1 8 2 9 3 10 4 11 5 12 6 13 7 14 8 6 9 5 10 4 11 3 12 2 13
REMARK SMILES IDX 1 14
REMARK H PARENT
REMARK Flexibility Score: inf
ROOT
ATOM      1  C   UNL     1      33.506  48.647  25.050  1.00  0.00     0.000 C 
ENDROOT
BRANCH   1   2
ATOM      2  C   UNL     1      34.313  47.478  25.635  1.00  0.00     0.000 C 
BRANCH   2   3
ATOM      3  C   UNL     1      33.563  46.152  25.462  1.00  0.00     0.000 C 
BRANCH   3   4
ATOM      4  C   UNL     1      34.437  44.964  25.887  1.00  0.00     0.006 C 
BRANCH   4   5
ATOM      5  C   UNL     1      35.935  45.263  25.741  1.00  0.00     0.053 C 
BRANCH   5   6
ATOM      6  C   UNL     1      36.682  44.090  25.183  1.00  0.00     0.041 C 
ATOM      7  O   UNL     1      37.917  43.966  25.393  1.00  0.00    -0.550 OA
ATOM      8  O   UNL     1      36.019  43.150  24.405  1.00  0.00    -0.550 OA
ENDBRANCH   5   6
ENDBRANCH   4   5
ENDBRANCH   3   4
ENDBRANCH   2   3
ENDBRANCH   1   2
BRANCH   1   9
ATOM      9  C   UNL     1      34.276  49.976  25.091  1.00  0.00     0.000 C 
BRANCH   9  10
ATOM     10  C   UNL     1      33.643  50.999  26.053  1.00  0.00    -0.000 C 
BRANCH  10  11
ATOM     11  C   UNL     1      33.508  52.396  25.409  1.00  0.00    -0.000 C 
BRANCH  11  12
ATOM     12  C   UNL     1      32.063  52.924  25.380  1.00  0.00    -0.000 C 
BRANCH  12  13
ATOM     13  C   UNL     1      31.036  51.835  25.044  1.00  0.00    -0.003 C 
ATOM     14  C   UNL     1      30.871  51.683  23.534  1.00  0.00     0.004 C 
ENDBRANCH  12  13
ENDBRANCH  11  12
ENDBRANCH  10  11
ENDBRANCH   9  10
ENDBRANCH   1   9
TORSDOF 10
ENDMDL
MODEL 3
REMARK VINA RESULT:    -3.970     11.434     13.586
REMARK INTER + INTRA:          -6.433
REMARK INTER:                  -5.028
REMARK INTRA:                  -1.405
REMARK UNBOUND:                -0.143
REMARK SMILES CCCCCCCCCCCC(=O)[O-]
REMARK SMILES IDX 7 1 8 2 9 3 10 4 11 5 12 6 13 7 14 8 6 9 5 10 4 11 3 12 2 13
REMARK SMILES IDX 1 14
REMARK H PARENT
REMARK Flexibility Score: inf
ROOT
ATOM      1  C   UNL     1      30.899  46.953   8.785  1.00  0.00     0.000 C 
ENDROOT
BRANCH   1   2
ATOM      2  C   UNL     1      31.917  47.903   8.138  1.00  0.00     0.000 C 
BRANCH   2   3
ATOM      3  C   UNL     1      31.605  48.111   6.651  1.00  0.00     0.000 C 
BRANCH   3   4
ATOM      4  C   UNL     1      31.586  49.605   6.295  1.00  0.00     0.006 C 
BRANCH   4   5
ATOM      5  C   UNL     1      32.269  50.466   7.365  1.00  0.00     0.053 C 
BRANCH   5   6
ATOM      6  C   UNL     1      32.212  51.924   7.023  1.00  0.00     0.041 C 
ATOM      7  O   UNL     1      33.270  52.605   6.972  1.00  0.00    -0.550 OA
ATOM      8  O   UNL     1      30.987  52.537   6.791  1.00  0.00    -0.550 OA
ENDBRANCH   5   6
ENDBRANCH   4   5
ENDBRANCH   3   4
ENDBRANCH   2   3
ENDBRANCH   1   2
BRANCH   1   9
ATOM      9  C   UNL     1      30.157  46.089   7.753  1.00  0.00     0.000 C 
BRANCH   9  10
ATOM     10  C   UNL     1      28.659  46.431   7.660  1.00  0.00    -0.000 C 
BRANCH  10  11
ATOM     11  C   UNL     1      28.106  46.990   8.988  1.00  0.00    -0.000 C 
BRANCH  11  12
ATOM     12  C   UNL     1      27.402  48.350   8.839  1.00  0.00    -0.000 C 
BRANCH  12  13
ATOM     13  C   UNL     1      28.128  49.295   7.872  1.00  0.00    -0.003 C 
ATOM     14  C   UNL     1      28.818  50.428   8.627  1.00  0.00     0.004 C 
ENDBRANCH  12  13
ENDBRANCH  11  12
ENDBRANCH  10  11
ENDBRANCH   9  10
ENDBRANCH   1   9
TORSDOF 10
ENDMDL
MODEL 4
REMARK VINA RESULT:    -3.968     13.160     15.546
REMARK INTER + INTRA:          -6.430
REMARK INTER:                  -5.101
REMARK INTRA:                  -1.328
REMARK UNBOUND:                -0.143
REMARK SMILES CCCCCCCCCCCC(=O)[O-]
REMARK SMILES IDX 7 1 8 2 9 3 10 4 11 5 12 6 13 7 14 8 6 9 5 10 4 11 3 12 2 13
REMARK SMILES IDX 1 14
REMARK H PARENT
REMARK Flexibility Score: inf
ROOT
ATOM      1  C   UNL     1      31.684  47.222   8.226  1.00  0.00     0.000 C 
ENDROOT
BRANCH   1   2
ATOM      2  C   UNL     1      30.253  46.722   8.473  1.00  0.00     0.000 C 
BRANCH   2   3
ATOM      3  C   UNL     1      29.486  47.685   9.388  1.00  0.00     0.000 C 
BRANCH   3   4
ATOM      4  C   UNL     1      27.983  47.665   9.074  1.00  0.00     0.006 C 
BRANCH   4   5
ATOM      5  C   UNL     1      27.571  46.414   8.287  1.00  0.00     0.053 C 
BRANCH   5   6
ATOM      6  C   UNL     1      26.644  45.542   9.078  1.00  0.00     0.041 C 
ATOM      7  O   UNL     1      25.996  46.019  10.047  1.00  0.00    -0.550 OA
ATOM      8  O   UNL     1      26.521  44.194   8.765  1.00  0.00    -0.550 OA
ENDBRANCH   5   6
ENDBRANCH   4   5
ENDBRANCH   3   4
ENDBRANCH   2   3
ENDBRANCH   1   2
BRANCH   1   9
ATOM      9  C   UNL     1      31.749  48.322   7.154  1.00  0.00     0.000 C 
BRANCH   9  10
ATOM     10  C   UNL     1      32.302  49.651   7.701  1.00  0.00    -0.000 C 
BRANCH  10  11
ATOM     11  C   UNL     1      31.279  50.801   7.577  1.00  0.00    -0.000 C 
BRANCH  11  12
ATOM     12  C   UNL     1      30.150  50.515   6.572  1.00  0.00    -0.000 C 
BRANCH  12  13
ATOM     13  C   UNL     1      28.752  50.693   7.180  1.00  0.00    -0.003 C 
ATOM     14  C   UNL     1      28.835  51.297   8.579  1.00  0.00     0.004 C 
ENDBRANCH  12  13
ENDBRANCH  11  12
ENDBRANCH  10  11
ENDBRANCH   9  10
ENDBRANCH   1   9
TORSDOF 10
ENDMDL
MODEL 5
REMARK VINA RESULT:    -3.966     12.505     14.627
REMARK INTER + INTRA:          -6.427
REMARK INTER:                  -5.460
REMARK INTRA:                  -0.967
REMARK UNBOUND:                -0.143
REMARK SMILES CCCCCCCCCCCC(=O)[O-]
REMARK SMILES IDX 7 1 8 2 9 3 10 4 11 5 12 6 13 7 14 8 6 9 5 10 4 11 3 12 2 13
REMARK SMILES IDX 1 14
REMARK H PARENT
REMARK Flexibility Score: inf
ROOT
ATOM      1  C   UNL     1      29.825  46.667   8.404  1.00  0.00     0.000 C 
ENDROOT
BRANCH   1   2
ATOM      2  C   UNL     1      31.352  46.518   8.327  1.00  0.00     0.000 C 
BRANCH   2   3
ATOM      3  C   UNL     1      32.019  47.865   8.020  1.00  0.00     0.000 C 
BRANCH   3   4
ATOM      4  C   UNL     1      31.730  48.306   6.577  1.00  0.00     0.006 C 
BRANCH   4   5
ATOM      5  C   UNL     1      31.002  49.656   6.517  1.00  0.00     0.053 C 
BRANCH   5   6
ATOM      6  C   UNL     1      31.576  50.639   7.492  1.00  0.00     0.041 C 
ATOM      7  O   UNL     1      30.901  51.015   8.485  1.00  0.00    -0.550 OA
ATOM      8  O   UNL     1      32.846  51.163   7.284  1.00  0.00    -0.550 OA
ENDBRANCH   5   6
ENDBRANCH   4   5
ENDBRANCH   3   4
ENDBRANCH   2   3
ENDBRANCH   1   2
BRANCH   1   9
ATOM      9  C   UNL     1      29.379  47.625   9.519  1.00  0.00     0.000 C 
BRANCH   9  10
ATOM     10  C   UNL     1      28.395  48.700   9.020  1.00  0.00    -0.000 C 
BRANCH  10  11
ATOM     11  C   UNL     1      27.241  48.092   8.195  1.00  0.00    -0.000 C 
BRANCH  11  12
ATOM     12  C   UNL     1      25.995  47.756   9.032  1.00  0.00    -0.000 C 
BRANCH  12  13
ATOM     13  C   UNL     1      26.027  46.333   9.605  1.00  0.00    -0.003 C 
ATOM     14  C   UNL     1      25.002  46.168  10.724  1.00  0.00     0.004 C 
ENDBRANCH  12  13
ENDBRANCH  11  12
ENDBRANCH  10  11
ENDBRANCH   9  10
ENDBRANCH   1   9
TORSDOF 10
ENDMDL
MODEL 6
REMARK VINA RESULT:    -3.955     11.230     13.694
REMARK INTER + INTRA:          -6.409
REMARK INTER:                  -5.510
REMARK INTRA:                  -0.899
REMARK UNBOUND:                -0.143
REMARK SMILES CCCCCCCCCCCC(=O)[O-]
REMARK SMILES IDX 7 1 8 2 9 3 10 4 11 5 12 6 13 7 14 8 6 9 5 10 4 11 3 12 2 13
REMARK SMILES IDX 1 14
REMARK H PARENT
REMARK Flexibility Score: inf
ROOT
ATOM      1  C   UNL     1      32.028  47.886   8.321  1.00  0.00     0.000 C 
ENDROOT
BRANCH   1   2
ATOM      2  C   UNL     1      31.200  46.593   8.289  1.00  0.00     0.000 C 
BRANCH   2   3
ATOM      3  C   UNL     1      29.713  46.900   8.074  1.00  0.00     0.000 C 
BRANCH   3   4
ATOM      4  C   UNL     1      29.100  47.555   9.320  1.00  0.00     0.006 C 
BRANCH   4   5
ATOM      5  C   UNL     1      27.998  48.562   8.964  1.00  0.00     0.053 C 
BRANCH   5   6
ATOM      6  C   UNL     1      28.566  49.842   8.432  1.00  0.00     0.041 C 
ATOM      7  O   UNL     1      29.278  50.574   9.168  1.00  0.00    -0.550 OA
ATOM      8  O   UNL     1      28.283  50.241   7.132  1.00  0.00    -0.550 OA
ENDBRANCH   5   6
ENDBRANCH   4   5
ENDBRANCH   3   4
ENDBRANCH   2   3
ENDBRANCH   1   2
BRANCH   1   9
ATOM      9  C   UNL     1      31.801  48.766   7.082  1.00  0.00     0.000 C 
BRANCH   9  10
ATOM     10  C   UNL     1      32.176  50.240   7.323  1.00  0.00    -0.000 C 
BRANCH  10  11
ATOM     11  C   UNL     1      31.595  51.172   6.239  1.00  0.00    -0.000 C 
BRANCH  11  12
ATOM     12  C   UNL     1      31.915  52.659   6.469  1.00  0.00    -0.000 C 
BRANCH  12  13
ATOM     13  C   UNL     1      33.358  52.893   6.934  1.00  0.00    -0.003 C 
ATOM     14  C   UNL     1      34.005  54.040   6.162  1.00  0.00     0.004 C 
ENDBRANCH  12  13
ENDBRANCH  11  12
ENDBRANCH  10  11
ENDBRANCH   9  10
ENDBRANCH   1   9
TORSDOF 10
ENDMDL
MODEL 7
REMARK VINA RESULT:    -3.939     18.813     19.652
REMARK INTER + INTRA:          -6.385
REMARK INTER:                  -5.999
REMARK INTRA:                  -0.386
REMARK UNBOUND:                -0.143
REMARK SMILES CCCCCCCCCCCC(=O)[O-]
REMARK SMILES IDX 7 1 8 2 9 3 10 4 11 5 12 6 13 7 14 8 6 9 5 10 4 11 3 12 2 13
REMARK SMILES IDX 1 14
REMARK H PARENT
REMARK Flexibility Score: inf
ROOT
ATOM      1  C   UNL     1      33.940  47.885  25.071  1.00  0.00     0.000 C 
ENDROOT
BRANCH   1   2
ATOM      2  C   UNL     1      34.899  49.047  25.371  1.00  0.00     0.000 C 
BRANCH   2   3
ATOM      3  C   UNL     1      34.183  50.397  25.237  1.00  0.00     0.000 C 
BRANCH   3   4
ATOM      4  C   UNL     1      32.795  50.224  24.603  1.00  0.00     0.006 C 
BRANCH   4   5
ATOM      5  C   UNL     1      31.724  51.063  25.311  1.00  0.00     0.053 C 
BRANCH   5   6
ATOM      6  C   UNL     1      30.622  51.459  24.376  1.00  0.00     0.041 C 
ATOM      7  O   UNL     1      30.877  51.734  23.175  1.00  0.00    -0.550 OA
ATOM      8  O   UNL     1      29.316  51.553  24.842  1.00  0.00    -0.550 OA
ENDBRANCH   5   6
ENDBRANCH   4   5
ENDBRANCH   3   4
ENDBRANCH   2   3
ENDBRANCH   1   2
BRANCH   1   9
ATOM      9  C   UNL     1      34.161  46.681  26.000  1.00  0.00     0.000 C 
BRANCH   9  10
ATOM     10  C   UNL     1      35.601  46.138  25.936  1.00  0.00    -0.000 C 
BRANCH  10  11
ATOM     11  C   UNL     1      35.645  44.597  26.000  1.00  0.00    -0.000 C 
BRANCH  11  12
ATOM     12  C   UNL     1      36.857  43.984  25.277  1.00  0.00    -0.000 C 
BRANCH  12  13
ATOM     13  C   UNL     1      36.463  42.900  24.266  1.00  0.00    -0.003 C 
ATOM     14  C   UNL     1      37.685  42.110  23.803  1.00  0.00     0.004 C 
ENDBRANCH  12  13
ENDBRANCH  11  12
ENDBRANCH  10  11
ENDBRANCH   9  10
ENDBRANCH   1   9
TORSDOF 10
ENDMDL
MODEL 8
REMARK VINA RESULT:    -3.905     13.662     15.795
REMARK INTER + INTRA:          -6.331
REMARK INTER:                  -5.140
REMARK INTRA:                  -1.190
REMARK UNBOUND:                -0.143
REMARK SMILES CCCCCCCCCCCC(=O)[O-]
REMARK SMILES IDX 7 1 8 2 9 3 10 4 11 5 12 6 13 7 14 8 6 9 5 10 4 11 3 12 2 13
REMARK SMILES IDX 1 14
REMARK H PARENT
REMARK Flexibility Score: inf
ROOT
ATOM      1  C   UNL     1      29.564  47.608   9.626  1.00  0.00     0.000 C 
ENDROOT
BRANCH   1   2
ATOM      2  C   UNL     1      28.632  48.759   9.221  1.00  0.00     0.000 C 
BRANCH   2   3
ATOM      3  C   UNL     1      27.631  48.303   8.152  1.00  0.00     0.000 C 
BRANCH   3   4
ATOM      4  C   UNL     1      26.213  48.197   8.733  1.00  0.00     0.006 C 
BRANCH   4   5
ATOM      5  C   UNL     1      25.553  46.850   8.413  1.00  0.00     0.053 C 
BRANCH   5   6
ATOM      6  C   UNL     1      25.841  45.826   9.468  1.00  0.00     0.041 C 
ATOM      7  O   UNL     1      26.419  44.750   9.167  1.00  0.00    -0.550 OA
ATOM      8  O   UNL     1      25.440  46.048  10.780  1.00  0.00    -0.550 OA
ENDBRANCH   5   6
ENDBRANCH   4   5
ENDBRANCH   3   4
ENDBRANCH   2   3
ENDBRANCH   1   2
BRANCH   1   9
ATOM      9  C   UNL     1      30.143  46.861   8.414  1.00  0.00     0.000 C 
BRANCH   9  10
ATOM     10  C   UNL     1      31.619  47.214   8.148  1.00  0.00    -0.000 C 
BRANCH  10  11
ATOM     11  C   UNL     1      31.767  48.377   7.145  1.00  0.00    -0.000 C 
BRANCH  11  12
ATOM     12  C   UNL     1      32.274  49.681   7.785  1.00  0.00    -0.000 C 
BRANCH  12  13
ATOM     13  C   UNL     1      31.363  50.881   7.494  1.00  0.00    -0.003 C 
ATOM     14  C   UNL     1      30.318  50.535   6.437  1.00  0.00     0.004 C 
ENDBRANCH  12  13
ENDBRANCH  11  12
ENDBRANCH  10  11
ENDBRANCH   9  10
ENDBRANCH   1   9
TORSDOF 10
ENDMDL
MODEL 9
REMARK VINA RESULT:    -3.865     12.140     14.142
REMARK INTER + INTRA:          -6.268
REMARK INTER:                  -4.989
REMARK INTRA:                  -1.278
REMARK UNBOUND:                -0.143
REMARK SMILES CCCCCCCCCCCC(=O)[O-]
REMARK SMILES IDX 7 1 8 2 9 3 10 4 11 5 12 6 13 7 14 8 6 9 5 10 4 11 3 12 2 13
REMARK SMILES IDX 1 14
REMARK H PARENT
REMARK Flexibility Score: inf
ROOT
ATOM      1  C   UNL     1      28.866  46.207   8.033  1.00  0.00     0.000 C 
ENDROOT
BRANCH   1   2
ATOM      2  C   UNL     1      28.661  47.141   9.235  1.00  0.00     0.000 C 
BRANCH   2   3
ATOM      3  C   UNL     1      27.646  48.243   8.905  1.00  0.00     0.000 C 
BRANCH   3   4
ATOM      4  C   UNL     1      28.065  49.021   7.650  1.00  0.00     0.006 C 
BRANCH   4   5
ATOM      5  C   UNL     1      27.611  50.486   7.694  1.00  0.00     0.053 C 
BRANCH   5   6
ATOM      6  C   UNL     1      28.720  51.398   8.122  1.00  0.00     0.041 C 
ATOM      7  O   UNL     1      29.254  51.260   9.253  1.00  0.00    -0.550 OA
ATOM      8  O   UNL     1      29.142  52.421   7.282  1.00  0.00    -0.550 OA
ENDBRANCH   5   6
ENDBRANCH   4   5
ENDBRANCH   3   4
ENDBRANCH   2   3
ENDBRANCH   1   2
BRANCH   1   9
ATOM      9  C   UNL     1      30.350  46.013   7.681  1.00  0.00     0.000 C 
BRANCH   9  10
ATOM     10  C   UNL     1      31.293  46.683   8.697  1.00  0.00    -0.000 C 
BRANCH  10  11
ATOM     11  C   UNL     1      31.988  47.930   8.110  1.00  0.00    -0.000 C 
BRANCH  11  12
ATOM     12  C   UNL     1      31.575  48.241   6.661  1.00  0.00    -0.000 C 
BRANCH  12  13
ATOM     13  C   UNL     1      31.584  49.743   6.347  1.00  0.00    -0.003 C 
ATOM     14  C   UNL     1      32.332  50.524   7.425  1.00  0.00     0.004 C 
ENDBRANCH  12  13
ENDBRANCH  11  12
ENDBRANCH  10  11
ENDBRANCH   9  10
ENDBRANCH   1   9
TORSDOF 10
ENDMDL
