MODEL 1
REMARK VINA RESULT:    -4.163      0.000      0.000
REMARK INTER + INTRA:         -13.499
REMARK INTER:                  -9.518
REMARK INTRA:                  -3.981
REMARK UNBOUND:                -3.981
REMARK SMILES CCCCCCCCCCCCCCCCCCCCCCCC(=O)[O-]
REMARK SMILES IDX 13 1 14 2 15 3 16 4 17 5 18 6 19 7 20 8 21 9 22 10 23 11
REMARK SMILES IDX 24 12 25 13 26 14 12 15 11 16 10 17 9 18 8 19 7 20 6 21 5 22
REMARK SMILES IDX 4 23 3 24 2 25 1 26
REMARK H PARENT
REMARK Flexibility Score: inf
ROOT
ATOM      1  C   UNL     1      -5.290  -0.957   8.735  1.00  0.00     0.000 C 
ENDROOT
BRANCH   1   2
ATOM      2  C   UNL     1      -4.710   0.204   9.558  1.00  0.00     0.000 C 
BRANCH   2   3
ATOM      3  C   UNL     1      -5.755   0.881  10.464  1.00  0.00     0.000 C 
BRANCH   3   4
ATOM      4  C   UNL     1      -7.204   0.750   9.948  1.00  0.00     0.000 C 
BRANCH   4   5
ATOM      5  C   UNL     1      -8.110   0.001  10.941  1.00  0.00     0.000 C 
BRANCH   5   6
ATOM      6  C   UNL     1      -9.367  -0.578  10.272  1.00  0.00     0.000 C 
BRANCH   6   7
ATOM      7  C   UNL     1      -9.231  -2.080   9.971  1.00  0.00     0.000 C 
BRANCH   7   8
ATOM      8  C   UNL     1      -9.380  -2.410   8.474  1.00  0.00     0.000 C 
BRANCH   8   9
ATOM      9  C   UNL     1      -8.786  -1.365   7.511  1.00  0.00     0.000 C 
BRANCH   9  10
ATOM     10  C   UNL     1      -8.216  -1.984   6.228  1.00  0.00     0.006 C 
BRANCH  10  11
ATOM     11  C   UNL     1      -8.796  -3.381   5.989  1.00  0.00     0.053 C 
BRANCH  11  12
ATOM     12  C   UNL     1      -7.705  -4.354   5.666  1.00  0.00     0.041 C 
ATOM     13  O   UNL     1      -7.919  -5.592   5.738  1.00  0.00    -0.550 OA
ATOM     14  O   UNL     1      -6.438  -3.892   5.335  1.00  0.00    -0.550 OA
ENDBRANCH  11  12
ENDBRANCH  10  11
ENDBRANCH   9  10
ENDBRANCH   8   9
ENDBRANCH   7   8
ENDBRANCH   6   7
ENDBRANCH   5   6
ENDBRANCH   4   5
ENDBRANCH   3   4
ENDBRANCH   2   3
ENDBRANCH   1   2
BRANCH   1  15
ATOM     15  C   UNL     1      -5.126  -2.317   9.446  1.00  0.00     0.000 C 
BRANCH  15  16
ATOM     16  C   UNL     1      -6.006  -3.428   8.851  1.00  0.00     0.000 C 
BRANCH  16  17
ATOM     17  C   UNL     1      -5.279  -4.780   8.757  1.00  0.00     0.000 C 
BRANCH  17  18
ATOM     18  C   UNL     1      -3.890  -4.748   9.430  1.00  0.00    -0.000 C 
BRANCH  18  19
ATOM     19  C   UNL     1      -2.728  -5.089   8.477  1.00  0.00    -0.000 C 
BRANCH  19  20
ATOM     20  C   UNL     1      -1.490  -4.182   8.607  1.00  0.00    -0.000 C 
BRANCH  20  21
ATOM     21  C   UNL     1      -1.646  -2.777   7.995  1.00  0.00    -0.000 C 
BRANCH  21  22
ATOM     22  C   UNL     1      -1.573  -1.656   9.042  1.00  0.00    -0.000 C 
BRANCH  22  23
ATOM     23  C   UNL     1      -0.781  -2.111  10.277  1.00  0.00    -0.000 C 
BRANCH  23  24
ATOM     24  C   UNL     1      -1.512  -1.817  11.600  1.00  0.00    -0.000 C 
BRANCH  24  25
ATOM     25  C   UNL     1      -2.430  -2.947  12.097  1.00  0.00    -0.003 C 
ATOM     26  C   UNL     1      -2.528  -3.012  13.620  1.00  0.00     0.004 C 
ENDBRANCH  24  25
ENDBRANCH  23  24
ENDBRANCH  22  23
ENDBRANCH  21  22
ENDBRANCH  20  21
ENDBRANCH  19  20
ENDBRANCH  18  19
ENDBRANCH  17  18
ENDBRANCH  16  17
ENDBRANCH  15  16
ENDBRANCH   1  15
TORSDOF 22
ENDMDL
MODEL 2
REMARK VINA RESULT:    -4.095      9.900     13.759
REMARK INTER + INTRA:         -13.342
REMARK INTER:                 -10.313
REMARK INTRA:                  -3.029
REMARK UNBOUND:                -3.981
REMARK SMILES CCCCCCCCCCCCCCCCCCCCCCCC(=O)[O-]
REMARK SMILES IDX 13 1 14 2 15 3 16 4 17 5 18 6 19 7 20 8 21 9 22 10 23 11
REMARK SMILES IDX 24 12 25 13 26 14 12 15 11 16 10 17 9 18 8 19 7 20 6 21 5 22
REMARK SMILES IDX 4 23 3 24 2 25 1 26
REMARK H PARENT
REMARK Flexibility Score: inf
ROOT
ATOM      1  C   UNL     1       5.850   5.299   8.325  1.00  0.00     0.000 C 
ENDROOT
BRANCH   1   2
ATOM      2  C   UNL     1       6.783   4.153   8.747  1.00  0.00     0.000 C 
BRANCH   2   3
ATOM      3  C   UNL     1       8.271   4.472   8.519  1.00  0.00     0.000 C 
BRANCH   3   4
ATOM      4  C   UNL     1       9.185   3.228   8.538  1.00  0.00     0.000 C 
BRANCH   4   5
ATOM      5  C   UNL     1       8.695   2.161   9.533  1.00  0.00     0.000 C 
BRANCH   5   6
ATOM      6  C   UNL     1       8.496   0.787   8.874  1.00  0.00     0.000 C 
BRANCH   6   7
ATOM      7  C   UNL     1       8.434   0.876   7.340  1.00  0.00     0.000 C 
BRANCH   7   8
ATOM      8  C   UNL     1       6.994   0.896   6.796  1.00  0.00     0.000 C 
BRANCH   8   9
ATOM      9  C   UNL     1       6.829   1.533   5.404  1.00  0.00     0.000 C 
BRANCH   9  10
ATOM     10  C   UNL     1       6.387   3.003   5.463  1.00  0.00     0.006 C 
BRANCH  10  11
ATOM     11  C   UNL     1       7.022   3.811   4.328  1.00  0.00     0.053 C 
BRANCH  11  12
ATOM     12  C   UNL     1       8.165   4.628   4.842  1.00  0.00     0.041 C 
ATOM     13  O   UNL     1       7.979   5.818   5.208  1.00  0.00    -0.550 OA
ATOM     14  O   UNL     1       9.446   4.091   4.869  1.00  0.00    -0.550 OA
ENDBRANCH  11  12
ENDBRANCH  10  11
ENDBRANCH   9  10
ENDBRANCH   8   9
ENDBRANCH   7   8
ENDBRANCH   6   7
ENDBRANCH   5   6
ENDBRANCH   4   5
ENDBRANCH   3   4
ENDBRANCH   2   3
ENDBRANCH   1   2
BRANCH   1  15
ATOM     15  C   UNL     1       4.485   5.237   9.042  1.00  0.00     0.000 C 
BRANCH  15  16
ATOM     16  C   UNL     1       3.289   5.448   8.100  1.00  0.00     0.000 C 
BRANCH  16  17
ATOM     17  C   UNL     1       3.206   4.383   6.993  1.00  0.00     0.000 C 
BRANCH  17  18
ATOM     18  C   UNL     1       2.541   3.079   7.480  1.00  0.00    -0.000 C 
BRANCH  18  19
ATOM     19  C   UNL     1       1.006   3.164   7.585  1.00  0.00    -0.000 C 
BRANCH  19  20
ATOM     20  C   UNL     1       0.448   3.155   9.020  1.00  0.00    -0.000 C 
BRANCH  20  21
ATOM     21  C   UNL     1       1.459   2.747  10.108  1.00  0.00    -0.000 C 
BRANCH  21  22
ATOM     22  C   UNL     1       1.810   3.899  11.062  1.00  0.00    -0.000 C 
BRANCH  22  23
ATOM     23  C   UNL     1       2.228   3.361  12.439  1.00  0.00    -0.000 C 
BRANCH  23  24
ATOM     24  C   UNL     1       2.211   4.442  13.536  1.00  0.00    -0.000 C 
BRANCH  24  25
ATOM     25  C   UNL     1       0.918   4.497  14.369  1.00  0.00    -0.003 C 
ATOM     26  C   UNL     1      -0.002   5.650  13.970  1.00  0.00     0.004 C 
ENDBRANCH  24  25
ENDBRANCH  23  24
ENDBRANCH  22  23
ENDBRANCH  21  22
ENDBRANCH  20  21
ENDBRANCH  19  20
ENDBRANCH  18  19
ENDBRANCH  17  18
ENDBRANCH  16  17
ENDBRANCH  15  16
ENDBRANCH   1  15
TORSDOF 22
ENDMDL
MODEL 3
REMARK VINA RESULT:    -4.092     10.775     13.369
REMARK INTER + INTRA:         -13.336
REMARK INTER:                  -9.091
REMARK INTRA:                  -4.245
REMARK UNBOUND:                -3.981
REMARK SMILES CCCCCCCCCCCCCCCCCCCCCCCC(=O)[O-]
REMARK SMILES IDX 13 1 14 2 15 3 16 4 17 5 18 6 19 7 20 8 21 9 22 10 23 11
REMARK SMILES IDX 24 12 25 13 26 14 12 15 11 16 10 17 9 18 8 19 7 20 6 21 5 22
REMARK SMILES IDX 4 23 3 24 2 25 1 26
REMARK H PARENT
REMARK Flexibility Score: inf
ROOT
ATOM      1  C   UNL     1       5.329   4.515   8.775  1.00  0.00     0.000 C 
ENDROOT
BRANCH   1   2
ATOM      2  C   UNL     1       4.346   5.606   9.229  1.00  0.00     0.000 C 
BRANCH   2   3
ATOM      3  C   UNL     1       2.930   5.417   8.655  1.00  0.00     0.000 C 
BRANCH   3   4
ATOM      4  C   UNL     1       2.903   4.695   7.290  1.00  0.00     0.000 C 
BRANCH   4   5
ATOM      5  C   UNL     1       2.079   3.396   7.334  1.00  0.00     0.000 C 
BRANCH   5   6
ATOM      6  C   UNL     1       2.807   2.213   6.675  1.00  0.00     0.000 C 
BRANCH   6   7
ATOM      7  C   UNL     1       3.991   2.666   5.804  1.00  0.00     0.000 C 
BRANCH   7   8
ATOM      8  C   UNL     1       5.302   1.934   6.144  1.00  0.00     0.000 C 
BRANCH   8   9
ATOM      9  C   UNL     1       6.475   2.214   5.186  1.00  0.00     0.000 C 
BRANCH   9  10
ATOM     10  C   UNL     1       6.650   3.706   4.869  1.00  0.00     0.006 C 
BRANCH  10  11
ATOM     11  C   UNL     1       7.804   3.925   3.886  1.00  0.00     0.053 C 
BRANCH  11  12
ATOM     12  C   UNL     1       8.379   5.297   4.050  1.00  0.00     0.041 C 
ATOM     13  O   UNL     1       8.061   6.003   5.042  1.00  0.00    -0.550 OA
ATOM     14  O   UNL     1       9.228   5.815   3.080  1.00  0.00    -0.550 OA
ENDBRANCH  11  12
ENDBRANCH  10  11
ENDBRANCH   9  10
ENDBRANCH   8   9
ENDBRANCH   7   8
ENDBRANCH   6   7
ENDBRANCH   5   6
ENDBRANCH   4   5
ENDBRANCH   3   4
ENDBRANCH   2   3
ENDBRANCH   1   2
BRANCH   1  15
ATOM     15  C   UNL     1       6.678   5.102   8.308  1.00  0.00     0.000 C 
BRANCH  15  16
ATOM     16  C   UNL     1       7.898   4.377   8.898  1.00  0.00     0.000 C 
BRANCH  16  17
ATOM     17  C   UNL     1       8.731   3.645   7.832  1.00  0.00     0.000 C 
BRANCH  17  18
ATOM     18  C   UNL     1       8.760   2.118   8.053  1.00  0.00    -0.000 C 
BRANCH  18  19
ATOM     19  C   UNL     1       8.046   1.661   9.340  1.00  0.00    -0.000 C 
BRANCH  19  20
ATOM     20  C   UNL     1       7.433   0.250   9.281  1.00  0.00    -0.000 C 
BRANCH  20  21
ATOM     21  C   UNL     1       6.020   0.128   9.885  1.00  0.00    -0.000 C 
BRANCH  21  22
ATOM     22  C   UNL     1       5.129   1.340   9.575  1.00  0.00    -0.000 C 
BRANCH  22  23
ATOM     23  C   UNL     1       3.694   1.104  10.069  1.00  0.00    -0.000 C 
BRANCH  23  24
ATOM     24  C   UNL     1       3.100   2.328  10.792  1.00  0.00    -0.000 C 
BRANCH  24  25
ATOM     25  C   UNL     1       2.691   2.078  12.254  1.00  0.00    -0.003 C 
ATOM     26  C   UNL     1       3.508   0.973  12.923  1.00  0.00     0.004 C 
ENDBRANCH  24  25
ENDBRANCH  23  24
ENDBRANCH  22  23
ENDBRANCH  21  22
ENDBRANCH  20  21
ENDBRANCH  19  20
ENDBRANCH  18  19
ENDBRANCH  17  18
ENDBRANCH  16  17
ENDBRANCH  15  16
ENDBRANCH   1  15
TORSDOF 22
ENDMDL
MODEL 4
REMARK VINA RESULT:    -4.065      2.068      4.133
REMARK INTER + INTRA:         -13.274
REMARK INTER:                  -9.465
REMARK INTRA:                  -3.809
REMARK UNBOUND:                -3.981
REMARK SMILES CCCCCCCCCCCCCCCCCCCCCCCC(=O)[O-]
REMARK SMILES IDX 13 1 14 2 15 3 16 4 17 5 18 6 19 7 20 8 21 9 22 10 23 11
REMARK SMILES IDX 24 12 25 13 26 14 12 15 11 16 10 17 9 18 8 19 7 20 6 21 5 22
REMARK SMILES IDX 4 23 3 24 2 25 1 26
REMARK H PARENT
REMARK Flexibility Score: inf
ROOT
ATOM      1  C   UNL     1      -4.332  -4.424   9.562  1.00  0.00     0.000 C 
ENDROOT
BRANCH   1   2
ATOM      2  C   UNL     1      -5.772  -4.103   9.130  1.00  0.00     0.000 C 
BRANCH   2   3
ATOM      3  C   UNL     1      -6.424  -5.238   8.320  1.00  0.00     0.000 C 
BRANCH   3   4
ATOM      4  C   UNL     1      -7.591  -4.771   7.424  1.00  0.00     0.000 C 
BRANCH   4   5
ATOM      5  C   UNL     1      -7.799  -3.247   7.485  1.00  0.00     0.000 C 
BRANCH   5   6
ATOM      6  C   UNL     1      -9.285  -2.853   7.444  1.00  0.00     0.000 C 
BRANCH   6   7
ATOM      7  C   UNL     1      -9.976  -3.033   8.806  1.00  0.00     0.000 C 
BRANCH   7   8
ATOM      8  C   UNL     1      -9.032  -2.790   9.997  1.00  0.00     0.000 C 
BRANCH   8   9
ATOM      9  C   UNL     1      -9.420  -1.612  10.911  1.00  0.00     0.000 C 
BRANCH   9  10
ATOM     10  C   UNL     1      -9.355  -0.253  10.201  1.00  0.00     0.006 C 
BRANCH  10  11
ATOM     11  C   UNL     1      -7.916   0.092   9.809  1.00  0.00     0.053 C 
BRANCH  11  12
ATOM     12  C   UNL     1      -7.826   0.377   8.342  1.00  0.00     0.041 C 
ATOM     13  O   UNL     1      -6.711   0.354   7.759  1.00  0.00    -0.550 OA
ATOM     14  O   UNL     1      -8.969   0.719   7.630  1.00  0.00    -0.550 OA
ENDBRANCH  11  12
ENDBRANCH  10  11
ENDBRANCH   9  10
ENDBRANCH   8   9
ENDBRANCH   7   8
ENDBRANCH   6   7
ENDBRANCH   5   6
ENDBRANCH   4   5
ENDBRANCH   3   4
ENDBRANCH   2   3
ENDBRANCH   1   2
BRANCH   1  15
ATOM     15  C   UNL     1      -3.456  -4.887   8.379  1.00  0.00     0.000 C 
BRANCH  15  16
ATOM     16  C   UNL     1      -2.537  -3.785   7.829  1.00  0.00     0.000 C 
BRANCH  16  17
ATOM     17  C   UNL     1      -3.191  -2.974   6.697  1.00  0.00     0.000 C 
BRANCH  17  18
ATOM     18  C   UNL     1      -2.788  -1.484   6.733  1.00  0.00    -0.000 C 
BRANCH  18  19
ATOM     19  C   UNL     1      -1.684  -1.161   7.759  1.00  0.00    -0.000 C 
BRANCH  19  20
ATOM     20  C   UNL     1      -2.055  -0.091   8.802  1.00  0.00    -0.000 C 
BRANCH  20  21
ATOM     21  C   UNL     1      -3.563   0.040   9.092  1.00  0.00    -0.000 C 
BRANCH  21  22
ATOM     22  C   UNL     1      -4.022  -0.824  10.275  1.00  0.00    -0.000 C 
BRANCH  22  23
ATOM     23  C   UNL     1      -2.905  -0.960  11.320  1.00  0.00    -0.000 C 
BRANCH  23  24
ATOM     24  C   UNL     1      -2.637  -2.422  11.725  1.00  0.00    -0.000 C 
BRANCH  24  25
ATOM     25  C   UNL     1      -1.301  -2.997  11.221  1.00  0.00    -0.003 C 
ATOM     26  C   UNL     1      -0.344  -3.365  12.353  1.00  0.00     0.004 C 
ENDBRANCH  24  25
ENDBRANCH  23  24
ENDBRANCH  22  23
ENDBRANCH  21  22
ENDBRANCH  20  21
ENDBRANCH  19  20
ENDBRANCH  18  19
ENDBRANCH  17  18
ENDBRANCH  16  17
ENDBRANCH  15  16
ENDBRANCH   1  15
TORSDOF 22
ENDMDL
MODEL 5
REMARK VINA RESULT:    -4.059      2.085      4.144
REMARK INTER + INTRA:         -13.260
REMARK INTER:                  -9.221
REMARK INTRA:                  -4.040
REMARK UNBOUND:                -3.981
REMARK SMILES CCCCCCCCCCCCCCCCCCCCCCCC(=O)[O-]
REMARK SMILES IDX 13 1 14 2 15 3 16 4 17 5 18 6 19 7 20 8 21 9 22 10 23 11
REMARK SMILES IDX 24 12 25 13 26 14 12 15 11 16 10 17 9 18 8 19 7 20 6 21 5 22
REMARK SMILES IDX 4 23 3 24 2 25 1 26
REMARK H PARENT
REMARK Flexibility Score: inf
ROOT
ATOM      1  C   UNL     1      -6.543  -5.011   8.761  1.00  0.00     0.000 C 
ENDROOT
BRANCH   1   2
ATOM      2  C   UNL     1      -7.829  -4.178   8.641  1.00  0.00     0.000 C 
BRANCH   2   3
ATOM      3  C   UNL     1      -7.690  -2.766   9.239  1.00  0.00     0.000 C 
BRANCH   3   4
ATOM      4  C   UNL     1      -9.031  -2.146   9.688  1.00  0.00     0.000 C 
BRANCH   4   5
ATOM      5  C   UNL     1      -9.032  -0.611   9.565  1.00  0.00     0.000 C 
BRANCH   5   6
ATOM      6  C   UNL     1      -7.856  -0.086   8.727  1.00  0.00     0.000 C 
BRANCH   6   7
ATOM      7  C   UNL     1      -8.290   0.354   7.318  1.00  0.00     0.000 C 
BRANCH   7   8
ATOM      8  C   UNL     1      -7.807  -0.603   6.213  1.00  0.00     0.000 C 
BRANCH   8   9
ATOM      9  C   UNL     1      -8.921  -1.212   5.342  1.00  0.00     0.000 C 
BRANCH   9  10
ATOM     10  C   UNL     1      -9.369  -2.601   5.820  1.00  0.00     0.006 C 
BRANCH  10  11
ATOM     11  C   UNL     1      -9.241  -3.634   4.697  1.00  0.00     0.053 C 
BRANCH  11  12
ATOM     12  C   UNL     1      -8.045  -4.505   4.920  1.00  0.00     0.041 C 
ATOM     13  O   UNL     1      -8.188  -5.689   5.321  1.00  0.00    -0.550 OA
ATOM     14  O   UNL     1      -6.767  -3.992   4.732  1.00  0.00    -0.550 OA
ENDBRANCH  11  12
ENDBRANCH  10  11
ENDBRANCH   9  10
ENDBRANCH   8   9
ENDBRANCH   7   8
ENDBRANCH   6   7
ENDBRANCH   5   6
ENDBRANCH   4   5
ENDBRANCH   3   4
ENDBRANCH   2   3
ENDBRANCH   1   2
BRANCH   1  15
ATOM     15  C   UNL     1      -5.432  -4.511   7.814  1.00  0.00     0.000 C 
BRANCH  15  16
ATOM     16  C   UNL     1      -4.014  -4.737   8.361  1.00  0.00     0.000 C 
BRANCH  16  17
ATOM     17  C   UNL     1      -3.975  -4.833   9.896  1.00  0.00     0.000 C 
BRANCH  17  18
ATOM     18  C   UNL     1      -3.382  -3.567  10.549  1.00  0.00    -0.000 C 
BRANCH  18  19
ATOM     19  C   UNL     1      -3.091  -2.429   9.552  1.00  0.00    -0.000 C 
BRANCH  19  20
ATOM     20  C   UNL     1      -4.170  -1.332   9.480  1.00  0.00    -0.000 C 
BRANCH  20  21
ATOM     21  C   UNL     1      -4.252  -0.587   8.133  1.00  0.00    -0.000 C 
BRANCH  21  22
ATOM     22  C   UNL     1      -3.387  -1.230   7.039  1.00  0.00    -0.000 C 
BRANCH  22  23
ATOM     23  C   UNL     1      -4.264  -1.843   5.938  1.00  0.00    -0.000 C 
BRANCH  23  24
ATOM     24  C   UNL     1      -3.521  -2.897   5.095  1.00  0.00    -0.000 C 
BRANCH  24  25
ATOM     25  C   UNL     1      -2.960  -2.378   3.759  1.00  0.00    -0.003 C 
ATOM     26  C   UNL     1      -3.785  -1.237   3.167  1.00  0.00     0.004 C 
ENDBRANCH  24  25
ENDBRANCH  23  24
ENDBRANCH  22  23
ENDBRANCH  21  22
ENDBRANCH  20  21
ENDBRANCH  19  20
ENDBRANCH  18  19
ENDBRANCH  17  18
ENDBRANCH  16  17
ENDBRANCH  15  16
ENDBRANCH   1  15
TORSDOF 22
ENDMDL
MODEL 6
REMARK VINA RESULT:    -4.046      3.117      6.959
REMARK INTER + INTRA:         -13.229
REMARK INTER:                  -8.891
REMARK INTRA:                  -4.338
REMARK UNBOUND:                -3.981
REMARK SMILES CCCCCCCCCCCCCCCCCCCCCCCC(=O)[O-]
REMARK SMILES IDX 13 1 14 2 15 3 16 4 17 5 18 6 19 7 20 8 21 9 22 10 23 11
REMARK SMILES IDX 24 12 25 13 26 14 12 15 11 16 10 17 9 18 8 19 7 20 6 21 5 22
REMARK SMILES IDX 4 23 3 24 2 25 1 26
REMARK H PARENT
REMARK Flexibility Score: inf
ROOT
ATOM      1  C   UNL     1      -6.741  -0.589   9.600  1.00  0.00     0.000 C 
ENDROOT
BRANCH   1   2
ATOM      2  C   UNL     1      -5.975  -0.799   8.284  1.00  0.00     0.000 C 
BRANCH   2   3
ATOM      3  C   UNL     1      -5.005  -1.992   8.336  1.00  0.00     0.000 C 
BRANCH   3   4
ATOM      4  C   UNL     1      -5.439  -3.106   9.313  1.00  0.00     0.000 C 
BRANCH   4   5
ATOM      5  C   UNL     1      -5.030  -4.506   8.820  1.00  0.00     0.000 C 
BRANCH   5   6
ATOM      6  C   UNL     1      -3.804  -4.469   7.892  1.00  0.00     0.000 C 
BRANCH   6   7
ATOM      7  C   UNL     1      -2.517  -4.916   8.606  1.00  0.00     0.000 C 
BRANCH   7   8
ATOM      8  C   UNL     1      -1.407  -3.849   8.568  1.00  0.00     0.000 C 
BRANCH   8   9
ATOM      9  C   UNL     1      -0.998  -3.282   9.941  1.00  0.00     0.000 C 
BRANCH   9  10
ATOM     10  C   UNL     1      -2.070  -2.375  10.561  1.00  0.00     0.006 C 
BRANCH  10  11
ATOM     11  C   UNL     1      -2.701  -3.035  11.790  1.00  0.00     0.053 C 
BRANCH  11  12
ATOM     12  C   UNL     1      -2.253  -2.349  13.042  1.00  0.00     0.041 C 
ATOM     13  O   UNL     1      -1.332  -1.492  13.001  1.00  0.00    -0.550 OA
ATOM     14  O   UNL     1      -2.819  -2.693  14.264  1.00  0.00    -0.550 OA
ENDBRANCH  11  12
ENDBRANCH  10  11
ENDBRANCH   9  10
ENDBRANCH   8   9
ENDBRANCH   7   8
ENDBRANCH   6   7
ENDBRANCH   5   6
ENDBRANCH   4   5
ENDBRANCH   3   4
ENDBRANCH   2   3
ENDBRANCH   1   2
BRANCH   1  15
ATOM     15  C   UNL     1      -8.174  -0.067   9.366  1.00  0.00     0.000 C 
BRANCH  15  16
ATOM     16  C   UNL     1      -9.242  -0.835  10.161  1.00  0.00     0.000 C 
BRANCH  16  17
ATOM     17  C   UNL     1      -9.065  -2.361  10.079  1.00  0.00     0.000 C 
BRANCH  17  18
ATOM     18  C   UNL     1      -9.691  -2.959   8.801  1.00  0.00    -0.000 C 
BRANCH  18  19
ATOM     19  C   UNL     1      -8.659  -3.525   7.808  1.00  0.00    -0.000 C 
BRANCH  19  20
ATOM     20  C   UNL     1      -8.543  -2.757   6.478  1.00  0.00    -0.000 C 
BRANCH  20  21
ATOM     21  C   UNL     1      -7.856  -3.532   5.337  1.00  0.00    -0.000 C 
BRANCH  21  22
ATOM     22  C   UNL     1      -6.328  -3.383   5.346  1.00  0.00    -0.000 C 
BRANCH  22  23
ATOM     23  C   UNL     1      -5.906  -2.037   4.737  1.00  0.00    -0.000 C 
BRANCH  23  24
ATOM     24  C   UNL     1      -4.589  -2.124   3.943  1.00  0.00    -0.000 C 
BRANCH  24  25
ATOM     25  C   UNL     1      -3.414  -2.756   4.708  1.00  0.00    -0.003 C 
ATOM     26  C   UNL     1      -2.619  -1.741   5.528  1.00  0.00     0.004 C 
ENDBRANCH  24  25
ENDBRANCH  23  24
ENDBRANCH  22  23
ENDBRANCH  21  22
ENDBRANCH  20  21
ENDBRANCH  19  20
ENDBRANCH  18  19
ENDBRANCH  17  18
ENDBRANCH  16  17
ENDBRANCH  15  16
ENDBRANCH   1  15
TORSDOF 22
ENDMDL
MODEL 7
REMARK VINA RESULT:    -4.014      2.315      5.306
REMARK INTER + INTRA:         -13.157
REMARK INTER:                  -9.016
REMARK INTRA:                  -4.141
REMARK UNBOUND:                -3.981
REMARK SMILES CCCCCCCCCCCCCCCCCCCCCCCC(=O)[O-]
REMARK SMILES IDX 13 1 14 2 15 3 16 4 17 5 18 6 19 7 20 8 21 9 22 10 23 11
REMARK SMILES IDX 24 12 25 13 26 14 12 15 11 16 10 17 9 18 8 19 7 20 6 21 5 22
REMARK SMILES IDX 4 23 3 24 2 25 1 26
REMARK H PARENT
REMARK Flexibility Score: inf
ROOT
ATOM      1  C   UNL     1      -3.031  -5.064   8.750  1.00  0.00     0.000 C 
ENDROOT
BRANCH   1   2
ATOM      2  C   UNL     1      -4.090  -4.606   9.766  1.00  0.00     0.000 C 
BRANCH   2   3
ATOM      3  C   UNL     1      -5.325  -3.969   9.103  1.00  0.00     0.000 C 
BRANCH   3   4
ATOM      4  C   UNL     1      -6.369  -4.997   8.616  1.00  0.00     0.000 C 
BRANCH   4   5
ATOM      5  C   UNL     1      -7.727  -4.343   8.303  1.00  0.00     0.000 C 
BRANCH   5   6
ATOM      6  C   UNL     1      -8.175  -3.362   9.399  1.00  0.00     0.000 C 
BRANCH   6   7
ATOM      7  C   UNL     1      -9.300  -2.427   8.923  1.00  0.00     0.000 C 
BRANCH   7   8
ATOM      8  C   UNL     1      -8.961  -1.696   7.611  1.00  0.00     0.000 C 
BRANCH   8   9
ATOM      9  C   UNL     1      -8.263  -0.335   7.782  1.00  0.00     0.000 C 
BRANCH   9  10
ATOM     10  C   UNL     1      -7.418   0.066   6.564  1.00  0.00     0.006 C 
BRANCH  10  11
ATOM     11  C   UNL     1      -8.182   1.043   5.666  1.00  0.00     0.053 C 
BRANCH  11  12
ATOM     12  C   UNL     1      -8.163   0.573   4.245  1.00  0.00     0.041 C 
ATOM     13  O   UNL     1      -7.399   1.119   3.407  1.00  0.00    -0.550 OA
ATOM     14  O   UNL     1      -9.028  -0.435   3.836  1.00  0.00    -0.550 OA
ENDBRANCH  11  12
ENDBRANCH  10  11
ENDBRANCH   9  10
ENDBRANCH   8   9
ENDBRANCH   7   8
ENDBRANCH   6   7
ENDBRANCH   5   6
ENDBRANCH   4   5
ENDBRANCH   3   4
ENDBRANCH   2   3
ENDBRANCH   1   2
BRANCH   1  15
ATOM     15  C   UNL     1      -1.820  -4.109   8.697  1.00  0.00     0.000 C 
BRANCH  15  16
ATOM     16  C   UNL     1      -1.567  -3.367  10.019  1.00  0.00     0.000 C 
BRANCH  16  17
ATOM     17  C   UNL     1      -1.376  -1.853   9.826  1.00  0.00     0.000 C 
BRANCH  17  18
ATOM     18  C   UNL     1      -2.719  -1.100   9.716  1.00  0.00    -0.000 C 
BRANCH  18  19
ATOM     19  C   UNL     1      -2.941  -0.419   8.351  1.00  0.00    -0.000 C 
BRANCH  19  20
ATOM     20  C   UNL     1      -3.914  -1.150   7.408  1.00  0.00    -0.000 C 
BRANCH  20  21
ATOM     21  C   UNL     1      -3.272  -1.729   6.132  1.00  0.00    -0.000 C 
BRANCH  21  22
ATOM     22  C   UNL     1      -3.918  -3.048   5.682  1.00  0.00    -0.000 C 
BRANCH  22  23
ATOM     23  C   UNL     1      -5.449  -2.929   5.662  1.00  0.00    -0.000 C 
BRANCH  23  24
ATOM     24  C   UNL     1      -5.999  -2.491   4.291  1.00  0.00    -0.000 C 
BRANCH  24  25
ATOM     25  C   UNL     1      -7.059  -3.431   3.691  1.00  0.00    -0.003 C 
ATOM     26  C   UNL     1      -8.175  -3.780   4.674  1.00  0.00     0.004 C 
ENDBRANCH  24  25
ENDBRANCH  23  24
ENDBRANCH  22  23
ENDBRANCH  21  22
ENDBRANCH  20  21
ENDBRANCH  19  20
ENDBRANCH  18  19
ENDBRANCH  17  18
ENDBRANCH  16  17
ENDBRANCH  15  16
ENDBRANCH   1  15
TORSDOF 22
ENDMDL
MODEL 8
REMARK VINA RESULT:    -4.011      2.833      6.788
REMARK INTER + INTRA:         -13.151
REMARK INTER:                  -8.957
REMARK INTRA:                  -4.193
REMARK UNBOUND:                -3.981
REMARK SMILES CCCCCCCCCCCCCCCCCCCCCCCC(=O)[O-]
REMARK SMILES IDX 13 1 14 2 15 3 16 4 17 5 18 6 19 7 20 8 21 9 22 10 23 11
REMARK SMILES IDX 24 12 25 13 26 14 12 15 11 16 10 17 9 18 8 19 7 20 6 21 5 22
REMARK SMILES IDX 4 23 3 24 2 25 1 26
REMARK H PARENT
REMARK Flexibility Score: inf
ROOT
ATOM      1  C   UNL     1      -5.550  -4.043   9.251  1.00  0.00     0.000 C 
ENDROOT
BRANCH   1   2
ATOM      2  C   UNL     1      -4.250  -4.836   9.454  1.00  0.00     0.000 C 
BRANCH   2   3
ATOM      3  C   UNL     1      -3.364  -4.873   8.196  1.00  0.00     0.000 C 
BRANCH   3   4
ATOM      4  C   UNL     1      -1.850  -4.879   8.501  1.00  0.00     0.000 C 
BRANCH   4   5
ATOM      5  C   UNL     1      -1.327  -3.481   8.878  1.00  0.00     0.000 C 
BRANCH   5   6
ATOM      6  C   UNL     1      -0.915  -3.385  10.356  1.00  0.00     0.000 C 
BRANCH   6   7
ATOM      7  C   UNL     1      -1.532  -2.163  11.057  1.00  0.00     0.000 C 
BRANCH   7   8
ATOM      8  C   UNL     1      -2.631  -1.481  10.221  1.00  0.00     0.000 C 
BRANCH   8   9
ATOM      9  C   UNL     1      -3.864  -1.014  11.018  1.00  0.00     0.000 C 
BRANCH   9  10
ATOM     10  C   UNL     1      -3.926   0.510  11.192  1.00  0.00     0.006 C 
BRANCH  10  11
ATOM     11  C   UNL     1      -4.861   0.891  12.344  1.00  0.00     0.053 C 
BRANCH  11  12
ATOM     12  C   UNL     1      -6.179   1.364  11.814  1.00  0.00     0.041 C 
ATOM     13  O   UNL     1      -7.220   0.684  12.006  1.00  0.00    -0.550 OA
ATOM     14  O   UNL     1      -6.247   2.532  11.064  1.00  0.00    -0.550 OA
ENDBRANCH  11  12
ENDBRANCH  10  11
ENDBRANCH   9  10
ENDBRANCH   8   9
ENDBRANCH   7   8
ENDBRANCH   6   7
ENDBRANCH   5   6
ENDBRANCH   4   5
ENDBRANCH   3   4
ENDBRANCH   2   3
ENDBRANCH   1   2
BRANCH   1  15
ATOM     15  C   UNL     1      -6.575  -4.811   8.390  1.00  0.00     0.000 C 
BRANCH  15  16
ATOM     16  C   UNL     1      -7.896  -4.051   8.187  1.00  0.00     0.000 C 
BRANCH  16  17
ATOM     17  C   UNL     1      -8.397  -3.371   9.472  1.00  0.00     0.000 C 
BRANCH  17  18
ATOM     18  C   UNL     1      -9.341  -2.185   9.181  1.00  0.00    -0.000 C 
BRANCH  18  19
ATOM     19  C   UNL     1      -8.618  -0.830   9.060  1.00  0.00    -0.000 C 
BRANCH  19  20
ATOM     20  C   UNL     1      -8.510  -0.273   7.628  1.00  0.00    -0.000 C 
BRANCH  20  21
ATOM     21  C   UNL     1      -7.122  -0.422   6.975  1.00  0.00    -0.000 C 
BRANCH  21  22
ATOM     22  C   UNL     1      -5.995  -0.617   8.001  1.00  0.00    -0.000 C 
BRANCH  22  23
ATOM     23  C   UNL     1      -4.745  -1.209   7.334  1.00  0.00    -0.000 C 
BRANCH  23  24
ATOM     24  C   UNL     1      -5.078  -2.139   6.152  1.00  0.00    -0.000 C 
BRANCH  24  25
ATOM     25  C   UNL     1      -3.864  -2.586   5.319  1.00  0.00    -0.003 C 
ATOM     26  C   UNL     1      -2.562  -1.913   5.752  1.00  0.00     0.004 C 
ENDBRANCH  24  25
ENDBRANCH  23  24
ENDBRANCH  22  23
ENDBRANCH  21  22
ENDBRANCH  20  21
ENDBRANCH  19  20
ENDBRANCH  18  19
ENDBRANCH  17  18
ENDBRANCH  16  17
ENDBRANCH  15  16
ENDBRANCH   1  15
TORSDOF 22
ENDMDL
MODEL 9
REMARK VINA RESULT:    -4.007      9.270     13.570
REMARK INTER + INTRA:         -13.141
REMARK INTER:                  -8.699
REMARK INTRA:                  -4.442
REMARK UNBOUND:                -3.981
REMARK SMILES CCCCCCCCCCCCCCCCCCCCCCCC(=O)[O-]
REMARK SMILES IDX 13 1 14 2 15 3 16 4 17 5 18 6 19 7 20 8 21 9 22 10 23 11
REMARK SMILES IDX 24 12 25 13 26 14 12 15 11 16 10 17 9 18 8 19 7 20 6 21 5 22
REMARK SMILES IDX 4 23 3 24 2 25 1 26
REMARK H PARENT
REMARK Flexibility Score: inf
ROOT
ATOM      1  C   UNL     1       6.155   0.507   9.239  1.00  0.00     0.000 C 
ENDROOT
BRANCH   1   2
ATOM      2  C   UNL     1       7.522   0.335   8.557  1.00  0.00     0.000 C 
BRANCH   2   3
ATOM      3  C   UNL     1       8.705   0.511   9.526  1.00  0.00     0.000 C 
BRANCH   3   4
ATOM      4  C   UNL     1       8.508   1.652  10.547  1.00  0.00     0.000 C 
BRANCH   4   5
ATOM      5  C   UNL     1       9.710   2.613  10.586  1.00  0.00     0.000 C 
BRANCH   5   6
ATOM      6  C   UNL     1       9.782   3.518   9.345  1.00  0.00     0.000 C 
BRANCH   6   7
ATOM      7  C   UNL     1       8.430   4.179   9.025  1.00  0.00     0.000 C 
BRANCH   7   8
ATOM      8  C   UNL     1       8.179   4.331   7.513  1.00  0.00     0.000 C 
BRANCH   8   9
ATOM      9  C   UNL     1       8.629   3.137   6.651  1.00  0.00     0.000 C 
BRANCH   9  10
ATOM     10  C   UNL     1       7.982   3.121   5.259  1.00  0.00     0.006 C 
BRANCH  10  11
ATOM     11  C   UNL     1       6.490   3.455   5.345  1.00  0.00     0.053 C 
BRANCH  11  12
ATOM     12  C   UNL     1       5.669   2.326   4.805  1.00  0.00     0.041 C 
ATOM     13  O   UNL     1       4.416   2.340   4.924  1.00  0.00    -0.550 OA
ATOM     14  O   UNL     1       6.292   1.233   4.214  1.00  0.00    -0.550 OA
ENDBRANCH  11  12
ENDBRANCH  10  11
ENDBRANCH   9  10
ENDBRANCH   8   9
ENDBRANCH   7   8
ENDBRANCH   6   7
ENDBRANCH   5   6
ENDBRANCH   4   5
ENDBRANCH   3   4
ENDBRANCH   2   3
ENDBRANCH   1   2
BRANCH   1  15
ATOM     15  C   UNL     1       5.260   1.528   8.507  1.00  0.00     0.000 C 
BRANCH  15  16
ATOM     16  C   UNL     1       5.072   2.843   9.280  1.00  0.00     0.000 C 
BRANCH  16  17
ATOM     17  C   UNL     1       4.720   4.029   8.366  1.00  0.00     0.000 C 
BRANCH  17  18
ATOM     18  C   UNL     1       4.166   5.235   9.154  1.00  0.00    -0.000 C 
BRANCH  18  19
ATOM     19  C   UNL     1       2.714   5.601   8.792  1.00  0.00    -0.000 C 
BRANCH  19  20
ATOM     20  C   UNL     1       2.088   4.756   7.667  1.00  0.00    -0.000 C 
BRANCH  20  21
ATOM     21  C   UNL     1       0.894   3.882   8.098  1.00  0.00    -0.000 C 
BRANCH  21  22
ATOM     22  C   UNL     1       1.198   2.378   8.029  1.00  0.00    -0.000 C 
BRANCH  22  23
ATOM     23  C   UNL     1       1.595   1.837   9.411  1.00  0.00    -0.000 C 
BRANCH  23  24
ATOM     24  C   UNL     1       1.037   2.684  10.570  1.00  0.00    -0.000 C 
BRANCH  24  25
ATOM     25  C   UNL     1       2.100   3.243  11.532  1.00  0.00    -0.003 C 
ATOM     26  C   UNL     1       2.703   2.175  12.443  1.00  0.00     0.004 C 
ENDBRANCH  24  25
ENDBRANCH  23  24
ENDBRANCH  22  23
ENDBRANCH  21  22
ENDBRANCH  20  21
ENDBRANCH  19  20
ENDBRANCH  18  19
ENDBRANCH  17  18
ENDBRANCH  16  17
ENDBRANCH  15  16
ENDBRANCH   1  15
TORSDOF 22
ENDMDL
