MODEL 1
REMARK VINA RESULT:    -6.151      0.000      0.000
REMARK INTER + INTRA:         -21.258
REMARK INTER:                 -16.221
REMARK INTRA:                  -5.037
REMARK UNBOUND:                -5.037
REMARK SMILES CCCCCCCCCCCCCCCCCCCCCCCCCCCCCC(=O)[O-]
REMARK SMILES IDX 16 1 17 2 18 3 19 4 20 5 21 6 22 7 23 8 24 9 25 10 26 11
REMARK SMILES IDX 27 12 28 13 29 14 30 15 31 16 32 17 15 18 14 19 13 20 12 21
REMARK SMILES IDX 11 22 10 23 9 24 8 25 7 26 6 27 5 28 4 29 3 30 2 31 1 32
REMARK H PARENT
REMARK Flexibility Score: inf
ROOT
ATOM      1  C   UNL     1      15.900  -5.207  10.211  1.00  0.00     0.000 C 
ENDROOT
BRANCH   1   2
ATOM      2  C   UNL     1      17.138  -5.972  10.707  1.00  0.00     0.000 C 
BRANCH   2   3
ATOM      3  C   UNL     1      17.069  -6.288  12.211  1.00  0.00     0.000 C 
BRANCH   3   4
ATOM      4  C   UNL     1      15.710  -5.918  12.828  1.00  0.00     0.000 C 
BRANCH   4   5
ATOM      5  C   UNL     1      15.091  -7.084  13.619  1.00  0.00     0.000 C 
BRANCH   5   6
ATOM      6  C   UNL     1      14.764  -6.690  15.077  1.00  0.00     0.000 C 
BRANCH   6   7
ATOM      7  C   UNL     1      15.889  -5.896  15.768  1.00  0.00     0.000 C 
BRANCH   7   8
ATOM      8  C   UNL     1      15.744  -4.368  15.683  1.00  0.00     0.000 C 
BRANCH   8   9
ATOM      9  C   UNL     1      14.586  -3.834  16.539  1.00  0.00     0.000 C 
BRANCH   9  10
ATOM     10  C   UNL     1      15.076  -2.769  17.529  1.00  0.00     0.000 C 
BRANCH  10  11
ATOM     11  C   UNL     1      16.593  -2.561  17.399  1.00  0.00     0.000 C 
BRANCH  11  12
ATOM     12  C   UNL     1      17.369  -3.031  18.640  1.00  0.00     0.000 C 
BRANCH  12  13
ATOM     13  C   UNL     1      18.891  -2.948  18.454  1.00  0.00     0.006 C 
BRANCH  13  14
ATOM     14  C   UNL     1      19.263  -2.938  16.968  1.00  0.00     0.053 C 
BRANCH  14  15
ATOM     15  C   UNL     1      20.664  -2.449  16.759  1.00  0.00     0.041 C 
ATOM     16  O   UNL     1      21.610  -2.923  17.440  1.00  0.00    -0.550 OA
ATOM     17  O   UNL     1      20.925  -1.462  15.815  1.00  0.00    -0.550 OA
ENDBRANCH  14  15
ENDBRANCH  13  14
ENDBRANCH  12  13
ENDBRANCH  11  12
ENDBRANCH  10  11
ENDBRANCH   9  10
ENDBRANCH   8   9
ENDBRANCH   7   8
ENDBRANCH   6   7
ENDBRANCH   5   6
ENDBRANCH   4   5
ENDBRANCH   3   4
ENDBRANCH   2   3
ENDBRANCH   1   2
BRANCH   1  18
ATOM     18  C   UNL     1      15.124  -5.990   9.140  1.00  0.00     0.000 C 
BRANCH  18  19
ATOM     19  C   UNL     1      13.608  -5.875   9.353  1.00  0.00     0.000 C 
BRANCH  19  20
ATOM     20  C   UNL     1      13.242  -4.974  10.548  1.00  0.00     0.000 C 
BRANCH  20  21
ATOM     21  C   UNL     1      11.950  -4.149  10.376  1.00  0.00     0.000 C 
BRANCH  21  22
ATOM     22  C   UNL     1      11.227  -3.803  11.689  1.00  0.00     0.000 C 
BRANCH  22  23
ATOM     23  C   UNL     1      12.062  -4.152  12.933  1.00  0.00     0.000 C 
BRANCH  23  24
ATOM     24  C   UNL     1      11.989  -3.063  14.015  1.00  0.00    -0.000 C 
BRANCH  24  25
ATOM     25  C   UNL     1      12.931  -1.879  13.731  1.00  0.00    -0.000 C 
BRANCH  25  26
ATOM     26  C   UNL     1      14.248  -2.327  13.060  1.00  0.00    -0.000 C 
BRANCH  26  27
ATOM     27  C   UNL     1      15.056  -1.175  12.431  1.00  0.00    -0.000 C 
BRANCH  27  28
ATOM     28  C   UNL     1      16.512  -1.062  12.915  1.00  0.00    -0.000 C 
BRANCH  28  29
ATOM     29  C   UNL     1      17.167  -2.436  13.150  1.00  0.00    -0.000 C 
BRANCH  29  30
ATOM     30  C   UNL     1      18.702  -2.356  13.205  1.00  0.00    -0.000 C 
BRANCH  30  31
ATOM     31  C   UNL     1      19.378  -3.616  12.642  1.00  0.00    -0.003 C 
ATOM     32  C   UNL     1      19.803  -4.562  13.762  1.00  0.00     0.004 C 
ENDBRANCH  30  31
ENDBRANCH  29  30
ENDBRANCH  28  29
ENDBRANCH  27  28
ENDBRANCH  26  27
ENDBRANCH  25  26
ENDBRANCH  24  25
ENDBRANCH  23  24
ENDBRANCH  22  23
ENDBRANCH  21  22
ENDBRANCH  20  21
ENDBRANCH  19  20
ENDBRANCH  18  19
ENDBRANCH   1  18
TORSDOF 28
ENDMDL
MODEL 2
REMARK VINA RESULT:    -6.102      0.961      4.664
REMARK INTER + INTRA:         -21.127
REMARK INTER:                 -15.570
REMARK INTRA:                  -5.557
REMARK UNBOUND:                -5.037
REMARK SMILES CCCCCCCCCCCCCCCCCCCCCCCCCCCCCC(=O)[O-]
REMARK SMILES IDX 16 1 17 2 18 3 19 4 20 5 21 6 22 7 23 8 24 9 25 10 26 11
REMARK SMILES IDX 27 12 28 13 29 14 30 15 31 16 32 17 15 18 14 19 13 20 12 21
REMARK SMILES IDX 11 22 10 23 9 24 8 25 7 26 6 27 5 28 4 29 3 30 2 31 1 32
REMARK H PARENT
REMARK Flexibility Score: inf
ROOT
ATOM      1  C   UNL     1      11.545  -4.002  10.755  1.00  0.00     0.000 C 
ENDROOT
BRANCH   1   2
ATOM      2  C   UNL     1      11.039  -4.303  12.175  1.00  0.00     0.000 C 
BRANCH   2   3
ATOM      3  C   UNL     1      12.142  -4.142  13.236  1.00  0.00     0.000 C 
BRANCH   3   4
ATOM      4  C   UNL     1      11.783  -3.094  14.303  1.00  0.00     0.000 C 
BRANCH   4   5
ATOM      5  C   UNL     1      12.668  -1.838  14.207  1.00  0.00     0.000 C 
BRANCH   5   6
ATOM      6  C   UNL     1      12.959  -1.440  12.743  1.00  0.00     0.000 C 
BRANCH   6   7
ATOM      7  C   UNL     1      14.431  -1.061  12.489  1.00  0.00     0.000 C 
BRANCH   7   8
ATOM      8  C   UNL     1      15.380  -2.256  12.304  1.00  0.00     0.000 C 
BRANCH   8   9
ATOM      9  C   UNL     1      16.398  -2.387  13.447  1.00  0.00     0.000 C 
BRANCH   9  10
ATOM     10  C   UNL     1      17.542  -1.378  13.286  1.00  0.00     0.000 C 
BRANCH  10  11
ATOM     11  C   UNL     1      18.835  -1.914  13.920  1.00  0.00     0.000 C 
BRANCH  11  12
ATOM     12  C   UNL     1      18.773  -3.419  14.223  1.00  0.00     0.000 C 
BRANCH  12  13
ATOM     13  C   UNL     1      19.627  -3.815  15.437  1.00  0.00     0.006 C 
BRANCH  13  14
ATOM     14  C   UNL     1      20.154  -2.574  16.166  1.00  0.00     0.053 C 
BRANCH  14  15
ATOM     15  C   UNL     1      21.343  -2.905  17.015  1.00  0.00     0.041 C 
ATOM     16  O   UNL     1      22.265  -3.633  16.562  1.00  0.00    -0.550 OA
ATOM     17  O   UNL     1      21.432  -2.413  18.313  1.00  0.00    -0.550 OA
ENDBRANCH  14  15
ENDBRANCH  13  14
ENDBRANCH  12  13
ENDBRANCH  11  12
ENDBRANCH  10  11
ENDBRANCH   9  10
ENDBRANCH   8   9
ENDBRANCH   7   8
ENDBRANCH   6   7
ENDBRANCH   5   6
ENDBRANCH   4   5
ENDBRANCH   3   4
ENDBRANCH   2   3
ENDBRANCH   1   2
BRANCH   1  18
ATOM     18  C   UNL     1      12.997  -4.461  10.546  1.00  0.00     0.000 C 
BRANCH  18  19
ATOM     19  C   UNL     1      13.088  -5.553   9.471  1.00  0.00     0.000 C 
BRANCH  19  20
ATOM     20  C   UNL     1      14.541  -5.946   9.144  1.00  0.00     0.000 C 
BRANCH  20  21
ATOM     21  C   UNL     1      15.623  -5.092   9.836  1.00  0.00     0.000 C 
BRANCH  21  22
ATOM     22  C   UNL     1      16.874  -5.872  10.278  1.00  0.00     0.000 C 
BRANCH  22  23
ATOM     23  C   UNL     1      17.305  -5.534  11.715  1.00  0.00     0.000 C 
BRANCH  23  24
ATOM     24  C   UNL     1      16.667  -6.468  12.755  1.00  0.00    -0.000 C 
BRANCH  24  25
ATOM     25  C   UNL     1      15.348  -5.913  13.322  1.00  0.00    -0.000 C 
BRANCH  25  26
ATOM     26  C   UNL     1      14.772  -6.804  14.445  1.00  0.00    -0.000 C 
BRANCH  26  27
ATOM     27  C   UNL     1      15.182  -6.367  15.865  1.00  0.00    -0.000 C 
BRANCH  27  28
ATOM     28  C   UNL     1      15.669  -4.913  15.983  1.00  0.00    -0.000 C 
BRANCH  28  29
ATOM     29  C   UNL     1      14.555  -3.948  16.429  1.00  0.00    -0.000 C 
BRANCH  29  30
ATOM     30  C   UNL     1      15.062  -2.867  17.398  1.00  0.00    -0.000 C 
BRANCH  30  31
ATOM     31  C   UNL     1      16.567  -2.595  17.243  1.00  0.00    -0.003 C 
ATOM     32  C   UNL     1      17.321  -2.919  18.530  1.00  0.00     0.004 C 
ENDBRANCH  30  31
ENDBRANCH  29  30
ENDBRANCH  28  29
ENDBRANCH  27  28
ENDBRANCH  26  27
ENDBRANCH  25  26
ENDBRANCH  24  25
ENDBRANCH  23  24
ENDBRANCH  22  23
ENDBRANCH  21  22
ENDBRANCH  20  21
ENDBRANCH  19  20
ENDBRANCH  18  19
ENDBRANCH   1  18
TORSDOF 28
ENDMDL
MODEL 3
REMARK VINA RESULT:    -5.944      0.827      4.035
REMARK INTER + INTRA:         -20.711
REMARK INTER:                 -15.607
REMARK INTRA:                  -5.104
REMARK UNBOUND:                -5.037
REMARK SMILES CCCCCCCCCCCCCCCCCCCCCCCCCCCCCC(=O)[O-]
REMARK SMILES IDX 16 1 17 2 18 3 19 4 20 5 21 6 22 7 23 8 24 9 25 10 26 11
REMARK SMILES IDX 27 12 28 13 29 14 30 15 31 16 32 17 15 18 14 19 13 20 12 21
REMARK SMILES IDX 11 22 10 23 9 24 8 25 7 26 6 27 5 28 4 29 3 30 2 31 1 32
REMARK H PARENT
REMARK Flexibility Score: inf
ROOT
ATOM      1  C   UNL     1      17.967  -5.743  11.576  1.00  0.00     0.000 C 
ENDROOT
BRANCH   1   2
ATOM      2  C   UNL     1      16.456  -5.621  11.317  1.00  0.00     0.000 C 
BRANCH   2   3
ATOM      3  C   UNL     1      15.653  -5.417  12.613  1.00  0.00     0.000 C 
BRANCH   3   4
ATOM      4  C   UNL     1      14.923  -6.694  13.061  1.00  0.00     0.000 C 
BRANCH   4   5
ATOM      5  C   UNL     1      15.604  -7.364  14.268  1.00  0.00     0.000 C 
BRANCH   5   6
ATOM      6  C   UNL     1      14.887  -7.038  15.597  1.00  0.00     0.000 C 
BRANCH   6   7
ATOM      7  C   UNL     1      15.249  -5.654  16.169  1.00  0.00     0.000 C 
BRANCH   7   8
ATOM      8  C   UNL     1      14.073  -4.670  16.266  1.00  0.00     0.000 C 
BRANCH   8   9
ATOM      9  C   UNL     1      14.449  -3.365  16.985  1.00  0.00     0.000 C 
BRANCH   9  10
ATOM     10  C   UNL     1      15.830  -2.867  16.539  1.00  0.00     0.000 C 
BRANCH  10  11
ATOM     11  C   UNL     1      16.738  -2.618  17.754  1.00  0.00     0.000 C 
BRANCH  11  12
ATOM     12  C   UNL     1      18.064  -3.389  17.676  1.00  0.00     0.000 C 
BRANCH  12  13
ATOM     13  C   UNL     1      18.592  -3.519  16.239  1.00  0.00     0.006 C 
BRANCH  13  14
ATOM     14  C   UNL     1      20.111  -3.722  16.230  1.00  0.00     0.053 C 
BRANCH  14  15
ATOM     15  C   UNL     1      20.828  -2.495  16.705  1.00  0.00     0.041 C 
ATOM     16  O   UNL     1      21.316  -2.454  17.865  1.00  0.00    -0.550 OA
ATOM     17  O   UNL     1      20.952  -1.391  15.868  1.00  0.00    -0.550 OA
ENDBRANCH  14  15
ENDBRANCH  13  14
ENDBRANCH  12  13
ENDBRANCH  11  12
ENDBRANCH  10  11
ENDBRANCH   9  10
ENDBRANCH   8   9
ENDBRANCH   7   8
ENDBRANCH   6   7
ENDBRANCH   5   6
ENDBRANCH   4   5
ENDBRANCH   3   4
ENDBRANCH   2   3
ENDBRANCH   1   2
BRANCH   1  18
ATOM     18  C   UNL     1      18.396  -5.016  12.860  1.00  0.00     0.000 C 
BRANCH  18  19
ATOM     19  C   UNL     1      19.445  -3.934  12.565  1.00  0.00     0.000 C 
BRANCH  19  20
ATOM     20  C   UNL     1      18.964  -2.520  12.942  1.00  0.00     0.000 C 
BRANCH  20  21
ATOM     21  C   UNL     1      17.439  -2.373  13.124  1.00  0.00     0.000 C 
BRANCH  21  22
ATOM     22  C   UNL     1      16.943  -0.922  13.252  1.00  0.00     0.000 C 
BRANCH  22  23
ATOM     23  C   UNL     1      15.789  -0.604  12.287  1.00  0.00     0.000 C 
BRANCH  23  24
ATOM     24  C   UNL     1      14.793  -1.767  12.157  1.00  0.00    -0.000 C 
BRANCH  24  25
ATOM     25  C   UNL     1      14.182  -2.179  13.509  1.00  0.00    -0.000 C 
BRANCH  25  26
ATOM     26  C   UNL     1      12.657  -1.936  13.559  1.00  0.00    -0.000 C 
BRANCH  26  27
ATOM     27  C   UNL     1      11.836  -3.180  13.952  1.00  0.00    -0.000 C 
BRANCH  27  28
ATOM     28  C   UNL     1      11.886  -4.338  12.941  1.00  0.00    -0.000 C 
BRANCH  28  29
ATOM     29  C   UNL     1      11.733  -3.862  11.485  1.00  0.00    -0.000 C 
BRANCH  29  30
ATOM     30  C   UNL     1      12.930  -4.256  10.605  1.00  0.00    -0.000 C 
BRANCH  30  31
ATOM     31  C   UNL     1      12.561  -5.302   9.541  1.00  0.00    -0.003 C 
ATOM     32  C   UNL     1      13.784  -6.106   9.110  1.00  0.00     0.004 C 
ENDBRANCH  30  31
ENDBRANCH  29  30
ENDBRANCH  28  29
ENDBRANCH  27  28
ENDBRANCH  26  27
ENDBRANCH  25  26
ENDBRANCH  24  25
ENDBRANCH  23  24
ENDBRANCH  22  23
ENDBRANCH  21  22
ENDBRANCH  20  21
ENDBRANCH  19  20
ENDBRANCH  18  19
ENDBRANCH   1  18
TORSDOF 28
ENDMDL
MODEL 4
REMARK VINA RESULT:    -5.944      2.584      5.834
REMARK INTER + INTRA:         -20.711
REMARK INTER:                 -15.990
REMARK INTRA:                  -4.720
REMARK UNBOUND:                -5.037
REMARK SMILES CCCCCCCCCCCCCCCCCCCCCCCCCCCCCC(=O)[O-]
REMARK SMILES IDX 16 1 17 2 18 3 19 4 20 5 21 6 22 7 23 8 24 9 25 10 26 11
REMARK SMILES IDX 27 12 28 13 29 14 30 15 31 16 32 17 15 18 14 19 13 20 12 21
REMARK SMILES IDX 11 22 10 23 9 24 8 25 7 26 6 27 5 28 4 29 3 30 2 31 1 32
REMARK H PARENT
REMARK Flexibility Score: inf
ROOT
ATOM      1  C   UNL     1      15.553  -5.811  13.011  1.00  0.00     0.000 C 
ENDROOT
BRANCH   1   2
ATOM      2  C   UNL     1      16.883  -6.355  12.461  1.00  0.00     0.000 C 
BRANCH   2   3
ATOM      3  C   UNL     1      17.141  -5.915  11.009  1.00  0.00     0.000 C 
BRANCH   3   4
ATOM      4  C   UNL     1      15.988  -5.074  10.436  1.00  0.00     0.000 C 
BRANCH   4   5
ATOM      5  C   UNL     1      15.373  -5.708   9.176  1.00  0.00     0.000 C 
BRANCH   5   6
ATOM      6  C   UNL     1      13.840  -5.860   9.287  1.00  0.00     0.000 C 
BRANCH   6   7
ATOM      7  C   UNL     1      13.243  -5.179  10.534  1.00  0.00     0.000 C 
BRANCH   7   8
ATOM      8  C   UNL     1      12.035  -4.272  10.255  1.00  0.00     0.000 C 
BRANCH   8   9
ATOM      9  C   UNL     1      11.303  -3.846  11.538  1.00  0.00     0.000 C 
BRANCH   9  10
ATOM     10  C   UNL     1      12.113  -4.221  12.785  1.00  0.00     0.000 C 
BRANCH  10  11
ATOM     11  C   UNL     1      11.908  -3.184  13.900  1.00  0.00     0.000 C 
BRANCH  11  12
ATOM     12  C   UNL     1      12.948  -2.053  13.863  1.00  0.00     0.000 C 
BRANCH  12  13
ATOM     13  C   UNL     1      14.000  -2.250  12.762  1.00  0.00     0.006 C 
BRANCH  13  14
ATOM     14  C   UNL     1      14.560  -0.904  12.292  1.00  0.00     0.053 C 
BRANCH  14  15
ATOM     15  C   UNL     1      13.640  -0.243  11.311  1.00  0.00     0.041 C 
ATOM     16  O   UNL     1      12.519  -0.752  11.048  1.00  0.00    -0.550 OA
ATOM     17  O   UNL     1      14.023   0.936  10.681  1.00  0.00    -0.550 OA
ENDBRANCH  14  15
ENDBRANCH  13  14
ENDBRANCH  12  13
ENDBRANCH  11  12
ENDBRANCH  10  11
ENDBRANCH   9  10
ENDBRANCH   8   9
ENDBRANCH   7   8
ENDBRANCH   6   7
ENDBRANCH   5   6
ENDBRANCH   4   5
ENDBRANCH   3   4
ENDBRANCH   2   3
ENDBRANCH   1   2
BRANCH   1  18
ATOM     18  C   UNL     1      14.597  -6.937  13.434  1.00  0.00     0.000 C 
BRANCH  18  19
ATOM     19  C   UNL     1      14.890  -7.410  14.865  1.00  0.00     0.000 C 
BRANCH  19  20
ATOM     20  C   UNL     1      15.486  -6.298  15.749  1.00  0.00     0.000 C 
BRANCH  20  21
ATOM     21  C   UNL     1      14.470  -5.263  16.275  1.00  0.00     0.000 C 
BRANCH  21  22
ATOM     22  C   UNL     1      14.884  -3.795  16.074  1.00  0.00     0.000 C 
BRANCH  22  23
ATOM     23  C   UNL     1      14.906  -3.001  17.391  1.00  0.00     0.000 C 
BRANCH  23  24
ATOM     24  C   UNL     1      16.203  -2.196  17.571  1.00  0.00    -0.000 C 
BRANCH  24  25
ATOM     25  C   UNL     1      17.288  -2.981  18.330  1.00  0.00    -0.000 C 
BRANCH  25  26
ATOM     26  C   UNL     1      18.588  -3.124  17.508  1.00  0.00    -0.000 C 
BRANCH  26  27
ATOM     27  C   UNL     1      18.396  -3.812  16.142  1.00  0.00    -0.000 C 
BRANCH  27  28
ATOM     28  C   UNL     1      19.676  -3.961  15.303  1.00  0.00    -0.000 C 
BRANCH  28  29
ATOM     29  C   UNL     1      19.385  -4.325  13.835  1.00  0.00    -0.000 C 
BRANCH  29  30
ATOM     30  C   UNL     1      19.206  -3.085  12.944  1.00  0.00    -0.000 C 
BRANCH  30  31
ATOM     31  C   UNL     1      17.832  -2.422  13.125  1.00  0.00    -0.003 C 
ATOM     32  C   UNL     1      17.969  -0.916  13.332  1.00  0.00     0.004 C 
ENDBRANCH  30  31
ENDBRANCH  29  30
ENDBRANCH  28  29
ENDBRANCH  27  28
ENDBRANCH  26  27
ENDBRANCH  25  26
ENDBRANCH  24  25
ENDBRANCH  23  24
ENDBRANCH  22  23
ENDBRANCH  21  22
ENDBRANCH  20  21
ENDBRANCH  19  20
ENDBRANCH  18  19
ENDBRANCH   1  18
TORSDOF 28
ENDMDL
MODEL 5
REMARK VINA RESULT:    -5.939      2.547      6.111
REMARK INTER + INTRA:         -20.699
REMARK INTER:                 -15.513
REMARK INTRA:                  -5.186
REMARK UNBOUND:                -5.037
REMARK SMILES CCCCCCCCCCCCCCCCCCCCCCCCCCCCCC(=O)[O-]
REMARK SMILES IDX 16 1 17 2 18 3 19 4 20 5 21 6 22 7 23 8 24 9 25 10 26 11
REMARK SMILES IDX 27 12 28 13 29 14 30 15 31 16 32 17 15 18 14 19 13 20 12 21
REMARK SMILES IDX 11 22 10 23 9 24 8 25 7 26 6 27 5 28 4 29 3 30 2 31 1 32
REMARK H PARENT
REMARK Flexibility Score: inf
ROOT
ATOM      1  C   UNL     1      15.394  -2.992  16.721  1.00  0.00     0.000 C 
ENDROOT
BRANCH   1   2
ATOM      2  C   UNL     1      15.731  -2.471  18.129  1.00  0.00     0.000 C 
BRANCH   2   3
ATOM      3  C   UNL     1      17.102  -2.966  18.624  1.00  0.00     0.000 C 
BRANCH   3   4
ATOM      4  C   UNL     1      18.155  -2.997  17.504  1.00  0.00     0.000 C 
BRANCH   4   5
ATOM      5  C   UNL     1      19.591  -2.911  18.052  1.00  0.00     0.000 C 
BRANCH   5   6
ATOM      6  C   UNL     1      20.632  -2.706  16.929  1.00  0.00     0.000 C 
BRANCH   6   7
ATOM      7  C   UNL     1      20.052  -2.878  15.512  1.00  0.00     0.000 C 
BRANCH   7   8
ATOM      8  C   UNL     1      20.191  -4.292  14.926  1.00  0.00     0.000 C 
BRANCH   8   9
ATOM      9  C   UNL     1      19.374  -4.484  13.639  1.00  0.00     0.000 C 
BRANCH   9  10
ATOM     10  C   UNL     1      18.899  -3.137  13.080  1.00  0.00     0.000 C 
BRANCH  10  11
ATOM     11  C   UNL     1      17.388  -2.961  13.292  1.00  0.00     0.000 C 
BRANCH  11  12
ATOM     12  C   UNL     1      17.018  -1.569  13.829  1.00  0.00     0.000 C 
BRANCH  12  13
ATOM     13  C   UNL     1      16.233  -0.730  12.809  1.00  0.00     0.006 C 
BRANCH  13  14
ATOM     14  C   UNL     1      15.136  -1.565  12.140  1.00  0.00     0.053 C 
BRANCH  14  15
ATOM     15  C   UNL     1      13.977  -0.710  11.727  1.00  0.00     0.041 C 
ATOM     16  O   UNL     1      12.798  -1.081  11.963  1.00  0.00    -0.550 OA
ATOM     17  O   UNL     1      14.199   0.497  11.072  1.00  0.00    -0.550 OA
ENDBRANCH  14  15
ENDBRANCH  13  14
ENDBRANCH  12  13
ENDBRANCH  11  12
ENDBRANCH  10  11
ENDBRANCH   9  10
ENDBRANCH   8   9
ENDBRANCH   7   8
ENDBRANCH   6   7
ENDBRANCH   5   6
ENDBRANCH   4   5
ENDBRANCH   3   4
ENDBRANCH   2   3
ENDBRANCH   1   2
BRANCH   1  18
ATOM     18  C   UNL     1      13.951  -3.513  16.626  1.00  0.00     0.000 C 
BRANCH  18  19
ATOM     19  C   UNL     1      13.253  -2.994  15.361  1.00  0.00     0.000 C 
BRANCH  19  20
ATOM     20  C   UNL     1      13.590  -3.827  14.110  1.00  0.00     0.000 C 
BRANCH  20  21
ATOM     21  C   UNL     1      12.381  -4.207  13.230  1.00  0.00     0.000 C 
BRANCH  21  22
ATOM     22  C   UNL     1      12.691  -5.223  12.116  1.00  0.00     0.000 C 
BRANCH  22  23
ATOM     23  C   UNL     1      13.219  -4.553  10.837  1.00  0.00     0.000 C 
BRANCH  23  24
ATOM     24  C   UNL     1      13.603  -5.574   9.754  1.00  0.00    -0.000 C 
BRANCH  24  25
ATOM     25  C   UNL     1      15.112  -5.576   9.448  1.00  0.00    -0.000 C 
BRANCH  25  26
ATOM     26  C   UNL     1      15.949  -5.038  10.629  1.00  0.00    -0.000 C 
BRANCH  26  27
ATOM     27  C   UNL     1      17.196  -5.885  10.952  1.00  0.00    -0.000 C 
BRANCH  27  28
ATOM     28  C   UNL     1      17.206  -6.520  12.353  1.00  0.00    -0.000 C 
BRANCH  28  29
ATOM     29  C   UNL     1      15.790  -6.699  12.933  1.00  0.00    -0.000 C 
BRANCH  29  30
ATOM     30  C   UNL     1      15.793  -7.442  14.279  1.00  0.00    -0.000 C 
BRANCH  30  31
ATOM     31  C   UNL     1      15.671  -6.489  15.478  1.00  0.00    -0.003 C 
ATOM     32  C   UNL     1      17.045  -6.047  15.974  1.00  0.00     0.004 C 
ENDBRANCH  30  31
ENDBRANCH  29  30
ENDBRANCH  28  29
ENDBRANCH  27  28
ENDBRANCH  26  27
ENDBRANCH  25  26
ENDBRANCH  24  25
ENDBRANCH  23  24
ENDBRANCH  22  23
ENDBRANCH  21  22
ENDBRANCH  20  21
ENDBRANCH  19  20
ENDBRANCH  18  19
ENDBRANCH   1  18
TORSDOF 28
ENDMDL
MODEL 6
REMARK VINA RESULT:    -5.933      3.082      7.081
REMARK INTER + INTRA:         -20.681
REMARK INTER:                 -15.264
REMARK INTRA:                  -5.417
REMARK UNBOUND:                -5.037
REMARK SMILES CCCCCCCCCCCCCCCCCCCCCCCCCCCCCC(=O)[O-]
REMARK SMILES IDX 16 1 17 2 18 3 19 4 20 5 21 6 22 7 23 8 24 9 25 10 26 11
REMARK SMILES IDX 27 12 28 13 29 14 30 15 31 16 32 17 15 18 14 19 13 20 12 21
REMARK SMILES IDX 11 22 10 23 9 24 8 25 7 26 6 27 5 28 4 29 3 30 2 31 1 32
REMARK H PARENT
REMARK Flexibility Score: inf
ROOT
ATOM      1  C   UNL     1      18.616  -2.986  16.870  1.00  0.00     0.000 C 
ENDROOT
BRANCH   1   2
ATOM      2  C   UNL     1      20.091  -2.731  16.519  1.00  0.00     0.000 C 
BRANCH   2   3
ATOM      3  C   UNL     1      20.667  -3.812  15.587  1.00  0.00     0.000 C 
BRANCH   3   4
ATOM      4  C   UNL     1      19.570  -4.661  14.923  1.00  0.00     0.000 C 
BRANCH   4   5
ATOM      5  C   UNL     1      19.781  -4.803  13.405  1.00  0.00     0.000 C 
BRANCH   5   6
ATOM      6  C   UNL     1      19.359  -3.532  12.635  1.00  0.00     0.000 C 
BRANCH   6   7
ATOM      7  C   UNL     1      18.064  -2.890  13.170  1.00  0.00     0.000 C 
BRANCH   7   8
ATOM      8  C   UNL     1      18.093  -1.355  13.252  1.00  0.00     0.000 C 
BRANCH   8   9
ATOM      9  C   UNL     1      16.687  -0.738  13.310  1.00  0.00     0.000 C 
BRANCH   9  10
ATOM     10  C   UNL     1      15.839  -1.183  12.112  1.00  0.00     0.000 C 
BRANCH  10  11
ATOM     11  C   UNL     1      14.438  -0.554  12.171  1.00  0.00     0.000 C 
BRANCH  11  12
ATOM     12  C   UNL     1      13.382  -1.500  12.762  1.00  0.00     0.000 C 
BRANCH  12  13
ATOM     13  C   UNL     1      13.197  -2.777  11.928  1.00  0.00     0.006 C 
BRANCH  13  14
ATOM     14  C   UNL     1      12.521  -3.878  12.753  1.00  0.00     0.053 C 
BRANCH  14  15
ATOM     15  C   UNL     1      11.122  -4.131  12.280  1.00  0.00     0.041 C 
ATOM     16  O   UNL     1      10.230  -4.486  13.094  1.00  0.00    -0.550 OA
ATOM     17  O   UNL     1      10.803  -3.983  10.934  1.00  0.00    -0.550 OA
ENDBRANCH  14  15
ENDBRANCH  13  14
ENDBRANCH  12  13
ENDBRANCH  11  12
ENDBRANCH  10  11
ENDBRANCH   9  10
ENDBRANCH   8   9
ENDBRANCH   7   8
ENDBRANCH   6   7
ENDBRANCH   5   6
ENDBRANCH   4   5
ENDBRANCH   3   4
ENDBRANCH   2   3
ENDBRANCH   1   2
BRANCH   1  18
ATOM     18  C   UNL     1      18.387  -3.073  18.388  1.00  0.00     0.000 C 
BRANCH  18  19
ATOM     19  C   UNL     1      16.893  -2.993  18.733  1.00  0.00     0.000 C 
BRANCH  19  20
ATOM     20  C   UNL     1      16.047  -2.418  17.581  1.00  0.00     0.000 C 
BRANCH  20  21
ATOM     21  C   UNL     1      14.665  -3.078  17.390  1.00  0.00     0.000 C 
BRANCH  21  22
ATOM     22  C   UNL     1      14.312  -3.418  15.932  1.00  0.00     0.000 C 
BRANCH  22  23
ATOM     23  C   UNL     1      15.470  -4.104  15.187  1.00  0.00     0.000 C 
BRANCH  23  24
ATOM     24  C   UNL     1      15.990  -5.347  15.926  1.00  0.00    -0.000 C 
BRANCH  24  25
ATOM     25  C   UNL     1      15.132  -6.597  15.660  1.00  0.00    -0.000 C 
BRANCH  25  26
ATOM     26  C   UNL     1      15.724  -7.486  14.544  1.00  0.00    -0.000 C 
BRANCH  26  27
ATOM     27  C   UNL     1      15.364  -7.026  13.117  1.00  0.00    -0.000 C 
BRANCH  27  28
ATOM     28  C   UNL     1      16.473  -6.254  12.384  1.00  0.00    -0.000 C 
BRANCH  28  29
ATOM     29  C   UNL     1      15.918  -5.218  11.390  1.00  0.00    -0.000 C 
BRANCH  29  30
ATOM     30  C   UNL     1      16.250  -5.563   9.929  1.00  0.00    -0.000 C 
BRANCH  30  31
ATOM     31  C   UNL     1      15.005  -5.950   9.116  1.00  0.00    -0.003 C 
ATOM     32  C   UNL     1      13.725  -5.677   9.903  1.00  0.00     0.004 C 
ENDBRANCH  30  31
ENDBRANCH  29  30
ENDBRANCH  28  29
ENDBRANCH  27  28
ENDBRANCH  26  27
ENDBRANCH  25  26
ENDBRANCH  24  25
ENDBRANCH  23  24
ENDBRANCH  22  23
ENDBRANCH  21  22
ENDBRANCH  20  21
ENDBRANCH  19  20
ENDBRANCH  18  19
ENDBRANCH   1  18
TORSDOF 28
ENDMDL
MODEL 7
REMARK VINA RESULT:    -5.920      2.820      5.849
REMARK INTER + INTRA:         -20.647
REMARK INTER:                 -14.972
REMARK INTRA:                  -5.675
REMARK UNBOUND:                -5.037
REMARK SMILES CCCCCCCCCCCCCCCCCCCCCCCCCCCCCC(=O)[O-]
REMARK SMILES IDX 16 1 17 2 18 3 19 4 20 5 21 6 22 7 23 8 24 9 25 10 26 11
REMARK SMILES IDX 27 12 28 13 29 14 30 15 31 16 32 17 15 18 14 19 13 20 12 21
REMARK SMILES IDX 11 22 10 23 9 24 8 25 7 26 6 27 5 28 4 29 3 30 2 31 1 32
REMARK H PARENT
REMARK Flexibility Score: inf
ROOT
ATOM      1  C   UNL     1      13.320  -5.672   9.580  1.00  0.00     0.000 C 
ENDROOT
BRANCH   1   2
ATOM      2  C   UNL     1      14.759  -5.953   9.115  1.00  0.00     0.000 C 
BRANCH   2   3
ATOM      3  C   UNL     1      15.795  -5.093   9.859  1.00  0.00     0.000 C 
BRANCH   3   4
ATOM      4  C   UNL     1      16.844  -5.943  10.596  1.00  0.00     0.000 C 
BRANCH   4   5
ATOM      5  C   UNL     1      17.499  -5.181  11.761  1.00  0.00     0.000 C 
BRANCH   5   6
ATOM      6  C   UNL     1      18.894  -5.743  12.115  1.00  0.00     0.000 C 
BRANCH   6   7
ATOM      7  C   UNL     1      19.758  -4.769  12.939  1.00  0.00     0.000 C 
BRANCH   7   8
ATOM      8  C   UNL     1      19.627  -3.292  12.537  1.00  0.00     0.000 C 
BRANCH   8   9
ATOM      9  C   UNL     1      19.451  -2.360  13.746  1.00  0.00     0.000 C 
BRANCH   9  10
ATOM     10  C   UNL     1      18.410  -1.271  13.457  1.00  0.00     0.000 C 
BRANCH  10  11
ATOM     11  C   UNL     1      16.987  -1.799  13.697  1.00  0.00     0.000 C 
BRANCH  11  12
ATOM     12  C   UNL     1      15.903  -0.895  13.089  1.00  0.00     0.000 C 
BRANCH  12  13
ATOM     13  C   UNL     1      14.979  -1.647  12.119  1.00  0.00     0.006 C 
BRANCH  13  14
ATOM     14  C   UNL     1      13.507  -1.362  12.433  1.00  0.00     0.053 C 
BRANCH  14  15
ATOM     15  C   UNL     1      12.806  -0.758  11.254  1.00  0.00     0.041 C 
ATOM     16  O   UNL     1      11.809  -1.333  10.744  1.00  0.00    -0.550 OA
ATOM     17  O   UNL     1      13.259   0.440  10.712  1.00  0.00    -0.550 OA
ENDBRANCH  14  15
ENDBRANCH  13  14
ENDBRANCH  12  13
ENDBRANCH  11  12
ENDBRANCH  10  11
ENDBRANCH   9  10
ENDBRANCH   8   9
ENDBRANCH   7   8
ENDBRANCH   6   7
ENDBRANCH   5   6
ENDBRANCH   4   5
ENDBRANCH   3   4
ENDBRANCH   2   3
ENDBRANCH   1   2
BRANCH   1  18
ATOM     18  C   UNL     1      13.253  -4.514  10.588  1.00  0.00     0.000 C 
BRANCH  18  19
ATOM     19  C   UNL     1      12.834  -5.010  11.980  1.00  0.00     0.000 C 
BRANCH  19  20
ATOM     20  C   UNL     1      14.018  -5.096  12.962  1.00  0.00     0.000 C 
BRANCH  20  21
ATOM     21  C   UNL     1      14.441  -6.526  13.355  1.00  0.00     0.000 C 
BRANCH  21  22
ATOM     22  C   UNL     1      14.324  -6.843  14.856  1.00  0.00     0.000 C 
BRANCH  22  23
ATOM     23  C   UNL     1      15.687  -7.138  15.506  1.00  0.00     0.000 C 
BRANCH  23  24
ATOM     24  C   UNL     1      16.750  -6.089  15.144  1.00  0.00    -0.000 C 
BRANCH  24  25
ATOM     25  C   UNL     1      17.453  -5.505  16.383  1.00  0.00    -0.000 C 
BRANCH  25  26
ATOM     26  C   UNL     1      18.060  -4.112  16.108  1.00  0.00    -0.000 C 
BRANCH  26  27
ATOM     27  C   UNL     1      18.417  -3.320  17.382  1.00  0.00    -0.000 C 
BRANCH  27  28
ATOM     28  C   UNL     1      17.227  -2.994  18.300  1.00  0.00    -0.000 C 
BRANCH  28  29
ATOM     29  C   UNL     1      16.117  -2.209  17.578  1.00  0.00    -0.000 C 
BRANCH  29  30
ATOM     30  C   UNL     1      14.808  -3.006  17.464  1.00  0.00    -0.000 C 
BRANCH  30  31
ATOM     31  C   UNL     1      14.425  -3.305  16.006  1.00  0.00    -0.003 C 
ATOM     32  C   UNL     1      12.909  -3.353  15.833  1.00  0.00     0.004 C 
ENDBRANCH  30  31
ENDBRANCH  29  30
ENDBRANCH  28  29
ENDBRANCH  27  28
ENDBRANCH  26  27
ENDBRANCH  25  26
ENDBRANCH  24  25
ENDBRANCH  23  24
ENDBRANCH  22  23
ENDBRANCH  21  22
ENDBRANCH  20  21
ENDBRANCH  19  20
ENDBRANCH  18  19
ENDBRANCH   1  18
TORSDOF 28
ENDMDL
MODEL 8
REMARK VINA RESULT:    -5.909      0.989      4.216
REMARK INTER + INTRA:         -20.618
REMARK INTER:                 -15.204
REMARK INTRA:                  -5.414
REMARK UNBOUND:                -5.037
REMARK SMILES CCCCCCCCCCCCCCCCCCCCCCCCCCCCCC(=O)[O-]
REMARK SMILES IDX 16 1 17 2 18 3 19 4 20 5 21 6 22 7 23 8 24 9 25 10 26 11
REMARK SMILES IDX 27 12 28 13 29 14 30 15 31 16 32 17 15 18 14 19 13 20 12 21
REMARK SMILES IDX 11 22 10 23 9 24 8 25 7 26 6 27 5 28 4 29 3 30 2 31 1 32
REMARK H PARENT
REMARK Flexibility Score: inf
ROOT
ATOM      1  C   UNL     1      16.734  -5.524  10.548  1.00  0.00     0.000 C 
ENDROOT
BRANCH   1   2
ATOM      2  C   UNL     1      15.253  -5.477  10.958  1.00  0.00     0.000 C 
BRANCH   2   3
ATOM      3  C   UNL     1      15.067  -5.456  12.485  1.00  0.00     0.000 C 
BRANCH   3   4
ATOM      4  C   UNL     1      14.263  -6.664  12.996  1.00  0.00     0.000 C 
BRANCH   4   5
ATOM      5  C   UNL     1      14.698  -7.100  14.406  1.00  0.00     0.000 C 
BRANCH   5   6
ATOM      6  C   UNL     1      15.939  -6.324  14.900  1.00  0.00     0.000 C 
BRANCH   6   7
ATOM      7  C   UNL     1      15.678  -5.490  16.169  1.00  0.00     0.000 C 
BRANCH   7   8
ATOM      8  C   UNL     1      14.496  -4.514  16.067  1.00  0.00     0.000 C 
BRANCH   8   9
ATOM      9  C   UNL     1      14.626  -3.321  17.026  1.00  0.00     0.000 C 
BRANCH   9  10
ATOM     10  C   UNL     1      15.982  -2.623  16.859  1.00  0.00     0.000 C 
BRANCH  10  11
ATOM     11  C   UNL     1      16.805  -2.713  18.153  1.00  0.00     0.000 C 
BRANCH  11  12
ATOM     12  C   UNL     1      18.284  -3.043  17.899  1.00  0.00     0.000 C 
BRANCH  12  13
ATOM     13  C   UNL     1      18.548  -3.514  16.461  1.00  0.00     0.006 C 
BRANCH  13  14
ATOM     14  C   UNL     1      20.051  -3.666  16.201  1.00  0.00     0.053 C 
BRANCH  14  15
ATOM     15  C   UNL     1      20.816  -2.490  16.726  1.00  0.00     0.041 C 
ATOM     16  O   UNL     1      20.894  -1.429  16.052  1.00  0.00    -0.550 OA
ATOM     17  O   UNL     1      21.452  -2.566  17.961  1.00  0.00    -0.550 OA
ENDBRANCH  14  15
ENDBRANCH  13  14
ENDBRANCH  12  13
ENDBRANCH  11  12
ENDBRANCH  10  11
ENDBRANCH   9  10
ENDBRANCH   8   9
ENDBRANCH   7   8
ENDBRANCH   6   7
ENDBRANCH   5   6
ENDBRANCH   4   5
ENDBRANCH   3   4
ENDBRANCH   2   3
ENDBRANCH   1   2
BRANCH   1  18
ATOM     18  C   UNL     1      17.607  -6.221  11.605  1.00  0.00     0.000 C 
BRANCH  18  19
ATOM     19  C   UNL     1      18.713  -5.288  12.119  1.00  0.00     0.000 C 
BRANCH  19  20
ATOM     20  C   UNL     1      18.159  -4.086  12.908  1.00  0.00     0.000 C 
BRANCH  20  21
ATOM     21  C   UNL     1      19.025  -2.811  12.853  1.00  0.00     0.000 C 
BRANCH  21  22
ATOM     22  C   UNL     1      18.375  -1.564  13.479  1.00  0.00     0.000 C 
BRANCH  22  23
ATOM     23  C   UNL     1      16.839  -1.648  13.501  1.00  0.00     0.000 C 
BRANCH  23  24
ATOM     24  C   UNL     1      16.198  -1.018  12.254  1.00  0.00    -0.000 C 
BRANCH  24  25
ATOM     25  C   UNL     1      14.663  -0.945  12.349  1.00  0.00    -0.000 C 
BRANCH  25  26
ATOM     26  C   UNL     1      14.077  -2.068  13.233  1.00  0.00    -0.000 C 
BRANCH  26  27
ATOM     27  C   UNL     1      12.651  -1.784  13.747  1.00  0.00    -0.000 C 
BRANCH  27  28
ATOM     28  C   UNL     1      11.858  -3.027  14.183  1.00  0.00    -0.000 C 
BRANCH  28  29
ATOM     29  C   UNL     1      11.987  -4.194  13.187  1.00  0.00    -0.000 C 
BRANCH  29  30
ATOM     30  C   UNL     1      10.988  -4.091  12.023  1.00  0.00    -0.000 C 
BRANCH  30  31
ATOM     31  C   UNL     1      11.669  -3.743  10.690  1.00  0.00    -0.003 C 
ATOM     32  C   UNL     1      11.557  -2.251  10.386  1.00  0.00     0.004 C 
ENDBRANCH  30  31
ENDBRANCH  29  30
ENDBRANCH  28  29
ENDBRANCH  27  28
ENDBRANCH  26  27
ENDBRANCH  25  26
ENDBRANCH  24  25
ENDBRANCH  23  24
ENDBRANCH  22  23
ENDBRANCH  21  22
ENDBRANCH  20  21
ENDBRANCH  19  20
ENDBRANCH  18  19
ENDBRANCH   1  18
TORSDOF 28
ENDMDL
MODEL 9
REMARK VINA RESULT:    -5.855      2.661      6.583
REMARK INTER + INTRA:         -20.475
REMARK INTER:                 -15.065
REMARK INTRA:                  -5.411
REMARK UNBOUND:                -5.037
REMARK SMILES CCCCCCCCCCCCCCCCCCCCCCCCCCCCCC(=O)[O-]
REMARK SMILES IDX 16 1 17 2 18 3 19 4 20 5 21 6 22 7 23 8 24 9 25 10 26 11
REMARK SMILES IDX 27 12 28 13 29 14 30 15 31 16 32 17 15 18 14 19 13 20 12 21
REMARK SMILES IDX 11 22 10 23 9 24 8 25 7 26 6 27 5 28 4 29 3 30 2 31 1 32
REMARK H PARENT
REMARK Flexibility Score: inf
ROOT
ATOM      1  C   UNL     1      14.086  -3.759  16.605  1.00  0.00     0.000 C 
ENDROOT
BRANCH   1   2
ATOM      2  C   UNL     1      14.868  -2.919  17.628  1.00  0.00     0.000 C 
BRANCH   2   3
ATOM      3  C   UNL     1      16.313  -2.642  17.177  1.00  0.00     0.000 C 
BRANCH   3   4
ATOM      4  C   UNL     1      17.346  -3.011  18.255  1.00  0.00     0.000 C 
BRANCH   4   5
ATOM      5  C   UNL     1      18.764  -3.163  17.677  1.00  0.00     0.000 C 
BRANCH   5   6
ATOM      6  C   UNL     1      18.757  -3.821  16.279  1.00  0.00     0.000 C 
BRANCH   6   7
ATOM      7  C   UNL     1      19.763  -3.191  15.297  1.00  0.00     0.000 C 
BRANCH   7   8
ATOM      8  C   UNL     1      19.753  -3.799  13.885  1.00  0.00     0.000 C 
BRANCH   8   9
ATOM      9  C   UNL     1      18.742  -3.116  12.952  1.00  0.00     0.000 C 
BRANCH   9  10
ATOM     10  C   UNL     1      18.618  -1.621  13.270  1.00  0.00     0.000 C 
BRANCH  10  11
ATOM     11  C   UNL     1      17.205  -1.284  13.771  1.00  0.00     0.000 C 
BRANCH  11  12
ATOM     12  C   UNL     1      16.194  -2.411  13.509  1.00  0.00     0.000 C 
BRANCH  12  13
ATOM     13  C   UNL     1      14.898  -1.905  12.858  1.00  0.00     0.006 C 
BRANCH  13  14
ATOM     14  C   UNL     1      15.175  -0.711  11.939  1.00  0.00     0.053 C 
BRANCH  14  15
ATOM     15  C   UNL     1      13.914  -0.207  11.305  1.00  0.00     0.041 C 
ATOM     16  O   UNL     1      13.913   0.880  10.670  1.00  0.00    -0.550 OA
ATOM     17  O   UNL     1      12.735  -0.935  11.422  1.00  0.00    -0.550 OA
ENDBRANCH  14  15
ENDBRANCH  13  14
ENDBRANCH  12  13
ENDBRANCH  11  12
ENDBRANCH  10  11
ENDBRANCH   9  10
ENDBRANCH   8   9
ENDBRANCH   7   8
ENDBRANCH   6   7
ENDBRANCH   5   6
ENDBRANCH   4   5
ENDBRANCH   3   4
ENDBRANCH   2   3
ENDBRANCH   1   2
BRANCH   1  18
ATOM     18  C   UNL     1      15.006  -4.672  15.779  1.00  0.00     0.000 C 
BRANCH  18  19
ATOM     19  C   UNL     1      15.195  -6.035  16.459  1.00  0.00     0.000 C 
BRANCH  19  20
ATOM     20  C   UNL     1      14.815  -7.215  15.544  1.00  0.00     0.000 C 
BRANCH  20  21
ATOM     21  C   UNL     1      14.779  -6.890  14.036  1.00  0.00     0.000 C 
BRANCH  21  22
ATOM     22  C   UNL     1      15.981  -7.420  13.235  1.00  0.00     0.000 C 
BRANCH  22  23
ATOM     23  C   UNL     1      17.092  -6.369  13.071  1.00  0.00     0.000 C 
BRANCH  23  24
ATOM     24  C   UNL     1      17.466  -6.132  11.600  1.00  0.00    -0.000 C 
BRANCH  24  25
ATOM     25  C   UNL     1      16.528  -5.131  10.902  1.00  0.00    -0.000 C 
BRANCH  25  26
ATOM     26  C   UNL     1      16.038  -5.646   9.531  1.00  0.00    -0.000 C 
BRANCH  26  27
ATOM     27  C   UNL     1      14.506  -5.603   9.354  1.00  0.00    -0.000 C 
BRANCH  27  28
ATOM     28  C   UNL     1      13.697  -5.889  10.630  1.00  0.00    -0.000 C 
BRANCH  28  29
ATOM     29  C   UNL     1      12.904  -4.662  11.118  1.00  0.00    -0.000 C 
BRANCH  29  30
ATOM     30  C   UNL     1      12.621  -4.704  12.628  1.00  0.00    -0.000 C 
BRANCH  30  31
ATOM     31  C   UNL     1      11.444  -3.802  13.032  1.00  0.00    -0.003 C 
ATOM     32  C   UNL     1      11.794  -2.949  14.249  1.00  0.00     0.004 C 
ENDBRANCH  30  31
ENDBRANCH  29  30
ENDBRANCH  28  29
ENDBRANCH  27  28
ENDBRANCH  26  27
ENDBRANCH  25  26
ENDBRANCH  24  25
ENDBRANCH  23  24
ENDBRANCH  22  23
ENDBRANCH  21  22
ENDBRANCH  20  21
ENDBRANCH  19  20
ENDBRANCH  18  19
ENDBRANCH   1  18
TORSDOF 28
ENDMDL
