MODEL 1
REMARK VINA RESULT:    -3.763      0.000      0.000
REMARK INTER + INTRA:         -11.570
REMARK INTER:                  -8.602
REMARK INTRA:                  -2.968
REMARK UNBOUND:                -2.968
REMARK SMILES CCCCCCCCCCCCCCCCCCCCCCCC(=O)[O-]
REMARK SMILES IDX 13 1 14 2 15 3 16 4 17 5 18 6 19 7 20 8 21 9 22 10 23 11
REMARK SMILES IDX 24 12 25 13 26 14 12 15 11 16 10 17 9 18 8 19 7 20 6 21 5 22
REMARK SMILES IDX 4 23 3 24 2 25 1 26
REMARK H PARENT
REMARK Flexibility Score: inf
ROOT
ATOM      1  C   UNL     1       4.689  -0.031  -5.281  1.00  0.00     0.000 C 
ENDROOT
BRANCH   1   2
ATOM      2  C   UNL     1       5.932  -0.888  -5.578  1.00  0.00     0.000 C 
BRANCH   2   3
ATOM      3  C   UNL     1       7.021  -0.189  -6.418  1.00  0.00     0.000 C 
BRANCH   3   4
ATOM      4  C   UNL     1       7.322  -0.845  -7.778  1.00  0.00     0.000 C 
BRANCH   4   5
ATOM      5  C   UNL     1       6.461  -0.277  -8.918  1.00  0.00     0.000 C 
BRANCH   5   6
ATOM      6  C   UNL     1       5.095  -0.974  -9.024  1.00  0.00     0.000 C 
BRANCH   6   7
ATOM      7  C   UNL     1       5.133  -2.203  -9.950  1.00  0.00     0.000 C 
BRANCH   7   8
ATOM      8  C   UNL     1       4.755  -3.503  -9.222  1.00  0.00     0.000 C 
BRANCH   8   9
ATOM      9  C   UNL     1       5.965  -4.205  -8.590  1.00  0.00     0.000 C 
BRANCH   9  10
ATOM     10  C   UNL     1       5.825  -4.265  -7.062  1.00  0.00     0.006 C 
BRANCH  10  11
ATOM     11  C   UNL     1       7.186  -4.241  -6.352  1.00  0.00     0.053 C 
BRANCH  11  12
ATOM     12  C   UNL     1       7.390  -5.457  -5.500  1.00  0.00     0.041 C 
ATOM     13  O   UNL     1       7.258  -5.384  -4.250  1.00  0.00    -0.550 OA
ATOM     14  O   UNL     1       7.759  -6.661  -6.085  1.00  0.00    -0.550 OA
ENDBRANCH  11  12
ENDBRANCH  10  11
ENDBRANCH   9  10
ENDBRANCH   8   9
ENDBRANCH   7   8
ENDBRANCH   6   7
ENDBRANCH   5   6
ENDBRANCH   4   5
ENDBRANCH   3   4
ENDBRANCH   2   3
ENDBRANCH   1   2
BRANCH   1  15
ATOM     15  C   UNL     1       4.881   1.448  -5.658  1.00  0.00     0.000 C 
BRANCH  15  16
ATOM     16  C   UNL     1       3.913   1.909  -6.758  1.00  0.00     0.000 C 
BRANCH  16  17
ATOM     17  C   UNL     1       4.627   2.651  -7.902  1.00  0.00     0.000 C 
BRANCH  17  18
ATOM     18  C   UNL     1       6.010   3.178  -7.491  1.00  0.00    -0.000 C 
BRANCH  18  19
ATOM     19  C   UNL     1       6.380   4.491  -8.206  1.00  0.00    -0.000 C 
BRANCH  19  20
ATOM     20  C   UNL     1       5.296   4.950  -9.194  1.00  0.00    -0.000 C 
BRANCH  20  21
ATOM     21  C   UNL     1       5.124   6.481  -9.219  1.00  0.00    -0.000 C 
BRANCH  21  22
ATOM     22  C   UNL     1       5.668   7.150  -7.939  1.00  0.00    -0.000 C 
BRANCH  22  23
ATOM     23  C   UNL     1       5.031   8.518  -7.637  1.00  0.00    -0.000 C 
BRANCH  23  24
ATOM     24  C   UNL     1       5.330   9.016  -6.216  1.00  0.00    -0.000 C 
BRANCH  24  25
ATOM     25  C   UNL     1       4.328   8.441  -5.208  1.00  0.00    -0.003 C 
ATOM     26  C   UNL     1       4.945   8.344  -3.815  1.00  0.00     0.004 C 
ENDBRANCH  24  25
ENDBRANCH  23  24
ENDBRANCH  22  23
ENDBRANCH  21  22
ENDBRANCH  20  21
ENDBRANCH  19  20
ENDBRANCH  18  19
ENDBRANCH  17  18
ENDBRANCH  16  17
ENDBRANCH  15  16
ENDBRANCH   1  15
TORSDOF 22
ENDMDL
MODEL 2
REMARK VINA RESULT:    -3.576      2.383      3.938
REMARK INTER + INTRA:         -11.143
REMARK INTER:                  -7.165
REMARK INTRA:                  -3.978
REMARK UNBOUND:                -2.968
REMARK SMILES CCCCCCCCCCCCCCCCCCCCCCCC(=O)[O-]
REMARK SMILES IDX 13 1 14 2 15 3 16 4 17 5 18 6 19 7 20 8 21 9 22 10 23 11
REMARK SMILES IDX 24 12 25 13 26 14 12 15 11 16 10 17 9 18 8 19 7 20 6 21 5 22
REMARK SMILES IDX 4 23 3 24 2 25 1 26
REMARK H PARENT
REMARK Flexibility Score: inf
ROOT
ATOM      1  C   UNL     1       4.332   0.557  -5.851  1.00  0.00     0.000 C 
ENDROOT
BRANCH   1   2
ATOM      2  C   UNL     1       4.485   1.966  -6.448  1.00  0.00     0.000 C 
BRANCH   2   3
ATOM      3  C   UNL     1       4.118   2.085  -7.942  1.00  0.00     0.000 C 
BRANCH   3   4
ATOM      4  C   UNL     1       4.834   1.091  -8.874  1.00  0.00     0.000 C 
BRANCH   4   5
ATOM      5  C   UNL     1       3.913  -0.041  -9.358  1.00  0.00     0.000 C 
BRANCH   5   6
ATOM      6  C   UNL     1       4.696  -1.204  -9.990  1.00  0.00     0.000 C 
BRANCH   6   7
ATOM      7  C   UNL     1       5.196  -2.213  -8.941  1.00  0.00     0.000 C 
BRANCH   7   8
ATOM      8  C   UNL     1       6.111  -3.291  -9.545  1.00  0.00     0.000 C 
BRANCH   8   9
ATOM      9  C   UNL     1       6.446  -4.412  -8.551  1.00  0.00     0.000 C 
BRANCH   9  10
ATOM     10  C   UNL     1       7.254  -3.868  -7.364  1.00  0.00     0.006 C 
BRANCH  10  11
ATOM     11  C   UNL     1       7.574  -4.956  -6.330  1.00  0.00     0.053 C 
BRANCH  11  12
ATOM     12  C   UNL     1       6.807  -4.757  -5.058  1.00  0.00     0.041 C 
ATOM     13  O   UNL     1       7.233  -5.243  -3.978  1.00  0.00    -0.550 OA
ATOM     14  O   UNL     1       5.605  -4.061  -5.074  1.00  0.00    -0.550 OA
ENDBRANCH  11  12
ENDBRANCH  10  11
ENDBRANCH   9  10
ENDBRANCH   8   9
ENDBRANCH   7   8
ENDBRANCH   6   7
ENDBRANCH   5   6
ENDBRANCH   4   5
ENDBRANCH   3   4
ENDBRANCH   2   3
ENDBRANCH   1   2
BRANCH   1  15
ATOM     15  C   UNL     1       5.597   0.080  -5.115  1.00  0.00     0.000 C 
BRANCH  15  16
ATOM     16  C   UNL     1       6.581  -0.648  -6.042  1.00  0.00     0.000 C 
BRANCH  16  17
ATOM     17  C   UNL     1       7.692   0.277  -6.570  1.00  0.00     0.000 C 
BRANCH  17  18
ATOM     18  C   UNL     1       8.894  -0.501  -7.125  1.00  0.00    -0.000 C 
BRANCH  18  19
ATOM     19  C   UNL     1       8.776  -0.777  -8.635  1.00  0.00    -0.000 C 
BRANCH  19  20
ATOM     20  C   UNL     1       8.259   0.440  -9.418  1.00  0.00    -0.000 C 
BRANCH  20  21
ATOM     21  C   UNL     1       9.340   1.519  -9.621  1.00  0.00    -0.000 C 
BRANCH  21  22
ATOM     22  C   UNL     1       8.747   2.943  -9.639  1.00  0.00    -0.000 C 
BRANCH  22  23
ATOM     23  C   UNL     1       7.821   3.242  -8.447  1.00  0.00    -0.000 C 
BRANCH  23  24
ATOM     24  C   UNL     1       7.104   4.594  -8.570  1.00  0.00    -0.000 C 
BRANCH  24  25
ATOM     25  C   UNL     1       6.222   4.639  -9.823  1.00  0.00    -0.003 C 
ATOM     26  C   UNL     1       4.899   5.345  -9.538  1.00  0.00     0.004 C 
ENDBRANCH  24  25
ENDBRANCH  23  24
ENDBRANCH  22  23
ENDBRANCH  21  22
ENDBRANCH  20  21
ENDBRANCH  19  20
ENDBRANCH  18  19
ENDBRANCH  17  18
ENDBRANCH  16  17
ENDBRANCH  15  16
ENDBRANCH   1  15
TORSDOF 22
ENDMDL
MODEL 3
REMARK VINA RESULT:    -3.517      4.309     10.371
REMARK INTER + INTRA:         -11.009
REMARK INTER:                  -9.287
REMARK INTRA:                  -1.722
REMARK UNBOUND:                -2.968
REMARK SMILES CCCCCCCCCCCCCCCCCCCCCCCC(=O)[O-]
REMARK SMILES IDX 13 1 14 2 15 3 16 4 17 5 18 6 19 7 20 8 21 9 22 10 23 11
REMARK SMILES IDX 24 12 25 13 26 14 12 15 11 16 10 17 9 18 8 19 7 20 6 21 5 22
REMARK SMILES IDX 4 23 3 24 2 25 1 26
REMARK H PARENT
REMARK Flexibility Score: inf
ROOT
ATOM      1  C   UNL     1       6.705   3.982  -8.348  1.00  0.00     0.000 C 
ENDROOT
BRANCH   1   2
ATOM      2  C   UNL     1       5.839   5.250  -8.243  1.00  0.00     0.000 C 
BRANCH   2   3
ATOM      3  C   UNL     1       6.497   6.537  -8.780  1.00  0.00     0.000 C 
BRANCH   3   4
ATOM      4  C   UNL     1       5.522   7.677  -9.126  1.00  0.00     0.000 C 
BRANCH   4   5
ATOM      5  C   UNL     1       5.426   8.737  -8.016  1.00  0.00     0.000 C 
BRANCH   5   6
ATOM      6  C   UNL     1       3.972   9.119  -7.694  1.00  0.00     0.000 C 
BRANCH   6   7
ATOM      7  C   UNL     1       3.755   9.390  -6.195  1.00  0.00     0.000 C 
BRANCH   7   8
ATOM      8  C   UNL     1       4.934   8.916  -5.331  1.00  0.00     0.000 C 
BRANCH   8   9
ATOM      9  C   UNL     1       4.483   8.228  -4.035  1.00  0.00     0.000 C 
BRANCH   9  10
ATOM     10  C   UNL     1       4.744   9.128  -2.818  1.00  0.00     0.006 C 
BRANCH  10  11
ATOM     11  C   UNL     1       5.999   8.708  -2.042  1.00  0.00     0.053 C 
BRANCH  11  12
ATOM     12  C   UNL     1       5.724   8.564  -0.576  1.00  0.00     0.041 C 
ATOM     13  O   UNL     1       6.009   7.494   0.021  1.00  0.00    -0.550 OA
ATOM     14  O   UNL     1       5.122   9.603   0.123  1.00  0.00    -0.550 OA
ENDBRANCH  11  12
ENDBRANCH  10  11
ENDBRANCH   9  10
ENDBRANCH   8   9
ENDBRANCH   7   8
ENDBRANCH   6   7
ENDBRANCH   5   6
ENDBRANCH   4   5
ENDBRANCH   3   4
ENDBRANCH   2   3
ENDBRANCH   1   2
BRANCH   1  15
ATOM     15  C   UNL     1       6.470   3.208  -9.657  1.00  0.00     0.000 C 
BRANCH  15  16
ATOM     16  C   UNL     1       5.688   1.904  -9.442  1.00  0.00     0.000 C 
BRANCH  16  17
ATOM     17  C   UNL     1       4.263   2.150  -8.913  1.00  0.00     0.000 C 
BRANCH  17  18
ATOM     18  C   UNL     1       3.967   1.363  -7.628  1.00  0.00    -0.000 C 
BRANCH  18  19
ATOM     19  C   UNL     1       4.290   2.165  -6.354  1.00  0.00    -0.000 C 
BRANCH  19  20
ATOM     20  C   UNL     1       5.249   1.417  -5.413  1.00  0.00    -0.000 C 
BRANCH  20  21
ATOM     21  C   UNL     1       4.873  -0.066  -5.238  1.00  0.00    -0.000 C 
BRANCH  21  22
ATOM     22  C   UNL     1       6.036  -1.010  -5.608  1.00  0.00    -0.000 C 
BRANCH  22  23
ATOM     23  C   UNL     1       5.785  -1.833  -6.884  1.00  0.00    -0.000 C 
BRANCH  23  24
ATOM     24  C   UNL     1       6.320  -3.268  -6.785  1.00  0.00    -0.000 C 
BRANCH  24  25
ATOM     25  C   UNL     1       5.726  -3.997  -5.575  1.00  0.00    -0.003 C 
ATOM     26  C   UNL     1       6.819  -4.661  -4.742  1.00  0.00     0.004 C 
ENDBRANCH  24  25
ENDBRANCH  23  24
ENDBRANCH  22  23
ENDBRANCH  21  22
ENDBRANCH  20  21
ENDBRANCH  19  20
ENDBRANCH  18  19
ENDBRANCH  17  18
ENDBRANCH  16  17
ENDBRANCH  15  16
ENDBRANCH   1  15
TORSDOF 22
ENDMDL
MODEL 4
REMARK VINA RESULT:    -3.475      4.221      9.990
REMARK INTER + INTRA:         -10.912
REMARK INTER:                  -8.375
REMARK INTRA:                  -2.537
REMARK UNBOUND:                -2.968
REMARK SMILES CCCCCCCCCCCCCCCCCCCCCCCC(=O)[O-]
REMARK SMILES IDX 13 1 14 2 15 3 16 4 17 5 18 6 19 7 20 8 21 9 22 10 23 11
REMARK SMILES IDX 24 12 25 13 26 14 12 15 11 16 10 17 9 18 8 19 7 20 6 21 5 22
REMARK SMILES IDX 4 23 3 24 2 25 1 26
REMARK H PARENT
REMARK Flexibility Score: inf
ROOT
ATOM      1  C   UNL     1       5.782  -2.578  -9.505  1.00  0.00     0.000 C 
ENDROOT
BRANCH   1   2
ATOM      2  C   UNL     1       4.900  -1.318  -9.494  1.00  0.00     0.000 C 
BRANCH   2   3
ATOM      3  C   UNL     1       5.670   0.019  -9.532  1.00  0.00     0.000 C 
BRANCH   3   4
ATOM      4  C   UNL     1       4.907   1.231  -8.969  1.00  0.00     0.000 C 
BRANCH   4   5
ATOM      5  C   UNL     1       4.117   0.898  -7.692  1.00  0.00     0.000 C 
BRANCH   5   6
ATOM      6  C   UNL     1       4.898   1.243  -6.413  1.00  0.00     0.000 C 
BRANCH   6   7
ATOM      7  C   UNL     1       4.641   0.235  -5.279  1.00  0.00     0.000 C 
BRANCH   7   8
ATOM      8  C   UNL     1       5.178  -1.168  -5.601  1.00  0.00     0.000 C 
BRANCH   8   9
ATOM      9  C   UNL     1       6.634  -1.151  -6.089  1.00  0.00     0.000 C 
BRANCH   9  10
ATOM     10  C   UNL     1       7.207  -2.574  -6.151  1.00  0.00     0.006 C 
BRANCH  10  11
ATOM     11  C   UNL     1       6.629  -3.482  -5.057  1.00  0.00     0.053 C 
BRANCH  11  12
ATOM     12  C   UNL     1       7.002  -4.918  -5.272  1.00  0.00     0.041 C 
ATOM     13  O   UNL     1       7.357  -5.633  -4.299  1.00  0.00    -0.550 OA
ATOM     14  O   UNL     1       6.988  -5.455  -6.553  1.00  0.00    -0.550 OA
ENDBRANCH  11  12
ENDBRANCH  10  11
ENDBRANCH   9  10
ENDBRANCH   8   9
ENDBRANCH   7   8
ENDBRANCH   6   7
ENDBRANCH   5   6
ENDBRANCH   4   5
ENDBRANCH   3   4
ENDBRANCH   2   3
ENDBRANCH   1   2
BRANCH   1  15
ATOM     15  C   UNL     1       5.003  -3.855  -9.145  1.00  0.00     0.000 C 
BRANCH  15  16
ATOM     16  C   UNL     1       3.764  -4.061 -10.029  1.00  0.00     0.000 C 
BRANCH  16  17
ATOM     17  C   UNL     1       2.980  -5.335  -9.663  1.00  0.00     0.000 C 
BRANCH  17  18
ATOM     18  C   UNL     1       1.469  -5.186  -9.896  1.00  0.00    -0.000 C 
BRANCH  18  19
ATOM     19  C   UNL     1       0.632  -6.015  -8.905  1.00  0.00    -0.000 C 
BRANCH  19  20
ATOM     20  C   UNL     1       1.459  -7.101  -8.199  1.00  0.00    -0.000 C 
BRANCH  20  21
ATOM     21  C   UNL     1       1.102  -8.522  -8.673  1.00  0.00    -0.000 C 
BRANCH  21  22
ATOM     22  C   UNL     1       0.469  -9.370  -7.550  1.00  0.00    -0.000 C 
BRANCH  22  23
ATOM     23  C   UNL     1       0.038  -8.548  -6.322  1.00  0.00    -0.000 C 
BRANCH  23  24
ATOM     24  C   UNL     1      -1.484  -8.517  -6.127  1.00  0.00    -0.000 C 
BRANCH  24  25
ATOM     25  C   UNL     1      -2.215  -8.616  -7.471  1.00  0.00    -0.003 C 
ATOM     26  C   UNL     1      -3.047  -7.365  -7.738  1.00  0.00     0.004 C 
ENDBRANCH  24  25
ENDBRANCH  23  24
ENDBRANCH  22  23
ENDBRANCH  21  22
ENDBRANCH  20  21
ENDBRANCH  19  20
ENDBRANCH  18  19
ENDBRANCH  17  18
ENDBRANCH  16  17
ENDBRANCH  15  16
ENDBRANCH   1  15
TORSDOF 22
ENDMDL
MODEL 5
REMARK VINA RESULT:    -3.429      2.857      4.331
REMARK INTER + INTRA:         -10.808
REMARK INTER:                  -6.839
REMARK INTRA:                  -3.969
REMARK UNBOUND:                -2.968
REMARK SMILES CCCCCCCCCCCCCCCCCCCCCCCC(=O)[O-]
REMARK SMILES IDX 13 1 14 2 15 3 16 4 17 5 18 6 19 7 20 8 21 9 22 10 23 11
REMARK SMILES IDX 24 12 25 13 26 14 12 15 11 16 10 17 9 18 8 19 7 20 6 21 5 22
REMARK SMILES IDX 4 23 3 24 2 25 1 26
REMARK H PARENT
REMARK Flexibility Score: inf
ROOT
ATOM      1  C   UNL     1       6.642  -0.800  -6.834  1.00  0.00     0.000 C 
ENDROOT
BRANCH   1   2
ATOM      2  C   UNL     1       5.624  -1.682  -7.579  1.00  0.00     0.000 C 
BRANCH   2   3
ATOM      3  C   UNL     1       5.567  -1.466  -9.106  1.00  0.00     0.000 C 
BRANCH   3   4
ATOM      4  C   UNL     1       6.647  -2.208  -9.913  1.00  0.00     0.000 C 
BRANCH   4   5
ATOM      5  C   UNL     1       7.954  -1.408 -10.037  1.00  0.00     0.000 C 
BRANCH   5   6
ATOM      6  C   UNL     1       9.195  -2.261  -9.727  1.00  0.00     0.000 C 
BRANCH   6   7
ATOM      7  C   UNL     1       9.184  -2.812  -8.290  1.00  0.00     0.000 C 
BRANCH   7   8
ATOM      8  C   UNL     1       9.433  -4.328  -8.236  1.00  0.00     0.000 C 
BRANCH   8   9
ATOM      9  C   UNL     1       8.162  -5.149  -8.492  1.00  0.00     0.000 C 
BRANCH   9  10
ATOM     10  C   UNL     1       7.126  -4.915  -7.383  1.00  0.00     0.006 C 
BRANCH  10  11
ATOM     11  C   UNL     1       7.598  -5.449  -6.024  1.00  0.00     0.053 C 
BRANCH  11  12
ATOM     12  C   UNL     1       6.819  -4.852  -4.891  1.00  0.00     0.041 C 
ATOM     13  O   UNL     1       7.206  -5.008  -3.704  1.00  0.00    -0.550 OA
ATOM     14  O   UNL     1       5.649  -4.150  -5.147  1.00  0.00    -0.550 OA
ENDBRANCH  11  12
ENDBRANCH  10  11
ENDBRANCH   9  10
ENDBRANCH   8   9
ENDBRANCH   7   8
ENDBRANCH   6   7
ENDBRANCH   5   6
ENDBRANCH   4   5
ENDBRANCH   3   4
ENDBRANCH   2   3
ENDBRANCH   1   2
BRANCH   1  15
ATOM     15  C   UNL     1       6.054  -0.151  -5.569  1.00  0.00     0.000 C 
BRANCH  15  16
ATOM     16  C   UNL     1       4.519  -0.107  -5.585  1.00  0.00     0.000 C 
BRANCH  16  17
ATOM     17  C   UNL     1       3.970   1.131  -6.317  1.00  0.00     0.000 C 
BRANCH  17  18
ATOM     18  C   UNL     1       4.897   2.349  -6.193  1.00  0.00    -0.000 C 
BRANCH  18  19
ATOM     19  C   UNL     1       5.005   3.148  -7.505  1.00  0.00    -0.000 C 
BRANCH  19  20
ATOM     20  C   UNL     1       4.843   2.261  -8.750  1.00  0.00    -0.000 C 
BRANCH  20  21
ATOM     21  C   UNL     1       6.190   1.904  -9.405  1.00  0.00    -0.000 C 
BRANCH  21  22
ATOM     22  C   UNL     1       7.356   2.738  -8.834  1.00  0.00    -0.000 C 
BRANCH  22  23
ATOM     23  C   UNL     1       8.689   1.972  -8.764  1.00  0.00    -0.000 C 
BRANCH  23  24
ATOM     24  C   UNL     1       9.765   2.716  -7.962  1.00  0.00    -0.000 C 
BRANCH  24  25
ATOM     25  C   UNL     1      10.044   2.013  -6.628  1.00  0.00    -0.003 C 
ATOM     26  C   UNL     1      10.095   0.498  -6.806  1.00  0.00     0.004 C 
ENDBRANCH  24  25
ENDBRANCH  23  24
ENDBRANCH  22  23
ENDBRANCH  21  22
ENDBRANCH  20  21
ENDBRANCH  19  20
ENDBRANCH  18  19
ENDBRANCH  17  18
ENDBRANCH  16  17
ENDBRANCH  15  16
ENDBRANCH   1  15
TORSDOF 22
ENDMDL
MODEL 6
REMARK VINA RESULT:    -3.416      4.423      9.353
REMARK INTER + INTRA:         -10.777
REMARK INTER:                  -7.137
REMARK INTRA:                  -3.640
REMARK UNBOUND:                -2.968
REMARK SMILES CCCCCCCCCCCCCCCCCCCCCCCC(=O)[O-]
REMARK SMILES IDX 13 1 14 2 15 3 16 4 17 5 18 6 19 7 20 8 21 9 22 10 23 11
REMARK SMILES IDX 24 12 25 13 26 14 12 15 11 16 10 17 9 18 8 19 7 20 6 21 5 22
REMARK SMILES IDX 4 23 3 24 2 25 1 26
REMARK H PARENT
REMARK Flexibility Score: inf
ROOT
ATOM      1  C   UNL     1       5.202   0.403  -5.031  1.00  0.00     0.000 C 
ENDROOT
BRANCH   1   2
ATOM      2  C   UNL     1       4.071   0.708  -6.029  1.00  0.00     0.000 C 
BRANCH   2   3
ATOM      3  C   UNL     1       4.051   2.151  -6.573  1.00  0.00     0.000 C 
BRANCH   3   4
ATOM      4  C   UNL     1       4.171   2.277  -8.102  1.00  0.00     0.000 C 
BRANCH   4   5
ATOM      5  C   UNL     1       5.166   3.366  -8.535  1.00  0.00     0.000 C 
BRANCH   5   6
ATOM      6  C   UNL     1       6.338   3.515  -7.550  1.00  0.00     0.000 C 
BRANCH   6   7
ATOM      7  C   UNL     1       7.628   3.990  -8.240  1.00  0.00     0.000 C 
BRANCH   7   8
ATOM      8  C   UNL     1       7.368   5.072  -9.301  1.00  0.00     0.000 C 
BRANCH   8   9
ATOM      9  C   UNL     1       7.953   6.438  -8.913  1.00  0.00     0.000 C 
BRANCH   9  10
ATOM     10  C   UNL     1       6.887   7.539  -9.019  1.00  0.00     0.006 C 
BRANCH  10  11
ATOM     11  C   UNL     1       5.538   7.102  -8.433  1.00  0.00     0.053 C 
BRANCH  11  12
ATOM     12  C   UNL     1       4.447   8.074  -8.763  1.00  0.00     0.041 C 
ATOM     13  O   UNL     1       4.528   9.271  -8.382  1.00  0.00    -0.550 OA
ATOM     14  O   UNL     1       3.326   7.649  -9.464  1.00  0.00    -0.550 OA
ENDBRANCH  11  12
ENDBRANCH  10  11
ENDBRANCH   9  10
ENDBRANCH   8   9
ENDBRANCH   7   8
ENDBRANCH   6   7
ENDBRANCH   5   6
ENDBRANCH   4   5
ENDBRANCH   3   4
ENDBRANCH   2   3
ENDBRANCH   1   2
BRANCH   1  15
ATOM     15  C   UNL     1       6.274  -0.534  -5.614  1.00  0.00     0.000 C 
BRANCH  15  16
ATOM     16  C   UNL     1       7.308   0.210  -6.470  1.00  0.00     0.000 C 
BRANCH  16  17
ATOM     17  C   UNL     1       7.632  -0.527  -7.783  1.00  0.00     0.000 C 
BRANCH  17  18
ATOM     18  C   UNL     1       7.245   0.286  -9.027  1.00  0.00    -0.000 C 
BRANCH  18  19
ATOM     19  C   UNL     1       6.274  -0.472  -9.952  1.00  0.00    -0.000 C 
BRANCH  19  20
ATOM     20  C   UNL     1       5.068  -1.050  -9.195  1.00  0.00    -0.000 C 
BRANCH  20  21
ATOM     21  C   UNL     1       4.793  -2.523  -9.551  1.00  0.00    -0.000 C 
BRANCH  21  22
ATOM     22  C   UNL     1       5.807  -3.482  -8.894  1.00  0.00    -0.000 C 
BRANCH  22  23
ATOM     23  C   UNL     1       5.567  -3.701  -7.389  1.00  0.00    -0.000 C 
BRANCH  23  24
ATOM     24  C   UNL     1       6.791  -4.280  -6.666  1.00  0.00    -0.000 C 
BRANCH  24  25
ATOM     25  C   UNL     1       6.704  -4.039  -5.155  1.00  0.00    -0.003 C 
ATOM     26  C   UNL     1       7.104  -5.288  -4.375  1.00  0.00     0.004 C 
ENDBRANCH  24  25
ENDBRANCH  23  24
ENDBRANCH  22  23
ENDBRANCH  21  22
ENDBRANCH  20  21
ENDBRANCH  19  20
ENDBRANCH  18  19
ENDBRANCH  17  18
ENDBRANCH  16  17
ENDBRANCH  15  16
ENDBRANCH   1  15
TORSDOF 22
ENDMDL
MODEL 7
REMARK VINA RESULT:    -3.373      1.565      2.246
REMARK INTER + INTRA:         -10.678
REMARK INTER:                  -7.417
REMARK INTRA:                  -3.260
REMARK UNBOUND:                -2.968
REMARK SMILES CCCCCCCCCCCCCCCCCCCCCCCC(=O)[O-]
REMARK SMILES IDX 13 1 14 2 15 3 16 4 17 5 18 6 19 7 20 8 21 9 22 10 23 11
REMARK SMILES IDX 24 12 25 13 26 14 12 15 11 16 10 17 9 18 8 19 7 20 6 21 5 22
REMARK SMILES IDX 4 23 3 24 2 25 1 26
REMARK H PARENT
REMARK Flexibility Score: inf
ROOT
ATOM      1  C   UNL     1       5.218   1.179  -5.297  1.00  0.00     0.000 C 
ENDROOT
BRANCH   1   2
ATOM      2  C   UNL     1       6.506   0.529  -5.832  1.00  0.00     0.000 C 
BRANCH   2   3
ATOM      3  C   UNL     1       7.419   1.467  -6.649  1.00  0.00     0.000 C 
BRANCH   3   4
ATOM      4  C   UNL     1       8.844   0.942  -6.897  1.00  0.00     0.000 C 
BRANCH   4   5
ATOM      5  C   UNL     1       8.925  -0.022  -8.092  1.00  0.00     0.000 C 
BRANCH   5   6
ATOM      6  C   UNL     1       7.791   0.203  -9.105  1.00  0.00     0.000 C 
BRANCH   6   7
ATOM      7  C   UNL     1       6.999  -1.085  -9.395  1.00  0.00     0.000 C 
BRANCH   7   8
ATOM      8  C   UNL     1       7.334  -2.219  -8.413  1.00  0.00     0.000 C 
BRANCH   8   9
ATOM      9  C   UNL     1       6.082  -2.892  -7.832  1.00  0.00     0.000 C 
BRANCH   9  10
ATOM     10  C   UNL     1       6.117  -2.880  -6.297  1.00  0.00     0.006 C 
BRANCH  10  11
ATOM     11  C   UNL     1       5.829  -4.263  -5.697  1.00  0.00     0.053 C 
BRANCH  11  12
ATOM     12  C   UNL     1       7.059  -4.875  -5.097  1.00  0.00     0.041 C 
ATOM     13  O   UNL     1       7.109  -5.119  -3.863  1.00  0.00    -0.550 OA
ATOM     14  O   UNL     1       8.161  -5.145  -5.898  1.00  0.00    -0.550 OA
ENDBRANCH  11  12
ENDBRANCH  10  11
ENDBRANCH   9  10
ENDBRANCH   8   9
ENDBRANCH   7   8
ENDBRANCH   6   7
ENDBRANCH   5   6
ENDBRANCH   4   5
ENDBRANCH   3   4
ENDBRANCH   2   3
ENDBRANCH   1   2
BRANCH   1  15
ATOM     15  C   UNL     1       4.066   1.148  -6.317  1.00  0.00     0.000 C 
BRANCH  15  16
ATOM     16  C   UNL     1       4.343   0.202  -7.494  1.00  0.00     0.000 C 
BRANCH  16  17
ATOM     17  C   UNL     1       4.001   0.835  -8.855  1.00  0.00     0.000 C 
BRANCH  17  18
ATOM     18  C   UNL     1       3.877   2.364  -8.780  1.00  0.00    -0.000 C 
BRANCH  18  19
ATOM     19  C   UNL     1       5.171   3.085  -9.201  1.00  0.00    -0.000 C 
BRANCH  19  20
ATOM     20  C   UNL     1       5.527   4.251  -8.264  1.00  0.00    -0.000 C 
BRANCH  20  21
ATOM     21  C   UNL     1       6.967   4.758  -8.468  1.00  0.00    -0.000 C 
BRANCH  21  22
ATOM     22  C   UNL     1       7.040   6.298  -8.528  1.00  0.00    -0.000 C 
BRANCH  22  23
ATOM     23  C   UNL     1       5.698   6.993  -8.237  1.00  0.00    -0.000 C 
BRANCH  23  24
ATOM     24  C   UNL     1       5.153   7.770  -9.443  1.00  0.00    -0.000 C 
BRANCH  24  25
ATOM     25  C   UNL     1       4.791   9.208  -9.055  1.00  0.00    -0.003 C 
ATOM     26  C   UNL     1       4.760   9.377  -7.539  1.00  0.00     0.004 C 
ENDBRANCH  24  25
ENDBRANCH  23  24
ENDBRANCH  22  23
ENDBRANCH  21  22
ENDBRANCH  20  21
ENDBRANCH  19  20
ENDBRANCH  18  19
ENDBRANCH  17  18
ENDBRANCH  16  17
ENDBRANCH  15  16
ENDBRANCH   1  15
TORSDOF 22
ENDMDL
MODEL 8
REMARK VINA RESULT:    -3.350      2.357      3.206
REMARK INTER + INTRA:         -10.625
REMARK INTER:                  -6.862
REMARK INTRA:                  -3.763
REMARK UNBOUND:                -2.968
REMARK SMILES CCCCCCCCCCCCCCCCCCCCCCCC(=O)[O-]
REMARK SMILES IDX 13 1 14 2 15 3 16 4 17 5 18 6 19 7 20 8 21 9 22 10 23 11
REMARK SMILES IDX 24 12 25 13 26 14 12 15 11 16 10 17 9 18 8 19 7 20 6 21 5 22
REMARK SMILES IDX 4 23 3 24 2 25 1 26
REMARK H PARENT
REMARK Flexibility Score: inf
ROOT
ATOM      1  C   UNL     1       5.125  -0.003  -5.245  1.00  0.00     0.000 C 
ENDROOT
BRANCH   1   2
ATOM      2  C   UNL     1       6.170  -1.054  -5.661  1.00  0.00     0.000 C 
BRANCH   2   3
ATOM      3  C   UNL     1       6.266  -1.314  -7.179  1.00  0.00     0.000 C 
BRANCH   3   4
ATOM      4  C   UNL     1       7.605  -0.922  -7.828  1.00  0.00     0.000 C 
BRANCH   4   5
ATOM      5  C   UNL     1       7.514  -0.803  -9.358  1.00  0.00     0.000 C 
BRANCH   5   6
ATOM      6  C   UNL     1       8.639  -1.569 -10.074  1.00  0.00     0.000 C 
BRANCH   6   7
ATOM      7  C   UNL     1       8.795  -3.008  -9.551  1.00  0.00     0.000 C 
BRANCH   7   8
ATOM      8  C   UNL     1       7.524  -3.850  -9.748  1.00  0.00     0.000 C 
BRANCH   8   9
ATOM      9  C   UNL     1       7.518  -5.127  -8.896  1.00  0.00     0.000 C 
BRANCH   9  10
ATOM     10  C   UNL     1       6.678  -4.933  -7.625  1.00  0.00     0.006 C 
BRANCH  10  11
ATOM     11  C   UNL     1       7.548  -4.704  -6.382  1.00  0.00     0.053 C 
BRANCH  11  12
ATOM     12  C   UNL     1       6.744  -4.776  -5.119  1.00  0.00     0.041 C 
ATOM     13  O   UNL     1       5.576  -4.306  -5.084  1.00  0.00    -0.550 OA
ATOM     14  O   UNL     1       7.297  -5.332  -3.973  1.00  0.00    -0.550 OA
ENDBRANCH  11  12
ENDBRANCH  10  11
ENDBRANCH   9  10
ENDBRANCH   8   9
ENDBRANCH   7   8
ENDBRANCH   6   7
ENDBRANCH   5   6
ENDBRANCH   4   5
ENDBRANCH   3   4
ENDBRANCH   2   3
ENDBRANCH   1   2
BRANCH   1  15
ATOM     15  C   UNL     1       5.640   1.440  -5.391  1.00  0.00     0.000 C 
BRANCH  15  16
ATOM     16  C   UNL     1       4.752   2.294  -6.307  1.00  0.00     0.000 C 
BRANCH  16  17
ATOM     17  C   UNL     1       3.733   1.453  -7.097  1.00  0.00     0.000 C 
BRANCH  17  18
ATOM     18  C   UNL     1       4.072   1.368  -8.593  1.00  0.00    -0.000 C 
BRANCH  18  19
ATOM     19  C   UNL     1       5.385   2.091  -8.945  1.00  0.00    -0.000 C 
BRANCH  19  20
ATOM     20  C   UNL     1       5.195   3.169 -10.024  1.00  0.00    -0.000 C 
BRANCH  20  21
ATOM     21  C   UNL     1       4.819   4.541  -9.434  1.00  0.00    -0.000 C 
BRANCH  21  22
ATOM     22  C   UNL     1       5.942   5.122  -8.550  1.00  0.00    -0.000 C 
BRANCH  22  23
ATOM     23  C   UNL     1       7.355   4.899  -9.117  1.00  0.00    -0.000 C 
BRANCH  23  24
ATOM     24  C   UNL     1       8.367   4.463  -8.048  1.00  0.00    -0.000 C 
BRANCH  24  25
ATOM     25  C   UNL     1       8.845   3.027  -8.295  1.00  0.00    -0.003 C 
ATOM     26  C   UNL     1       9.021   2.273  -6.980  1.00  0.00     0.004 C 
ENDBRANCH  24  25
ENDBRANCH  23  24
ENDBRANCH  22  23
ENDBRANCH  21  22
ENDBRANCH  20  21
ENDBRANCH  19  20
ENDBRANCH  18  19
ENDBRANCH  17  18
ENDBRANCH  16  17
ENDBRANCH  15  16
ENDBRANCH   1  15
TORSDOF 22
ENDMDL
MODEL 9
REMARK VINA RESULT:    -3.295      3.117      8.237
REMARK INTER + INTRA:         -10.501
REMARK INTER:                  -6.720
REMARK INTRA:                  -3.781
REMARK UNBOUND:                -2.968
REMARK SMILES CCCCCCCCCCCCCCCCCCCCCCCC(=O)[O-]
REMARK SMILES IDX 13 1 14 2 15 3 16 4 17 5 18 6 19 7 20 8 21 9 22 10 23 11
REMARK SMILES IDX 24 12 25 13 26 14 12 15 11 16 10 17 9 18 8 19 7 20 6 21 5 22
REMARK SMILES IDX 4 23 3 24 2 25 1 26
REMARK H PARENT
REMARK Flexibility Score: inf
ROOT
ATOM      1  C   UNL     1       5.577   0.955  -5.127  1.00  0.00     0.000 C 
ENDROOT
BRANCH   1   2
ATOM      2  C   UNL     1       5.105   2.075  -6.070  1.00  0.00     0.000 C 
BRANCH   2   3
ATOM      3  C   UNL     1       3.823   1.758  -6.868  1.00  0.00     0.000 C 
BRANCH   3   4
ATOM      4  C   UNL     1       3.866   2.143  -8.358  1.00  0.00     0.000 C 
BRANCH   4   5
ATOM      5  C   UNL     1       5.188   2.818  -8.761  1.00  0.00     0.000 C 
BRANCH   5   6
ATOM      6  C   UNL     1       4.969   4.202  -9.394  1.00  0.00     0.000 C 
BRANCH   6   7
ATOM      7  C   UNL     1       6.293   4.935  -9.673  1.00  0.00     0.000 C 
BRANCH   7   8
ATOM      8  C   UNL     1       7.238   4.933  -8.461  1.00  0.00     0.000 C 
BRANCH   8   9
ATOM      9  C   UNL     1       8.682   4.567  -8.833  1.00  0.00     0.000 C 
BRANCH   9  10
ATOM     10  C   UNL     1       9.369   3.813  -7.684  1.00  0.00     0.006 C 
BRANCH  10  11
ATOM     11  C   UNL     1       8.663   2.492  -7.352  1.00  0.00     0.053 C 
BRANCH  11  12
ATOM     12  C   UNL     1       9.598   1.324  -7.442  1.00  0.00     0.041 C 
ATOM     13  O   UNL     1      10.065   0.803  -6.396  1.00  0.00    -0.550 OA
ATOM     14  O   UNL     1       9.978   0.834  -8.684  1.00  0.00    -0.550 OA
ENDBRANCH  11  12
ENDBRANCH  10  11
ENDBRANCH   9  10
ENDBRANCH   8   9
ENDBRANCH   7   8
ENDBRANCH   6   7
ENDBRANCH   5   6
ENDBRANCH   4   5
ENDBRANCH   3   4
ENDBRANCH   2   3
ENDBRANCH   1   2
BRANCH   1  15
ATOM     15  C   UNL     1       4.749  -0.333  -5.268  1.00  0.00     0.000 C 
BRANCH  15  16
ATOM     16  C   UNL     1       5.514  -1.453  -5.989  1.00  0.00     0.000 C 
BRANCH  16  17
ATOM     17  C   UNL     1       6.792  -0.946  -6.680  1.00  0.00     0.000 C 
BRANCH  17  18
ATOM     18  C   UNL     1       6.642  -0.857  -8.206  1.00  0.00    -0.000 C 
BRANCH  18  19
ATOM     19  C   UNL     1       5.233  -1.249  -8.687  1.00  0.00    -0.000 C 
BRANCH  19  20
ATOM     20  C   UNL     1       5.251  -2.444  -9.653  1.00  0.00    -0.000 C 
BRANCH  20  21
ATOM     21  C   UNL     1       5.180  -3.799  -8.924  1.00  0.00    -0.000 C 
BRANCH  21  22
ATOM     22  C   UNL     1       5.943  -4.908  -9.679  1.00  0.00    -0.000 C 
BRANCH  22  23
ATOM     23  C   UNL     1       7.208  -5.394  -8.951  1.00  0.00    -0.000 C 
BRANCH  23  24
ATOM     24  C   UNL     1       7.737  -4.380  -7.926  1.00  0.00    -0.000 C 
BRANCH  24  25
ATOM     25  C   UNL     1       7.957  -5.039  -6.561  1.00  0.00    -0.003 C 
ATOM     26  C   UNL     1       6.726  -4.886  -5.672  1.00  0.00     0.004 C 
ENDBRANCH  24  25
ENDBRANCH  23  24
ENDBRANCH  22  23
ENDBRANCH  21  22
ENDBRANCH  20  21
ENDBRANCH  19  20
ENDBRANCH  18  19
ENDBRANCH  17  18
ENDBRANCH  16  17
ENDBRANCH  15  16
ENDBRANCH   1  15
TORSDOF 22
ENDMDL
