MODEL 1
REMARK VINA RESULT:    -6.806      0.000      0.000
REMARK INTER + INTRA:          -8.162
REMARK INTER:                  -8.000
REMARK INTRA:                  -0.162
REMARK UNBOUND:                -0.162
REMARK SMILES O=c1c(O)c(-c2ccc(O)cc2)oc2cc(O)cc(O)c12
REMARK SMILES IDX 5 1 3 2 2 3 1 4 21 5 19 6 18 7 16 8 15 9 14 10 13 11 6 12
REMARK SMILES IDX 7 13 8 14 9 15 12 16 11 17 10 18 4 20 20 22 17 24
REMARK H PARENT 10 19 4 21 20 23 17 25
REMARK Flexibility Score: inf
ROOT
ATOM      1  C   UNL     1      -0.897   3.221  12.620  1.00  0.00     0.180 A 
ATOM      2  C   UNL     1       0.164   3.907  13.235  1.00  0.00     0.208 A 
ATOM      3  C   UNL     1       0.434   5.230  12.849  1.00  0.00     0.238 A 
ATOM      4  O   UNL     1       1.430   5.813  13.348  1.00  0.00    -0.285 OA
ATOM      5  C   UNL     1      -0.395   5.870  11.895  1.00  0.00     0.111 A 
ATOM      6  C   UNL     1      -0.243   7.222  11.463  1.00  0.00     0.134 A 
ATOM      7  C   UNL     1      -1.058   7.715  10.435  1.00  0.00     0.093 A 
ATOM      8  C   UNL     1      -2.059   6.927   9.869  1.00  0.00     0.123 A 
ATOM      9  C   UNL     1      -2.253   5.622  10.322  1.00  0.00     0.094 A 
ATOM     10  C   UNL     1      -1.432   5.089  11.319  1.00  0.00     0.146 A 
ATOM     11  O   UNL     1      -1.636   3.836  11.705  1.00  0.00    -0.452 OA
ENDROOT
BRANCH   1  12
ATOM     12  C   UNL     1      -1.234   1.820  12.962  1.00  0.00     0.021 A 
ATOM     13  C   UNL     1      -0.989   0.803  12.025  1.00  0.00     0.016 A 
ATOM     14  C   UNL     1      -1.278  -0.530  12.334  1.00  0.00     0.047 A 
ATOM     15  C   UNL     1      -1.801  -0.863  13.590  1.00  0.00     0.115 A 
ATOM     16  C   UNL     1      -1.741   1.475  14.228  1.00  0.00     0.016 A 
ATOM     17  C   UNL     1      -2.028   0.142  14.536  1.00  0.00     0.047 A 
BRANCH  15  18
ATOM     18  O   UNL     1      -2.094  -2.187  13.911  1.00  0.00    -0.508 OA
ATOM     19  H   UNL     1      -2.897  -2.428  14.481  1.00  0.00     0.293 HD
ENDBRANCH  15  18
ENDBRANCH   1  12
BRANCH   2  20
ATOM     20  O   UNL     1       0.923   3.284  14.229  1.00  0.00    -0.502 OA
ATOM     21  H   UNL     1       0.672   3.323  15.210  1.00  0.00     0.293 HD
ENDBRANCH   2  20
BRANCH   6  22
ATOM     22  O   UNL     1       0.667   8.125  12.021  1.00  0.00    -0.507 OA
ATOM     23  H   UNL     1       0.600   8.513  12.950  1.00  0.00     0.293 HD
ENDBRANCH   6  22
BRANCH   8  24
ATOM     24  O   UNL     1      -2.862   7.456   8.861  1.00  0.00    -0.508 OA
ATOM     25  H   UNL     1      -3.777   7.072   8.656  1.00  0.00     0.293 HD
ENDBRANCH   8  24
TORSDOF 5
ENDMDL
MODEL 2
REMARK VINA RESULT:    -6.806      0.370      1.119
REMARK INTER + INTRA:          -8.162
REMARK INTER:                  -7.931
REMARK INTRA:                  -0.231
REMARK UNBOUND:                -0.162
REMARK SMILES O=c1c(O)c(-c2ccc(O)cc2)oc2cc(O)cc(O)c12
REMARK SMILES IDX 5 1 3 2 2 3 1 4 21 5 19 6 18 7 16 8 15 9 14 10 13 11 6 12
REMARK SMILES IDX 7 13 8 14 9 15 12 16 11 17 10 18 4 20 20 22 17 24
REMARK H PARENT 10 19 4 21 20 23 17 25
REMARK Flexibility Score: inf
ROOT
ATOM      1  C   UNL     1      -1.040   3.165  12.509  1.00  0.00     0.180 A 
ATOM      2  C   UNL     1       0.043   3.906  13.011  1.00  0.00     0.208 A 
ATOM      3  C   UNL     1       0.214   5.234  12.588  1.00  0.00     0.238 A 
ATOM      4  O   UNL     1       1.226   5.868  12.984  1.00  0.00    -0.285 OA
ATOM      5  C   UNL     1      -0.731   5.823  11.714  1.00  0.00     0.111 A 
ATOM      6  C   UNL     1      -0.683   7.175  11.256  1.00  0.00     0.134 A 
ATOM      7  C   UNL     1      -1.615   7.616  10.307  1.00  0.00     0.093 A 
ATOM      8  C   UNL     1      -2.629   6.778   9.848  1.00  0.00     0.123 A 
ATOM      9  C   UNL     1      -2.719   5.472  10.330  1.00  0.00     0.094 A 
ATOM     10  C   UNL     1      -1.782   4.989  11.248  1.00  0.00     0.146 A 
ATOM     11  O   UNL     1      -1.891   3.734  11.664  1.00  0.00    -0.452 OA
ENDROOT
BRANCH   1  12
ATOM     12  C   UNL     1      -1.278   1.756  12.894  1.00  0.00     0.021 A 
ATOM     13  C   UNL     1      -1.836   1.468  14.151  1.00  0.00     0.016 A 
ATOM     14  C   UNL     1      -2.090   0.145  14.528  1.00  0.00     0.047 A 
ATOM     15  C   UNL     1      -1.803  -0.904  13.647  1.00  0.00     0.115 A 
ATOM     16  C   UNL     1      -1.012   0.697  12.007  1.00  0.00     0.016 A 
ATOM     17  C   UNL     1      -1.267  -0.625  12.386  1.00  0.00     0.047 A 
BRANCH  15  18
ATOM     18  O   UNL     1      -2.051  -2.226  14.011  1.00  0.00    -0.508 OA
ATOM     19  H   UNL     1      -1.791  -2.999  13.408  1.00  0.00     0.293 HD
ENDBRANCH  15  18
ENDBRANCH   1  12
BRANCH   2  20
ATOM     20  O   UNL     1       0.922   3.331  13.933  1.00  0.00    -0.502 OA
ATOM     21  H   UNL     1       1.339   2.419  13.790  1.00  0.00     0.293 HD
ENDBRANCH   2  20
BRANCH   6  22
ATOM     22  O   UNL     1       0.235   8.125  11.715  1.00  0.00    -0.507 OA
ATOM     23  H   UNL     1       0.675   8.111  12.622  1.00  0.00     0.293 HD
ENDBRANCH   6  22
BRANCH   8  24
ATOM     24  O   UNL     1      -3.548   7.256   8.917  1.00  0.00    -0.508 OA
ATOM     25  H   UNL     1      -4.479   7.546   9.193  1.00  0.00     0.293 HD
ENDBRANCH   8  24
TORSDOF 5
ENDMDL
MODEL 3
REMARK VINA RESULT:    -6.679      1.715      2.009
REMARK INTER + INTRA:          -8.012
REMARK INTER:                  -7.778
REMARK INTRA:                  -0.234
REMARK UNBOUND:                -0.162
REMARK SMILES O=c1c(O)c(-c2ccc(O)cc2)oc2cc(O)cc(O)c12
REMARK SMILES IDX 5 1 3 2 2 3 1 4 21 5 19 6 18 7 16 8 15 9 14 10 13 11 6 12
REMARK SMILES IDX 7 13 8 14 9 15 12 16 11 17 10 18 4 20 20 22 17 24
REMARK H PARENT 10 19 4 21 20 23 17 25
REMARK Flexibility Score: inf
ROOT
ATOM      1  C   UNL     1      -0.867   3.149  13.746  1.00  0.00     0.180 A 
ATOM      2  C   UNL     1       0.298   3.711  14.299  1.00  0.00     0.208 A 
ATOM      3  C   UNL     1       0.453   5.106  14.288  1.00  0.00     0.238 A 
ATOM      4  O   UNL     1       1.529   5.597  14.716  1.00  0.00    -0.285 OA
ATOM      5  C   UNL     1      -0.582   5.927  13.776  1.00  0.00     0.111 A 
ATOM      6  C   UNL     1      -0.552   7.354  13.755  1.00  0.00     0.134 A 
ATOM      7  C   UNL     1      -1.587   8.058  13.127  1.00  0.00     0.093 A 
ATOM      8  C   UNL     1      -2.680   7.392  12.575  1.00  0.00     0.123 A 
ATOM      9  C   UNL     1      -2.746   6.000  12.638  1.00  0.00     0.094 A 
ATOM     10  C   UNL     1      -1.711   5.266  13.224  1.00  0.00     0.146 A 
ATOM     11  O   UNL     1      -1.804   3.943  13.243  1.00  0.00    -0.452 OA
ENDROOT
BRANCH   1  12
ATOM     12  C   UNL     1      -1.096   1.688  13.707  1.00  0.00     0.021 A 
ATOM     13  C   UNL     1      -1.496   1.019  14.876  1.00  0.00     0.016 A 
ATOM     14  C   UNL     1      -1.739  -0.358  14.857  1.00  0.00     0.047 A 
ATOM     15  C   UNL     1      -1.601  -1.080  13.666  1.00  0.00     0.115 A 
ATOM     16  C   UNL     1      -0.979   0.958  12.510  1.00  0.00     0.016 A 
ATOM     17  C   UNL     1      -1.224  -0.419  12.493  1.00  0.00     0.047 A 
BRANCH  15  18
ATOM     18  O   UNL     1      -1.840  -2.453  13.634  1.00  0.00    -0.508 OA
ATOM     19  H   UNL     1      -2.438  -2.869  12.930  1.00  0.00     0.293 HD
ENDBRANCH  15  18
ENDBRANCH   1  12
BRANCH   2  20
ATOM     20  O   UNL     1       1.273   2.887  14.869  1.00  0.00    -0.502 OA
ATOM     21  H   UNL     1       1.349   1.901  14.648  1.00  0.00     0.293 HD
ENDBRANCH   2  20
BRANCH   6  22
ATOM     22  O   UNL     1       0.449   8.125  14.355  1.00  0.00    -0.507 OA
ATOM     23  H   UNL     1       0.433   9.130  14.438  1.00  0.00     0.293 HD
ENDBRANCH   6  22
BRANCH   8  24
ATOM     24  O   UNL     1      -3.700   8.125  11.973  1.00  0.00    -0.508 OA
ATOM     25  H   UNL     1      -4.659   8.062  12.295  1.00  0.00     0.293 HD
ENDBRANCH   8  24
TORSDOF 5
ENDMDL
MODEL 4
REMARK VINA RESULT:    -6.563      1.423      3.261
REMARK INTER + INTRA:          -7.877
REMARK INTER:                  -7.845
REMARK INTRA:                  -0.032
REMARK UNBOUND:                -0.162
REMARK SMILES O=c1c(O)c(-c2ccc(O)cc2)oc2cc(O)cc(O)c12
REMARK SMILES IDX 5 1 3 2 2 3 1 4 21 5 19 6 18 7 16 8 15 9 14 10 13 11 6 12
REMARK SMILES IDX 7 13 8 14 9 15 12 16 11 17 10 18 4 20 20 22 17 24
REMARK H PARENT 10 19 4 21 20 23 17 25
REMARK Flexibility Score: inf
ROOT
ATOM      1  C   UNL     1      -0.547   3.330  12.747  1.00  0.00     0.180 A 
ATOM      2  C   UNL     1      -1.107   4.080  11.697  1.00  0.00     0.208 A 
ATOM      3  C   UNL     1      -0.654   5.391  11.479  1.00  0.00     0.238 A 
ATOM      4  O   UNL     1      -1.210   6.081  10.587  1.00  0.00    -0.285 OA
ATOM      5  C   UNL     1       0.392   5.917  12.276  1.00  0.00     0.111 A 
ATOM      6  C   UNL     1       0.961   7.217  12.115  1.00  0.00     0.134 A 
ATOM      7  C   UNL     1       1.919   7.670  13.031  1.00  0.00     0.093 A 
ATOM      8  C   UNL     1       2.374   6.850  14.063  1.00  0.00     0.123 A 
ATOM      9  C   UNL     1       1.865   5.558  14.196  1.00  0.00     0.094 A 
ATOM     10  C   UNL     1       0.881   5.090  13.322  1.00  0.00     0.146 A 
ATOM     11  O   UNL     1       0.408   3.863  13.499  1.00  0.00    -0.452 OA
ENDROOT
BRANCH   1  12
ATOM     12  C   UNL     1      -0.983   1.948  13.049  1.00  0.00     0.021 A 
ATOM     13  C   UNL     1      -0.884   0.960  12.056  1.00  0.00     0.016 A 
ATOM     14  C   UNL     1      -1.269  -0.357  12.325  1.00  0.00     0.047 A 
ATOM     15  C   UNL     1      -1.743  -0.705  13.596  1.00  0.00     0.115 A 
ATOM     16  C   UNL     1      -1.441   1.586  14.329  1.00  0.00     0.016 A 
ATOM     17  C   UNL     1      -1.825   0.268  14.596  1.00  0.00     0.047 A 
BRANCH  15  18
ATOM     18  O   UNL     1      -2.130  -2.014  13.877  1.00  0.00    -0.508 OA
ATOM     19  H   UNL     1      -2.640  -2.572  13.201  1.00  0.00     0.293 HD
ENDBRANCH  15  18
ENDBRANCH   1  12
BRANCH   2  20
ATOM     20  O   UNL     1      -2.084   3.515  10.873  1.00  0.00    -0.502 OA
ATOM     21  H   UNL     1      -1.983   3.464   9.866  1.00  0.00     0.293 HD
ENDBRANCH   2  20
BRANCH   6  22
ATOM     22  O   UNL     1       0.643   8.086  11.067  1.00  0.00    -0.507 OA
ATOM     23  H   UNL     1       0.838   9.076  11.058  1.00  0.00     0.293 HD
ENDBRANCH   6  22
BRANCH   8  24
ATOM     24  O   UNL     1       3.340   7.328  14.945  1.00  0.00    -0.508 OA
ATOM     25  H   UNL     1       3.925   8.122  14.712  1.00  0.00     0.293 HD
ENDBRANCH   8  24
TORSDOF 5
ENDMDL
MODEL 5
REMARK VINA RESULT:    -6.515      1.759      6.535
REMARK INTER + INTRA:          -7.820
REMARK INTER:                  -7.533
REMARK INTRA:                  -0.287
REMARK UNBOUND:                -0.162
REMARK SMILES O=c1c(O)c(-c2ccc(O)cc2)oc2cc(O)cc(O)c12
REMARK SMILES IDX 5 1 3 2 2 3 1 4 21 5 19 6 18 7 16 8 15 9 14 10 13 11 6 12
REMARK SMILES IDX 7 13 8 14 9 15 12 16 11 17 10 18 4 20 20 22 17 24
REMARK H PARENT 10 19 4 21 20 23 17 25
REMARK Flexibility Score: inf
ROOT
ATOM      1  C   UNL     1      -1.163   4.661  11.314  1.00  0.00     0.180 A 
ATOM      2  C   UNL     1      -1.205   5.129  12.639  1.00  0.00     0.208 A 
ATOM      3  C   UNL     1      -1.246   4.198  13.689  1.00  0.00     0.238 A 
ATOM      4  O   UNL     1      -1.359   4.622  14.868  1.00  0.00    -0.285 OA
ATOM      5  C   UNL     1      -1.188   2.812  13.405  1.00  0.00     0.111 A 
ATOM      6  C   UNL     1      -1.178   1.780  14.392  1.00  0.00     0.134 A 
ATOM      7  C   UNL     1      -1.226   0.439  13.990  1.00  0.00     0.093 A 
ATOM      8  C   UNL     1      -1.220   0.090  12.641  1.00  0.00     0.123 A 
ATOM      9  C   UNL     1      -1.174   1.089  11.668  1.00  0.00     0.094 A 
ATOM     10  C   UNL     1      -1.165   2.437  12.036  1.00  0.00     0.146 A 
ATOM     11  O   UNL     1      -1.143   3.355  11.078  1.00  0.00    -0.452 OA
ENDROOT
BRANCH   1  12
ATOM     12  C   UNL     1      -1.133   5.580  10.154  1.00  0.00     0.021 A 
ATOM     13  C   UNL     1       0.089   5.849   9.517  1.00  0.00     0.016 A 
ATOM     14  C   UNL     1       0.139   6.697   8.406  1.00  0.00     0.047 A 
ATOM     15  C   UNL     1      -1.037   7.272   7.908  1.00  0.00     0.115 A 
ATOM     16  C   UNL     1      -2.312   6.146   9.635  1.00  0.00     0.016 A 
ATOM     17  C   UNL     1      -2.261   6.992   8.523  1.00  0.00     0.047 A 
BRANCH  15  18
ATOM     18  O   UNL     1      -1.002   8.119   6.801  1.00  0.00    -0.508 OA
ATOM     19  H   UNL     1      -1.295   7.802   5.884  1.00  0.00     0.293 HD
ENDBRANCH  15  18
ENDBRANCH   1  12
BRANCH   2  20
ATOM     20  O   UNL     1      -1.184   6.502  12.901  1.00  0.00    -0.502 OA
ATOM     21  H   UNL     1      -0.962   6.877  13.815  1.00  0.00     0.293 HD
ENDBRANCH   2  20
BRANCH   6  22
ATOM     22  O   UNL     1      -1.096   2.013  15.769  1.00  0.00    -0.507 OA
ATOM     23  H   UNL     1      -0.387   1.636  16.377  1.00  0.00     0.293 HD
ENDBRANCH   6  22
BRANCH   8  24
ATOM     24  O   UNL     1      -1.251  -1.254  12.278  1.00  0.00    -0.508 OA
ATOM     25  H   UNL     1      -0.874  -1.975  12.882  1.00  0.00     0.293 HD
ENDBRANCH   8  24
TORSDOF 5
ENDMDL
MODEL 6
REMARK VINA RESULT:    -5.875      3.178      6.546
REMARK INTER + INTRA:          -7.067
REMARK INTER:                  -6.974
REMARK INTRA:                  -0.093
REMARK UNBOUND:                -0.162
REMARK SMILES O=c1c(O)c(-c2ccc(O)cc2)oc2cc(O)cc(O)c12
REMARK SMILES IDX 5 1 3 2 2 3 1 4 21 5 19 6 18 7 16 8 15 9 14 10 13 11 6 12
REMARK SMILES IDX 7 13 8 14 9 15 12 16 11 17 10 18 4 20 20 22 17 24
REMARK H PARENT 10 19 4 21 20 23 17 25
REMARK Flexibility Score: inf
ROOT
ATOM      1  C   UNL     1      -3.679   5.316  11.957  1.00  0.00     0.180 A 
ATOM      2  C   UNL     1      -2.687   5.458  10.971  1.00  0.00     0.208 A 
ATOM      3  C   UNL     1      -1.498   4.721  11.089  1.00  0.00     0.238 A 
ATOM      4  O   UNL     1      -0.585   4.908  10.244  1.00  0.00    -0.285 OA
ATOM      5  C   UNL     1      -1.337   3.809  12.161  1.00  0.00     0.111 A 
ATOM      6  C   UNL     1      -0.193   2.977  12.355  1.00  0.00     0.134 A 
ATOM      7  C   UNL     1      -0.100   2.191  13.511  1.00  0.00     0.093 A 
ATOM      8  C   UNL     1      -1.133   2.157  14.446  1.00  0.00     0.123 A 
ATOM      9  C   UNL     1      -2.279   2.924  14.238  1.00  0.00     0.094 A 
ATOM     10  C   UNL     1      -2.387   3.749  13.115  1.00  0.00     0.146 A 
ATOM     11  O   UNL     1      -3.486   4.478  12.968  1.00  0.00    -0.452 OA
ENDROOT
BRANCH   1  12
ATOM     12  C   UNL     1      -4.952   6.070  11.910  1.00  0.00     0.021 A 
ATOM     13  C   UNL     1      -5.842   5.856  10.845  1.00  0.00     0.016 A 
ATOM     14  C   UNL     1      -7.061   6.541  10.791  1.00  0.00     0.047 A 
ATOM     15  C   UNL     1      -7.410   7.436  11.810  1.00  0.00     0.115 A 
ATOM     16  C   UNL     1      -5.319   6.956  12.939  1.00  0.00     0.016 A 
ATOM     17  C   UNL     1      -6.538   7.639  12.884  1.00  0.00     0.047 A 
BRANCH  15  18
ATOM     18  O   UNL     1      -8.620   8.125  11.768  1.00  0.00    -0.508 OA
ATOM     19  H   UNL     1      -8.740   9.014  12.241  1.00  0.00     0.293 HD
ENDBRANCH  15  18
ENDBRANCH   1  12
BRANCH   2  20
ATOM     20  O   UNL     1      -2.897   6.306   9.880  1.00  0.00    -0.502 OA
ATOM     21  H   UNL     1      -2.142   6.816   9.434  1.00  0.00     0.293 HD
ENDBRANCH   2  20
BRANCH   6  22
ATOM     22  O   UNL     1       0.859   2.866  11.440  1.00  0.00    -0.507 OA
ATOM     23  H   UNL     1       1.831   2.760  11.688  1.00  0.00     0.293 HD
ENDBRANCH   6  22
BRANCH   8  24
ATOM     24  O   UNL     1      -1.012   1.350  15.575  1.00  0.00    -0.508 OA
ATOM     25  H   UNL     1      -1.267   0.370  15.555  1.00  0.00     0.293 HD
ENDBRANCH   8  24
TORSDOF 5
ENDMDL
MODEL 7
REMARK VINA RESULT:    -5.528      2.468      6.427
REMARK INTER + INTRA:          -6.659
REMARK INTER:                  -6.727
REMARK INTRA:                   0.067
REMARK UNBOUND:                -0.162
REMARK SMILES O=c1c(O)c(-c2ccc(O)cc2)oc2cc(O)cc(O)c12
REMARK SMILES IDX 5 1 3 2 2 3 1 4 21 5 19 6 18 7 16 8 15 9 14 10 13 11 6 12
REMARK SMILES IDX 7 13 8 14 9 15 12 16 11 17 10 18 4 20 20 22 17 24
REMARK H PARENT 10 19 4 21 20 23 17 25
REMARK Flexibility Score: inf
ROOT
ATOM      1  C   UNL     1       0.771   4.983  13.433  1.00  0.00     0.180 A 
ATOM      2  C   UNL     1       0.163   5.523  12.286  1.00  0.00     0.208 A 
ATOM      3  C   UNL     1      -0.601   4.683  11.461  1.00  0.00     0.238 A 
ATOM      4  O   UNL     1      -1.081   5.154  10.398  1.00  0.00    -0.285 OA
ATOM      5  C   UNL     1      -0.796   3.327  11.821  1.00  0.00     0.111 A 
ATOM      6  C   UNL     1      -1.588   2.396  11.084  1.00  0.00     0.134 A 
ATOM      7  C   UNL     1      -1.621   1.052  11.480  1.00  0.00     0.093 A 
ATOM      8  C   UNL     1      -0.944   0.619  12.618  1.00  0.00     0.123 A 
ATOM      9  C   UNL     1      -0.212   1.532  13.378  1.00  0.00     0.094 A 
ATOM     10  C   UNL     1      -0.127   2.871  12.988  1.00  0.00     0.146 A 
ATOM     11  O   UNL     1       0.598   3.701  13.727  1.00  0.00    -0.452 OA
ENDROOT
BRANCH   1  12
ATOM     12  C   UNL     1       1.604   5.801  14.343  1.00  0.00     0.021 A 
ATOM     13  C   UNL     1       2.883   5.349  14.703  1.00  0.00     0.016 A 
ATOM     14  C   UNL     1       3.696   6.115  15.544  1.00  0.00     0.047 A 
ATOM     15  C   UNL     1       3.245   7.351  16.022  1.00  0.00     0.115 A 
ATOM     16  C   UNL     1       1.166   7.054  14.812  1.00  0.00     0.016 A 
ATOM     17  C   UNL     1       1.981   7.819  15.652  1.00  0.00     0.047 A 
BRANCH  15  18
ATOM     18  O   UNL     1       4.046   8.125  16.861  1.00  0.00    -0.508 OA
ATOM     19  H   UNL     1       4.030   9.137  16.821  1.00  0.00     0.293 HD
ENDBRANCH  15  18
ENDBRANCH   1  12
BRANCH   2  20
ATOM     20  O   UNL     1       0.303   6.882  11.989  1.00  0.00    -0.502 OA
ATOM     21  H   UNL     1      -0.233   7.337  11.260  1.00  0.00     0.293 HD
ENDBRANCH   2  20
BRANCH   6  22
ATOM     22  O   UNL     1      -2.376   2.738   9.981  1.00  0.00    -0.507 OA
ATOM     23  H   UNL     1      -3.375   2.619   9.925  1.00  0.00     0.293 HD
ENDBRANCH   6  22
BRANCH   8  24
ATOM     24  O   UNL     1      -1.014  -0.721  12.991  1.00  0.00    -0.508 OA
ATOM     25  H   UNL     1      -1.083  -1.461  12.302  1.00  0.00     0.293 HD
ENDBRANCH   8  24
TORSDOF 5
ENDMDL
MODEL 8
REMARK VINA RESULT:    -5.471      2.898      5.056
REMARK INTER + INTRA:          -6.593
REMARK INTER:                  -6.326
REMARK INTRA:                  -0.268
REMARK UNBOUND:                -0.162
REMARK SMILES O=c1c(O)c(-c2ccc(O)cc2)oc2cc(O)cc(O)c12
REMARK SMILES IDX 5 1 3 2 2 3 1 4 21 5 19 6 18 7 16 8 15 9 14 10 13 11 6 12
REMARK SMILES IDX 7 13 8 14 9 15 12 16 11 17 10 18 4 20 20 22 17 24
REMARK H PARENT 10 19 4 21 20 23 17 25
REMARK Flexibility Score: inf
ROOT
ATOM      1  C   UNL     1      -1.801   5.005  12.577  1.00  0.00     0.180 A 
ATOM      2  C   UNL     1      -1.444   3.938  13.420  1.00  0.00     0.208 A 
ATOM      3  C   UNL     1      -0.152   3.905  13.967  1.00  0.00     0.238 A 
ATOM      4  O   UNL     1       0.185   2.910  14.660  1.00  0.00    -0.285 OA
ATOM      5  C   UNL     1       0.750   4.967  13.713  1.00  0.00     0.111 A 
ATOM      6  C   UNL     1       2.069   5.060  14.251  1.00  0.00     0.134 A 
ATOM      7  C   UNL     1       2.909   6.104  13.844  1.00  0.00     0.093 A 
ATOM      8  C   UNL     1       2.460   7.092  12.969  1.00  0.00     0.123 A 
ATOM      9  C   UNL     1       1.154   7.041  12.480  1.00  0.00     0.094 A 
ATOM     10  C   UNL     1       0.304   5.991  12.836  1.00  0.00     0.146 A 
ATOM     11  O   UNL     1      -0.922   5.970  12.330  1.00  0.00    -0.452 OA
ENDROOT
BRANCH   1  12
ATOM     12  C   UNL     1      -3.138   5.103  11.950  1.00  0.00     0.021 A 
ATOM     13  C   UNL     1      -3.318   4.650  10.633  1.00  0.00     0.016 A 
ATOM     14  C   UNL     1      -4.577   4.712  10.028  1.00  0.00     0.047 A 
ATOM     15  C   UNL     1      -5.675   5.212  10.739  1.00  0.00     0.115 A 
ATOM     16  C   UNL     1      -4.250   5.586  12.664  1.00  0.00     0.016 A 
ATOM     17  C   UNL     1      -5.508   5.646  12.058  1.00  0.00     0.047 A 
BRANCH  15  18
ATOM     18  O   UNL     1      -6.935   5.279  10.147  1.00  0.00    -0.508 OA
ATOM     19  H   UNL     1      -7.358   4.468   9.711  1.00  0.00     0.293 HD
ENDBRANCH  15  18
ENDBRANCH   1  12
BRANCH   2  20
ATOM     20  O   UNL     1      -2.374   2.938  13.721  1.00  0.00    -0.502 OA
ATOM     21  H   UNL     1      -3.283   2.890  13.276  1.00  0.00     0.293 HD
ENDBRANCH   2  20
BRANCH   6  22
ATOM     22  O   UNL     1       2.591   4.176  15.201  1.00  0.00    -0.507 OA
ATOM     23  H   UNL     1       2.881   4.434  16.132  1.00  0.00     0.293 HD
ENDBRANCH   6  22
BRANCH   8  24
ATOM     24  O   UNL     1       3.318   8.125  12.599  1.00  0.00    -0.508 OA
ATOM     25  H   UNL     1       4.281   8.152  12.912  1.00  0.00     0.293 HD
ENDBRANCH   8  24
TORSDOF 5
ENDMDL
MODEL 9
REMARK VINA RESULT:    -5.412      3.395      6.619
REMARK INTER + INTRA:          -6.523
REMARK INTER:                  -6.258
REMARK INTRA:                  -0.265
REMARK UNBOUND:                -0.162
REMARK SMILES O=c1c(O)c(-c2ccc(O)cc2)oc2cc(O)cc(O)c12
REMARK SMILES IDX 5 1 3 2 2 3 1 4 21 5 19 6 18 7 16 8 15 9 14 10 13 11 6 12
REMARK SMILES IDX 7 13 8 14 9 15 12 16 11 17 10 18 4 20 20 22 17 24
REMARK H PARENT 10 19 4 21 20 23 17 25
REMARK Flexibility Score: inf
ROOT
ATOM      1  C   UNL     1       1.376   5.836  14.407  1.00  0.00     0.180 A 
ATOM      2  C   UNL     1       1.119   6.269  13.094  1.00  0.00     0.208 A 
ATOM      3  C   UNL     1      -0.019   5.787  12.428  1.00  0.00     0.238 A 
ATOM      4  O   UNL     1      -0.202   6.120  11.229  1.00  0.00    -0.285 OA
ATOM      5  C   UNL     1      -0.917   4.924  13.101  1.00  0.00     0.111 A 
ATOM      6  C   UNL     1      -2.125   4.410  12.539  1.00  0.00     0.134 A 
ATOM      7  C   UNL     1      -2.881   3.478  13.262  1.00  0.00     0.093 A 
ATOM      8  C   UNL     1      -2.509   3.089  14.547  1.00  0.00     0.123 A 
ATOM      9  C   UNL     1      -1.360   3.627  15.128  1.00  0.00     0.094 A 
ATOM     10  C   UNL     1      -0.563   4.530  14.418  1.00  0.00     0.146 A 
ATOM     11  O   UNL     1       0.533   5.000  15.000  1.00  0.00    -0.452 OA
ENDROOT
BRANCH   1  12
ATOM     12  C   UNL     1       2.562   6.287  15.168  1.00  0.00     0.021 A 
ATOM     13  C   UNL     1       2.535   7.533  15.816  1.00  0.00     0.016 A 
ATOM     14  C   UNL     1       3.636   7.970  16.560  1.00  0.00     0.047 A 
ATOM     15  C   UNL     1       4.771   7.159  16.677  1.00  0.00     0.115 A 
ATOM     16  C   UNL     1       3.699   5.470  15.308  1.00  0.00     0.016 A 
ATOM     17  C   UNL     1       4.798   5.909  16.052  1.00  0.00     0.047 A 
BRANCH  15  18
ATOM     18  O   UNL     1       5.875   7.583  17.415  1.00  0.00    -0.508 OA
ATOM     19  H   UNL     1       6.814   7.278  17.185  1.00  0.00     0.293 HD
ENDBRANCH  15  18
ENDBRANCH   1  12
BRANCH   2  20
ATOM     20  O   UNL     1       1.977   7.182  12.474  1.00  0.00    -0.502 OA
ATOM     21  H   UNL     1       2.974   7.020  12.389  1.00  0.00     0.293 HD
ENDBRANCH   2  20
BRANCH   6  22
ATOM     22  O   UNL     1      -2.638   4.797  11.297  1.00  0.00    -0.507 OA
ATOM     23  H   UNL     1      -3.240   5.591  11.143  1.00  0.00     0.293 HD
ENDBRANCH   6  22
BRANCH   8  24
ATOM     24  O   UNL     1      -3.295   2.174  15.243  1.00  0.00    -0.508 OA
ATOM     25  H   UNL     1      -3.370   2.199  16.254  1.00  0.00     0.293 HD
ENDBRANCH   8  24
TORSDOF 5
ENDMDL
