MODEL 1
REMARK VINA RESULT:    -3.660      0.000      0.000
REMARK INTER + INTRA:          -7.304
REMARK INTER:                  -5.799
REMARK INTRA:                  -1.505
REMARK UNBOUND:                -1.505
REMARK SMILES CCCCCCCCCCCC(=O)[O-]
REMARK SMILES IDX 7 1 8 2 9 3 10 4 11 5 12 6 13 7 14 8 6 9 5 10 4 11 3 12 2 13
REMARK SMILES IDX 1 14
REMARK H PARENT
REMARK Flexibility Score: inf
ROOT
ATOM      1  C   UNL     1      92.341 102.564  90.630  1.00  0.00     0.000 C 
ENDROOT
BRANCH   1   2
ATOM      2  C   UNL     1      92.454 101.238  89.857  1.00  0.00     0.000 C 
BRANCH   2   3
ATOM      3  C   UNL     1      93.005 100.092  90.720  1.00  0.00     0.000 C 
BRANCH   3   4
ATOM      4  C   UNL     1      92.963 100.411  92.225  1.00  0.00     0.006 C 
BRANCH   4   5
ATOM      5  C   UNL     1      92.097  99.412  93.004  1.00  0.00     0.053 C 
BRANCH   5   6
ATOM      6  C   UNL     1      90.636  99.620  92.747  1.00  0.00     0.041 C 
ATOM      7  O   UNL     1      90.119 100.756  92.912  1.00  0.00    -0.550 OA
ATOM      8  O   UNL     1      89.852  98.566  92.295  1.00  0.00    -0.550 OA
ENDBRANCH   5   6
ENDBRANCH   4   5
ENDBRANCH   3   4
ENDBRANCH   2   3
ENDBRANCH   1   2
BRANCH   1   9
ATOM      9  C   UNL     1      93.264 103.656  90.048  1.00  0.00     0.000 C 
BRANCH   9  10
ATOM     10  C   UNL     1      94.628 103.751  90.754  1.00  0.00    -0.000 C 
BRANCH  10  11
ATOM     11  C   UNL     1      95.806 103.439  89.822  1.00  0.00    -0.000 C 
BRANCH  11  12
ATOM     12  C   UNL     1      96.307 102.004  90.029  1.00  0.00    -0.000 C 
BRANCH  12  13
ATOM     13  C   UNL     1      96.387 101.662  91.521  1.00  0.00    -0.003 C 
ATOM     14  C   UNL     1      96.655 100.174  91.732  1.00  0.00     0.004 C 
ENDBRANCH  12  13
ENDBRANCH  11  12
ENDBRANCH  10  11
ENDBRANCH   9  10
ENDBRANCH   1   9
TORSDOF 10
ENDMDL
MODEL 2
REMARK VINA RESULT:    -3.588     10.758     13.429
REMARK INTER + INTRA:          -7.191
REMARK INTER:                  -5.806
REMARK INTRA:                  -1.384
REMARK UNBOUND:                -1.505
REMARK SMILES CCCCCCCCCCCC(=O)[O-]
REMARK SMILES IDX 7 1 8 2 9 3 10 4 11 5 12 6 13 7 14 8 6 9 5 10 4 11 3 12 2 13
REMARK SMILES IDX 1 14
REMARK H PARENT
REMARK Flexibility Score: inf
ROOT
ATOM      1  C   UNL     1     105.587  95.243  90.524  1.00  0.00     0.000 C 
ENDROOT
BRANCH   1   2
ATOM      2  C   UNL     1     105.460  96.560  89.739  1.00  0.00     0.000 C 
BRANCH   2   3
ATOM      3  C   UNL     1     105.236  97.776  90.651  1.00  0.00     0.000 C 
BRANCH   3   4
ATOM      4  C   UNL     1     105.153  97.393  92.139  1.00  0.00     0.006 C 
BRANCH   4   5
ATOM      5  C   UNL     1     105.985  98.331  93.025  1.00  0.00     0.053 C 
BRANCH   5   6
ATOM      6  C   UNL     1     107.449  98.228  92.728  1.00  0.00     0.041 C 
ATOM      7  O   UNL     1     108.034  97.115  92.807  1.00  0.00    -0.550 OA
ATOM      8  O   UNL     1     108.161  99.354  92.334  1.00  0.00    -0.550 OA
ENDBRANCH   5   6
ENDBRANCH   4   5
ENDBRANCH   3   4
ENDBRANCH   2   3
ENDBRANCH   1   2
BRANCH   1   9
ATOM      9  C   UNL     1     104.578  94.179  90.042  1.00  0.00     0.000 C 
BRANCH   9  10
ATOM     10  C   UNL     1     103.178  94.332  90.662  1.00  0.00    -0.000 C 
BRANCH  10  11
ATOM     11  C   UNL     1     102.117  94.768  89.642  1.00  0.00    -0.000 C 
BRANCH  11  12
ATOM     12  C   UNL     1     101.107  95.732  90.277  1.00  0.00    -0.000 C 
BRANCH  12  13
ATOM     13  C   UNL     1     101.625  96.263  91.619  1.00  0.00    -0.003 C 
ATOM     14  C   UNL     1     101.535  97.785  91.682  1.00  0.00     0.004 C 
ENDBRANCH  12  13
ENDBRANCH  11  12
ENDBRANCH  10  11
ENDBRANCH   9  10
ENDBRANCH   1   9
TORSDOF 10
ENDMDL
MODEL 3
REMARK VINA RESULT:    -3.569      2.203      4.198
REMARK INTER + INTRA:          -7.161
REMARK INTER:                  -5.949
REMARK INTRA:                  -1.212
REMARK UNBOUND:                -1.505
REMARK SMILES CCCCCCCCCCCC(=O)[O-]
REMARK SMILES IDX 7 1 8 2 9 3 10 4 11 5 12 6 13 7 14 8 6 9 5 10 4 11 3 12 2 13
REMARK SMILES IDX 1 14
REMARK H PARENT
REMARK Flexibility Score: inf
ROOT
ATOM      1  C   UNL     1      98.447 102.180  89.952  1.00  0.00     0.000 C 
ENDROOT
BRANCH   1   2
ATOM      2  C   UNL     1      98.203 101.765  91.413  1.00  0.00     0.000 C 
BRANCH   2   3
ATOM      3  C   UNL     1      96.710 101.608  91.744  1.00  0.00     0.000 C 
BRANCH   3   4
ATOM      4  C   UNL     1      96.256 100.138  91.746  1.00  0.00     0.006 C 
BRANCH   4   5
ATOM      5  C   UNL     1      94.840  99.970  91.178  1.00  0.00     0.053 C 
BRANCH   5   6
ATOM      6  C   UNL     1      93.789 100.342  92.178  1.00  0.00     0.041 C 
ATOM      7  O   UNL     1      93.134 101.409  92.041  1.00  0.00    -0.550 OA
ATOM      8  O   UNL     1      93.511  99.495  93.243  1.00  0.00    -0.550 OA
ENDBRANCH   5   6
ENDBRANCH   4   5
ENDBRANCH   3   4
ENDBRANCH   2   3
ENDBRANCH   1   2
BRANCH   1   9
ATOM      9  C   UNL     1      99.181 103.534  89.846  1.00  0.00     0.000 C 
BRANCH   9  10
ATOM     10  C   UNL     1      98.338 104.641  89.188  1.00  0.00    -0.000 C 
BRANCH  10  11
ATOM     11  C   UNL     1      96.914 104.183  88.844  1.00  0.00    -0.000 C 
BRANCH  11  12
ATOM     12  C   UNL     1      95.871 105.131  89.449  1.00  0.00    -0.000 C 
BRANCH  12  13
ATOM     13  C   UNL     1      94.651 104.353  89.955  1.00  0.00    -0.003 C 
ATOM     14  C   UNL     1      94.460 103.057  89.174  1.00  0.00     0.004 C 
ENDBRANCH  12  13
ENDBRANCH  11  12
ENDBRANCH  10  11
ENDBRANCH   9  10
ENDBRANCH   1   9
TORSDOF 10
ENDMDL
MODEL 4
REMARK VINA RESULT:    -3.564      2.674      5.227
REMARK INTER + INTRA:          -7.153
REMARK INTER:                  -5.714
REMARK INTRA:                  -1.439
REMARK UNBOUND:                -1.505
REMARK SMILES CCCCCCCCCCCC(=O)[O-]
REMARK SMILES IDX 7 1 8 2 9 3 10 4 11 5 12 6 13 7 14 8 6 9 5 10 4 11 3 12 2 13
REMARK SMILES IDX 1 14
REMARK H PARENT
REMARK Flexibility Score: inf
ROOT
ATOM      1  C   UNL     1      92.141  98.711  89.199  1.00  0.00     0.000 C 
ENDROOT
BRANCH   1   2
ATOM      2  C   UNL     1      91.787 100.160  88.820  1.00  0.00     0.000 C 
BRANCH   2   3
ATOM      3  C   UNL     1      92.866 101.166  89.248  1.00  0.00     0.000 C 
BRANCH   3   4
ATOM      4  C   UNL     1      92.305 102.296  90.131  1.00  0.00     0.006 C 
BRANCH   4   5
ATOM      5  C   UNL     1      93.224 103.526  90.148  1.00  0.00     0.053 C 
BRANCH   5   6
ATOM      6  C   UNL     1      94.396 103.335  91.061  1.00  0.00     0.041 C 
ATOM      7  O   UNL     1      94.244 103.407  92.309  1.00  0.00    -0.550 OA
ATOM      8  O   UNL     1      95.648 103.047  90.535  1.00  0.00    -0.550 OA
ENDBRANCH   5   6
ENDBRANCH   4   5
ENDBRANCH   3   4
ENDBRANCH   2   3
ENDBRANCH   1   2
BRANCH   1   9
ATOM      9  C   UNL     1      90.987  98.006  89.944  1.00  0.00     0.000 C 
BRANCH   9  10
ATOM     10  C   UNL     1      90.071  98.972  90.716  1.00  0.00    -0.000 C 
BRANCH  10  11
ATOM     11  C   UNL     1      90.192  98.821  92.239  1.00  0.00    -0.000 C 
BRANCH  11  12
ATOM     12  C   UNL     1      91.140  99.876  92.822  1.00  0.00    -0.000 C 
BRANCH  12  13
ATOM     13  C   UNL     1      92.445  99.232  93.307  1.00  0.00    -0.003 C 
ATOM     14  C   UNL     1      93.655  99.848  92.612  1.00  0.00     0.004 C 
ENDBRANCH  12  13
ENDBRANCH  11  12
ENDBRANCH  10  11
ENDBRANCH   9  10
ENDBRANCH   1   9
TORSDOF 10
ENDMDL
MODEL 5
REMARK VINA RESULT:    -3.545     12.112     13.223
REMARK INTER + INTRA:          -7.123
REMARK INTER:                  -5.651
REMARK INTRA:                  -1.472
REMARK UNBOUND:                -1.505
REMARK SMILES CCCCCCCCCCCC(=O)[O-]
REMARK SMILES IDX 7 1 8 2 9 3 10 4 11 5 12 6 13 7 14 8 6 9 5 10 4 11 3 12 2 13
REMARK SMILES IDX 1 14
REMARK H PARENT
REMARK Flexibility Score: inf
ROOT
ATOM      1  C   UNL     1     105.334  99.839  89.569  1.00  0.00     0.000 C 
ENDROOT
BRANCH   1   2
ATOM      2  C   UNL     1     104.627  98.657  88.885  1.00  0.00     0.000 C 
BRANCH   2   3
ATOM      3  C   UNL     1     104.505  97.427  89.798  1.00  0.00     0.000 C 
BRANCH   3   4
ATOM      4  C   UNL     1     105.376  96.250  89.325  1.00  0.00     0.006 C 
BRANCH   4   5
ATOM      5  C   UNL     1     105.652  95.246  90.453  1.00  0.00     0.053 C 
BRANCH   5   6
ATOM      6  C   UNL     1     104.423  94.478  90.832  1.00  0.00     0.041 C 
ATOM      7  O   UNL     1     103.878  93.705  90.001  1.00  0.00    -0.550 OA
ATOM      8  O   UNL     1     103.898  94.593  92.113  1.00  0.00    -0.550 OA
ENDBRANCH   5   6
ENDBRANCH   4   5
ENDBRANCH   3   4
ENDBRANCH   2   3
ENDBRANCH   1   2
BRANCH   1   9
ATOM      9  C   UNL     1     106.744 100.087  88.993  1.00  0.00     0.000 C 
BRANCH   9  10
ATOM     10  C   UNL     1     107.854 100.089  90.059  1.00  0.00    -0.000 C 
BRANCH  10  11
ATOM     11  C   UNL     1     108.024  98.727  90.745  1.00  0.00    -0.000 C 
BRANCH  11  12
ATOM     12  C   UNL     1     107.856  98.853  92.265  1.00  0.00    -0.000 C 
BRANCH  12  13
ATOM     13  C   UNL     1     106.626  98.075  92.747  1.00  0.00    -0.003 C 
ATOM     14  C   UNL     1     105.526  99.020  93.219  1.00  0.00     0.004 C 
ENDBRANCH  12  13
ENDBRANCH  11  12
ENDBRANCH  10  11
ENDBRANCH   9  10
ENDBRANCH   1   9
TORSDOF 10
ENDMDL
MODEL 6
REMARK VINA RESULT:    -3.538      1.992      3.435
REMARK INTER + INTRA:          -7.111
REMARK INTER:                  -5.905
REMARK INTRA:                  -1.206
REMARK UNBOUND:                -1.505
REMARK SMILES CCCCCCCCCCCC(=O)[O-]
REMARK SMILES IDX 7 1 8 2 9 3 10 4 11 5 12 6 13 7 14 8 6 9 5 10 4 11 3 12 2 13
REMARK SMILES IDX 1 14
REMARK H PARENT
REMARK Flexibility Score: inf
ROOT
ATOM      1  C   UNL     1      95.968 105.192  89.392  1.00  0.00     0.000 C 
ENDROOT
BRANCH   1   2
ATOM      2  C   UNL     1      94.820 104.276  89.852  1.00  0.00     0.000 C 
BRANCH   2   3
ATOM      3  C   UNL     1      94.699 103.002  89.001  1.00  0.00     0.000 C 
BRANCH   3   4
ATOM      4  C   UNL     1      93.474 102.151  89.380  1.00  0.00     0.006 C 
BRANCH   4   5
ATOM      5  C   UNL     1      92.662 102.782  90.520  1.00  0.00     0.053 C 
BRANCH   5   6
ATOM      6  C   UNL     1      92.424 101.815  91.638  1.00  0.00     0.041 C 
ATOM      7  O   UNL     1      93.389 101.400  92.333  1.00  0.00    -0.550 OA
ATOM      8  O   UNL     1      91.133 101.396  91.933  1.00  0.00    -0.550 OA
ENDBRANCH   5   6
ENDBRANCH   4   5
ENDBRANCH   3   4
ENDBRANCH   2   3
ENDBRANCH   1   2
BRANCH   1   9
ATOM      9  C   UNL     1      97.100 104.404  88.699  1.00  0.00     0.000 C 
BRANCH   9  10
ATOM     10  C   UNL     1      98.503 104.751  89.225  1.00  0.00    -0.000 C 
BRANCH  10  11
ATOM     11  C   UNL     1      99.192 103.567  89.916  1.00  0.00    -0.000 C 
BRANCH  11  12
ATOM     12  C   UNL     1      98.282 102.332  89.927  1.00  0.00    -0.000 C 
BRANCH  12  13
ATOM     13  C   UNL     1      98.078 101.814  91.355  1.00  0.00    -0.003 C 
ATOM     14  C   UNL     1      96.731 101.111  91.499  1.00  0.00     0.004 C 
ENDBRANCH  12  13
ENDBRANCH  11  12
ENDBRANCH  10  11
ENDBRANCH   9  10
ENDBRANCH   1   9
TORSDOF 10
ENDMDL
MODEL 7
REMARK VINA RESULT:    -3.537     11.967     13.480
REMARK INTER + INTRA:          -7.110
REMARK INTER:                  -5.745
REMARK INTRA:                  -1.365
REMARK UNBOUND:                -1.505
REMARK SMILES CCCCCCCCCCCC(=O)[O-]
REMARK SMILES IDX 7 1 8 2 9 3 10 4 11 5 12 6 13 7 14 8 6 9 5 10 4 11 3 12 2 13
REMARK SMILES IDX 1 14
REMARK H PARENT
REMARK Flexibility Score: inf
ROOT
ATOM      1  C   UNL     1     105.249  98.258  90.551  1.00  0.00     0.000 C 
ENDROOT
BRANCH   1   2
ATOM      2  C   UNL     1     106.046  97.389  89.562  1.00  0.00     0.000 C 
BRANCH   2   3
ATOM      3  C   UNL     1     105.241  96.187  89.044  1.00  0.00     0.000 C 
BRANCH   3   4
ATOM      4  C   UNL     1     105.393  94.944  89.938  1.00  0.00     0.006 C 
BRANCH   4   5
ATOM      5  C   UNL     1     104.036  94.384  90.387  1.00  0.00     0.053 C 
BRANCH   5   6
ATOM      6  C   UNL     1     103.536  95.058  91.627  1.00  0.00     0.041 C 
ATOM      7  O   UNL     1     103.989  94.727  92.754  1.00  0.00    -0.550 OA
ATOM      8  O   UNL     1     102.594  96.075  91.536  1.00  0.00    -0.550 OA
ENDBRANCH   5   6
ENDBRANCH   4   5
ENDBRANCH   3   4
ENDBRANCH   2   3
ENDBRANCH   1   2
BRANCH   1   9
ATOM      9  C   UNL     1     105.823  98.187  91.982  1.00  0.00     0.000 C 
BRANCH   9  10
ATOM     10  C   UNL     1     107.117  97.361  92.086  1.00  0.00    -0.000 C 
BRANCH  10  11
ATOM     11  C   UNL     1     108.309  98.182  92.597  1.00  0.00    -0.000 C 
BRANCH  11  12
ATOM     12  C   UNL     1     108.318  99.584  91.975  1.00  0.00    -0.000 C 
BRANCH  12  13
ATOM     13  C   UNL     1     109.042  99.581  90.624  1.00  0.00    -0.003 C 
ATOM     14  C   UNL     1     108.281 100.405  89.589  1.00  0.00     0.004 C 
ENDBRANCH  12  13
ENDBRANCH  11  12
ENDBRANCH  10  11
ENDBRANCH   9  10
ENDBRANCH   1   9
TORSDOF 10
ENDMDL
MODEL 8
REMARK VINA RESULT:    -3.521      1.517      2.091
REMARK INTER + INTRA:          -7.084
REMARK INTER:                  -5.663
REMARK INTRA:                  -1.421
REMARK UNBOUND:                -1.505
REMARK SMILES CCCCCCCCCCCC(=O)[O-]
REMARK SMILES IDX 7 1 8 2 9 3 10 4 11 5 12 6 13 7 14 8 6 9 5 10 4 11 3 12 2 13
REMARK SMILES IDX 1 14
REMARK H PARENT
REMARK Flexibility Score: inf
ROOT
ATOM      1  C   UNL     1      92.286 102.927  90.456  1.00  0.00     0.000 C 
ENDROOT
BRANCH   1   2
ATOM      2  C   UNL     1      92.520 102.356  91.865  1.00  0.00     0.000 C 
BRANCH   2   3
ATOM      3  C   UNL     1      92.165 100.864  91.968  1.00  0.00     0.000 C 
BRANCH   3   4
ATOM      4  C   UNL     1      91.584 100.302  90.659  1.00  0.00     0.006 C 
BRANCH   4   5
ATOM      5  C   UNL     1      91.738  98.777  90.566  1.00  0.00     0.053 C 
BRANCH   5   6
ATOM      6  C   UNL     1      90.412  98.088  90.467  1.00  0.00     0.041 C 
ATOM      7  O   UNL     1      90.123  97.414  89.443  1.00  0.00    -0.550 OA
ATOM      8  O   UNL     1      89.509  98.162  91.520  1.00  0.00    -0.550 OA
ENDBRANCH   5   6
ENDBRANCH   4   5
ENDBRANCH   3   4
ENDBRANCH   2   3
ENDBRANCH   1   2
BRANCH   1   9
ATOM      9  C   UNL     1      93.563 103.565  89.868  1.00  0.00     0.000 C 
BRANCH   9  10
ATOM     10  C   UNL     1      94.754 103.571  90.842  1.00  0.00    -0.000 C 
BRANCH  10  11
ATOM     11  C   UNL     1      95.868 102.600  90.430  1.00  0.00    -0.000 C 
BRANCH  11  12
ATOM     12  C   UNL     1      96.334 101.759  91.624  1.00  0.00    -0.000 C 
BRANCH  12  13
ATOM     13  C   UNL     1      95.796 100.326  91.530  1.00  0.00    -0.003 C 
ATOM     14  C   UNL     1      95.344 100.000  90.110  1.00  0.00     0.004 C 
ENDBRANCH  12  13
ENDBRANCH  11  12
ENDBRANCH  10  11
ENDBRANCH   9  10
ENDBRANCH   1   9
TORSDOF 10
ENDMDL
MODEL 9
REMARK VINA RESULT:    -3.502     10.777     13.055
REMARK INTER + INTRA:          -7.054
REMARK INTER:                  -5.523
REMARK INTRA:                  -1.531
REMARK UNBOUND:                -1.505
REMARK SMILES CCCCCCCCCCCC(=O)[O-]
REMARK SMILES IDX 7 1 8 2 9 3 10 4 11 5 12 6 13 7 14 8 6 9 5 10 4 11 3 12 2 13
REMARK SMILES IDX 1 14
REMARK H PARENT
REMARK Flexibility Score: inf
ROOT
ATOM      1  C   UNL     1     103.482  94.647  91.240  1.00  0.00     0.000 C 
ENDROOT
BRANCH   1   2
ATOM      2  C   UNL     1     104.529  94.319  90.161  1.00  0.00     0.000 C 
BRANCH   2   3
ATOM      3  C   UNL     1     105.738  95.266  90.199  1.00  0.00     0.000 C 
BRANCH   3   4
ATOM      4  C   UNL     1     105.861  96.016  91.537  1.00  0.00     0.006 C 
BRANCH   4   5
ATOM      5  C   UNL     1     106.973  97.074  91.507  1.00  0.00     0.053 C 
BRANCH   5   6
ATOM      6  C   UNL     1     106.993  97.899  92.756  1.00  0.00     0.041 C 
ATOM      7  O   UNL     1     108.030  97.944  93.469  1.00  0.00    -0.550 OA
ATOM      8  O   UNL     1     105.877  98.643  93.117  1.00  0.00    -0.550 OA
ENDBRANCH   5   6
ENDBRANCH   4   5
ENDBRANCH   3   4
ENDBRANCH   2   3
ENDBRANCH   1   2
BRANCH   1   9
ATOM      9  C   UNL     1     102.300  95.463  90.674  1.00  0.00     0.000 C 
BRANCH   9  10
ATOM     10  C   UNL     1     101.815  96.579  91.615  1.00  0.00    -0.000 C 
BRANCH  10  11
ATOM     11  C   UNL     1     102.612  97.881  91.456  1.00  0.00    -0.000 C 
BRANCH  11  12
ATOM     12  C   UNL     1     103.021  98.101  89.994  1.00  0.00    -0.000 C 
BRANCH  12  13
ATOM     13  C   UNL     1     104.254  99.007  89.900  1.00  0.00    -0.003 C 
ATOM     14  C   UNL     1     105.070  98.698  88.647  1.00  0.00     0.004 C 
ENDBRANCH  12  13
ENDBRANCH  11  12
ENDBRANCH  10  11
ENDBRANCH   9  10
ENDBRANCH   1   9
TORSDOF 10
ENDMDL
