MODEL 1
REMARK VINA RESULT:     1.480      0.000      0.000
REMARK INTER + INTRA:           1.552
REMARK INTER:                   1.696
REMARK INTRA:                  -0.144
REMARK UNBOUND:                -0.144
REMARK SMILES O=C([O-])C=Cc1ccc(O)cc1
REMARK SMILES IDX 6 1 7 2 12 3 8 4 11 5 9 6 5 7 4 8 2 9 1 10 3 11 10 12
REMARK H PARENT 10 13
REMARK Flexibility Score: inf
ROOT
ATOM      1  C   UNL     1      -3.881  -1.195   1.880  1.00  0.00    -0.025 A 
ATOM      2  C   UNL     1      -4.663  -2.330   2.180  1.00  0.00     0.012 A 
ATOM      3  C   UNL     1      -3.877  -0.704   0.563  1.00  0.00     0.012 A 
ATOM      4  C   UNL     1      -5.401  -2.966   1.176  1.00  0.00     0.047 A 
ATOM      5  C   UNL     1      -4.614  -1.344  -0.437  1.00  0.00     0.047 A 
ATOM      6  C   UNL     1      -5.376  -2.478  -0.134  1.00  0.00     0.115 A 
ENDROOT
BRANCH   1   7
ATOM      7  C   UNL     1      -3.090  -0.476   2.908  1.00  0.00     0.010 C 
ATOM      8  C   UNL     1      -1.813  -0.101   2.740  1.00  0.00     0.025 C 
BRANCH   8   9
ATOM      9  C   UNL     1      -1.063   0.622   3.780  1.00  0.00     0.064 C 
ATOM     10  O   UNL     1      -1.657   1.240   4.704  1.00  0.00    -0.545 OA
ATOM     11  O   UNL     1       0.325   0.620   3.745  1.00  0.00    -0.545 OA
ENDBRANCH   8   9
ENDBRANCH   1   7
BRANCH   6  12
ATOM     12  O   UNL     1      -6.115  -3.125  -1.123  1.00  0.00    -0.508 OA
ATOM     13  H   UNL     1      -5.919  -4.083  -1.388  1.00  0.00     0.293 HD
ENDBRANCH   6  12
TORSDOF 3
ENDMDL
MODEL 2
REMARK VINA RESULT:     1.743      0.195      1.690
REMARK INTER + INTRA:           1.853
REMARK INTER:                   1.990
REMARK INTRA:                  -0.137
REMARK UNBOUND:                -0.144
REMARK SMILES O=C([O-])C=Cc1ccc(O)cc1
REMARK SMILES IDX 6 1 7 2 12 3 8 4 11 5 9 6 5 7 4 8 2 9 1 10 3 11 10 12
REMARK H PARENT 10 13
REMARK Flexibility Score: inf
ROOT
ATOM      1  C   UNL     1      -3.892  -0.930   1.708  1.00  0.00    -0.025 A 
ATOM      2  C   UNL     1      -3.900  -0.556   0.348  1.00  0.00     0.012 A 
ATOM      3  C   UNL     1      -4.623  -2.064   2.101  1.00  0.00     0.012 A 
ATOM      4  C   UNL     1      -4.642  -1.289  -0.584  1.00  0.00     0.047 A 
ATOM      5  C   UNL     1      -5.364  -2.793   1.167  1.00  0.00     0.047 A 
ATOM      6  C   UNL     1      -5.377  -2.406  -0.178  1.00  0.00     0.115 A 
ENDROOT
BRANCH   1   7
ATOM      7  C   UNL     1      -3.114  -0.195   2.735  1.00  0.00     0.010 C 
ATOM      8  C   UNL     1      -1.775  -0.122   2.746  1.00  0.00     0.025 C 
BRANCH   8   9
ATOM      9  C   UNL     1      -1.037   0.627   3.776  1.00  0.00     0.064 C 
ATOM     10  O   UNL     1       0.223   0.638   3.800  1.00  0.00    -0.545 OA
ATOM     11  O   UNL     1      -1.743   1.335   4.740  1.00  0.00    -0.545 OA
ENDBRANCH   8   9
ENDBRANCH   1   7
BRANCH   6  12
ATOM     12  O   UNL     1      -6.113  -3.125  -1.118  1.00  0.00    -0.508 OA
ATOM     13  H   UNL     1      -6.280  -4.118  -1.012  1.00  0.00     0.293 HD
ENDBRANCH   6  12
TORSDOF 3
ENDMDL
