MODEL 1
REMARK VINA RESULT:    -3.128      0.000      0.000
REMARK INTER + INTRA:          -5.939
REMARK INTER:                  -4.957
REMARK INTRA:                  -0.982
REMARK UNBOUND:                -0.982
REMARK SMILES CCCCCCCCCCCC(=O)[O-]
REMARK SMILES IDX 7 1 8 2 9 3 10 4 11 5 12 6 13 7 14 8 6 9 5 10 4 11 3 12 2 13
REMARK SMILES IDX 1 14
REMARK H PARENT
REMARK Flexibility Score: inf
ROOT
ATOM      1  C   UNL     1      -9.705 -17.901  20.945  1.00  0.00     0.000 C 
ENDROOT
BRANCH   1   2
ATOM      2  C   UNL     1     -11.084 -18.077  20.276  1.00  0.00     0.000 C 
BRANCH   2   3
ATOM      3  C   UNL     1     -11.123 -19.080  19.110  1.00  0.00     0.000 C 
BRANCH   3   4
ATOM      4  C   UNL     1     -10.112 -20.227  19.276  1.00  0.00     0.006 C 
BRANCH   4   5
ATOM      5  C   UNL     1      -9.786 -20.908  17.939  1.00  0.00     0.053 C 
BRANCH   5   6
ATOM      6  C   UNL     1      -8.731 -21.960  18.091  1.00  0.00     0.041 C 
ATOM      7  O   UNL     1      -8.004 -22.274  17.113  1.00  0.00    -0.550 OA
ATOM      8  O   UNL     1      -8.570 -22.614  19.306  1.00  0.00    -0.550 OA
ENDBRANCH   5   6
ENDBRANCH   4   5
ENDBRANCH   3   4
ENDBRANCH   2   3
ENDBRANCH   1   2
BRANCH   1   9
ATOM      9  C   UNL     1      -9.611 -18.422  22.390  1.00  0.00     0.000 C 
BRANCH   9  10
ATOM     10  C   UNL     1     -10.861 -19.196  22.830  1.00  0.00    -0.000 C 
BRANCH  10  11
ATOM     11  C   UNL     1     -10.547 -20.684  23.024  1.00  0.00    -0.000 C 
BRANCH  11  12
ATOM     12  C   UNL     1      -9.049 -20.959  22.844  1.00  0.00    -0.000 C 
BRANCH  12  13
ATOM     13  C   UNL     1      -8.771 -22.464  22.767  1.00  0.00    -0.003 C 
ATOM     14  C   UNL     1      -8.927 -23.124  24.134  1.00  0.00     0.004 C 
ENDBRANCH  12  13
ENDBRANCH  11  12
ENDBRANCH  10  11
ENDBRANCH   9  10
ENDBRANCH   1   9
TORSDOF 10
ENDMDL
MODEL 2
REMARK VINA RESULT:    -3.102      1.130      2.282
REMARK INTER + INTRA:          -5.897
REMARK INTER:                  -4.863
REMARK INTRA:                  -1.034
REMARK UNBOUND:                -0.982
REMARK SMILES CCCCCCCCCCCC(=O)[O-]
REMARK SMILES IDX 7 1 8 2 9 3 10 4 11 5 12 6 13 7 14 8 6 9 5 10 4 11 3 12 2 13
REMARK SMILES IDX 1 14
REMARK H PARENT
REMARK Flexibility Score: inf
ROOT
ATOM      1  C   UNL     1     -11.006 -18.551  19.180  1.00  0.00     0.000 C 
ENDROOT
BRANCH   1   2
ATOM      2  C   UNL     1     -10.911 -20.057  18.860  1.00  0.00     0.000 C 
BRANCH   2   3
ATOM      3  C   UNL     1      -9.514 -20.678  19.043  1.00  0.00     0.000 C 
BRANCH   3   4
ATOM      4  C   UNL     1      -9.371 -22.039  18.344  1.00  0.00     0.006 C 
BRANCH   4   5
ATOM      5  C   UNL     1      -8.293 -22.017  17.251  1.00  0.00     0.053 C 
BRANCH   5   6
ATOM      6  C   UNL     1      -6.934 -22.322  17.801  1.00  0.00     0.041 C 
ATOM      7  O   UNL     1      -6.815 -22.889  18.919  1.00  0.00    -0.550 OA
ATOM      8  O   UNL     1      -5.797 -21.952  17.093  1.00  0.00    -0.550 OA
ENDBRANCH   5   6
ENDBRANCH   4   5
ENDBRANCH   3   4
ENDBRANCH   2   3
ENDBRANCH   1   2
BRANCH   1   9
ATOM      9  C   UNL     1     -11.125 -18.208  20.676  1.00  0.00     0.000 C 
BRANCH   9  10
ATOM     10  C   UNL     1      -9.768 -17.911  21.331  1.00  0.00    -0.000 C 
BRANCH  10  11
ATOM     11  C   UNL     1      -9.506 -18.859  22.507  1.00  0.00    -0.000 C 
BRANCH  11  12
ATOM     12  C   UNL     1     -10.683 -19.819  22.714  1.00  0.00    -0.000 C 
BRANCH  12  13
ATOM     13  C   UNL     1     -10.239 -21.277  22.551  1.00  0.00    -0.003 C 
ATOM     14  C   UNL     1      -8.832 -21.489  23.103  1.00  0.00     0.004 C 
ENDBRANCH  12  13
ENDBRANCH  11  12
ENDBRANCH  10  11
ENDBRANCH   9  10
ENDBRANCH   1   9
TORSDOF 10
ENDMDL
MODEL 3
REMARK VINA RESULT:    -3.059      3.199      6.078
REMARK INTER + INTRA:          -5.829
REMARK INTER:                  -5.024
REMARK INTRA:                  -0.806
REMARK UNBOUND:                -0.982
REMARK SMILES CCCCCCCCCCCC(=O)[O-]
REMARK SMILES IDX 7 1 8 2 9 3 10 4 11 5 12 6 13 7 14 8 6 9 5 10 4 11 3 12 2 13
REMARK SMILES IDX 1 14
REMARK H PARENT
REMARK Flexibility Score: inf
ROOT
ATOM      1  C   UNL     1     -10.164 -21.997  19.989  1.00  0.00     0.000 C 
ENDROOT
BRANCH   1   2
ATOM      2  C   UNL     1     -11.121 -20.858  20.398  1.00  0.00     0.000 C 
BRANCH   2   3
ATOM      3  C   UNL     1     -11.019 -19.579  19.547  1.00  0.00     0.000 C 
BRANCH   3   4
ATOM      4  C   UNL     1     -11.121 -18.295  20.386  1.00  0.00     0.006 C 
BRANCH   4   5
ATOM      5  C   UNL     1      -9.759 -17.860  20.945  1.00  0.00     0.053 C 
BRANCH   5   6
ATOM      6  C   UNL     1      -9.691 -18.015  22.434  1.00  0.00     0.041 C 
ATOM      7  O   UNL     1     -10.610 -18.614  23.051  1.00  0.00    -0.550 OA
ATOM      8  O   UNL     1      -8.627 -17.471  23.143  1.00  0.00    -0.550 OA
ENDBRANCH   5   6
ENDBRANCH   4   5
ENDBRANCH   3   4
ENDBRANCH   2   3
ENDBRANCH   1   2
BRANCH   1   9
ATOM      9  C   UNL     1     -10.422 -22.594  18.594  1.00  0.00     0.000 C 
BRANCH   9  10
ATOM     10  C   UNL     1      -9.215 -22.459  17.653  1.00  0.00    -0.000 C 
BRANCH  10  11
ATOM     11  C   UNL     1      -9.349 -21.219  16.762  1.00  0.00    -0.000 C 
BRANCH  11  12
ATOM     12  C   UNL     1     -10.801 -21.017  16.313  1.00  0.00    -0.000 C 
BRANCH  12  13
ATOM     13  C   UNL     1     -10.865 -20.255  14.984  1.00  0.00    -0.003 C 
ATOM     14  C   UNL     1      -9.510 -20.255  14.283  1.00  0.00     0.004 C 
ENDBRANCH  12  13
ENDBRANCH  11  12
ENDBRANCH  10  11
ENDBRANCH   9  10
ENDBRANCH   1   9
TORSDOF 10
ENDMDL
MODEL 4
REMARK VINA RESULT:    -3.018      1.282      3.469
REMARK INTER + INTRA:          -5.765
REMARK INTER:                  -4.472
REMARK INTRA:                  -1.293
REMARK UNBOUND:                -0.982
REMARK SMILES CCCCCCCCCCCC(=O)[O-]
REMARK SMILES IDX 7 1 8 2 9 3 10 4 11 5 12 6 13 7 14 8 6 9 5 10 4 11 3 12 2 13
REMARK SMILES IDX 1 14
REMARK H PARENT
REMARK Flexibility Score: inf
ROOT
ATOM      1  C   UNL     1      -8.934 -22.280  21.741  1.00  0.00     0.000 C 
ENDROOT
BRANCH   1   2
ATOM      2  C   UNL     1     -10.162 -22.918  21.059  1.00  0.00     0.000 C 
BRANCH   2   3
ATOM      3  C   UNL     1     -10.490 -22.372  19.658  1.00  0.00     0.000 C 
BRANCH   3   4
ATOM      4  C   UNL     1      -9.360 -21.508  19.075  1.00  0.00     0.006 C 
BRANCH   4   5
ATOM      5  C   UNL     1      -8.664 -22.190  17.889  1.00  0.00     0.053 C 
BRANCH   5   6
ATOM      6  C   UNL     1      -7.181 -22.270  18.083  1.00  0.00     0.041 C 
ATOM      7  O   UNL     1      -6.704 -22.827  19.107  1.00  0.00    -0.550 OA
ATOM      8  O   UNL     1      -6.324 -21.704  17.146  1.00  0.00    -0.550 OA
ENDBRANCH   5   6
ENDBRANCH   4   5
ENDBRANCH   3   4
ENDBRANCH   2   3
ENDBRANCH   1   2
BRANCH   1   9
ATOM      9  C   UNL     1      -9.253 -21.377  22.946  1.00  0.00     0.000 C 
BRANCH   9  10
ATOM     10  C   UNL     1     -10.741 -21.010  23.041  1.00  0.00    -0.000 C 
BRANCH  10  11
ATOM     11  C   UNL     1     -11.019 -19.661  22.369  1.00  0.00    -0.000 C 
BRANCH  11  12
ATOM     12  C   UNL     1      -9.769 -18.772  22.380  1.00  0.00    -0.000 C 
BRANCH  12  13
ATOM     13  C   UNL     1      -9.687 -17.921  21.108  1.00  0.00    -0.003 C 
ATOM     14  C   UNL     1     -10.857 -18.214  20.173  1.00  0.00     0.004 C 
ENDBRANCH  12  13
ENDBRANCH  11  12
ENDBRANCH  10  11
ENDBRANCH   9  10
ENDBRANCH   1   9
TORSDOF 10
ENDMDL
MODEL 5
REMARK VINA RESULT:    -3.011      2.618      5.821
REMARK INTER + INTRA:          -5.753
REMARK INTER:                  -4.831
REMARK INTRA:                  -0.922
REMARK UNBOUND:                -0.982
REMARK SMILES CCCCCCCCCCCC(=O)[O-]
REMARK SMILES IDX 7 1 8 2 9 3 10 4 11 5 12 6 13 7 14 8 6 9 5 10 4 11 3 12 2 13
REMARK SMILES IDX 1 14
REMARK H PARENT
REMARK Flexibility Score: inf
ROOT
ATOM      1  C   UNL     1      -8.513 -22.989  19.969  1.00  0.00     0.000 C 
ENDROOT
BRANCH   1   2
ATOM      2  C   UNL     1      -8.372 -22.745  21.486  1.00  0.00     0.000 C 
BRANCH   2   3
ATOM      3  C   UNL     1      -9.607 -22.132  22.169  1.00  0.00     0.000 C 
BRANCH   3   4
ATOM      4  C   UNL     1      -9.332 -20.740  22.760  1.00  0.00     0.006 C 
BRANCH   4   5
ATOM      5  C   UNL     1     -10.327 -19.689  22.251  1.00  0.00     0.053 C 
BRANCH   5   6
ATOM      6  C   UNL     1      -9.651 -18.393  21.922  1.00  0.00     0.041 C 
ATOM      7  O   UNL     1      -9.705 -17.930  20.753  1.00  0.00    -0.550 OA
ATOM      8  O   UNL     1      -8.938 -17.711  22.900  1.00  0.00    -0.550 OA
ENDBRANCH   5   6
ENDBRANCH   4   5
ENDBRANCH   3   4
ENDBRANCH   2   3
ENDBRANCH   1   2
BRANCH   1   9
ATOM      9  C   UNL     1      -9.800 -22.429  19.336  1.00  0.00     0.000 C 
BRANCH   9  10
ATOM     10  C   UNL     1      -9.598 -21.051  18.689  1.00  0.00    -0.000 C 
BRANCH  10  11
ATOM     11  C   UNL     1     -10.942 -20.357  18.443  1.00  0.00    -0.000 C 
BRANCH  11  12
ATOM     12  C   UNL     1     -11.017 -19.789  17.020  1.00  0.00    -0.000 C 
BRANCH  12  13
ATOM     13  C   UNL     1     -10.416 -20.767  16.005  1.00  0.00    -0.003 C 
ATOM     14  C   UNL     1     -10.335 -20.139  14.616  1.00  0.00     0.004 C 
ENDBRANCH  12  13
ENDBRANCH  11  12
ENDBRANCH  10  11
ENDBRANCH   9  10
ENDBRANCH   1   9
TORSDOF 10
ENDMDL
MODEL 6
REMARK VINA RESULT:    -2.961      1.602      3.717
REMARK INTER + INTRA:          -5.674
REMARK INTER:                  -4.807
REMARK INTRA:                  -0.868
REMARK UNBOUND:                -0.982
REMARK SMILES CCCCCCCCCCCC(=O)[O-]
REMARK SMILES IDX 7 1 8 2 9 3 10 4 11 5 12 6 13 7 14 8 6 9 5 10 4 11 3 12 2 13
REMARK SMILES IDX 1 14
REMARK H PARENT
REMARK Flexibility Score: inf
ROOT
ATOM      1  C   UNL     1     -10.267 -21.725  20.572  1.00  0.00     0.000 C 
ENDROOT
BRANCH   1   2
ATOM      2  C   UNL     1     -10.462 -22.888  19.577  1.00  0.00     0.000 C 
BRANCH   2   3
ATOM      3  C   UNL     1      -9.771 -22.706  18.214  1.00  0.00     0.000 C 
BRANCH   3   4
ATOM      4  C   UNL     1      -8.566 -21.753  18.278  1.00  0.00     0.006 C 
BRANCH   4   5
ATOM      5  C   UNL     1      -7.230 -22.503  18.192  1.00  0.00     0.053 C 
BRANCH   5   6
ATOM      6  C   UNL     1      -6.485 -22.175  16.935  1.00  0.00     0.041 C 
ATOM      7  O   UNL     1      -7.113 -21.900  15.879  1.00  0.00    -0.550 OA
ATOM      8  O   UNL     1      -5.095 -22.199  16.922  1.00  0.00    -0.550 OA
ENDBRANCH   5   6
ENDBRANCH   4   5
ENDBRANCH   3   4
ENDBRANCH   2   3
ENDBRANCH   1   2
BRANCH   1   9
ATOM      9  C   UNL     1      -9.422 -22.064  21.813  1.00  0.00     0.000 C 
BRANCH   9  10
ATOM     10  C   UNL     1      -9.303 -20.890  22.794  1.00  0.00    -0.000 C 
BRANCH  10  11
ATOM     11  C   UNL     1     -10.330 -19.798  22.472  1.00  0.00    -0.000 C 
BRANCH  11  12
ATOM     12  C   UNL     1      -9.663 -18.419  22.396  1.00  0.00    -0.000 C 
BRANCH  12  13
ATOM     13  C   UNL     1      -9.640 -17.897  20.955  1.00  0.00    -0.003 C 
ATOM     14  C   UNL     1     -11.008 -18.043  20.295  1.00  0.00     0.004 C 
ENDBRANCH  12  13
ENDBRANCH  11  12
ENDBRANCH  10  11
ENDBRANCH   9  10
ENDBRANCH   1   9
TORSDOF 10
ENDMDL
MODEL 7
REMARK VINA RESULT:    -2.863      2.640      6.051
REMARK INTER + INTRA:          -5.519
REMARK INTER:                  -4.989
REMARK INTRA:                  -0.530
REMARK UNBOUND:                -0.982
REMARK SMILES CCCCCCCCCCCC(=O)[O-]
REMARK SMILES IDX 7 1 8 2 9 3 10 4 11 5 12 6 13 7 14 8 6 9 5 10 4 11 3 12 2 13
REMARK SMILES IDX 1 14
REMARK H PARENT
REMARK Flexibility Score: inf
ROOT
ATOM      1  C   UNL     1      -8.394 -22.689  20.441  1.00  0.00     0.000 C 
ENDROOT
BRANCH   1   2
ATOM      2  C   UNL     1      -8.926 -22.818  21.883  1.00  0.00     0.000 C 
BRANCH   2   3
ATOM      3  C   UNL     1      -9.124 -21.487  22.630  1.00  0.00     0.000 C 
BRANCH   3   4
ATOM      4  C   UNL     1     -10.317 -20.677  22.097  1.00  0.00     0.006 C 
BRANCH   4   5
ATOM      5  C   UNL     1     -10.394 -19.279  22.726  1.00  0.00     0.053 C 
BRANCH   5   6
ATOM      6  C   UNL     1      -9.636 -18.264  21.926  1.00  0.00     0.041 C 
ATOM      7  O   UNL     1      -8.977 -17.363  22.507  1.00  0.00    -0.550 OA
ATOM      8  O   UNL     1      -9.680 -18.298  20.537  1.00  0.00    -0.550 OA
ENDBRANCH   5   6
ENDBRANCH   4   5
ENDBRANCH   3   4
ENDBRANCH   2   3
ENDBRANCH   1   2
BRANCH   1   9
ATOM      9  C   UNL     1      -9.470 -22.746  19.342  1.00  0.00     0.000 C 
BRANCH   9  10
ATOM     10  C   UNL     1      -9.517 -21.474  18.484  1.00  0.00    -0.000 C 
BRANCH  10  11
ATOM     11  C   UNL     1     -10.644 -21.551  17.448  1.00  0.00    -0.000 C 
BRANCH  11  12
ATOM     12  C   UNL     1     -10.814 -20.214  16.716  1.00  0.00    -0.000 C 
BRANCH  12  13
ATOM     13  C   UNL     1     -11.034 -20.432  15.215  1.00  0.00    -0.003 C 
ATOM     14  C   UNL     1      -9.755 -20.166  14.426  1.00  0.00     0.004 C 
ENDBRANCH  12  13
ENDBRANCH  11  12
ENDBRANCH  10  11
ENDBRANCH   9  10
ENDBRANCH   1   9
TORSDOF 10
ENDMDL
MODEL 8
REMARK VINA RESULT:    -2.803      2.078      3.903
REMARK INTER + INTRA:          -5.424
REMARK INTER:                  -4.558
REMARK INTRA:                  -0.866
REMARK UNBOUND:                -0.982
REMARK SMILES CCCCCCCCCCCC(=O)[O-]
REMARK SMILES IDX 7 1 8 2 9 3 10 4 11 5 12 6 13 7 14 8 6 9 5 10 4 11 3 12 2 13
REMARK SMILES IDX 1 14
REMARK H PARENT
REMARK Flexibility Score: inf
ROOT
ATOM      1  C   UNL     1      -9.352 -22.228  20.730  1.00  0.00     0.000 C 
ENDROOT
BRANCH   1   2
ATOM      2  C   UNL     1     -10.047 -22.804  19.480  1.00  0.00     0.000 C 
BRANCH   2   3
ATOM      3  C   UNL     1     -10.750 -21.768  18.585  1.00  0.00     0.000 C 
BRANCH   3   4
ATOM      4  C   UNL     1      -9.951 -21.440  17.312  1.00  0.00     0.006 C 
BRANCH   4   5
ATOM      5  C   UNL     1     -10.560 -20.266  16.535  1.00  0.00     0.053 C 
BRANCH   5   6
ATOM      6  C   UNL     1     -10.216 -20.322  15.078  1.00  0.00     0.041 C 
ATOM      7  O   UNL     1     -11.125 -20.254  14.209  1.00  0.00    -0.550 OA
ATOM      8  O   UNL     1      -8.894 -20.481  14.679  1.00  0.00    -0.550 OA
ENDBRANCH   5   6
ENDBRANCH   4   5
ENDBRANCH   3   4
ENDBRANCH   2   3
ENDBRANCH   1   2
BRANCH   1   9
ATOM      9  C   UNL     1     -10.078 -22.494  22.061  1.00  0.00     0.000 C 
BRANCH   9  10
ATOM     10  C   UNL     1     -10.002 -21.308  23.033  1.00  0.00    -0.000 C 
BRANCH  10  11
ATOM     11  C   UNL     1     -10.531 -20.027  22.378  1.00  0.00    -0.000 C 
BRANCH  11  12
ATOM     12  C   UNL     1      -9.478 -18.913  22.415  1.00  0.00    -0.000 C 
BRANCH  12  13
ATOM     13  C   UNL     1      -9.772 -17.842  21.358  1.00  0.00    -0.003 C 
ATOM     14  C   UNL     1     -10.387 -18.458  20.105  1.00  0.00     0.004 C 
ENDBRANCH  12  13
ENDBRANCH  11  12
ENDBRANCH  10  11
ENDBRANCH   9  10
ENDBRANCH   1   9
TORSDOF 10
ENDMDL
MODEL 9
REMARK VINA RESULT:    -2.558      2.118      4.839
REMARK INTER + INTRA:          -5.035
REMARK INTER:                  -4.279
REMARK INTRA:                  -0.756
REMARK UNBOUND:                -0.982
REMARK SMILES CCCCCCCCCCCC(=O)[O-]
REMARK SMILES IDX 7 1 8 2 9 3 10 4 11 5 12 6 13 7 14 8 6 9 5 10 4 11 3 12 2 13
REMARK SMILES IDX 1 14
REMARK H PARENT
REMARK Flexibility Score: inf
ROOT
ATOM      1  C   UNL     1     -10.201 -19.726  19.080  1.00  0.00     0.000 C 
ENDROOT
BRANCH   1   2
ATOM      2  C   UNL     1     -10.721 -18.695  20.103  1.00  0.00     0.000 C 
BRANCH   2   3
ATOM      3  C   UNL     1      -9.670 -18.173  21.099  1.00  0.00     0.000 C 
BRANCH   3   4
ATOM      4  C   UNL     1     -10.003 -18.527  22.557  1.00  0.00     0.006 C 
BRANCH   4   5
ATOM      5  C   UNL     1     -10.868 -19.791  22.662  1.00  0.00     0.053 C 
BRANCH   5   6
ATOM      6  C   UNL     1     -10.040 -21.039  22.623  1.00  0.00     0.041 C 
ATOM      7  O   UNL     1     -10.542 -22.120  22.217  1.00  0.00    -0.550 OA
ATOM      8  O   UNL     1      -8.722 -21.015  23.063  1.00  0.00    -0.550 OA
ENDBRANCH   5   6
ENDBRANCH   4   5
ENDBRANCH   3   4
ENDBRANCH   2   3
ENDBRANCH   1   2
BRANCH   1   9
ATOM      9  C   UNL     1     -11.066 -20.991  18.933  1.00  0.00     0.000 C 
BRANCH   9  10
ATOM     10  C   UNL     1     -10.236 -22.254  18.662  1.00  0.00    -0.000 C 
BRANCH  10  11
ATOM     11  C   UNL     1      -8.938 -21.911  17.922  1.00  0.00    -0.000 C 
BRANCH  11  12
ATOM     12  C   UNL     1      -7.748 -22.677  18.512  1.00  0.00    -0.000 C 
BRANCH  12  13
ATOM     13  C   UNL     1      -6.726 -23.028  17.424  1.00  0.00    -0.003 C 
ATOM     14  C   UNL     1      -6.942 -22.184  16.172  1.00  0.00     0.004 C 
ENDBRANCH  12  13
ENDBRANCH  11  12
ENDBRANCH  10  11
ENDBRANCH   9  10
ENDBRANCH   1   9
TORSDOF 10
ENDMDL
