MODEL 1
REMARK VINA RESULT:    -4.119      0.000      0.000
REMARK INTER + INTRA:          -8.259
REMARK INTER:                  -7.491
REMARK INTRA:                  -0.769
REMARK UNBOUND:                -0.769
REMARK SMILES CCCCCCCCCCCCCCCC(=O)[O-]
REMARK SMILES IDX 9 1 10 2 11 3 12 4 13 5 14 6 15 7 16 8 17 9 18 10 8 11 7 12
REMARK SMILES IDX 6 13 5 14 4 15 3 16 2 17 1 18
REMARK H PARENT
REMARK Flexibility Score: inf
ROOT
ATOM      1  C   UNL     1      31.284  -0.605  42.089  1.00  0.00     0.000 C 
ENDROOT
BRANCH   1   2
ATOM      2  C   UNL     1      32.605   0.021  42.586  1.00  0.00     0.000 C 
BRANCH   2   3
ATOM      3  C   UNL     1      33.846  -0.689  42.016  1.00  0.00     0.000 C 
BRANCH   3   4
ATOM      4  C   UNL     1      35.142  -0.323  42.760  1.00  0.00     0.000 C 
BRANCH   4   5
ATOM      5  C   UNL     1      36.404  -1.049  42.259  1.00  0.00     0.000 C 
BRANCH   5   6
ATOM      6  C   UNL     1      37.302  -1.550  43.403  1.00  0.00     0.006 C 
BRANCH   6   7
ATOM      7  C   UNL     1      38.219  -2.698  42.958  1.00  0.00     0.053 C 
BRANCH   7   8
ATOM      8  C   UNL     1      37.683  -4.030  43.387  1.00  0.00     0.041 C 
ATOM      9  O   UNL     1      36.455  -4.285  43.273  1.00  0.00    -0.550 OA
ATOM     10  O   UNL     1      38.534  -4.975  43.944  1.00  0.00    -0.550 OA
ENDBRANCH   7   8
ENDBRANCH   6   7
ENDBRANCH   5   6
ENDBRANCH   4   5
ENDBRANCH   3   4
ENDBRANCH   2   3
ENDBRANCH   1   2
BRANCH   1  11
ATOM     11  C   UNL     1      30.451  -1.266  43.206  1.00  0.00     0.000 C 
BRANCH  11  12
ATOM     12  C   UNL     1      31.243  -1.660  44.466  1.00  0.00    -0.000 C 
BRANCH  12  13
ATOM     13  C   UNL     1      30.383  -1.925  45.715  1.00  0.00    -0.000 C 
BRANCH  13  14
ATOM     14  C   UNL     1      29.470  -0.740  46.075  1.00  0.00    -0.000 C 
BRANCH  14  15
ATOM     15  C   UNL     1      27.976  -1.063  45.899  1.00  0.00    -0.000 C 
BRANCH  15  16
ATOM     16  C   UNL     1      27.617  -2.556  46.017  1.00  0.00    -0.000 C 
BRANCH  16  17
ATOM     17  C   UNL     1      26.539  -2.833  47.076  1.00  0.00    -0.003 C 
ATOM     18  C   UNL     1      26.950  -3.983  47.990  1.00  0.00     0.004 C 
ENDBRANCH  16  17
ENDBRANCH  15  16
ENDBRANCH  14  15
ENDBRANCH  13  14
ENDBRANCH  12  13
ENDBRANCH  11  12
ENDBRANCH   1  11
TORSDOF 14
ENDMDL
MODEL 2
REMARK VINA RESULT:    -4.081      3.821      8.140
REMARK INTER + INTRA:          -8.190
REMARK INTER:                  -7.258
REMARK INTRA:                  -0.933
REMARK UNBOUND:                -0.769
REMARK SMILES CCCCCCCCCCCCCCCC(=O)[O-]
REMARK SMILES IDX 9 1 10 2 11 3 12 4 13 5 14 6 15 7 16 8 17 9 18 10 8 11 7 12
REMARK SMILES IDX 6 13 5 14 4 15 3 16 2 17 1 18
REMARK H PARENT
REMARK Flexibility Score: inf
ROOT
ATOM      1  C   UNL     1      32.340  -0.203  42.793  1.00  0.00     0.000 C 
ENDROOT
BRANCH   1   2
ATOM      2  C   UNL     1      31.007  -0.740  42.228  1.00  0.00     0.000 C 
BRANCH   2   3
ATOM      3  C   UNL     1      30.148  -1.432  43.300  1.00  0.00     0.000 C 
BRANCH   3   4
ATOM      4  C   UNL     1      30.840  -1.501  44.673  1.00  0.00     0.000 C 
BRANCH   4   5
ATOM      5  C   UNL     1      30.399  -2.676  45.564  1.00  0.00     0.000 C 
BRANCH   5   6
ATOM      6  C   UNL     1      29.067  -3.303  45.115  1.00  0.00     0.006 C 
BRANCH   6   7
ATOM      7  C   UNL     1      28.233  -3.800  46.303  1.00  0.00     0.053 C 
BRANCH   7   8
ATOM      8  C   UNL     1      27.233  -2.775  46.742  1.00  0.00     0.041 C 
ATOM      9  O   UNL     1      27.225  -1.630  46.215  1.00  0.00    -0.550 OA
ATOM     10  O   UNL     1      26.333  -3.071  47.758  1.00  0.00    -0.550 OA
ENDBRANCH   7   8
ENDBRANCH   6   7
ENDBRANCH   5   6
ENDBRANCH   4   5
ENDBRANCH   3   4
ENDBRANCH   2   3
ENDBRANCH   1   2
BRANCH   1  11
ATOM     11  C   UNL     1      33.556  -0.482  41.888  1.00  0.00     0.000 C 
BRANCH  11  12
ATOM     12  C   UNL     1      34.807   0.363  42.195  1.00  0.00    -0.000 C 
BRANCH  12  13
ATOM     13  C   UNL     1      36.143  -0.392  42.072  1.00  0.00    -0.000 C 
BRANCH  13  14
ATOM     14  C   UNL     1      36.574  -1.064  43.387  1.00  0.00    -0.000 C 
BRANCH  14  15
ATOM     15  C   UNL     1      37.608  -2.184  43.174  1.00  0.00    -0.000 C 
BRANCH  15  16
ATOM     16  C   UNL     1      37.170  -3.573  43.676  1.00  0.00    -0.000 C 
BRANCH  16  17
ATOM     17  C   UNL     1      35.893  -4.083  42.994  1.00  0.00    -0.003 C 
ATOM     18  C   UNL     1      34.775  -4.298  44.011  1.00  0.00     0.004 C 
ENDBRANCH  16  17
ENDBRANCH  15  16
ENDBRANCH  14  15
ENDBRANCH  13  14
ENDBRANCH  12  13
ENDBRANCH  11  12
ENDBRANCH   1  11
TORSDOF 14
ENDMDL
MODEL 3
REMARK VINA RESULT:    -4.069      3.913      8.551
REMARK INTER + INTRA:          -8.168
REMARK INTER:                  -7.440
REMARK INTRA:                  -0.729
REMARK UNBOUND:                -0.769
REMARK SMILES CCCCCCCCCCCCCCCC(=O)[O-]
REMARK SMILES IDX 9 1 10 2 11 3 12 4 13 5 14 6 15 7 16 8 17 9 18 10 8 11 7 12
REMARK SMILES IDX 6 13 5 14 4 15 3 16 2 17 1 18
REMARK H PARENT
REMARK Flexibility Score: inf
ROOT
ATOM      1  C   UNL     1      31.891  -0.786  43.102  1.00  0.00     0.000 C 
ENDROOT
BRANCH   1   2
ATOM      2  C   UNL     1      30.912  -0.656  41.916  1.00  0.00     0.000 C 
BRANCH   2   3
ATOM      3  C   UNL     1      29.468  -1.026  42.300  1.00  0.00     0.000 C 
BRANCH   3   4
ATOM      4  C   UNL     1      29.383  -1.843  43.601  1.00  0.00     0.000 C 
BRANCH   4   5
ATOM      5  C   UNL     1      28.463  -1.248  44.682  1.00  0.00     0.000 C 
BRANCH   5   6
ATOM      6  C   UNL     1      28.785  -1.764  46.095  1.00  0.00     0.006 C 
BRANCH   6   7
ATOM      7  C   UNL     1      28.458  -3.254  46.255  1.00  0.00     0.053 C 
BRANCH   7   8
ATOM      8  C   UNL     1      27.197  -3.462  47.036  1.00  0.00     0.041 C 
ATOM      9  O   UNL     1      26.372  -2.519  47.171  1.00  0.00    -0.550 OA
ATOM     10  O   UNL     1      26.948  -4.686  47.644  1.00  0.00    -0.550 OA
ENDBRANCH   7   8
ENDBRANCH   6   7
ENDBRANCH   5   6
ENDBRANCH   4   5
ENDBRANCH   3   4
ENDBRANCH   2   3
ENDBRANCH   1   2
BRANCH   1  11
ATOM     11  C   UNL     1      33.149   0.096  42.970  1.00  0.00     0.000 C 
BRANCH  11  12
ATOM     12  C   UNL     1      34.348  -0.575  42.273  1.00  0.00    -0.000 C 
BRANCH  12  13
ATOM     13  C   UNL     1      35.727  -0.156  42.814  1.00  0.00    -0.000 C 
BRANCH  13  14
ATOM     14  C   UNL     1      36.682  -1.347  43.003  1.00  0.00    -0.000 C 
BRANCH  14  15
ATOM     15  C   UNL     1      35.946  -2.696  43.082  1.00  0.00    -0.000 C 
BRANCH  15  16
ATOM     16  C   UNL     1      36.772  -3.850  43.681  1.00  0.00    -0.000 C 
BRANCH  16  17
ATOM     17  C   UNL     1      38.284  -3.587  43.650  1.00  0.00    -0.003 C 
ATOM     18  C   UNL     1      39.070  -4.894  43.639  1.00  0.00     0.004 C 
ENDBRANCH  16  17
ENDBRANCH  15  16
ENDBRANCH  14  15
ENDBRANCH  13  14
ENDBRANCH  12  13
ENDBRANCH  11  12
ENDBRANCH   1  11
TORSDOF 14
ENDMDL
MODEL 4
REMARK VINA RESULT:    -3.993      1.444      2.650
REMARK INTER + INTRA:          -8.030
REMARK INTER:                  -7.163
REMARK INTRA:                  -0.867
REMARK UNBOUND:                -0.769
REMARK SMILES CCCCCCCCCCCCCCCC(=O)[O-]
REMARK SMILES IDX 9 1 10 2 11 3 12 4 13 5 14 6 15 7 16 8 17 9 18 10 8 11 7 12
REMARK SMILES IDX 6 13 5 14 4 15 3 16 2 17 1 18
REMARK H PARENT
REMARK Flexibility Score: inf
ROOT
ATOM      1  C   UNL     1      33.996  -0.686  42.363  1.00  0.00     0.000 C 
ENDROOT
BRANCH   1   2
ATOM      2  C   UNL     1      35.288  -0.004  42.863  1.00  0.00     0.000 C 
BRANCH   2   3
ATOM      3  C   UNL     1      36.560  -0.688  42.331  1.00  0.00     0.000 C 
BRANCH   3   4
ATOM      4  C   UNL     1      37.456  -1.244  43.451  1.00  0.00     0.000 C 
BRANCH   4   5
ATOM      5  C   UNL     1      38.520  -2.256  42.988  1.00  0.00     0.000 C 
BRANCH   5   6
ATOM      6  C   UNL     1      37.964  -3.681  42.829  1.00  0.00     0.006 C 
BRANCH   6   7
ATOM      7  C   UNL     1      36.924  -4.020  43.905  1.00  0.00     0.053 C 
BRANCH   7   8
ATOM      8  C   UNL     1      35.543  -4.106  43.331  1.00  0.00     0.041 C 
ATOM      9  O   UNL     1      35.348  -3.859  42.111  1.00  0.00    -0.550 OA
ATOM     10  O   UNL     1      34.468  -4.425  44.150  1.00  0.00    -0.550 OA
ENDBRANCH   7   8
ENDBRANCH   6   7
ENDBRANCH   5   6
ENDBRANCH   4   5
ENDBRANCH   3   4
ENDBRANCH   2   3
ENDBRANCH   1   2
BRANCH   1  11
ATOM     11  C   UNL     1      32.725   0.160  42.576  1.00  0.00     0.000 C 
BRANCH  11  12
ATOM     12  C   UNL     1      31.439  -0.426  41.963  1.00  0.00    -0.000 C 
BRANCH  12  13
ATOM     13  C   UNL     1      30.527  -1.166  42.958  1.00  0.00    -0.000 C 
BRANCH  13  14
ATOM     14  C   UNL     1      31.251  -1.559  44.257  1.00  0.00    -0.000 C 
BRANCH  14  15
ATOM     15  C   UNL     1      30.533  -1.050  45.519  1.00  0.00    -0.000 C 
BRANCH  15  16
ATOM     16  C   UNL     1      29.052  -1.458  45.631  1.00  0.00    -0.000 C 
BRANCH  16  17
ATOM     17  C   UNL     1      28.851  -2.805  46.340  1.00  0.00    -0.003 C 
ATOM     18  C   UNL     1      28.811  -3.954  45.337  1.00  0.00     0.004 C 
ENDBRANCH  16  17
ENDBRANCH  15  16
ENDBRANCH  14  15
ENDBRANCH  13  14
ENDBRANCH  12  13
ENDBRANCH  11  12
ENDBRANCH   1  11
TORSDOF 14
ENDMDL
MODEL 5
REMARK VINA RESULT:    -3.800      1.582      2.336
REMARK INTER + INTRA:          -7.679
REMARK INTER:                  -6.425
REMARK INTRA:                  -1.254
REMARK UNBOUND:                -0.769
REMARK SMILES CCCCCCCCCCCCCCCC(=O)[O-]
REMARK SMILES IDX 9 1 10 2 11 3 12 4 13 5 14 6 15 7 16 8 17 9 18 10 8 11 7 12
REMARK SMILES IDX 6 13 5 14 4 15 3 16 2 17 1 18
REMARK H PARENT
REMARK Flexibility Score: inf
ROOT
ATOM      1  C   UNL     1      31.820  -0.731  42.590  1.00  0.00     0.000 C 
ENDROOT
BRANCH   1   2
ATOM      2  C   UNL     1      32.990   0.113  42.041  1.00  0.00     0.000 C 
BRANCH   2   3
ATOM      3  C   UNL     1      34.315  -0.668  42.004  1.00  0.00     0.000 C 
BRANCH   3   4
ATOM      4  C   UNL     1      35.417  -0.024  42.862  1.00  0.00     0.000 C 
BRANCH   4   5
ATOM      5  C   UNL     1      36.531  -0.985  43.315  1.00  0.00     0.000 C 
BRANCH   5   6
ATOM      6  C   UNL     1      36.633  -2.243  42.436  1.00  0.00     0.006 C 
BRANCH   6   7
ATOM      7  C   UNL     1      37.992  -2.941  42.579  1.00  0.00     0.053 C 
BRANCH   7   8
ATOM      8  C   UNL     1      37.916  -4.109  43.514  1.00  0.00     0.041 C 
ATOM      9  O   UNL     1      36.852  -4.349  44.143  1.00  0.00    -0.550 OA
ATOM     10  O   UNL     1      39.032  -4.912  43.716  1.00  0.00    -0.550 OA
ENDBRANCH   7   8
ENDBRANCH   6   7
ENDBRANCH   5   6
ENDBRANCH   4   5
ENDBRANCH   3   4
ENDBRANCH   2   3
ENDBRANCH   1   2
BRANCH   1  11
ATOM     11  C   UNL     1      30.475  -0.461  41.887  1.00  0.00     0.000 C 
BRANCH  11  12
ATOM     12  C   UNL     1      29.364  -1.486  42.183  1.00  0.00    -0.000 C 
BRANCH  12  13
ATOM     13  C   UNL     1      28.278  -0.999  43.159  1.00  0.00    -0.000 C 
BRANCH  13  14
ATOM     14  C   UNL     1      28.265  -1.784  44.481  1.00  0.00    -0.000 C 
BRANCH  14  15
ATOM     15  C   UNL     1      29.073  -1.093  45.594  1.00  0.00    -0.000 C 
BRANCH  15  16
ATOM     16  C   UNL     1      30.383  -1.805  45.981  1.00  0.00    -0.000 C 
BRANCH  16  17
ATOM     17  C   UNL     1      30.601  -3.119  45.218  1.00  0.00    -0.003 C 
ATOM     18  C   UNL     1      32.083  -3.476  45.149  1.00  0.00     0.004 C 
ENDBRANCH  16  17
ENDBRANCH  15  16
ENDBRANCH  14  15
ENDBRANCH  13  14
ENDBRANCH  12  13
ENDBRANCH  11  12
ENDBRANCH   1  11
TORSDOF 14
ENDMDL
MODEL 6
REMARK VINA RESULT:    -3.799      3.188      7.896
REMARK INTER + INTRA:          -7.678
REMARK INTER:                  -7.136
REMARK INTRA:                  -0.542
REMARK UNBOUND:                -0.769
REMARK SMILES CCCCCCCCCCCCCCCC(=O)[O-]
REMARK SMILES IDX 9 1 10 2 11 3 12 4 13 5 14 6 15 7 16 8 17 9 18 10 8 11 7 12
REMARK SMILES IDX 6 13 5 14 4 15 3 16 2 17 1 18
REMARK H PARENT
REMARK Flexibility Score: inf
ROOT
ATOM      1  C   UNL     1      31.950  -0.749  42.964  1.00  0.00     0.000 C 
ENDROOT
BRANCH   1   2
ATOM      2  C   UNL     1      30.883  -0.446  41.890  1.00  0.00     0.000 C 
BRANCH   2   3
ATOM      3  C   UNL     1      29.669  -1.388  41.983  1.00  0.00     0.000 C 
BRANCH   3   4
ATOM      4  C   UNL     1      28.544  -0.831  42.873  1.00  0.00     0.000 C 
BRANCH   4   5
ATOM      5  C   UNL     1      28.341  -1.579  44.203  1.00  0.00     0.000 C 
BRANCH   5   6
ATOM      6  C   UNL     1      29.308  -1.116  45.307  1.00  0.00     0.006 C 
BRANCH   6   7
ATOM      7  C   UNL     1      29.666  -2.250  46.276  1.00  0.00     0.053 C 
BRANCH   7   8
ATOM      8  C   UNL     1      28.712  -3.400  46.157  1.00  0.00     0.041 C 
ATOM      9  O   UNL     1      28.927  -4.316  45.320  1.00  0.00    -0.550 OA
ATOM     10  O   UNL     1      27.569  -3.441  46.945  1.00  0.00    -0.550 OA
ENDBRANCH   7   8
ENDBRANCH   6   7
ENDBRANCH   5   6
ENDBRANCH   4   5
ENDBRANCH   3   4
ENDBRANCH   2   3
ENDBRANCH   1   2
BRANCH   1  11
ATOM     11  C   UNL     1      33.171   0.191  42.909  1.00  0.00     0.000 C 
BRANCH  11  12
ATOM     12  C   UNL     1      34.397  -0.374  42.167  1.00  0.00    -0.000 C 
BRANCH  12  13
ATOM     13  C   UNL     1      35.699  -0.394  42.988  1.00  0.00    -0.000 C 
BRANCH  13  14
ATOM     14  C   UNL     1      36.778  -1.303  42.377  1.00  0.00    -0.000 C 
BRANCH  14  15
ATOM     15  C   UNL     1      37.703  -1.928  43.436  1.00  0.00    -0.000 C 
BRANCH  15  16
ATOM     16  C   UNL     1      37.803  -3.464  43.384  1.00  0.00    -0.000 C 
BRANCH  16  17
ATOM     17  C   UNL     1      36.543  -4.129  42.810  1.00  0.00    -0.003 C 
ATOM     18  C   UNL     1      35.389  -4.070  43.805  1.00  0.00     0.004 C 
ENDBRANCH  16  17
ENDBRANCH  15  16
ENDBRANCH  14  15
ENDBRANCH  13  14
ENDBRANCH  12  13
ENDBRANCH  11  12
ENDBRANCH   1  11
TORSDOF 14
ENDMDL
MODEL 7
REMARK VINA RESULT:    -3.665      3.229      7.878
REMARK INTER + INTRA:          -7.433
REMARK INTER:                  -6.531
REMARK INTRA:                  -0.902
REMARK UNBOUND:                -0.769
REMARK SMILES CCCCCCCCCCCCCCCC(=O)[O-]
REMARK SMILES IDX 9 1 10 2 11 3 12 4 13 5 14 6 15 7 16 8 17 9 18 10 8 11 7 12
REMARK SMILES IDX 6 13 5 14 4 15 3 16 2 17 1 18
REMARK H PARENT
REMARK Flexibility Score: inf
ROOT
ATOM      1  C   UNL     1      34.624  -0.300  41.996  1.00  0.00     0.000 C 
ENDROOT
BRANCH   1   2
ATOM      2  C   UNL     1      33.294   0.484  42.010  1.00  0.00     0.000 C 
BRANCH   2   3
ATOM      3  C   UNL     1      32.085  -0.412  42.330  1.00  0.00     0.000 C 
BRANCH   3   4
ATOM      4  C   UNL     1      32.149  -1.026  43.740  1.00  0.00     0.000 C 
BRANCH   4   5
ATOM      5  C   UNL     1      30.841  -1.681  44.221  1.00  0.00     0.000 C 
BRANCH   5   6
ATOM      6  C   UNL     1      30.333  -1.100  45.553  1.00  0.00     0.006 C 
BRANCH   6   7
ATOM      7  C   UNL     1      29.930  -2.197  46.546  1.00  0.00     0.053 C 
BRANCH   7   8
ATOM      8  C   UNL     1      28.737  -2.965  46.066  1.00  0.00     0.041 C 
ATOM      9  O   UNL     1      27.578  -2.495  46.219  1.00  0.00    -0.550 OA
ATOM     10  O   UNL     1      28.902  -4.215  45.482  1.00  0.00    -0.550 OA
ENDBRANCH   7   8
ENDBRANCH   6   7
ENDBRANCH   5   6
ENDBRANCH   4   5
ENDBRANCH   3   4
ENDBRANCH   2   3
ENDBRANCH   1   2
BRANCH   1  11
ATOM     11  C   UNL     1      35.528  -0.012  43.211  1.00  0.00     0.000 C 
BRANCH  11  12
ATOM     12  C   UNL     1      36.810  -0.862  43.289  1.00  0.00    -0.000 C 
BRANCH  12  13
ATOM     13  C   UNL     1      37.266  -1.470  41.950  1.00  0.00    -0.000 C 
BRANCH  13  14
ATOM     14  C   UNL     1      38.569  -2.277  42.072  1.00  0.00    -0.000 C 
BRANCH  14  15
ATOM     15  C   UNL     1      38.330  -3.797  42.099  1.00  0.00    -0.000 C 
BRANCH  15  16
ATOM     16  C   UNL     1      36.859  -4.219  42.274  1.00  0.00    -0.000 C 
BRANCH  16  17
ATOM     17  C   UNL     1      36.429  -4.303  43.746  1.00  0.00    -0.003 C 
ATOM     18  C   UNL     1      34.918  -4.146  43.887  1.00  0.00     0.004 C 
ENDBRANCH  16  17
ENDBRANCH  15  16
ENDBRANCH  14  15
ENDBRANCH  13  14
ENDBRANCH  12  13
ENDBRANCH  11  12
ENDBRANCH   1  11
TORSDOF 14
ENDMDL
MODEL 8
REMARK VINA RESULT:    -3.474      2.364      7.468
REMARK INTER + INTRA:          -7.087
REMARK INTER:                  -6.110
REMARK INTRA:                  -0.977
REMARK UNBOUND:                -0.769
REMARK SMILES CCCCCCCCCCCCCCCC(=O)[O-]
REMARK SMILES IDX 9 1 10 2 11 3 12 4 13 5 14 6 15 7 16 8 17 9 18 10 8 11 7 12
REMARK SMILES IDX 6 13 5 14 4 15 3 16 2 17 1 18
REMARK H PARENT
REMARK Flexibility Score: inf
ROOT
ATOM      1  C   UNL     1      31.024  -0.168  41.891  1.00  0.00     0.000 C 
ENDROOT
BRANCH   1   2
ATOM      2  C   UNL     1      29.873  -1.196  41.875  1.00  0.00     0.000 C 
BRANCH   2   3
ATOM      3  C   UNL     1      28.654  -0.729  42.690  1.00  0.00     0.000 C 
BRANCH   3   4
ATOM      4  C   UNL     1      28.231  -1.740  43.770  1.00  0.00     0.000 C 
BRANCH   4   5
ATOM      5  C   UNL     1      28.146  -1.167  45.197  1.00  0.00     0.000 C 
BRANCH   5   6
ATOM      6  C   UNL     1      29.011  -1.941  46.207  1.00  0.00     0.006 C 
BRANCH   6   7
ATOM      7  C   UNL     1      30.501  -1.900  45.845  1.00  0.00     0.053 C 
BRANCH   7   8
ATOM      8  C   UNL     1      30.982  -3.222  45.332  1.00  0.00     0.041 C 
ATOM      9  O   UNL     1      32.172  -3.355  44.941  1.00  0.00    -0.550 OA
ATOM     10  O   UNL     1      30.107  -4.298  45.252  1.00  0.00    -0.550 OA
ENDBRANCH   7   8
ENDBRANCH   6   7
ENDBRANCH   5   6
ENDBRANCH   4   5
ENDBRANCH   3   4
ENDBRANCH   2   3
ENDBRANCH   1   2
BRANCH   1  11
ATOM     11  C   UNL     1      32.326  -0.703  42.522  1.00  0.00     0.000 C 
BRANCH  11  12
ATOM     12  C   UNL     1      33.331   0.378  42.961  1.00  0.00    -0.000 C 
BRANCH  12  13
ATOM     13  C   UNL     1      34.605   0.464  42.101  1.00  0.00    -0.000 C 
BRANCH  13  14
ATOM     14  C   UNL     1      35.471  -0.805  42.186  1.00  0.00    -0.000 C 
BRANCH  14  15
ATOM     15  C   UNL     1      36.478  -0.763  43.349  1.00  0.00    -0.000 C 
BRANCH  15  16
ATOM     16  C   UNL     1      37.524  -1.895  43.341  1.00  0.00    -0.000 C 
BRANCH  16  17
ATOM     17  C   UNL     1      36.918  -3.275  43.634  1.00  0.00    -0.003 C 
ATOM     18  C   UNL     1      37.900  -4.390  43.289  1.00  0.00     0.004 C 
ENDBRANCH  16  17
ENDBRANCH  15  16
ENDBRANCH  14  15
ENDBRANCH  13  14
ENDBRANCH  12  13
ENDBRANCH  11  12
ENDBRANCH   1  11
TORSDOF 14
ENDMDL
