MODEL 1
REMARK VINA RESULT:    -1.908      0.000      0.000
REMARK INTER + INTRA:          -6.704
REMARK INTER:                  -3.694
REMARK INTRA:                  -3.010
REMARK UNBOUND:                -3.010
REMARK SMILES CCCCCCCCCCCCCCCCCC(=O)[O-]
REMARK SMILES IDX 10 1 11 2 12 3 13 4 14 5 15 6 16 7 17 8 18 9 19 10 20 11
REMARK SMILES IDX 9 12 8 13 7 14 6 15 5 16 4 17 3 18 2 19 1 20
REMARK H PARENT
REMARK Flexibility Score: inf
ROOT
ATOM      1  C   UNL     1     175.954 204.167 198.978  1.00  0.00     0.000 C 
ENDROOT
BRANCH   1   2
ATOM      2  C   UNL     1     177.143 204.283 199.947  1.00  0.00     0.000 C 
BRANCH   2   3
ATOM      3  C   UNL     1     176.709 204.697 201.363  1.00  0.00     0.000 C 
BRANCH   3   4
ATOM      4  C   UNL     1     177.367 206.011 201.819  1.00  0.00     0.000 C 
BRANCH   4   5
ATOM      5  C   UNL     1     176.501 207.242 201.504  1.00  0.00     0.000 C 
BRANCH   5   6
ATOM      6  C   UNL     1     177.110 208.125 200.400  1.00  0.00     0.000 C 
BRANCH   6   7
ATOM      7  C   UNL     1     178.551 207.722 200.050  1.00  0.00     0.006 C 
BRANCH   7   8
ATOM      8  C   UNL     1     178.711 207.327 198.576  1.00  0.00     0.053 C 
BRANCH   8   9
ATOM      9  C   UNL     1     180.047 206.694 198.347  1.00  0.00     0.041 C 
ATOM     10  O   UNL     1     181.085 207.207 198.842  1.00  0.00    -0.550 OA
ATOM     11  O   UNL     1     180.154 205.568 197.540  1.00  0.00    -0.550 OA
ENDBRANCH   8   9
ENDBRANCH   7   8
ENDBRANCH   6   7
ENDBRANCH   5   6
ENDBRANCH   4   5
ENDBRANCH   3   4
ENDBRANCH   2   3
ENDBRANCH   1   2
BRANCH   1  12
ATOM     12  C   UNL     1     175.793 205.411 198.089  1.00  0.00     0.000 C 
BRANCH  12  13
ATOM     13  C   UNL     1     174.523 205.354 197.222  1.00  0.00    -0.000 C 
BRANCH  13  14
ATOM     14  C   UNL     1     173.733 206.673 197.241  1.00  0.00    -0.000 C 
BRANCH  14  15
ATOM     15  C   UNL     1     174.396 207.752 198.112  1.00  0.00    -0.000 C 
BRANCH  15  16
ATOM     16  C   UNL     1     173.540 208.056 199.351  1.00  0.00    -0.000 C 
BRANCH  16  17
ATOM     17  C   UNL     1     172.132 207.445 199.264  1.00  0.00    -0.000 C 
BRANCH  17  18
ATOM     18  C   UNL     1     171.846 206.454 200.407  1.00  0.00    -0.000 C 
BRANCH  18  19
ATOM     19  C   UNL     1     173.104 205.694 200.856  1.00  0.00    -0.003 C 
ATOM     20  C   UNL     1     173.229 205.606 202.378  1.00  0.00     0.004 C 
ENDBRANCH  18  19
ENDBRANCH  17  18
ENDBRANCH  16  17
ENDBRANCH  15  16
ENDBRANCH  14  15
ENDBRANCH  13  14
ENDBRANCH  12  13
ENDBRANCH   1  12
TORSDOF 16
ENDMDL
MODEL 2
REMARK VINA RESULT:    -1.900      1.785      3.619
REMARK INTER + INTRA:          -6.688
REMARK INTER:                  -4.030
REMARK INTRA:                  -2.658
REMARK UNBOUND:                -3.010
REMARK SMILES CCCCCCCCCCCCCCCCCC(=O)[O-]
REMARK SMILES IDX 10 1 11 2 12 3 13 4 14 5 15 6 16 7 17 8 18 9 19 10 20 11
REMARK SMILES IDX 9 12 8 13 7 14 6 15 5 16 4 17 3 18 2 19 1 20
REMARK H PARENT
REMARK Flexibility Score: inf
ROOT
ATOM      1  C   UNL     1     177.363 204.347 200.393  1.00  0.00     0.000 C 
ENDROOT
BRANCH   1   2
ATOM      2  C   UNL     1     178.751 203.704 200.561  1.00  0.00     0.000 C 
BRANCH   2   3
ATOM      3  C   UNL     1     179.343 203.942 201.959  1.00  0.00     0.000 C 
BRANCH   3   4
ATOM      4  C   UNL     1     179.940 205.352 202.114  1.00  0.00     0.000 C 
BRANCH   4   5
ATOM      5  C   UNL     1     181.001 205.662 201.046  1.00  0.00     0.000 C 
BRANCH   5   6
ATOM      6  C   UNL     1     180.786 207.034 200.381  1.00  0.00     0.000 C 
BRANCH   6   7
ATOM      7  C   UNL     1     179.523 207.074 199.506  1.00  0.00     0.006 C 
BRANCH   7   8
ATOM      8  C   UNL     1     179.842 207.022 198.006  1.00  0.00     0.053 C 
BRANCH   8   9
ATOM      9  C   UNL     1     179.778 205.613 197.507  1.00  0.00     0.041 C 
ATOM     10  O   UNL     1     178.688 205.135 197.098  1.00  0.00    -0.550 OA
ATOM     11  O   UNL     1     180.910 204.810 197.546  1.00  0.00    -0.550 OA
ENDBRANCH   8   9
ENDBRANCH   7   8
ENDBRANCH   6   7
ENDBRANCH   5   6
ENDBRANCH   4   5
ENDBRANCH   3   4
ENDBRANCH   2   3
ENDBRANCH   1   2
BRANCH   1  12
ATOM     12  C   UNL     1     176.543 204.330 201.693  1.00  0.00     0.000 C 
BRANCH  12  13
ATOM     13  C   UNL     1     175.758 205.636 201.910  1.00  0.00    -0.000 C 
BRANCH  13  14
ATOM     14  C   UNL     1     176.674 206.866 202.017  1.00  0.00    -0.000 C 
BRANCH  14  15
ATOM     15  C   UNL     1     176.060 208.124 201.384  1.00  0.00    -0.000 C 
BRANCH  15  16
ATOM     16  C   UNL     1     174.653 207.832 200.840  1.00  0.00    -0.000 C 
BRANCH  16  17
ATOM     17  C   UNL     1     174.527 208.125 199.336  1.00  0.00    -0.000 C 
BRANCH  17  18
ATOM     18  C   UNL     1     175.131 207.010 198.463  1.00  0.00    -0.000 C 
BRANCH  18  19
ATOM     19  C   UNL     1     176.239 207.527 197.532  1.00  0.00    -0.003 C 
ATOM     20  C   UNL     1     175.689 208.122 196.235  1.00  0.00     0.004 C 
ENDBRANCH  18  19
ENDBRANCH  17  18
ENDBRANCH  16  17
ENDBRANCH  15  16
ENDBRANCH  14  15
ENDBRANCH  13  14
ENDBRANCH  12  13
ENDBRANCH   1  12
TORSDOF 16
ENDMDL
MODEL 3
REMARK VINA RESULT:    -1.865      2.143      4.916
REMARK INTER + INTRA:          -6.619
REMARK INTER:                  -3.830
REMARK INTRA:                  -2.789
REMARK UNBOUND:                -3.010
REMARK SMILES CCCCCCCCCCCCCCCCCC(=O)[O-]
REMARK SMILES IDX 10 1 11 2 12 3 13 4 14 5 15 6 16 7 17 8 18 9 19 10 20 11
REMARK SMILES IDX 9 12 8 13 7 14 6 15 5 16 4 17 3 18 2 19 1 20
REMARK H PARENT
REMARK Flexibility Score: inf
ROOT
ATOM      1  C   UNL     1     175.825 204.676 201.036  1.00  0.00     0.000 C 
ENDROOT
BRANCH   1   2
ATOM      2  C   UNL     1     174.675 204.529 200.024  1.00  0.00     0.000 C 
BRANCH   2   3
ATOM      3  C   UNL     1     173.802 205.791 199.939  1.00  0.00     0.000 C 
BRANCH   3   4
ATOM      4  C   UNL     1     174.023 206.572 198.631  1.00  0.00     0.000 C 
BRANCH   4   5
ATOM      5  C   UNL     1     174.507 205.672 197.483  1.00  0.00     0.000 C 
BRANCH   5   6
ATOM      6  C   UNL     1     175.937 206.015 197.028  1.00  0.00     0.000 C 
BRANCH   6   7
ATOM      7  C   UNL     1     175.960 206.908 195.777  1.00  0.00     0.006 C 
BRANCH   7   8
ATOM      8  C   UNL     1     176.903 208.109 195.927  1.00  0.00     0.053 C 
BRANCH   8   9
ATOM      9  C   UNL     1     178.160 207.887 195.146  1.00  0.00     0.041 C 
ATOM     10  O   UNL     1     178.132 207.892 193.887  1.00  0.00    -0.550 OA
ATOM     11  O   UNL     1     179.351 207.619 195.808  1.00  0.00    -0.550 OA
ENDBRANCH   8   9
ENDBRANCH   7   8
ENDBRANCH   6   7
ENDBRANCH   5   6
ENDBRANCH   4   5
ENDBRANCH   3   4
ENDBRANCH   2   3
ENDBRANCH   1   2
BRANCH   1  12
ATOM     12  C   UNL     1     175.551 205.766 202.086  1.00  0.00     0.000 C 
BRANCH  12  13
ATOM     13  C   UNL     1     176.675 206.816 202.149  1.00  0.00    -0.000 C 
BRANCH  13  14
ATOM     14  C   UNL     1     176.330 208.099 201.375  1.00  0.00    -0.000 C 
BRANCH  14  15
ATOM     15  C   UNL     1     176.936 208.125 199.963  1.00  0.00    -0.000 C 
BRANCH  15  16
ATOM     16  C   UNL     1     178.434 207.785 200.004  1.00  0.00    -0.000 C 
BRANCH  16  17
ATOM     17  C   UNL     1     178.776 206.517 199.206  1.00  0.00    -0.000 C 
BRANCH  17  18
ATOM     18  C   UNL     1     179.967 205.745 199.803  1.00  0.00    -0.000 C 
BRANCH  18  19
ATOM     19  C   UNL     1     179.524 204.641 200.776  1.00  0.00    -0.003 C 
ATOM     20  C   UNL     1     179.864 204.965 202.231  1.00  0.00     0.004 C 
ENDBRANCH  18  19
ENDBRANCH  17  18
ENDBRANCH  16  17
ENDBRANCH  15  16
ENDBRANCH  14  15
ENDBRANCH  13  14
ENDBRANCH  12  13
ENDBRANCH   1  12
TORSDOF 16
ENDMDL
MODEL 4
REMARK VINA RESULT:    -1.865      2.568      5.793
REMARK INTER + INTRA:          -6.619
REMARK INTER:                  -4.099
REMARK INTRA:                  -2.519
REMARK UNBOUND:                -3.010
REMARK SMILES CCCCCCCCCCCCCCCCCC(=O)[O-]
REMARK SMILES IDX 10 1 11 2 12 3 13 4 14 5 15 6 16 7 17 8 18 9 19 10 20 11
REMARK SMILES IDX 9 12 8 13 7 14 6 15 5 16 4 17 3 18 2 19 1 20
REMARK H PARENT
REMARK Flexibility Score: inf
ROOT
ATOM      1  C   UNL     1     175.992 204.408 201.410  1.00  0.00     0.000 C 
ENDROOT
BRANCH   1   2
ATOM      2  C   UNL     1     175.528 205.600 202.265  1.00  0.00     0.000 C 
BRANCH   2   3
ATOM      3  C   UNL     1     174.374 206.378 201.613  1.00  0.00     0.000 C 
BRANCH   3   4
ATOM      4  C   UNL     1     174.762 207.825 201.264  1.00  0.00     0.000 C 
BRANCH   4   5
ATOM      5  C   UNL     1     176.241 208.125 201.557  1.00  0.00     0.000 C 
BRANCH   5   6
ATOM      6  C   UNL     1     177.139 207.929 200.322  1.00  0.00     0.000 C 
BRANCH   6   7
ATOM      7  C   UNL     1     176.337 207.878 199.012  1.00  0.00     0.006 C 
BRANCH   7   8
ATOM      8  C   UNL     1     176.367 206.492 198.355  1.00  0.00     0.053 C 
BRANCH   8   9
ATOM      9  C   UNL     1     175.090 206.233 197.621  1.00  0.00     0.041 C 
ATOM     10  O   UNL     1     174.593 207.123 196.882  1.00  0.00    -0.550 OA
ATOM     11  O   UNL     1     174.418 205.030 197.797  1.00  0.00    -0.550 OA
ENDBRANCH   8   9
ENDBRANCH   7   8
ENDBRANCH   6   7
ENDBRANCH   5   6
ENDBRANCH   4   5
ENDBRANCH   3   4
ENDBRANCH   2   3
ENDBRANCH   1   2
BRANCH   1  12
ATOM     12  C   UNL     1     177.521 204.248 201.399  1.00  0.00     0.000 C 
BRANCH  12  13
ATOM     13  C   UNL     1     178.212 205.134 202.451  1.00  0.00    -0.000 C 
BRANCH  13  14
ATOM     14  C   UNL     1     179.743 205.131 202.314  1.00  0.00    -0.000 C 
BRANCH  14  15
ATOM     15  C   UNL     1     180.214 205.452 200.887  1.00  0.00    -0.000 C 
BRANCH  15  16
ATOM     16  C   UNL     1     180.826 206.860 200.817  1.00  0.00    -0.000 C 
BRANCH  16  17
ATOM     17  C   UNL     1     181.125 207.305 199.376  1.00  0.00    -0.000 C 
BRANCH  17  18
ATOM     18  C   UNL     1     179.980 206.967 198.404  1.00  0.00    -0.000 C 
BRANCH  18  19
ATOM     19  C   UNL     1     180.486 206.341 197.094  1.00  0.00    -0.003 C 
ATOM     20  C   UNL     1     179.380 205.628 196.315  1.00  0.00     0.004 C 
ENDBRANCH  18  19
ENDBRANCH  17  18
ENDBRANCH  16  17
ENDBRANCH  15  16
ENDBRANCH  14  15
ENDBRANCH  13  14
ENDBRANCH  12  13
ENDBRANCH   1  12
TORSDOF 16
ENDMDL
MODEL 5
REMARK VINA RESULT:    -1.848      3.221      5.780
REMARK INTER + INTRA:          -6.586
REMARK INTER:                  -4.092
REMARK INTRA:                  -2.495
REMARK UNBOUND:                -3.010
REMARK SMILES CCCCCCCCCCCCCCCCCC(=O)[O-]
REMARK SMILES IDX 10 1 11 2 12 3 13 4 14 5 15 6 16 7 17 8 18 9 19 10 20 11
REMARK SMILES IDX 9 12 8 13 7 14 6 15 5 16 4 17 3 18 2 19 1 20
REMARK H PARENT
REMARK Flexibility Score: inf
ROOT
ATOM      1  C   UNL     1     177.635 204.926 201.003  1.00  0.00     0.000 C 
ENDROOT
BRANCH   1   2
ATOM      2  C   UNL     1     177.498 205.843 202.231  1.00  0.00     0.000 C 
BRANCH   2   3
ATOM      3  C   UNL     1     176.289 206.787 202.127  1.00  0.00     0.000 C 
BRANCH   3   4
ATOM      4  C   UNL     1     176.570 208.007 201.233  1.00  0.00     0.000 C 
BRANCH   4   5
ATOM      5  C   UNL     1     175.574 208.125 200.068  1.00  0.00     0.000 C 
BRANCH   5   6
ATOM      6  C   UNL     1     174.312 207.272 200.283  1.00  0.00     0.000 C 
BRANCH   6   7
ATOM      7  C   UNL     1     173.060 208.125 200.543  1.00  0.00     0.006 C 
BRANCH   7   8
ATOM      8  C   UNL     1     172.279 207.665 201.781  1.00  0.00     0.053 C 
BRANCH   8   9
ATOM      9  C   UNL     1     172.191 206.172 201.818  1.00  0.00     0.041 C 
ATOM     10  O   UNL     1     171.431 205.562 201.020  1.00  0.00    -0.550 OA
ATOM     11  O   UNL     1     172.905 205.457 202.771  1.00  0.00    -0.550 OA
ENDBRANCH   8   9
ENDBRANCH   7   8
ENDBRANCH   6   7
ENDBRANCH   5   6
ENDBRANCH   4   5
ENDBRANCH   3   4
ENDBRANCH   2   3
ENDBRANCH   1   2
BRANCH   1  12
ATOM     12  C   UNL     1     179.049 204.953 200.400  1.00  0.00     0.000 C 
BRANCH  12  13
ATOM     13  C   UNL     1     179.860 206.178 200.859  1.00  0.00    -0.000 C 
BRANCH  13  14
ATOM     14  C   UNL     1     180.005 207.239 199.756  1.00  0.00    -0.000 C 
BRANCH  14  15
ATOM     15  C   UNL     1     179.585 206.721 198.372  1.00  0.00    -0.000 C 
BRANCH  15  16
ATOM     16  C   UNL     1     178.244 207.336 197.942  1.00  0.00    -0.000 C 
BRANCH  16  17
ATOM     17  C   UNL     1     177.485 206.456 196.934  1.00  0.00    -0.000 C 
BRANCH  17  18
ATOM     18  C   UNL     1     176.454 205.534 197.612  1.00  0.00    -0.000 C 
BRANCH  18  19
ATOM     19  C   UNL     1     176.099 204.314 196.749  1.00  0.00    -0.003 C 
ATOM     20  C   UNL     1     176.613 203.001 197.342  1.00  0.00     0.004 C 
ENDBRANCH  18  19
ENDBRANCH  17  18
ENDBRANCH  16  17
ENDBRANCH  15  16
ENDBRANCH  14  15
ENDBRANCH  13  14
ENDBRANCH  12  13
ENDBRANCH   1  12
TORSDOF 16
ENDMDL
MODEL 6
REMARK VINA RESULT:    -1.846      1.951      5.691
REMARK INTER + INTRA:          -6.583
REMARK INTER:                  -3.646
REMARK INTRA:                  -2.938
REMARK UNBOUND:                -3.010
REMARK SMILES CCCCCCCCCCCCCCCCCC(=O)[O-]
REMARK SMILES IDX 10 1 11 2 12 3 13 4 14 5 15 6 16 7 17 8 18 9 19 10 20 11
REMARK SMILES IDX 9 12 8 13 7 14 6 15 5 16 4 17 3 18 2 19 1 20
REMARK H PARENT
REMARK Flexibility Score: inf
ROOT
ATOM      1  C   UNL     1     174.144 206.242 201.579  1.00  0.00     0.000 C 
ENDROOT
BRANCH   1   2
ATOM      2  C   UNL     1     174.171 207.738 201.216  1.00  0.00     0.000 C 
BRANCH   2   3
ATOM      3  C   UNL     1     173.133 208.101 200.143  1.00  0.00     0.000 C 
BRANCH   3   4
ATOM      4  C   UNL     1     173.621 207.780 198.720  1.00  0.00     0.000 C 
BRANCH   4   5
ATOM      5  C   UNL     1     175.117 208.079 198.529  1.00  0.00     0.000 C 
BRANCH   5   6
ATOM      6  C   UNL     1     175.863 206.933 197.824  1.00  0.00     0.000 C 
BRANCH   6   7
ATOM      7  C   UNL     1     175.266 205.554 198.147  1.00  0.00     0.006 C 
BRANCH   7   8
ATOM      8  C   UNL     1     176.324 204.443 198.166  1.00  0.00     0.053 C 
BRANCH   8   9
ATOM      9  C   UNL     1     176.675 204.031 196.772  1.00  0.00     0.041 C 
ATOM     10  O   UNL     1     175.792 204.015 195.875  1.00  0.00    -0.550 OA
ATOM     11  O   UNL     1     177.965 203.610 196.475  1.00  0.00    -0.550 OA
ENDBRANCH   8   9
ENDBRANCH   7   8
ENDBRANCH   6   7
ENDBRANCH   5   6
ENDBRANCH   4   5
ENDBRANCH   3   4
ENDBRANCH   2   3
ENDBRANCH   1   2
BRANCH   1  12
ATOM     12  C   UNL     1     175.545 205.677 201.861  1.00  0.00     0.000 C 
BRANCH  12  13
ATOM     13  C   UNL     1     176.644 206.750 201.755  1.00  0.00    -0.000 C 
BRANCH  13  14
ATOM     14  C   UNL     1     177.908 206.234 201.048  1.00  0.00    -0.000 C 
BRANCH  14  15
ATOM     15  C   UNL     1     178.589 207.307 200.185  1.00  0.00    -0.000 C 
BRANCH  15  16
ATOM     16  C   UNL     1     180.069 206.965 199.952  1.00  0.00    -0.000 C 
BRANCH  16  17
ATOM     17  C   UNL     1     180.505 207.181 198.494  1.00  0.00    -0.000 C 
BRANCH  17  18
ATOM     18  C   UNL     1     179.470 206.654 197.483  1.00  0.00    -0.000 C 
BRANCH  18  19
ATOM     19  C   UNL     1     179.507 207.419 196.150  1.00  0.00    -0.003 C 
ATOM     20  C   UNL     1     178.573 206.818 195.099  1.00  0.00     0.004 C 
ENDBRANCH  18  19
ENDBRANCH  17  18
ENDBRANCH  16  17
ENDBRANCH  15  16
ENDBRANCH  14  15
ENDBRANCH  13  14
ENDBRANCH  12  13
ENDBRANCH   1  12
TORSDOF 16
ENDMDL
MODEL 7
REMARK VINA RESULT:    -1.803      2.749      5.322
REMARK INTER + INTRA:          -6.500
REMARK INTER:                  -3.526
REMARK INTRA:                  -2.974
REMARK UNBOUND:                -3.010
REMARK SMILES CCCCCCCCCCCCCCCCCC(=O)[O-]
REMARK SMILES IDX 10 1 11 2 12 3 13 4 14 5 15 6 16 7 17 8 18 9 19 10 20 11
REMARK SMILES IDX 9 12 8 13 7 14 6 15 5 16 4 17 3 18 2 19 1 20
REMARK H PARENT
REMARK Flexibility Score: inf
ROOT
ATOM      1  C   UNL     1     178.014 204.733 201.045  1.00  0.00     0.000 C 
ENDROOT
BRANCH   1   2
ATOM      2  C   UNL     1     177.750 205.595 202.293  1.00  0.00     0.000 C 
BRANCH   2   3
ATOM      3  C   UNL     1     176.405 206.336 202.222  1.00  0.00     0.000 C 
BRANCH   3   4
ATOM      4  C   UNL     1     176.556 207.782 201.719  1.00  0.00     0.000 C 
BRANCH   4   5
ATOM      5  C   UNL     1     175.937 207.989 200.327  1.00  0.00     0.000 C 
BRANCH   5   6
ATOM      6  C   UNL     1     175.316 206.700 199.761  1.00  0.00     0.000 C 
BRANCH   6   7
ATOM      7  C   UNL     1     173.923 206.933 199.153  1.00  0.00     0.006 C 
BRANCH   7   8
ATOM      8  C   UNL     1     173.663 206.058 197.920  1.00  0.00     0.053 C 
BRANCH   8   9
ATOM      9  C   UNL     1     173.751 206.876 196.671  1.00  0.00     0.041 C 
ATOM     10  O   UNL     1     173.892 208.125 196.740  1.00  0.00    -0.550 OA
ATOM     11  O   UNL     1     173.620 206.266 195.430  1.00  0.00    -0.550 OA
ENDBRANCH   8   9
ENDBRANCH   7   8
ENDBRANCH   6   7
ENDBRANCH   5   6
ENDBRANCH   4   5
ENDBRANCH   3   4
ENDBRANCH   2   3
ENDBRANCH   1   2
BRANCH   1  12
ATOM     12  C   UNL     1     179.426 204.937 200.474  1.00  0.00     0.000 C 
BRANCH  12  13
ATOM     13  C   UNL     1     179.983 206.342 200.770  1.00  0.00    -0.000 C 
BRANCH  13  14
ATOM     14  C   UNL     1     179.653 207.354 199.661  1.00  0.00    -0.000 C 
BRANCH  14  15
ATOM     15  C   UNL     1     179.410 206.688 198.298  1.00  0.00    -0.000 C 
BRANCH  15  16
ATOM     16  C   UNL     1     178.184 207.298 197.601  1.00  0.00    -0.000 C 
BRANCH  16  17
ATOM     17  C   UNL     1     177.483 206.305 196.660  1.00  0.00    -0.000 C 
BRANCH  17  18
ATOM     18  C   UNL     1     177.224 204.941 197.325  1.00  0.00    -0.000 C 
BRANCH  18  19
ATOM     19  C   UNL     1     177.915 203.785 196.585  1.00  0.00    -0.003 C 
ATOM     20  C   UNL     1     178.501 202.741 197.537  1.00  0.00     0.004 C 
ENDBRANCH  18  19
ENDBRANCH  17  18
ENDBRANCH  16  17
ENDBRANCH  15  16
ENDBRANCH  14  15
ENDBRANCH  13  14
ENDBRANCH  12  13
ENDBRANCH   1  12
TORSDOF 16
ENDMDL
MODEL 8
REMARK VINA RESULT:    -1.792      2.345      3.571
REMARK INTER + INTRA:          -6.478
REMARK INTER:                  -3.456
REMARK INTRA:                  -3.021
REMARK UNBOUND:                -3.010
REMARK SMILES CCCCCCCCCCCCCCCCCC(=O)[O-]
REMARK SMILES IDX 10 1 11 2 12 3 13 4 14 5 15 6 16 7 17 8 18 9 19 10 20 11
REMARK SMILES IDX 9 12 8 13 7 14 6 15 5 16 4 17 3 18 2 19 1 20
REMARK H PARENT
REMARK Flexibility Score: inf
ROOT
ATOM      1  C   UNL     1     176.956 203.969 199.304  1.00  0.00     0.000 C 
ENDROOT
BRANCH   1   2
ATOM      2  C   UNL     1     178.313 204.160 200.004  1.00  0.00     0.000 C 
BRANCH   2   3
ATOM      3  C   UNL     1     179.434 204.536 199.022  1.00  0.00     0.000 C 
BRANCH   3   4
ATOM      4  C   UNL     1     180.214 205.785 199.468  1.00  0.00     0.000 C 
BRANCH   4   5
ATOM      5  C   UNL     1     180.039 206.965 198.499  1.00  0.00     0.000 C 
BRANCH   5   6
ATOM      6  C   UNL     1     181.125 207.001 197.410  1.00  0.00     0.000 C 
BRANCH   6   7
ATOM      7  C   UNL     1     180.553 207.296 196.014  1.00  0.00     0.006 C 
BRANCH   7   8
ATOM      8  C   UNL     1     179.038 207.063 195.936  1.00  0.00     0.053 C 
BRANCH   8   9
ATOM      9  C   UNL     1     178.656 206.558 194.580  1.00  0.00     0.041 C 
ATOM     10  O   UNL     1     178.463 207.366 193.635  1.00  0.00    -0.550 OA
ATOM     11  O   UNL     1     178.460 205.198 194.375  1.00  0.00    -0.550 OA
ENDBRANCH   8   9
ENDBRANCH   7   8
ENDBRANCH   6   7
ENDBRANCH   5   6
ENDBRANCH   4   5
ENDBRANCH   3   4
ENDBRANCH   2   3
ENDBRANCH   1   2
BRANCH   1  12
ATOM     12  C   UNL     1     176.844 204.780 198.003  1.00  0.00     0.000 C 
BRANCH  12  13
ATOM     13  C   UNL     1     175.736 205.847 198.070  1.00  0.00    -0.000 C 
BRANCH  13  14
ATOM     14  C   UNL     1     176.295 207.273 198.207  1.00  0.00    -0.000 C 
BRANCH  14  15
ATOM     15  C   UNL     1     175.977 207.910 199.568  1.00  0.00    -0.000 C 
BRANCH  15  16
ATOM     16  C   UNL     1     177.103 207.638 200.577  1.00  0.00    -0.000 C 
BRANCH  16  17
ATOM     17  C   UNL     1     176.596 206.972 201.867  1.00  0.00    -0.000 C 
BRANCH  17  18
ATOM     18  C   UNL     1     175.159 206.436 201.730  1.00  0.00    -0.000 C 
BRANCH  18  19
ATOM     19  C   UNL     1     175.009 205.009 202.279  1.00  0.00    -0.003 C 
ATOM     20  C   UNL     1     176.219 204.562 203.100  1.00  0.00     0.004 C 
ENDBRANCH  18  19
ENDBRANCH  17  18
ENDBRANCH  16  17
ENDBRANCH  15  16
ENDBRANCH  14  15
ENDBRANCH  13  14
ENDBRANCH  12  13
ENDBRANCH   1  12
TORSDOF 16
ENDMDL
MODEL 9
REMARK VINA RESULT:    -1.779      3.329      6.011
REMARK INTER + INTRA:          -6.453
REMARK INTER:                  -3.472
REMARK INTRA:                  -2.981
REMARK UNBOUND:                -3.010
REMARK SMILES CCCCCCCCCCCCCCCCCC(=O)[O-]
REMARK SMILES IDX 10 1 11 2 12 3 13 4 14 5 15 6 16 7 17 8 18 9 19 10 20 11
REMARK SMILES IDX 9 12 8 13 7 14 6 15 5 16 4 17 3 18 2 19 1 20
REMARK H PARENT
REMARK Flexibility Score: inf
ROOT
ATOM      1  C   UNL     1     175.860 208.125 200.718  1.00  0.00     0.000 C 
ENDROOT
BRANCH   1   2
ATOM      2  C   UNL     1     176.153 207.278 201.969  1.00  0.00     0.000 C 
BRANCH   2   3
ATOM      3  C   UNL     1     177.251 206.231 201.727  1.00  0.00     0.000 C 
BRANCH   3   4
ATOM      4  C   UNL     1     176.691 204.800 201.647  1.00  0.00     0.000 C 
BRANCH   4   5
ATOM      5  C   UNL     1     177.022 204.112 200.313  1.00  0.00     0.000 C 
BRANCH   5   6
ATOM      6  C   UNL     1     175.853 204.167 199.314  1.00  0.00     0.000 C 
BRANCH   6   7
ATOM      7  C   UNL     1     174.512 204.487 199.993  1.00  0.00     0.006 C 
BRANCH   7   8
ATOM      8  C   UNL     1     173.656 205.464 199.177  1.00  0.00     0.053 C 
BRANCH   8   9
ATOM      9  C   UNL     1     172.207 205.106 199.284  1.00  0.00     0.041 C 
ATOM     10  O   UNL     1     171.818 203.946 198.988  1.00  0.00    -0.550 OA
ATOM     11  O   UNL     1     171.278 206.069 199.656  1.00  0.00    -0.550 OA
ENDBRANCH   8   9
ENDBRANCH   7   8
ENDBRANCH   6   7
ENDBRANCH   5   6
ENDBRANCH   4   5
ENDBRANCH   3   4
ENDBRANCH   2   3
ENDBRANCH   1   2
BRANCH   1  12
ATOM     12  C   UNL     1     176.888 207.897 199.598  1.00  0.00     0.000 C 
BRANCH  12  13
ATOM     13  C   UNL     1     176.230 207.771 198.212  1.00  0.00    -0.000 C 
BRANCH  13  14
ATOM     14  C   UNL     1     177.249 207.488 197.096  1.00  0.00    -0.000 C 
BRANCH  14  15
ATOM     15  C   UNL     1     178.177 206.308 197.422  1.00  0.00    -0.000 C 
BRANCH  15  16
ATOM     16  C   UNL     1     179.634 206.642 197.062  1.00  0.00    -0.000 C 
BRANCH  16  17
ATOM     17  C   UNL     1     180.477 207.016 198.292  1.00  0.00    -0.000 C 
BRANCH  17  18
ATOM     18  C   UNL     1     180.216 206.088 199.493  1.00  0.00    -0.000 C 
BRANCH  18  19
ATOM     19  C   UNL     1     180.838 206.620 200.793  1.00  0.00    -0.003 C 
ATOM     20  C   UNL     1     180.840 205.581 201.915  1.00  0.00     0.004 C 
ENDBRANCH  18  19
ENDBRANCH  17  18
ENDBRANCH  16  17
ENDBRANCH  15  16
ENDBRANCH  14  15
ENDBRANCH  13  14
ENDBRANCH  12  13
ENDBRANCH   1  12
TORSDOF 16
ENDMDL
