MODEL 1
REMARK VINA RESULT:    -4.297      0.000      0.000
REMARK INTER + INTRA:          -5.327
REMARK INTER:                  -5.051
REMARK INTRA:                  -0.276
REMARK UNBOUND:                -0.276
REMARK SMILES O=c1c(O)c(-c2ccc(O)cc2)oc2cc(O)cc(O)c12
REMARK SMILES IDX 5 1 3 2 2 3 1 4 21 5 19 6 18 7 16 8 15 9 14 10 13 11 6 12
REMARK SMILES IDX 7 13 8 14 9 15 12 16 11 17 10 18 4 20 20 22 17 24
REMARK H PARENT 10 19 4 21 20 23 17 25
REMARK Flexibility Score: inf
ROOT
ATOM      1  C   UNL     1     -24.876  12.882 -25.940  1.00  0.00     0.180 A 
ATOM      2  C   UNL     1     -23.848  12.691 -25.000  1.00  0.00     0.208 A 
ATOM      3  C   UNL     1     -22.560  12.367 -25.456  1.00  0.00     0.238 A 
ATOM      4  O   UNL     1     -21.657  12.143 -24.609  1.00  0.00    -0.285 OA
ATOM      5  C   UNL     1     -22.312  12.256 -26.846  1.00  0.00     0.111 A 
ATOM      6  C   UNL     1     -21.037  11.972 -27.421  1.00  0.00     0.134 A 
ATOM      7  C   UNL     1     -20.935  11.757 -28.801  1.00  0.00     0.093 A 
ATOM      8  C   UNL     1     -22.050  11.878 -29.634  1.00  0.00     0.123 A 
ATOM      9  C   UNL     1     -23.286  12.213 -29.089  1.00  0.00     0.094 A 
ATOM     10  C   UNL     1     -23.428  12.399 -27.712  1.00  0.00     0.146 A 
ATOM     11  O   UNL     1     -24.627  12.706 -27.233  1.00  0.00    -0.452 OA
ENDROOT
BRANCH   1  12
ATOM     12  C   UNL     1     -26.253  13.251 -25.537  1.00  0.00     0.021 A 
ATOM     13  C   UNL     1     -26.623  14.605 -25.501  1.00  0.00     0.016 A 
ATOM     14  C   UNL     1     -27.910  14.978 -25.103  1.00  0.00     0.047 A 
ATOM     15  C   UNL     1     -28.839  14.000 -24.722  1.00  0.00     0.115 A 
ATOM     16  C   UNL     1     -27.184  12.277 -25.134  1.00  0.00     0.016 A 
ATOM     17  C   UNL     1     -28.471  12.651 -24.735  1.00  0.00     0.047 A 
BRANCH  15  18
ATOM     18  O   UNL     1     -30.125  14.358 -24.323  1.00  0.00    -0.508 OA
ATOM     19  H   UNL     1     -30.420  15.327 -24.295  1.00  0.00     0.293 HD
ENDBRANCH  15  18
ENDBRANCH   1  12
BRANCH   2  20
ATOM     20  O   UNL     1     -24.119  12.784 -23.632  1.00  0.00    -0.502 OA
ATOM     21  H   UNL     1     -24.722  12.128 -23.152  1.00  0.00     0.293 HD
ENDBRANCH   2  20
BRANCH   6  22
ATOM     22  O   UNL     1     -19.845  11.920 -26.691  1.00  0.00    -0.507 OA
ATOM     23  H   UNL     1     -19.135  11.212 -26.802  1.00  0.00     0.293 HD
ENDBRANCH   6  22
BRANCH   8  24
ATOM     24  O   UNL     1     -21.936  11.677 -31.007  1.00  0.00    -0.508 OA
ATOM     25  H   UNL     1     -21.719  10.765 -31.394  1.00  0.00     0.293 HD
ENDBRANCH   8  24
TORSDOF 5
ENDMDL
MODEL 2
REMARK VINA RESULT:    -4.263      2.398      7.016
REMARK INTER + INTRA:          -5.287
REMARK INTER:                  -5.303
REMARK INTRA:                   0.017
REMARK UNBOUND:                -0.276
REMARK SMILES O=c1c(O)c(-c2ccc(O)cc2)oc2cc(O)cc(O)c12
REMARK SMILES IDX 5 1 3 2 2 3 1 4 21 5 19 6 18 7 16 8 15 9 14 10 13 11 6 12
REMARK SMILES IDX 7 13 8 14 9 15 12 16 11 17 10 18 4 20 20 22 17 24
REMARK H PARENT 10 19 4 21 20 23 17 25
REMARK Flexibility Score: inf
ROOT
ATOM      1  C   UNL     1     -22.791  12.374 -27.714  1.00  0.00     0.180 A 
ATOM      2  C   UNL     1     -23.920  11.894 -28.400  1.00  0.00     0.208 A 
ATOM      3  C   UNL     1     -25.039  11.477 -27.661  1.00  0.00     0.238 A 
ATOM      4  O   UNL     1     -26.027  10.998 -28.278  1.00  0.00    -0.285 OA
ATOM      5  C   UNL     1     -25.022  11.563 -26.248  1.00  0.00     0.111 A 
ATOM      6  C   UNL     1     -26.115  11.207 -25.402  1.00  0.00     0.134 A 
ATOM      7  C   UNL     1     -25.941  11.208 -24.012  1.00  0.00     0.093 A 
ATOM      8  C   UNL     1     -24.734  11.614 -23.438  1.00  0.00     0.123 A 
ATOM      9  C   UNL     1     -23.682  12.019 -24.254  1.00  0.00     0.094 A 
ATOM     10  C   UNL     1     -23.812  11.995 -25.644  1.00  0.00     0.146 A 
ATOM     11  O   UNL     1     -22.781  12.379 -26.386  1.00  0.00    -0.452 OA
ENDROOT
BRANCH   1  12
ATOM     12  C   UNL     1     -21.583  12.854 -28.424  1.00  0.00     0.021 A 
ATOM     13  C   UNL     1     -20.315  12.422 -28.001  1.00  0.00     0.016 A 
ATOM     14  C   UNL     1     -19.160  12.879 -28.642  1.00  0.00     0.047 A 
ATOM     15  C   UNL     1     -19.258  13.787 -29.705  1.00  0.00     0.115 A 
ATOM     16  C   UNL     1     -21.672  13.780 -29.478  1.00  0.00     0.016 A 
ATOM     17  C   UNL     1     -20.515  14.238 -30.118  1.00  0.00     0.047 A 
BRANCH  15  18
ATOM     18  O   UNL     1     -18.115  14.250 -30.352  1.00  0.00    -0.508 OA
ATOM     19  H   UNL     1     -17.382  13.616 -30.649  1.00  0.00     0.293 HD
ENDBRANCH  15  18
ENDBRANCH   1  12
BRANCH   2  20
ATOM     20  O   UNL     1     -23.908  11.798 -29.794  1.00  0.00    -0.502 OA
ATOM     21  H   UNL     1     -23.059  11.634 -30.321  1.00  0.00     0.293 HD
ENDBRANCH   2  20
BRANCH   6  22
ATOM     22  O   UNL     1     -27.391  10.876 -25.870  1.00  0.00    -0.507 OA
ATOM     23  H   UNL     1     -28.253  11.107 -25.400  1.00  0.00     0.293 HD
ENDBRANCH   6  22
BRANCH   8  24
ATOM     24  O   UNL     1     -24.574  11.626 -22.054  1.00  0.00    -0.508 OA
ATOM     25  H   UNL     1     -23.803  12.113 -21.613  1.00  0.00     0.293 HD
ENDBRANCH   8  24
TORSDOF 5
ENDMDL
MODEL 3
REMARK VINA RESULT:    -4.034      2.421      6.230
REMARK INTER + INTRA:          -5.018
REMARK INTER:                  -4.847
REMARK INTRA:                  -0.171
REMARK UNBOUND:                -0.276
REMARK SMILES O=c1c(O)c(-c2ccc(O)cc2)oc2cc(O)cc(O)c12
REMARK SMILES IDX 5 1 3 2 2 3 1 4 21 5 19 6 18 7 16 8 15 9 14 10 13 11 6 12
REMARK SMILES IDX 7 13 8 14 9 15 12 16 11 17 10 18 4 20 20 22 17 24
REMARK H PARENT 10 19 4 21 20 23 17 25
REMARK Flexibility Score: inf
ROOT
ATOM      1  C   UNL     1     -24.807  12.543 -25.478  1.00  0.00     0.180 A 
ATOM      2  C   UNL     1     -24.608  12.186 -26.823  1.00  0.00     0.208 A 
ATOM      3  C   UNL     1     -25.564  12.568 -27.777  1.00  0.00     0.238 A 
ATOM      4  O   UNL     1     -25.408  12.199 -28.971  1.00  0.00    -0.285 OA
ATOM      5  C   UNL     1     -26.698  13.316 -27.379  1.00  0.00     0.111 A 
ATOM      6  C   UNL     1     -27.709  13.791 -28.267  1.00  0.00     0.134 A 
ATOM      7  C   UNL     1     -28.852  14.408 -27.745  1.00  0.00     0.093 A 
ATOM      8  C   UNL     1     -28.991  14.625 -26.372  1.00  0.00     0.123 A 
ATOM      9  C   UNL     1     -27.982  14.219 -25.503  1.00  0.00     0.094 A 
ATOM     10  C   UNL     1     -26.846  13.568 -25.989  1.00  0.00     0.146 A 
ATOM     11  O   UNL     1     -25.913  13.187 -25.125  1.00  0.00    -0.452 OA
ENDROOT
BRANCH   1  12
ATOM     12  C   UNL     1     -23.831  12.198 -24.418  1.00  0.00     0.021 A 
ATOM     13  C   UNL     1     -24.220  11.347 -23.371  1.00  0.00     0.016 A 
ATOM     14  C   UNL     1     -23.323  11.025 -22.348  1.00  0.00     0.047 A 
ATOM     15  C   UNL     1     -22.029  11.564 -22.353  1.00  0.00     0.115 A 
ATOM     16  C   UNL     1     -22.538  12.750 -24.405  1.00  0.00     0.016 A 
ATOM     17  C   UNL     1     -21.642  12.429 -23.380  1.00  0.00     0.047 A 
BRANCH  15  18
ATOM     18  O   UNL     1     -21.126  11.251 -21.339  1.00  0.00    -0.508 OA
ATOM     19  H   UNL     1     -20.288  11.802 -21.190  1.00  0.00     0.293 HD
ENDBRANCH  15  18
ENDBRANCH   1  12
BRANCH   2  20
ATOM     20  O   UNL     1     -23.492  11.429 -27.192  1.00  0.00    -0.502 OA
ATOM     21  H   UNL     1     -23.332  10.492 -26.845  1.00  0.00     0.293 HD
ENDBRANCH   2  20
BRANCH   6  22
ATOM     22  O   UNL     1     -27.626  13.707 -29.661  1.00  0.00    -0.507 OA
ATOM     23  H   UNL     1     -28.329  14.049 -30.299  1.00  0.00     0.293 HD
ENDBRANCH   6  22
BRANCH   8  24
ATOM     24  O   UNL     1     -30.125  15.253 -25.863  1.00  0.00    -0.508 OA
ATOM     25  H   UNL     1     -31.058  14.967 -26.136  1.00  0.00     0.293 HD
ENDBRANCH   8  24
TORSDOF 5
ENDMDL
MODEL 4
REMARK VINA RESULT:    -3.995      2.035      7.072
REMARK INTER + INTRA:          -4.971
REMARK INTER:                  -4.776
REMARK INTRA:                  -0.195
REMARK UNBOUND:                -0.276
REMARK SMILES O=c1c(O)c(-c2ccc(O)cc2)oc2cc(O)cc(O)c12
REMARK SMILES IDX 5 1 3 2 2 3 1 4 21 5 19 6 18 7 16 8 15 9 14 10 13 11 6 12
REMARK SMILES IDX 7 13 8 14 9 15 12 16 11 17 10 18 4 20 20 22 17 24
REMARK H PARENT 10 19 4 21 20 23 17 25
REMARK Flexibility Score: inf
ROOT
ATOM      1  C   UNL     1     -23.920  12.385 -27.846  1.00  0.00     0.180 A 
ATOM      2  C   UNL     1     -24.694  11.698 -28.796  1.00  0.00     0.208 A 
ATOM      3  C   UNL     1     -26.094  11.773 -28.716  1.00  0.00     0.238 A 
ATOM      4  O   UNL     1     -26.783  11.111 -29.536  1.00  0.00    -0.285 OA
ATOM      5  C   UNL     1     -26.701  12.549 -27.699  1.00  0.00     0.111 A 
ATOM      6  C   UNL     1     -28.109  12.730 -27.549  1.00  0.00     0.134 A 
ATOM      7  C   UNL     1     -28.602  13.412 -26.429  1.00  0.00     0.093 A 
ATOM      8  C   UNL     1     -27.735  13.975 -25.489  1.00  0.00     0.123 A 
ATOM      9  C   UNL     1     -26.358  13.856 -25.660  1.00  0.00     0.094 A 
ATOM     10  C   UNL     1     -25.837  13.150 -26.747  1.00  0.00     0.146 A 
ATOM     11  O   UNL     1     -24.518  13.050 -26.865  1.00  0.00    -0.452 OA
ENDROOT
BRANCH   1  12
ATOM     12  C   UNL     1     -22.438  12.373 -27.879  1.00  0.00     0.021 A 
ATOM     13  C   UNL     1     -21.728  11.761 -26.833  1.00  0.00     0.016 A 
ATOM     14  C   UNL     1     -20.330  11.757 -26.832  1.00  0.00     0.047 A 
ATOM     15  C   UNL     1     -19.625  12.379 -27.872  1.00  0.00     0.115 A 
ATOM     16  C   UNL     1     -21.723  13.013 -28.908  1.00  0.00     0.016 A 
ATOM     17  C   UNL     1     -20.325  13.009 -28.905  1.00  0.00     0.047 A 
BRANCH  15  18
ATOM     18  O   UNL     1     -18.232  12.382 -27.883  1.00  0.00    -0.508 OA
ATOM     19  H   UNL     1     -17.703  13.210 -27.633  1.00  0.00     0.293 HD
ENDBRANCH  15  18
ENDBRANCH   1  12
BRANCH   2  20
ATOM     20  O   UNL     1     -24.076  10.919 -29.778  1.00  0.00    -0.502 OA
ATOM     21  H   UNL     1     -23.862  11.277 -30.701  1.00  0.00     0.293 HD
ENDBRANCH   2  20
BRANCH   6  22
ATOM     22  O   UNL     1     -29.056  12.288 -28.477  1.00  0.00    -0.507 OA
ATOM     23  H   UNL     1     -29.618  11.456 -28.372  1.00  0.00     0.293 HD
ENDBRANCH   6  22
BRANCH   8  24
ATOM     24  O   UNL     1     -28.234  14.665 -24.387  1.00  0.00    -0.508 OA
ATOM     25  H   UNL     1     -28.037  14.365 -23.440  1.00  0.00     0.293 HD
ENDBRANCH   8  24
TORSDOF 5
ENDMDL
MODEL 5
REMARK VINA RESULT:    -3.819      1.917      6.602
REMARK INTER + INTRA:          -4.765
REMARK INTER:                  -4.929
REMARK INTRA:                   0.165
REMARK UNBOUND:                -0.276
REMARK SMILES O=c1c(O)c(-c2ccc(O)cc2)oc2cc(O)cc(O)c12
REMARK SMILES IDX 5 1 3 2 2 3 1 4 21 5 19 6 18 7 16 8 15 9 14 10 13 11 6 12
REMARK SMILES IDX 7 13 8 14 9 15 12 16 11 17 10 18 4 20 20 22 17 24
REMARK H PARENT 10 19 4 21 20 23 17 25
REMARK Flexibility Score: inf
ROOT
ATOM      1  C   UNL     1     -25.051  12.691 -26.342  1.00  0.00     0.180 A 
ATOM      2  C   UNL     1     -25.793  11.955 -25.402  1.00  0.00     0.208 A 
ATOM      3  C   UNL     1     -27.165  12.218 -25.262  1.00  0.00     0.238 A 
ATOM      4  O   UNL     1     -27.814  11.594 -24.382  1.00  0.00    -0.285 OA
ATOM      5  C   UNL     1     -27.781  13.199 -26.076  1.00  0.00     0.111 A 
ATOM      6  C   UNL     1     -29.172  13.518 -26.048  1.00  0.00     0.134 A 
ATOM      7  C   UNL     1     -29.648  14.597 -26.804  1.00  0.00     0.093 A 
ATOM      8  C   UNL     1     -28.795  15.326 -27.635  1.00  0.00     0.123 A 
ATOM      9  C   UNL     1     -27.448  14.984 -27.715  1.00  0.00     0.094 A 
ATOM     10  C   UNL     1     -26.936  13.936 -26.946  1.00  0.00     0.146 A 
ATOM     11  O   UNL     1     -25.643  13.650 -27.043  1.00  0.00    -0.452 OA
ENDROOT
BRANCH   1  12
ATOM     12  C   UNL     1     -23.605  12.454 -26.564  1.00  0.00     0.021 A 
ATOM     13  C   UNL     1     -23.109  12.393 -27.877  1.00  0.00     0.016 A 
ATOM     14  C   UNL     1     -21.753  12.149 -28.111  1.00  0.00     0.047 A 
ATOM     15  C   UNL     1     -20.878  11.947 -27.035  1.00  0.00     0.115 A 
ATOM     16  C   UNL     1     -22.725  12.230 -25.490  1.00  0.00     0.016 A 
ATOM     17  C   UNL     1     -21.369  11.984 -25.726  1.00  0.00     0.047 A 
BRANCH  15  18
ATOM     18  O   UNL     1     -19.525  11.702 -27.255  1.00  0.00    -0.508 OA
ATOM     19  H   UNL     1     -19.215  10.977 -27.892  1.00  0.00     0.293 HD
ENDBRANCH  15  18
ENDBRANCH   1  12
BRANCH   2  20
ATOM     20  O   UNL     1     -25.161  11.006 -24.594  1.00  0.00    -0.502 OA
ATOM     21  H   UNL     1     -25.142  11.077 -23.584  1.00  0.00     0.293 HD
ENDBRANCH   2  20
BRANCH   6  22
ATOM     22  O   UNL     1     -30.125  12.796 -25.323  1.00  0.00    -0.507 OA
ATOM     23  H   UNL     1     -31.106  12.746 -25.554  1.00  0.00     0.293 HD
ENDBRANCH   6  22
BRANCH   8  24
ATOM     24  O   UNL     1     -29.280  16.388 -28.395  1.00  0.00    -0.508 OA
ATOM     25  H   UNL     1     -29.900  16.238 -29.182  1.00  0.00     0.293 HD
ENDBRANCH   8  24
TORSDOF 5
ENDMDL
MODEL 6
REMARK VINA RESULT:    -3.796      2.687      4.524
REMARK INTER + INTRA:          -4.738
REMARK INTER:                  -4.484
REMARK INTRA:                  -0.254
REMARK UNBOUND:                -0.276
REMARK SMILES O=c1c(O)c(-c2ccc(O)cc2)oc2cc(O)cc(O)c12
REMARK SMILES IDX 5 1 3 2 2 3 1 4 21 5 19 6 18 7 16 8 15 9 14 10 13 11 6 12
REMARK SMILES IDX 7 13 8 14 9 15 12 16 11 17 10 18 4 20 20 22 17 24
REMARK H PARENT 10 19 4 21 20 23 17 25
REMARK Flexibility Score: inf
ROOT
ATOM      1  C   UNL     1     -25.277  12.760 -26.659  1.00  0.00     0.180 A 
ATOM      2  C   UNL     1     -23.938  12.681 -27.079  1.00  0.00     0.208 A 
ATOM      3  C   UNL     1     -22.972  12.188 -26.187  1.00  0.00     0.238 A 
ATOM      4  O   UNL     1     -21.767  12.170 -26.550  1.00  0.00    -0.285 OA
ATOM      5  C   UNL     1     -23.360  11.763 -24.894  1.00  0.00     0.111 A 
ATOM      6  C   UNL     1     -22.472  11.209 -23.923  1.00  0.00     0.134 A 
ATOM      7  C   UNL     1     -22.941  10.945 -22.630  1.00  0.00     0.093 A 
ATOM      8  C   UNL     1     -24.281  11.155 -22.292  1.00  0.00     0.123 A 
ATOM      9  C   UNL     1     -25.167  11.639 -23.250  1.00  0.00     0.094 A 
ATOM     10  C   UNL     1     -24.722  11.946 -24.538  1.00  0.00     0.146 A 
ATOM     11  O   UNL     1     -25.598  12.416 -25.417  1.00  0.00    -0.452 OA
ENDROOT
BRANCH   1  12
ATOM     12  C   UNL     1     -26.356  13.245 -27.551  1.00  0.00     0.021 A 
ATOM     13  C   UNL     1     -26.909  14.518 -27.336  1.00  0.00     0.016 A 
ATOM     14  C   UNL     1     -27.943  14.989 -28.151  1.00  0.00     0.047 A 
ATOM     15  C   UNL     1     -28.446  14.184 -29.182  1.00  0.00     0.115 A 
ATOM     16  C   UNL     1     -26.880  12.437 -28.575  1.00  0.00     0.016 A 
ATOM     17  C   UNL     1     -27.915  12.908 -29.389  1.00  0.00     0.047 A 
BRANCH  15  18
ATOM     18  O   UNL     1     -29.476  14.641 -30.002  1.00  0.00    -0.508 OA
ATOM     19  H   UNL     1     -29.984  14.012 -30.613  1.00  0.00     0.293 HD
ENDBRANCH  15  18
ENDBRANCH   1  12
BRANCH   2  20
ATOM     20  O   UNL     1     -23.573  13.125 -28.353  1.00  0.00    -0.502 OA
ATOM     21  H   UNL     1     -24.162  12.991 -29.166  1.00  0.00     0.293 HD
ENDBRANCH   2  20
BRANCH   6  22
ATOM     22  O   UNL     1     -21.140  10.875 -24.183  1.00  0.00    -0.507 OA
ATOM     23  H   UNL     1     -20.623  11.168 -24.999  1.00  0.00     0.293 HD
ENDBRANCH   6  22
BRANCH   8  24
ATOM     24  O   UNL     1     -24.741  10.876 -21.008  1.00  0.00    -0.508 OA
ATOM     25  H   UNL     1     -24.311  10.160 -20.434  1.00  0.00     0.293 HD
ENDBRANCH   8  24
TORSDOF 5
ENDMDL
MODEL 7
REMARK VINA RESULT:    -3.774      1.616      3.473
REMARK INTER + INTRA:          -4.712
REMARK INTER:                  -4.426
REMARK INTRA:                  -0.286
REMARK UNBOUND:                -0.276
REMARK SMILES O=c1c(O)c(-c2ccc(O)cc2)oc2cc(O)cc(O)c12
REMARK SMILES IDX 5 1 3 2 2 3 1 4 21 5 19 6 18 7 16 8 15 9 14 10 13 11 6 12
REMARK SMILES IDX 7 13 8 14 9 15 12 16 11 17 10 18 4 20 20 22 17 24
REMARK H PARENT 10 19 4 21 20 23 17 25
REMARK Flexibility Score: inf
ROOT
ATOM      1  C   UNL     1     -24.107  12.553 -27.630  1.00  0.00     0.180 A 
ATOM      2  C   UNL     1     -24.245  12.375 -29.017  1.00  0.00     0.208 A 
ATOM      3  C   UNL     1     -23.118  12.011 -29.772  1.00  0.00     0.238 A 
ATOM      4  O   UNL     1     -23.235  11.906 -31.021  1.00  0.00    -0.285 OA
ATOM      5  C   UNL     1     -21.873  11.812 -29.127  1.00  0.00     0.111 A 
ATOM      6  C   UNL     1     -20.676  11.401 -29.787  1.00  0.00     0.134 A 
ATOM      7  C   UNL     1     -19.472  11.362 -29.072  1.00  0.00     0.093 A 
ATOM      8  C   UNL     1     -19.435  11.657 -27.707  1.00  0.00     0.123 A 
ATOM      9  C   UNL     1     -20.610  12.000 -27.042  1.00  0.00     0.094 A 
ATOM     10  C   UNL     1     -21.819  12.082 -27.735  1.00  0.00     0.146 A 
ATOM     11  O   UNL     1     -22.913  12.424 -27.065  1.00  0.00    -0.452 OA
ENDROOT
BRANCH   1  12
ATOM     12  C   UNL     1     -25.255  12.913 -26.764  1.00  0.00     0.021 A 
ATOM     13  C   UNL     1     -26.023  11.895 -26.176  1.00  0.00     0.016 A 
ATOM     14  C   UNL     1     -27.123  12.210 -25.374  1.00  0.00     0.047 A 
ATOM     15  C   UNL     1     -27.478  13.549 -25.162  1.00  0.00     0.115 A 
ATOM     16  C   UNL     1     -25.629  14.254 -26.563  1.00  0.00     0.016 A 
ATOM     17  C   UNL     1     -26.731  14.568 -25.761  1.00  0.00     0.047 A 
BRANCH  15  18
ATOM     18  O   UNL     1     -28.572  13.877 -24.365  1.00  0.00    -0.508 OA
ATOM     19  H   UNL     1     -29.395  14.325 -24.753  1.00  0.00     0.293 HD
ENDBRANCH  15  18
ENDBRANCH   1  12
BRANCH   2  20
ATOM     20  O   UNL     1     -25.478  12.598 -29.637  1.00  0.00    -0.502 OA
ATOM     21  H   UNL     1     -25.569  13.133 -30.491  1.00  0.00     0.293 HD
ENDBRANCH   2  20
BRANCH   6  22
ATOM     22  O   UNL     1     -20.620  10.998 -31.125  1.00  0.00    -0.507 OA
ATOM     23  H   UNL     1     -20.989  11.528 -31.900  1.00  0.00     0.293 HD
ENDBRANCH   6  22
BRANCH   8  24
ATOM     24  O   UNL     1     -18.236  11.601 -27.000  1.00  0.00    -0.508 OA
ATOM     25  H   UNL     1     -18.218  11.578 -25.987  1.00  0.00     0.293 HD
ENDBRANCH   8  24
TORSDOF 5
ENDMDL
MODEL 8
REMARK VINA RESULT:    -3.714      2.472      6.335
REMARK INTER + INTRA:          -4.641
REMARK INTER:                  -4.519
REMARK INTRA:                  -0.122
REMARK UNBOUND:                -0.276
REMARK SMILES O=c1c(O)c(-c2ccc(O)cc2)oc2cc(O)cc(O)c12
REMARK SMILES IDX 5 1 3 2 2 3 1 4 21 5 19 6 18 7 16 8 15 9 14 10 13 11 6 12
REMARK SMILES IDX 7 13 8 14 9 15 12 16 11 17 10 18 4 20 20 22 17 24
REMARK H PARENT 10 19 4 21 20 23 17 25
REMARK Flexibility Score: inf
ROOT
ATOM      1  C   UNL     1     -24.025  12.710 -27.149  1.00  0.00     0.180 A 
ATOM      2  C   UNL     1     -24.556  13.501 -26.116  1.00  0.00     0.208 A 
ATOM      3  C   UNL     1     -25.906  13.884 -26.177  1.00  0.00     0.238 A 
ATOM      4  O   UNL     1     -26.362  14.638 -25.278  1.00  0.00    -0.285 OA
ATOM      5  C   UNL     1     -26.711  13.456 -27.260  1.00  0.00     0.111 A 
ATOM      6  C   UNL     1     -28.100  13.750 -27.403  1.00  0.00     0.134 A 
ATOM      7  C   UNL     1     -28.766  13.385 -28.580  1.00  0.00     0.093 A 
ATOM      8  C   UNL     1     -28.107  12.681 -29.591  1.00  0.00     0.123 A 
ATOM      9  C   UNL     1     -26.767  12.337 -29.435  1.00  0.00     0.094 A 
ATOM     10  C   UNL     1     -26.067  12.718 -28.288  1.00  0.00     0.146 A 
ATOM     11  O   UNL     1     -24.787  12.380 -28.184  1.00  0.00    -0.452 OA
ENDROOT
BRANCH   1  12
ATOM     12  C   UNL     1     -22.617  12.246 -27.141  1.00  0.00     0.021 A 
ATOM     13  C   UNL     1     -21.774  12.581 -28.214  1.00  0.00     0.016 A 
ATOM     14  C   UNL     1     -20.449  12.136 -28.239  1.00  0.00     0.047 A 
ATOM     15  C   UNL     1     -19.955  11.338 -27.198  1.00  0.00     0.115 A 
ATOM     16  C   UNL     1     -22.121  11.428 -26.111  1.00  0.00     0.016 A 
ATOM     17  C   UNL     1     -20.795  10.983 -26.139  1.00  0.00     0.047 A 
BRANCH  15  18
ATOM     18  O   UNL     1     -18.637  10.888 -27.212  1.00  0.00    -0.508 OA
ATOM     19  H   UNL     1     -18.291  10.244 -26.510  1.00  0.00     0.293 HD
ENDBRANCH  15  18
ENDBRANCH   1  12
BRANCH   2  20
ATOM     20  O   UNL     1     -23.739  13.931 -25.067  1.00  0.00    -0.502 OA
ATOM     21  H   UNL     1     -23.043  14.658 -25.182  1.00  0.00     0.293 HD
ENDBRANCH   2  20
BRANCH   6  22
ATOM     22  O   UNL     1     -28.873  14.368 -26.415  1.00  0.00    -0.507 OA
ATOM     23  H   UNL     1     -28.900  14.085 -25.447  1.00  0.00     0.293 HD
ENDBRANCH   6  22
BRANCH   8  24
ATOM     24  O   UNL     1     -28.781  12.309 -30.752  1.00  0.00    -0.508 OA
ATOM     25  H   UNL     1     -29.080  11.354 -30.909  1.00  0.00     0.293 HD
ENDBRANCH   8  24
TORSDOF 5
ENDMDL
MODEL 9
REMARK VINA RESULT:    -2.491      2.545      7.289
REMARK INTER + INTRA:          -3.203
REMARK INTER:                  -3.109
REMARK INTRA:                  -0.094
REMARK UNBOUND:                -0.276
REMARK SMILES O=c1c(O)c(-c2ccc(O)cc2)oc2cc(O)cc(O)c12
REMARK SMILES IDX 5 1 3 2 2 3 1 4 21 5 19 6 18 7 16 8 15 9 14 10 13 11 6 12
REMARK SMILES IDX 7 13 8 14 9 15 12 16 11 17 10 18 4 20 20 22 17 24
REMARK H PARENT 10 19 4 21 20 23 17 25
REMARK Flexibility Score: inf
ROOT
ATOM      1  C   UNL     1     -21.953  12.370 -28.688  1.00  0.00     0.180 A 
ATOM      2  C   UNL     1     -22.428  11.905 -29.926  1.00  0.00     0.208 A 
ATOM      3  C   UNL     1     -23.764  11.486 -30.028  1.00  0.00     0.238 A 
ATOM      4  O   UNL     1     -24.170  11.020 -31.125  1.00  0.00    -0.285 OA
ATOM      5  C   UNL     1     -24.612  11.553 -28.896  1.00  0.00     0.111 A 
ATOM      6  C   UNL     1     -25.994  11.193 -28.896  1.00  0.00     0.134 A 
ATOM      7  C   UNL     1     -26.702  11.176 -27.688  1.00  0.00     0.093 A 
ATOM      8  C   UNL     1     -26.096  11.568 -26.492  1.00  0.00     0.123 A 
ATOM      9  C   UNL     1     -24.766  11.977 -26.492  1.00  0.00     0.094 A 
ATOM     10  C   UNL     1     -24.022  11.971 -27.675  1.00  0.00     0.146 A 
ATOM     11  O   UNL     1     -22.753  12.359 -27.629  1.00  0.00    -0.452 OA
ENDROOT
BRANCH   1  12
ATOM     12  C   UNL     1     -20.563  12.852 -28.508  1.00  0.00     0.021 A 
ATOM     13  C   UNL     1     -19.754  12.273 -27.517  1.00  0.00     0.016 A 
ATOM     14  C   UNL     1     -18.447  12.727 -27.315  1.00  0.00     0.047 A 
ATOM     15  C   UNL     1     -17.939  13.776 -28.092  1.00  0.00     0.115 A 
ATOM     16  C   UNL     1     -20.053  13.918 -29.270  1.00  0.00     0.016 A 
ATOM     17  C   UNL     1     -18.746  14.372 -29.066  1.00  0.00     0.047 A 
BRANCH  15  18
ATOM     18  O   UNL     1     -16.639  14.238 -27.900  1.00  0.00    -0.508 OA
ATOM     19  H   UNL     1     -16.044  13.857 -27.173  1.00  0.00     0.293 HD
ENDBRANCH  15  18
ENDBRANCH   1  12
BRANCH   2  20
ATOM     20  O   UNL     1     -21.569  11.826 -31.026  1.00  0.00    -0.502 OA
ATOM     21  H   UNL     1     -21.713  12.368 -31.869  1.00  0.00     0.293 HD
ENDBRANCH   2  20
BRANCH   6  22
ATOM     22  O   UNL     1     -26.718  10.875 -30.049  1.00  0.00    -0.507 OA
ATOM     23  H   UNL     1     -27.054   9.952 -30.279  1.00  0.00     0.293 HD
ENDBRANCH   6  22
BRANCH   8  24
ATOM     24  O   UNL     1     -26.813  11.562 -25.297  1.00  0.00    -0.508 OA
ATOM     25  H   UNL     1     -27.786  11.841 -25.261  1.00  0.00     0.293 HD
ENDBRANCH   8  24
TORSDOF 5
ENDMDL
