MODEL 1
REMARK VINA RESULT:    -4.074      0.000      0.000
REMARK INTER + INTRA:         -12.645
REMARK INTER:                  -9.314
REMARK INTRA:                  -3.331
REMARK UNBOUND:                -3.331
REMARK SMILES CCCCCCCCCCCCCCCCCCCCCCCC(=O)[O-]
REMARK SMILES IDX 13 1 14 2 15 3 16 4 17 5 18 6 19 7 20 8 21 9 22 10 23 11
REMARK SMILES IDX 24 12 25 13 26 14 12 15 11 16 10 17 9 18 8 19 7 20 6 21 5 22
REMARK SMILES IDX 4 23 3 24 2 25 1 26
REMARK H PARENT
REMARK Flexibility Score: inf
ROOT
ATOM      1  C   UNL     1      17.292 -34.344  -1.267  1.00  0.00     0.000 C 
ENDROOT
BRANCH   1   2
ATOM      2  C   UNL     1      16.545 -33.313  -2.130  1.00  0.00     0.000 C 
BRANCH   2   3
ATOM      3  C   UNL     1      15.151 -32.971  -1.581  1.00  0.00     0.000 C 
BRANCH   3   4
ATOM      4  C   UNL     1      14.018 -33.615  -2.397  1.00  0.00     0.000 C 
BRANCH   4   5
ATOM      5  C   UNL     1      13.506 -34.922  -1.766  1.00  0.00     0.000 C 
BRANCH   5   6
ATOM      6  C   UNL     1      13.719 -34.973  -0.243  1.00  0.00     0.000 C 
BRANCH   6   7
ATOM      7  C   UNL     1      13.538 -36.365   0.395  1.00  0.00     0.000 C 
BRANCH   7   8
ATOM      8  C   UNL     1      14.835 -37.029   0.889  1.00  0.00     0.000 C 
BRANCH   8   9
ATOM      9  C   UNL     1      15.858 -36.016   1.425  1.00  0.00     0.000 C 
BRANCH   9  10
ATOM     10  C   UNL     1      17.232 -36.669   1.618  1.00  0.00     0.006 C 
BRANCH  10  11
ATOM     11  C   UNL     1      17.128 -38.195   1.549  1.00  0.00     0.053 C 
BRANCH  11  12
ATOM     12  C   UNL     1      18.461 -38.805   1.246  1.00  0.00     0.041 C 
ATOM     13  O   UNL     1      18.636 -40.048   1.371  1.00  0.00    -0.550 OA
ATOM     14  O   UNL     1      19.503 -38.007   0.790  1.00  0.00    -0.550 OA
ENDBRANCH  11  12
ENDBRANCH  10  11
ENDBRANCH   9  10
ENDBRANCH   8   9
ENDBRANCH   7   8
ENDBRANCH   6   7
ENDBRANCH   5   6
ENDBRANCH   4   5
ENDBRANCH   3   4
ENDBRANCH   2   3
ENDBRANCH   1   2
BRANCH   1  15
ATOM     15  C   UNL     1      17.745 -35.602  -2.040  1.00  0.00     0.000 C 
BRANCH  15  16
ATOM     16  C   UNL     1      16.585 -36.588  -2.270  1.00  0.00     0.000 C 
BRANCH  16  17
ATOM     17  C   UNL     1      17.016 -38.055  -2.108  1.00  0.00     0.000 C 
BRANCH  17  18
ATOM     18  C   UNL     1      15.818 -39.020  -2.065  1.00  0.00    -0.000 C 
BRANCH  18  19
ATOM     19  C   UNL     1      15.364 -39.456  -3.476  1.00  0.00    -0.000 C 
BRANCH  19  20
ATOM     20  C   UNL     1      14.560 -40.771  -3.497  1.00  0.00    -0.000 C 
BRANCH  20  21
ATOM     21  C   UNL     1      14.628 -41.561  -4.814  1.00  0.00    -0.000 C 
BRANCH  21  22
ATOM     22  C   UNL     1      15.582 -40.930  -5.844  1.00  0.00    -0.000 C 
BRANCH  22  23
ATOM     23  C   UNL     1      15.409 -41.540  -7.243  1.00  0.00    -0.000 C 
BRANCH  23  24
ATOM     24  C   UNL     1      14.253 -40.894  -8.029  1.00  0.00    -0.000 C 
BRANCH  24  25
ATOM     25  C   UNL     1      14.159 -39.377  -7.788  1.00  0.00    -0.003 C 
ATOM     26  C   UNL     1      12.947 -38.995  -6.934  1.00  0.00     0.004 C 
ENDBRANCH  24  25
ENDBRANCH  23  24
ENDBRANCH  22  23
ENDBRANCH  21  22
ENDBRANCH  20  21
ENDBRANCH  19  20
ENDBRANCH  18  19
ENDBRANCH  17  18
ENDBRANCH  16  17
ENDBRANCH  15  16
ENDBRANCH   1  15
TORSDOF 22
ENDMDL
MODEL 2
REMARK VINA RESULT:    -4.020      2.163      3.732
REMARK INTER + INTRA:         -12.521
REMARK INTER:                  -8.719
REMARK INTRA:                  -3.803
REMARK UNBOUND:                -3.331
REMARK SMILES CCCCCCCCCCCCCCCCCCCCCCCC(=O)[O-]
REMARK SMILES IDX 13 1 14 2 15 3 16 4 17 5 18 6 19 7 20 8 21 9 22 10 23 11
REMARK SMILES IDX 24 12 25 13 26 14 12 15 11 16 10 17 9 18 8 19 7 20 6 21 5 22
REMARK SMILES IDX 4 23 3 24 2 25 1 26
REMARK H PARENT
REMARK Flexibility Score: inf
ROOT
ATOM      1  C   UNL     1      16.627 -33.657  -1.664  1.00  0.00     0.000 C 
ENDROOT
BRANCH   1   2
ATOM      2  C   UNL     1      17.456 -34.918  -1.368  1.00  0.00     0.000 C 
BRANCH   2   3
ATOM      3  C   UNL     1      17.168 -36.068  -2.346  1.00  0.00     0.000 C 
BRANCH   3   4
ATOM      4  C   UNL     1      18.078 -37.284  -2.115  1.00  0.00     0.000 C 
BRANCH   4   5
ATOM      5  C   UNL     1      17.622 -38.145  -0.922  1.00  0.00     0.000 C 
BRANCH   5   6
ATOM      6  C   UNL     1      18.466 -37.907   0.342  1.00  0.00     0.000 C 
BRANCH   6   7
ATOM      7  C   UNL     1      17.658 -37.765   1.648  1.00  0.00     0.000 C 
BRANCH   7   8
ATOM      8  C   UNL     1      16.153 -37.502   1.457  1.00  0.00     0.000 C 
BRANCH   8   9
ATOM      9  C   UNL     1      15.751 -36.061   1.805  1.00  0.00     0.000 C 
BRANCH   9  10
ATOM     10  C   UNL     1      16.911 -35.310   2.470  1.00  0.00     0.006 C 
BRANCH  10  11
ATOM     11  C   UNL     1      16.482 -34.716   3.814  1.00  0.00     0.053 C 
BRANCH  11  12
ATOM     12  C   UNL     1      16.095 -35.797   4.774  1.00  0.00     0.041 C 
ATOM     13  O   UNL     1      14.918 -35.856   5.225  1.00  0.00    -0.550 OA
ATOM     14  O   UNL     1      17.022 -36.762   5.144  1.00  0.00    -0.550 OA
ENDBRANCH  11  12
ENDBRANCH  10  11
ENDBRANCH   9  10
ENDBRANCH   8   9
ENDBRANCH   7   8
ENDBRANCH   6   7
ENDBRANCH   5   6
ENDBRANCH   4   5
ENDBRANCH   3   4
ENDBRANCH   2   3
ENDBRANCH   1   2
BRANCH   1  15
ATOM     15  C   UNL     1      15.170 -33.729  -1.157  1.00  0.00     0.000 C 
BRANCH  15  16
ATOM     16  C   UNL     1      14.158 -33.832  -2.313  1.00  0.00     0.000 C 
BRANCH  16  17
ATOM     17  C   UNL     1      13.410 -35.175  -2.327  1.00  0.00     0.000 C 
BRANCH  17  18
ATOM     18  C   UNL     1      13.791 -36.073  -1.135  1.00  0.00    -0.000 C 
BRANCH  18  19
ATOM     19  C   UNL     1      13.827 -37.570  -1.516  1.00  0.00    -0.000 C 
BRANCH  19  20
ATOM     20  C   UNL     1      13.779 -37.832  -3.035  1.00  0.00    -0.000 C 
BRANCH  20  21
ATOM     21  C   UNL     1      14.010 -39.292  -3.456  1.00  0.00    -0.000 C 
BRANCH  21  22
ATOM     22  C   UNL     1      15.500 -39.675  -3.500  1.00  0.00    -0.000 C 
BRANCH  22  23
ATOM     23  C   UNL     1      15.859 -40.456  -4.774  1.00  0.00    -0.000 C 
BRANCH  23  24
ATOM     24  C   UNL     1      14.628 -40.757  -5.647  1.00  0.00    -0.000 C 
BRANCH  24  25
ATOM     25  C   UNL     1      14.864 -40.415  -7.129  1.00  0.00    -0.003 C 
ATOM     26  C   UNL     1      13.925 -39.315  -7.632  1.00  0.00     0.004 C 
ENDBRANCH  24  25
ENDBRANCH  23  24
ENDBRANCH  22  23
ENDBRANCH  21  22
ENDBRANCH  20  21
ENDBRANCH  19  20
ENDBRANCH  18  19
ENDBRANCH  17  18
ENDBRANCH  16  17
ENDBRANCH  15  16
ENDBRANCH   1  15
TORSDOF 22
ENDMDL
MODEL 3
REMARK VINA RESULT:    -3.972      1.305      2.630
REMARK INTER + INTRA:         -12.411
REMARK INTER:                  -8.104
REMARK INTRA:                  -4.307
REMARK UNBOUND:                -3.331
REMARK SMILES CCCCCCCCCCCCCCCCCCCCCCCC(=O)[O-]
REMARK SMILES IDX 13 1 14 2 15 3 16 4 17 5 18 6 19 7 20 8 21 9 22 10 23 11
REMARK SMILES IDX 24 12 25 13 26 14 12 15 11 16 10 17 9 18 8 19 7 20 6 21 5 22
REMARK SMILES IDX 4 23 3 24 2 25 1 26
REMARK H PARENT
REMARK Flexibility Score: inf
ROOT
ATOM      1  C   UNL     1      15.832 -32.876  -2.049  1.00  0.00     0.000 C 
ENDROOT
BRANCH   1   2
ATOM      2  C   UNL     1      14.529 -33.556  -2.505  1.00  0.00     0.000 C 
BRANCH   2   3
ATOM      3  C   UNL     1      13.767 -34.226  -1.351  1.00  0.00     0.000 C 
BRANCH   3   4
ATOM      4  C   UNL     1      13.843 -33.418  -0.045  1.00  0.00     0.000 C 
BRANCH   4   5
ATOM      5  C   UNL     1      13.645 -34.297   1.205  1.00  0.00     0.000 C 
BRANCH   5   6
ATOM      6  C   UNL     1      14.380 -35.646   1.107  1.00  0.00     0.000 C 
BRANCH   6   7
ATOM      7  C   UNL     1      13.491 -36.888   1.318  1.00  0.00     0.000 C 
BRANCH   7   8
ATOM      8  C   UNL     1      14.207 -38.239   1.141  1.00  0.00     0.000 C 
BRANCH   8   9
ATOM      9  C   UNL     1      15.648 -38.225   1.676  1.00  0.00     0.000 C 
BRANCH   9  10
ATOM     10  C   UNL     1      16.243 -39.638   1.691  1.00  0.00     0.006 C 
BRANCH  10  11
ATOM     11  C   UNL     1      17.245 -39.824   0.548  1.00  0.00     0.053 C 
BRANCH  11  12
ATOM     12  C   UNL     1      18.559 -39.193   0.886  1.00  0.00     0.041 C 
ATOM     13  O   UNL     1      18.940 -39.118   2.086  1.00  0.00    -0.550 OA
ATOM     14  O   UNL     1      19.382 -38.718  -0.128  1.00  0.00    -0.550 OA
ENDBRANCH  11  12
ENDBRANCH  10  11
ENDBRANCH   9  10
ENDBRANCH   8   9
ENDBRANCH   7   8
ENDBRANCH   6   7
ENDBRANCH   5   6
ENDBRANCH   4   5
ENDBRANCH   3   4
ENDBRANCH   2   3
ENDBRANCH   1   2
BRANCH   1  15
ATOM     15  C   UNL     1      17.073 -33.793  -2.107  1.00  0.00     0.000 C 
BRANCH  15  16
ATOM     16  C   UNL     1      17.432 -34.370  -0.726  1.00  0.00     0.000 C 
BRANCH  16  17
ATOM     17  C   UNL     1      17.396 -35.907  -0.700  1.00  0.00     0.000 C 
BRANCH  17  18
ATOM     18  C   UNL     1      17.327 -36.518  -2.111  1.00  0.00    -0.000 C 
BRANCH  18  19
ATOM     19  C   UNL     1      16.385 -37.741  -2.176  1.00  0.00    -0.000 C 
BRANCH  19  20
ATOM     20  C   UNL     1      14.917 -37.385  -2.488  1.00  0.00    -0.000 C 
BRANCH  20  21
ATOM     21  C   UNL     1      13.919 -38.546  -2.356  1.00  0.00    -0.000 C 
BRANCH  21  22
ATOM     22  C   UNL     1      14.606 -39.916  -2.217  1.00  0.00    -0.000 C 
BRANCH  22  23
ATOM     23  C   UNL     1      14.399 -40.797  -3.459  1.00  0.00    -0.000 C 
BRANCH  23  24
ATOM     24  C   UNL     1      15.729 -41.237  -4.098  1.00  0.00    -0.000 C 
BRANCH  24  25
ATOM     25  C   UNL     1      15.960 -40.585  -5.472  1.00  0.00    -0.003 C 
ATOM     26  C   UNL     1      14.653 -40.343  -6.232  1.00  0.00     0.004 C 
ENDBRANCH  24  25
ENDBRANCH  23  24
ENDBRANCH  22  23
ENDBRANCH  21  22
ENDBRANCH  20  21
ENDBRANCH  19  20
ENDBRANCH  18  19
ENDBRANCH  17  18
ENDBRANCH  16  17
ENDBRANCH  15  16
ENDBRANCH   1  15
TORSDOF 22
ENDMDL
MODEL 4
REMARK VINA RESULT:    -3.970      1.752      3.433
REMARK INTER + INTRA:         -12.407
REMARK INTER:                  -8.389
REMARK INTRA:                  -4.018
REMARK UNBOUND:                -3.331
REMARK SMILES CCCCCCCCCCCCCCCCCCCCCCCC(=O)[O-]
REMARK SMILES IDX 13 1 14 2 15 3 16 4 17 5 18 6 19 7 20 8 21 9 22 10 23 11
REMARK SMILES IDX 24 12 25 13 26 14 12 15 11 16 10 17 9 18 8 19 7 20 6 21 5 22
REMARK SMILES IDX 4 23 3 24 2 25 1 26
REMARK H PARENT
REMARK Flexibility Score: inf
ROOT
ATOM      1  C   UNL     1      14.848 -33.580  -1.502  1.00  0.00     0.000 C 
ENDROOT
BRANCH   1   2
ATOM      2  C   UNL     1      14.074 -34.616  -2.334  1.00  0.00     0.000 C 
BRANCH   2   3
ATOM      3  C   UNL     1      13.775 -35.907  -1.555  1.00  0.00     0.000 C 
BRANCH   3   4
ATOM      4  C   UNL     1      13.491 -35.647  -0.067  1.00  0.00     0.000 C 
BRANCH   4   5
ATOM      5  C   UNL     1      13.898 -36.834   0.827  1.00  0.00     0.000 C 
BRANCH   5   6
ATOM      6  C   UNL     1      14.069 -36.437   2.304  1.00  0.00     0.000 C 
BRANCH   6   7
ATOM      7  C   UNL     1      15.151 -35.373   2.571  1.00  0.00     0.000 C 
BRANCH   7   8
ATOM      8  C   UNL     1      16.555 -35.930   2.869  1.00  0.00     0.000 C 
BRANCH   8   9
ATOM      9  C   UNL     1      16.591 -36.813   4.126  1.00  0.00     0.000 C 
BRANCH   9  10
ATOM     10  C   UNL     1      17.053 -38.235   3.788  1.00  0.00     0.006 C 
BRANCH  10  11
ATOM     11  C   UNL     1      17.163 -38.431   2.273  1.00  0.00     0.053 C 
BRANCH  11  12
ATOM     12  C   UNL     1      18.500 -38.993   1.906  1.00  0.00     0.041 C 
ATOM     13  O   UNL     1      18.834 -40.147   2.292  1.00  0.00    -0.550 OA
ATOM     14  O   UNL     1      19.367 -38.258   1.106  1.00  0.00    -0.550 OA
ENDBRANCH  11  12
ENDBRANCH  10  11
ENDBRANCH   9  10
ENDBRANCH   8   9
ENDBRANCH   7   8
ENDBRANCH   6   7
ENDBRANCH   5   6
ENDBRANCH   4   5
ENDBRANCH   3   4
ENDBRANCH   2   3
ENDBRANCH   1   2
BRANCH   1  15
ATOM     15  C   UNL     1      16.080 -32.989  -2.221  1.00  0.00     0.000 C 
BRANCH  15  16
ATOM     16  C   UNL     1      17.375 -33.742  -1.865  1.00  0.00     0.000 C 
BRANCH  16  17
ATOM     17  C   UNL     1      17.286 -34.465  -0.511  1.00  0.00     0.000 C 
BRANCH  17  18
ATOM     18  C   UNL     1      17.443 -35.990  -0.645  1.00  0.00    -0.000 C 
BRANCH  18  19
ATOM     19  C   UNL     1      17.678 -36.430  -2.107  1.00  0.00    -0.000 C 
BRANCH  19  20
ATOM     20  C   UNL     1      17.005 -37.768  -2.475  1.00  0.00    -0.000 C 
BRANCH  20  21
ATOM     21  C   UNL     1      16.361 -38.522  -1.300  1.00  0.00    -0.000 C 
BRANCH  21  22
ATOM     22  C   UNL     1      15.335 -39.576  -1.754  1.00  0.00    -0.000 C 
BRANCH  22  23
ATOM     23  C   UNL     1      14.868 -39.344  -3.200  1.00  0.00    -0.000 C 
BRANCH  23  24
ATOM     24  C   UNL     1      15.428 -40.395  -4.176  1.00  0.00    -0.000 C 
BRANCH  24  25
ATOM     25  C   UNL     1      15.459 -41.805  -3.561  1.00  0.00    -0.003 C 
ATOM     26  C   UNL     1      16.183 -42.816  -4.455  1.00  0.00     0.004 C 
ENDBRANCH  24  25
ENDBRANCH  23  24
ENDBRANCH  22  23
ENDBRANCH  21  22
ENDBRANCH  20  21
ENDBRANCH  19  20
ENDBRANCH  18  19
ENDBRANCH  17  18
ENDBRANCH  16  17
ENDBRANCH  15  16
ENDBRANCH   1  15
TORSDOF 22
ENDMDL
MODEL 5
REMARK VINA RESULT:    -3.931      3.898      5.993
REMARK INTER + INTRA:         -12.318
REMARK INTER:                  -9.122
REMARK INTRA:                  -3.195
REMARK UNBOUND:                -3.331
REMARK SMILES CCCCCCCCCCCCCCCCCCCCCCCC(=O)[O-]
REMARK SMILES IDX 13 1 14 2 15 3 16 4 17 5 18 6 19 7 20 8 21 9 22 10 23 11
REMARK SMILES IDX 24 12 25 13 26 14 12 15 11 16 10 17 9 18 8 19 7 20 6 21 5 22
REMARK SMILES IDX 4 23 3 24 2 25 1 26
REMARK H PARENT
REMARK Flexibility Score: inf
ROOT
ATOM      1  C   UNL     1      16.570 -34.540  -0.562  1.00  0.00     0.000 C 
ENDROOT
BRANCH   1   2
ATOM      2  C   UNL     1      17.836 -34.630   0.308  1.00  0.00     0.000 C 
BRANCH   2   3
ATOM      3  C   UNL     1      17.560 -35.199   1.709  1.00  0.00     0.000 C 
BRANCH   3   4
ATOM      4  C   UNL     1      16.437 -36.249   1.711  1.00  0.00     0.000 C 
BRANCH   4   5
ATOM      5  C   UNL     1      15.416 -36.020   2.841  1.00  0.00     0.000 C 
BRANCH   5   6
ATOM      6  C   UNL     1      15.860 -34.930   3.833  1.00  0.00     0.000 C 
BRANCH   6   7
ATOM      7  C   UNL     1      15.924 -35.377   5.307  1.00  0.00     0.000 C 
BRANCH   7   8
ATOM      8  C   UNL     1      17.002 -36.428   5.623  1.00  0.00     0.000 C 
BRANCH   8   9
ATOM      9  C   UNL     1      17.800 -36.100   6.895  1.00  0.00     0.000 C 
BRANCH   9  10
ATOM     10  C   UNL     1      18.467 -37.357   7.466  1.00  0.00     0.006 C 
BRANCH  10  11
ATOM     11  C   UNL     1      19.990 -37.286   7.317  1.00  0.00     0.053 C 
BRANCH  11  12
ATOM     12  C   UNL     1      20.618 -36.712   8.549  1.00  0.00     0.041 C 
ATOM     13  O   UNL     1      20.711 -35.462   8.692  1.00  0.00    -0.550 OA
ATOM     14  O   UNL     1      21.069 -37.555   9.556  1.00  0.00    -0.550 OA
ENDBRANCH  11  12
ENDBRANCH  10  11
ENDBRANCH   9  10
ENDBRANCH   8   9
ENDBRANCH   7   8
ENDBRANCH   6   7
ENDBRANCH   5   6
ENDBRANCH   4   5
ENDBRANCH   3   4
ENDBRANCH   2   3
ENDBRANCH   1   2
BRANCH   1  15
ATOM     15  C   UNL     1      16.789 -33.835  -1.918  1.00  0.00     0.000 C 
BRANCH  15  16
ATOM     16  C   UNL     1      15.737 -32.742  -2.179  1.00  0.00     0.000 C 
BRANCH  16  17
ATOM     17  C   UNL     1      14.422 -32.994  -1.425  1.00  0.00     0.000 C 
BRANCH  17  18
ATOM     18  C   UNL     1      13.215 -33.124  -2.372  1.00  0.00    -0.000 C 
BRANCH  18  19
ATOM     19  C   UNL     1      13.025 -34.567  -2.887  1.00  0.00    -0.000 C 
BRANCH  19  20
ATOM     20  C   UNL     1      13.261 -35.651  -1.816  1.00  0.00    -0.000 C 
BRANCH  20  21
ATOM     21  C   UNL     1      14.202 -36.793  -2.234  1.00  0.00    -0.000 C 
BRANCH  21  22
ATOM     22  C   UNL     1      14.551 -37.740  -1.072  1.00  0.00    -0.000 C 
BRANCH  22  23
ATOM     23  C   UNL     1      15.878 -38.478  -1.306  1.00  0.00    -0.000 C 
BRANCH  23  24
ATOM     24  C   UNL     1      16.712 -37.847  -2.436  1.00  0.00    -0.000 C 
BRANCH  24  25
ATOM     25  C   UNL     1      18.147 -37.518  -1.991  1.00  0.00    -0.003 C 
ATOM     26  C   UNL     1      18.495 -38.140  -0.635  1.00  0.00     0.004 C 
ENDBRANCH  24  25
ENDBRANCH  23  24
ENDBRANCH  22  23
ENDBRANCH  21  22
ENDBRANCH  20  21
ENDBRANCH  19  20
ENDBRANCH  18  19
ENDBRANCH  17  18
ENDBRANCH  16  17
ENDBRANCH  15  16
ENDBRANCH   1  15
TORSDOF 22
ENDMDL
MODEL 6
REMARK VINA RESULT:    -3.880      2.998      4.988
REMARK INTER + INTRA:         -12.200
REMARK INTER:                  -7.781
REMARK INTRA:                  -4.419
REMARK UNBOUND:                -3.331
REMARK SMILES CCCCCCCCCCCCCCCCCCCCCCCC(=O)[O-]
REMARK SMILES IDX 13 1 14 2 15 3 16 4 17 5 18 6 19 7 20 8 21 9 22 10 23 11
REMARK SMILES IDX 24 12 25 13 26 14 12 15 11 16 10 17 9 18 8 19 7 20 6 21 5 22
REMARK SMILES IDX 4 23 3 24 2 25 1 26
REMARK H PARENT
REMARK Flexibility Score: inf
ROOT
ATOM      1  C   UNL     1      16.252 -33.026  -2.149  1.00  0.00     0.000 C 
ENDROOT
BRANCH   1   2
ATOM      2  C   UNL     1      17.362 -34.070  -1.934  1.00  0.00     0.000 C 
BRANCH   2   3
ATOM      3  C   UNL     1      16.873 -35.513  -2.130  1.00  0.00     0.000 C 
BRANCH   3   4
ATOM      4  C   UNL     1      18.013 -36.484  -2.477  1.00  0.00     0.000 C 
BRANCH   4   5
ATOM      5  C   UNL     1      18.137 -37.636  -1.463  1.00  0.00     0.000 C 
BRANCH   5   6
ATOM      6  C   UNL     1      17.393 -37.354  -0.146  1.00  0.00     0.000 C 
BRANCH   6   7
ATOM      7  C   UNL     1      18.195 -36.545   0.894  1.00  0.00     0.000 C 
BRANCH   7   8
ATOM      8  C   UNL     1      17.462 -35.324   1.476  1.00  0.00     0.000 C 
BRANCH   8   9
ATOM      9  C   UNL     1      15.938 -35.516   1.537  1.00  0.00     0.000 C 
BRANCH   9  10
ATOM     10  C   UNL     1      15.392 -35.149   2.922  1.00  0.00     0.006 C 
BRANCH  10  11
ATOM     11  C   UNL     1      16.491 -35.229   3.985  1.00  0.00     0.053 C 
BRANCH  11  12
ATOM     12  C   UNL     1      16.293 -36.424   4.865  1.00  0.00     0.041 C 
ATOM     13  O   UNL     1      15.214 -37.075   4.820  1.00  0.00    -0.550 OA
ATOM     14  O   UNL     1      17.313 -36.840   5.711  1.00  0.00    -0.550 OA
ENDBRANCH  11  12
ENDBRANCH  10  11
ENDBRANCH   9  10
ENDBRANCH   8   9
ENDBRANCH   7   8
ENDBRANCH   6   7
ENDBRANCH   5   6
ENDBRANCH   4   5
ENDBRANCH   3   4
ENDBRANCH   2   3
ENDBRANCH   1   2
BRANCH   1  15
ATOM     15  C   UNL     1      14.904 -33.400  -1.495  1.00  0.00     0.000 C 
BRANCH  15  16
ATOM     16  C   UNL     1      13.789 -33.597  -2.538  1.00  0.00     0.000 C 
BRANCH  16  17
ATOM     17  C   UNL     1      13.164 -35.000  -2.478  1.00  0.00     0.000 C 
BRANCH  17  18
ATOM     18  C   UNL     1      13.278 -35.636  -1.080  1.00  0.00    -0.000 C 
BRANCH  18  19
ATOM     19  C   UNL     1      13.610 -37.143  -1.145  1.00  0.00    -0.000 C 
BRANCH  19  20
ATOM     20  C   UNL     1      14.025 -37.633  -2.547  1.00  0.00    -0.000 C 
BRANCH  20  21
ATOM     21  C   UNL     1      14.954 -38.857  -2.565  1.00  0.00    -0.000 C 
BRANCH  21  22
ATOM     22  C   UNL     1      14.457 -40.003  -1.665  1.00  0.00    -0.000 C 
BRANCH  22  23
ATOM     23  C   UNL     1      15.570 -40.554  -0.762  1.00  0.00    -0.000 C 
BRANCH  23  24
ATOM     24  C   UNL     1      15.127 -40.684   0.707  1.00  0.00    -0.000 C 
BRANCH  24  25
ATOM     25  C   UNL     1      15.172 -39.337   1.452  1.00  0.00    -0.003 C 
ATOM     26  C   UNL     1      13.824 -38.970   2.077  1.00  0.00     0.004 C 
ENDBRANCH  24  25
ENDBRANCH  23  24
ENDBRANCH  22  23
ENDBRANCH  21  22
ENDBRANCH  20  21
ENDBRANCH  19  20
ENDBRANCH  18  19
ENDBRANCH  17  18
ENDBRANCH  16  17
ENDBRANCH  15  16
ENDBRANCH   1  15
TORSDOF 22
ENDMDL
MODEL 7
REMARK VINA RESULT:    -3.875      3.916      6.755
REMARK INTER + INTRA:         -12.189
REMARK INTER:                  -8.590
REMARK INTRA:                  -3.600
REMARK UNBOUND:                -3.331
REMARK SMILES CCCCCCCCCCCCCCCCCCCCCCCC(=O)[O-]
REMARK SMILES IDX 13 1 14 2 15 3 16 4 17 5 18 6 19 7 20 8 21 9 22 10 23 11
REMARK SMILES IDX 24 12 25 13 26 14 12 15 11 16 10 17 9 18 8 19 7 20 6 21 5 22
REMARK SMILES IDX 4 23 3 24 2 25 1 26
REMARK H PARENT
REMARK Flexibility Score: inf
ROOT
ATOM      1  C   UNL     1      18.020 -37.465  -1.354  1.00  0.00     0.000 C 
ENDROOT
BRANCH   1   2
ATOM      2  C   UNL     1      18.383 -37.119   0.101  1.00  0.00     0.000 C 
BRANCH   2   3
ATOM      3  C   UNL     1      18.857 -38.340   0.905  1.00  0.00     0.000 C 
BRANCH   3   4
ATOM      4  C   UNL     1      17.805 -39.460   0.957  1.00  0.00     0.000 C 
BRANCH   4   5
ATOM      5  C   UNL     1      17.790 -40.192   2.312  1.00  0.00     0.000 C 
BRANCH   5   6
ATOM      6  C   UNL     1      18.277 -39.308   3.473  1.00  0.00     0.000 C 
BRANCH   6   7
ATOM      7  C   UNL     1      17.170 -38.514   4.195  1.00  0.00     0.000 C 
BRANCH   7   8
ATOM      8  C   UNL     1      17.163 -38.652   5.728  1.00  0.00     0.000 C 
BRANCH   8   9
ATOM      9  C   UNL     1      17.995 -37.566   6.428  1.00  0.00     0.000 C 
BRANCH   9  10
ATOM     10  C   UNL     1      18.992 -38.186   7.414  1.00  0.00     0.006 C 
BRANCH  10  11
ATOM     11  C   UNL     1      20.361 -37.508   7.311  1.00  0.00     0.053 C 
BRANCH  11  12
ATOM     12  C   UNL     1      21.368 -38.433   6.703  1.00  0.00     0.041 C 
ATOM     13  O   UNL     1      21.026 -39.237   5.793  1.00  0.00    -0.550 OA
ATOM     14  O   UNL     1      22.693 -38.385   7.115  1.00  0.00    -0.550 OA
ENDBRANCH  11  12
ENDBRANCH  10  11
ENDBRANCH   9  10
ENDBRANCH   8   9
ENDBRANCH   7   8
ENDBRANCH   6   7
ENDBRANCH   5   6
ENDBRANCH   4   5
ENDBRANCH   3   4
ENDBRANCH   2   3
ENDBRANCH   1   2
BRANCH   1  15
ATOM     15  C   UNL     1      17.396 -36.292  -2.141  1.00  0.00     0.000 C 
BRANCH  15  16
ATOM     16  C   UNL     1      17.291 -35.013  -1.291  1.00  0.00     0.000 C 
BRANCH  16  17
ATOM     17  C   UNL     1      17.362 -33.732  -2.138  1.00  0.00     0.000 C 
BRANCH  17  18
ATOM     18  C   UNL     1      16.021 -32.977  -2.176  1.00  0.00    -0.000 C 
BRANCH  18  19
ATOM     19  C   UNL     1      14.938 -33.656  -1.308  1.00  0.00    -0.000 C 
BRANCH  19  20
ATOM     20  C   UNL     1      13.855 -34.394  -2.121  1.00  0.00    -0.000 C 
BRANCH  20  21
ATOM     21  C   UNL     1      13.796 -35.915  -1.907  1.00  0.00    -0.000 C 
BRANCH  21  22
ATOM     22  C   UNL     1      13.511 -36.305  -0.445  1.00  0.00    -0.000 C 
BRANCH  22  23
ATOM     23  C   UNL     1      14.451 -37.414   0.052  1.00  0.00    -0.000 C 
BRANCH  23  24
ATOM     24  C   UNL     1      15.036 -37.109   1.443  1.00  0.00    -0.000 C 
BRANCH  24  25
ATOM     25  C   UNL     1      15.176 -35.599   1.701  1.00  0.00    -0.003 C 
ATOM     26  C   UNL     1      16.369 -35.267   2.602  1.00  0.00     0.004 C 
ENDBRANCH  24  25
ENDBRANCH  23  24
ENDBRANCH  22  23
ENDBRANCH  21  22
ENDBRANCH  20  21
ENDBRANCH  19  20
ENDBRANCH  18  19
ENDBRANCH  17  18
ENDBRANCH  16  17
ENDBRANCH  15  16
ENDBRANCH   1  15
TORSDOF 22
ENDMDL
MODEL 8
REMARK VINA RESULT:    -3.873      2.585      6.680
REMARK INTER + INTRA:         -12.184
REMARK INTER:                  -8.223
REMARK INTRA:                  -3.962
REMARK UNBOUND:                -3.331
REMARK SMILES CCCCCCCCCCCCCCCCCCCCCCCC(=O)[O-]
REMARK SMILES IDX 13 1 14 2 15 3 16 4 17 5 18 6 19 7 20 8 21 9 22 10 23 11
REMARK SMILES IDX 24 12 25 13 26 14 12 15 11 16 10 17 9 18 8 19 7 20 6 21 5 22
REMARK SMILES IDX 4 23 3 24 2 25 1 26
REMARK H PARENT
REMARK Flexibility Score: inf
ROOT
ATOM      1  C   UNL     1      16.902 -33.518  -2.112  1.00  0.00     0.000 C 
ENDROOT
BRANCH   1   2
ATOM      2  C   UNL     1      17.475 -34.144  -0.829  1.00  0.00     0.000 C 
BRANCH   2   3
ATOM      3  C   UNL     1      17.346 -35.675  -0.801  1.00  0.00     0.000 C 
BRANCH   3   4
ATOM      4  C   UNL     1      17.774 -36.330  -2.125  1.00  0.00     0.000 C 
BRANCH   4   5
ATOM      5  C   UNL     1      16.901 -37.544  -2.492  1.00  0.00     0.000 C 
BRANCH   5   6
ATOM      6  C   UNL     1      15.409 -37.317  -2.192  1.00  0.00     0.000 C 
BRANCH   6   7
ATOM      7  C   UNL     1      14.479 -38.477  -2.601  1.00  0.00     0.000 C 
BRANCH   7   8
ATOM      8  C   UNL     1      15.193 -39.717  -3.167  1.00  0.00     0.000 C 
BRANCH   8   9
ATOM      9  C   UNL     1      14.325 -40.502  -4.163  1.00  0.00     0.000 C 
BRANCH   9  10
ATOM     10  C   UNL     1      14.962 -40.514  -5.557  1.00  0.00     0.006 C 
BRANCH  10  11
ATOM     11  C   UNL     1      16.486 -40.635  -5.464  1.00  0.00     0.053 C 
BRANCH  11  12
ATOM     12  C   UNL     1      16.943 -41.977  -5.944  1.00  0.00     0.041 C 
ATOM     13  O   UNL     1      18.171 -42.211  -6.107  1.00  0.00    -0.550 OA
ATOM     14  O   UNL     1      16.014 -42.984  -6.179  1.00  0.00    -0.550 OA
ENDBRANCH  11  12
ENDBRANCH  10  11
ENDBRANCH   9  10
ENDBRANCH   8   9
ENDBRANCH   7   8
ENDBRANCH   6   7
ENDBRANCH   5   6
ENDBRANCH   4   5
ENDBRANCH   3   4
ENDBRANCH   2   3
ENDBRANCH   1   2
BRANCH   1  15
ATOM     15  C   UNL     1      15.509 -32.877  -1.930  1.00  0.00     0.000 C 
BRANCH  15  16
ATOM     16  C   UNL     1      14.385 -33.765  -2.493  1.00  0.00     0.000 C 
BRANCH  16  17
ATOM     17  C   UNL     1      13.320 -34.110  -1.439  1.00  0.00     0.000 C 
BRANCH  17  18
ATOM     18  C   UNL     1      13.918 -34.271  -0.029  1.00  0.00    -0.000 C 
BRANCH  18  19
ATOM     19  C   UNL     1      13.512 -35.606   0.632  1.00  0.00    -0.000 C 
BRANCH  19  20
ATOM     20  C   UNL     1      14.197 -35.867   1.989  1.00  0.00    -0.000 C 
BRANCH  20  21
ATOM     21  C   UNL     1      15.282 -36.955   1.978  1.00  0.00    -0.000 C 
BRANCH  21  22
ATOM     22  C   UNL     1      14.891 -38.185   1.138  1.00  0.00    -0.000 C 
BRANCH  22  23
ATOM     23  C   UNL     1      15.712 -39.428   1.514  1.00  0.00    -0.000 C 
BRANCH  23  24
ATOM     24  C   UNL     1      16.769 -39.779   0.451  1.00  0.00    -0.000 C 
BRANCH  24  25
ATOM     25  C   UNL     1      18.101 -39.045   0.686  1.00  0.00    -0.003 C 
ATOM     26  C   UNL     1      18.509 -39.033   2.162  1.00  0.00     0.004 C 
ENDBRANCH  24  25
ENDBRANCH  23  24
ENDBRANCH  22  23
ENDBRANCH  21  22
ENDBRANCH  20  21
ENDBRANCH  19  20
ENDBRANCH  18  19
ENDBRANCH  17  18
ENDBRANCH  16  17
ENDBRANCH  15  16
ENDBRANCH   1  15
TORSDOF 22
ENDMDL
MODEL 9
REMARK VINA RESULT:    -3.830      2.662      6.639
REMARK INTER + INTRA:         -12.086
REMARK INTER:                  -7.857
REMARK INTRA:                  -4.230
REMARK UNBOUND:                -3.331
REMARK SMILES CCCCCCCCCCCCCCCCCCCCCCCC(=O)[O-]
REMARK SMILES IDX 13 1 14 2 15 3 16 4 17 5 18 6 19 7 20 8 21 9 22 10 23 11
REMARK SMILES IDX 24 12 25 13 26 14 12 15 11 16 10 17 9 18 8 19 7 20 6 21 5 22
REMARK SMILES IDX 4 23 3 24 2 25 1 26
REMARK H PARENT
REMARK Flexibility Score: inf
ROOT
ATOM      1  C   UNL     1      16.094 -33.016  -2.132  1.00  0.00     0.000 C 
ENDROOT
BRANCH   1   2
ATOM      2  C   UNL     1      14.814 -33.573  -1.484  1.00  0.00     0.000 C 
BRANCH   2   3
ATOM      3  C   UNL     1      13.617 -33.596  -2.447  1.00  0.00     0.000 C 
BRANCH   3   4
ATOM      4  C   UNL     1      13.133 -35.021  -2.758  1.00  0.00     0.000 C 
BRANCH   4   5
ATOM      5  C   UNL     1      13.691 -36.062  -1.769  1.00  0.00     0.000 C 
BRANCH   5   6
ATOM      6  C   UNL     1      13.691 -37.490  -2.344  1.00  0.00     0.000 C 
BRANCH   6   7
ATOM      7  C   UNL     1      15.087 -38.074  -2.637  1.00  0.00     0.000 C 
BRANCH   7   8
ATOM      8  C   UNL     1      15.365 -39.448  -2.001  1.00  0.00     0.000 C 
BRANCH   8   9
ATOM      9  C   UNL     1      15.271 -39.425  -0.467  1.00  0.00     0.000 C 
BRANCH   9  10
ATOM     10  C   UNL     1      16.528 -40.029   0.171  1.00  0.00     0.006 C 
BRANCH  10  11
ATOM     11  C   UNL     1      16.978 -39.208   1.382  1.00  0.00     0.053 C 
BRANCH  11  12
ATOM     12  C   UNL     1      18.470 -39.101   1.427  1.00  0.00     0.041 C 
ATOM     13  O   UNL     1      19.091 -39.316   2.503  1.00  0.00    -0.550 OA
ATOM     14  O   UNL     1      19.180 -38.798   0.272  1.00  0.00    -0.550 OA
ENDBRANCH  11  12
ENDBRANCH  10  11
ENDBRANCH   9  10
ENDBRANCH   8   9
ENDBRANCH   7   8
ENDBRANCH   6   7
ENDBRANCH   5   6
ENDBRANCH   4   5
ENDBRANCH   3   4
ENDBRANCH   2   3
ENDBRANCH   1   2
BRANCH   1  15
ATOM     15  C   UNL     1      17.381 -33.768  -1.729  1.00  0.00     0.000 C 
BRANCH  15  16
ATOM     16  C   UNL     1      17.277 -35.281  -1.998  1.00  0.00     0.000 C 
BRANCH  16  17
ATOM     17  C   UNL     1      17.365 -36.117  -0.711  1.00  0.00     0.000 C 
BRANCH  17  18
ATOM     18  C   UNL     1      17.862 -35.295   0.493  1.00  0.00    -0.000 C 
BRANCH  18  19
ATOM     19  C   UNL     1      16.823 -35.240   1.635  1.00  0.00    -0.000 C 
BRANCH  19  20
ATOM     20  C   UNL     1      15.548 -36.062   1.362  1.00  0.00    -0.000 C 
BRANCH  20  21
ATOM     21  C   UNL     1      14.242 -35.439   1.881  1.00  0.00    -0.000 C 
BRANCH  21  22
ATOM     22  C   UNL     1      14.470 -34.431   3.023  1.00  0.00    -0.000 C 
BRANCH  22  23
ATOM     23  C   UNL     1      14.248 -35.063   4.405  1.00  0.00    -0.000 C 
BRANCH  23  24
ATOM     24  C   UNL     1      15.567 -35.315   5.157  1.00  0.00    -0.000 C 
BRANCH  24  25
ATOM     25  C   UNL     1      15.774 -36.803   5.492  1.00  0.00    -0.003 C 
ATOM     26  C   UNL     1      16.893 -37.439   4.662  1.00  0.00     0.004 C 
ENDBRANCH  24  25
ENDBRANCH  23  24
ENDBRANCH  22  23
ENDBRANCH  21  22
ENDBRANCH  20  21
ENDBRANCH  19  20
ENDBRANCH  18  19
ENDBRANCH  17  18
ENDBRANCH  16  17
ENDBRANCH  15  16
ENDBRANCH   1  15
TORSDOF 22
ENDMDL
