MODEL 1
REMARK VINA RESULT:    -3.730      0.000      0.000
REMARK INTER + INTRA:         -15.285
REMARK INTER:                  -9.837
REMARK INTRA:                  -5.449
REMARK UNBOUND:                -5.449
REMARK SMILES CCCCCCCCCCCCCCCCCCCCCCCCCCCCCC(=O)[O-]
REMARK SMILES IDX 16 1 17 2 18 3 19 4 20 5 21 6 22 7 23 8 24 9 25 10 26 11
REMARK SMILES IDX 27 12 28 13 29 14 30 15 31 16 32 17 15 18 14 19 13 20 12 21
REMARK SMILES IDX 11 22 10 23 9 24 8 25 7 26 6 27 5 28 4 29 3 30 2 31 1 32
REMARK H PARENT
REMARK Flexibility Score: inf
ROOT
ATOM      1  C   UNL     1       6.078   0.420  49.128  1.00  0.00     0.000 C 
ENDROOT
BRANCH   1   2
ATOM      2  C   UNL     1       6.150   0.625  50.651  1.00  0.00     0.000 C 
BRANCH   2   3
ATOM      3  C   UNL     1       7.034   1.819  51.048  1.00  0.00     0.000 C 
BRANCH   3   4
ATOM      4  C   UNL     1       6.731   2.335  52.462  1.00  0.00     0.000 C 
BRANCH   4   5
ATOM      5  C   UNL     1       5.248   2.154  52.808  1.00  0.00     0.000 C 
BRANCH   5   6
ATOM      6  C   UNL     1       4.503   3.495  52.746  1.00  0.00     0.000 C 
BRANCH   6   7
ATOM      7  C   UNL     1       3.207   3.422  51.923  1.00  0.00     0.000 C 
BRANCH   7   8
ATOM      8  C   UNL     1       3.469   3.184  50.424  1.00  0.00     0.000 C 
BRANCH   8   9
ATOM      9  C   UNL     1       2.738   1.941  49.892  1.00  0.00     0.000 C 
BRANCH   9  10
ATOM     10  C   UNL     1       2.102   1.110  51.020  1.00  0.00     0.000 C 
BRANCH  10  11
ATOM     11  C   UNL     1       1.106   0.061  50.496  1.00  0.00     0.000 C 
BRANCH  11  12
ATOM     12  C   UNL     1       1.686  -0.934  49.471  1.00  0.00     0.000 C 
BRANCH  12  13
ATOM     13  C   UNL     1       2.723  -1.924  50.035  1.00  0.00     0.006 C 
BRANCH  13  14
ATOM     14  C   UNL     1       3.743  -2.382  48.986  1.00  0.00     0.053 C 
BRANCH  14  15
ATOM     15  C   UNL     1       3.234  -3.579  48.243  1.00  0.00     0.041 C 
ATOM     16  O   UNL     1       3.409  -4.735  48.709  1.00  0.00    -0.550 OA
ATOM     17  O   UNL     1       2.541  -3.413  47.050  1.00  0.00    -0.550 OA
ENDBRANCH  14  15
ENDBRANCH  13  14
ENDBRANCH  12  13
ENDBRANCH  11  12
ENDBRANCH  10  11
ENDBRANCH   9  10
ENDBRANCH   8   9
ENDBRANCH   7   8
ENDBRANCH   6   7
ENDBRANCH   5   6
ENDBRANCH   4   5
ENDBRANCH   3   4
ENDBRANCH   2   3
ENDBRANCH   1   2
BRANCH   1  18
ATOM     18  C   UNL     1       7.115   1.271  48.359  1.00  0.00     0.000 C 
BRANCH  18  19
ATOM     19  C   UNL     1       6.492   2.212  47.312  1.00  0.00     0.000 C 
BRANCH  19  20
ATOM     20  C   UNL     1       5.774   3.439  47.899  1.00  0.00     0.000 C 
BRANCH  20  21
ATOM     21  C   UNL     1       6.737   4.541  48.399  1.00  0.00     0.000 C 
BRANCH  21  22
ATOM     22  C   UNL     1       6.303   5.134  49.751  1.00  0.00     0.000 C 
BRANCH  22  23
ATOM     23  C   UNL     1       7.493   5.650  50.586  1.00  0.00     0.000 C 
BRANCH  23  24
ATOM     24  C   UNL     1       7.121   6.032  52.032  1.00  0.00    -0.000 C 
BRANCH  24  25
ATOM     25  C   UNL     1       6.501   7.431  52.204  1.00  0.00    -0.000 C 
BRANCH  25  26
ATOM     26  C   UNL     1       4.966   7.463  52.333  1.00  0.00    -0.000 C 
BRANCH  26  27
ATOM     27  C   UNL     1       4.317   8.590  51.512  1.00  0.00    -0.000 C 
BRANCH  27  28
ATOM     28  C   UNL     1       4.365   8.332  49.995  1.00  0.00    -0.000 C 
BRANCH  28  29
ATOM     29  C   UNL     1       4.304   9.590  49.109  1.00  0.00    -0.000 C 
BRANCH  29  30
ATOM     30  C   UNL     1       5.462   9.671  48.100  1.00  0.00    -0.000 C 
BRANCH  30  31
ATOM     31  C   UNL     1       6.786   9.150  48.681  1.00  0.00    -0.003 C 
ATOM     32  C   UNL     1       7.452   8.099  47.791  1.00  0.00     0.004 C 
ENDBRANCH  30  31
ENDBRANCH  29  30
ENDBRANCH  28  29
ENDBRANCH  27  28
ENDBRANCH  26  27
ENDBRANCH  25  26
ENDBRANCH  24  25
ENDBRANCH  23  24
ENDBRANCH  22  23
ENDBRANCH  21  22
ENDBRANCH  20  21
ENDBRANCH  19  20
ENDBRANCH  18  19
ENDBRANCH   1  18
TORSDOF 28
ENDMDL
MODEL 2
REMARK VINA RESULT:    -3.708      1.090      1.844
REMARK INTER + INTRA:         -15.226
REMARK INTER:                  -9.341
REMARK INTRA:                  -5.885
REMARK UNBOUND:                -5.449
REMARK SMILES CCCCCCCCCCCCCCCCCCCCCCCCCCCCCC(=O)[O-]
REMARK SMILES IDX 16 1 17 2 18 3 19 4 20 5 21 6 22 7 23 8 24 9 25 10 26 11
REMARK SMILES IDX 27 12 28 13 29 14 30 15 31 16 32 17 15 18 14 19 13 20 12 21
REMARK SMILES IDX 11 22 10 23 9 24 8 25 7 26 6 27 5 28 4 29 3 30 2 31 1 32
REMARK H PARENT
REMARK Flexibility Score: inf
ROOT
ATOM      1  C   UNL     1       7.093   1.254  48.563  1.00  0.00     0.000 C 
ENDROOT
BRANCH   1   2
ATOM      2  C   UNL     1       6.094   0.471  49.432  1.00  0.00     0.000 C 
BRANCH   2   3
ATOM      3  C   UNL     1       6.351   0.649  50.937  1.00  0.00     0.000 C 
BRANCH   3   4
ATOM      4  C   UNL     1       7.019   1.991  51.269  1.00  0.00     0.000 C 
BRANCH   4   5
ATOM      5  C   UNL     1       6.279   2.707  52.406  1.00  0.00     0.000 C 
BRANCH   5   6
ATOM      6  C   UNL     1       4.822   2.233  52.495  1.00  0.00     0.000 C 
BRANCH   6   7
ATOM      7  C   UNL     1       3.814   3.394  52.512  1.00  0.00     0.000 C 
BRANCH   7   8
ATOM      8  C   UNL     1       2.711   3.236  51.449  1.00  0.00     0.000 C 
BRANCH   8   9
ATOM      9  C   UNL     1       3.226   2.570  50.163  1.00  0.00     0.000 C 
BRANCH   9  10
ATOM     10  C   UNL     1       2.421   1.311  49.795  1.00  0.00     0.000 C 
BRANCH  10  11
ATOM     11  C   UNL     1       1.411   0.912  50.884  1.00  0.00     0.000 C 
BRANCH  11  12
ATOM     12  C   UNL     1       1.703  -0.431  51.584  1.00  0.00     0.000 C 
BRANCH  12  13
ATOM     13  C   UNL     1       3.168  -0.900  51.514  1.00  0.00     0.006 C 
BRANCH  13  14
ATOM     14  C   UNL     1       3.305  -2.374  51.111  1.00  0.00     0.053 C 
BRANCH  14  15
ATOM     15  C   UNL     1       3.694  -2.492  49.670  1.00  0.00     0.041 C 
ATOM     16  O   UNL     1       4.825  -2.948  49.355  1.00  0.00    -0.550 OA
ATOM     17  O   UNL     1       2.796  -2.127  48.675  1.00  0.00    -0.550 OA
ENDBRANCH  14  15
ENDBRANCH  13  14
ENDBRANCH  12  13
ENDBRANCH  11  12
ENDBRANCH  10  11
ENDBRANCH   9  10
ENDBRANCH   8   9
ENDBRANCH   7   8
ENDBRANCH   6   7
ENDBRANCH   5   6
ENDBRANCH   4   5
ENDBRANCH   3   4
ENDBRANCH   2   3
ENDBRANCH   1   2
BRANCH   1  18
ATOM     18  C   UNL     1       6.397   2.168  47.527  1.00  0.00     0.000 C 
BRANCH  18  19
ATOM     19  C   UNL     1       5.834   3.469  48.127  1.00  0.00     0.000 C 
BRANCH  19  20
ATOM     20  C   UNL     1       6.848   4.623  48.222  1.00  0.00     0.000 C 
BRANCH  20  21
ATOM     21  C   UNL     1       6.947   5.248  49.633  1.00  0.00     0.000 C 
BRANCH  21  22
ATOM     22  C   UNL     1       5.573   5.643  50.200  1.00  0.00     0.000 C 
BRANCH  22  23
ATOM     23  C   UNL     1       5.677   6.432  51.522  1.00  0.00     0.000 C 
BRANCH  23  24
ATOM     24  C   UNL     1       4.455   7.326  51.812  1.00  0.00    -0.000 C 
BRANCH  24  25
ATOM     25  C   UNL     1       3.288   7.189  50.817  1.00  0.00    -0.000 C 
BRANCH  25  26
ATOM     26  C   UNL     1       3.117   8.363  49.834  1.00  0.00    -0.000 C 
BRANCH  26  27
ATOM     27  C   UNL     1       4.001   9.572  50.183  1.00  0.00    -0.000 C 
BRANCH  27  28
ATOM     28  C   UNL     1       4.916  10.002  49.021  1.00  0.00    -0.000 C 
BRANCH  28  29
ATOM     29  C   UNL     1       6.094   9.057  48.723  1.00  0.00    -0.000 C 
BRANCH  29  30
ATOM     30  C   UNL     1       7.464   9.692  49.020  1.00  0.00    -0.000 C 
BRANCH  30  31
ATOM     31  C   UNL     1       8.633   8.818  48.541  1.00  0.00    -0.003 C 
ATOM     32  C   UNL     1       8.248   7.892  47.386  1.00  0.00     0.004 C 
ENDBRANCH  30  31
ENDBRANCH  29  30
ENDBRANCH  28  29
ENDBRANCH  27  28
ENDBRANCH  26  27
ENDBRANCH  25  26
ENDBRANCH  24  25
ENDBRANCH  23  24
ENDBRANCH  22  23
ENDBRANCH  21  22
ENDBRANCH  20  21
ENDBRANCH  19  20
ENDBRANCH  18  19
ENDBRANCH   1  18
TORSDOF 28
ENDMDL
MODEL 3
REMARK VINA RESULT:    -3.662      3.510      8.539
REMARK INTER + INTRA:         -15.106
REMARK INTER:                  -9.537
REMARK INTRA:                  -5.569
REMARK UNBOUND:                -5.449
REMARK SMILES CCCCCCCCCCCCCCCCCCCCCCCCCCCCCC(=O)[O-]
REMARK SMILES IDX 16 1 17 2 18 3 19 4 20 5 21 6 22 7 23 8 24 9 25 10 26 11
REMARK SMILES IDX 27 12 28 13 29 14 30 15 31 16 32 17 15 18 14 19 13 20 12 21
REMARK SMILES IDX 11 22 10 23 9 24 8 25 7 26 6 27 5 28 4 29 3 30 2 31 1 32
REMARK H PARENT
REMARK Flexibility Score: inf
ROOT
ATOM      1  C   UNL     1       7.036   1.267  48.457  1.00  0.00     0.000 C 
ENDROOT
BRANCH   1   2
ATOM      2  C   UNL     1       6.378   2.261  47.484  1.00  0.00     0.000 C 
BRANCH   2   3
ATOM      3  C   UNL     1       5.757   3.470  48.200  1.00  0.00     0.000 C 
BRANCH   3   4
ATOM      4  C   UNL     1       6.778   4.584  48.475  1.00  0.00     0.000 C 
BRANCH   4   5
ATOM      5  C   UNL     1       6.340   5.450  49.664  1.00  0.00     0.000 C 
BRANCH   5   6
ATOM      6  C   UNL     1       7.539   5.801  50.557  1.00  0.00     0.000 C 
BRANCH   6   7
ATOM      7  C   UNL     1       7.249   6.966  51.517  1.00  0.00     0.000 C 
BRANCH   7   8
ATOM      8  C   UNL     1       6.063   6.677  52.457  1.00  0.00     0.000 C 
BRANCH   8   9
ATOM      9  C   UNL     1       4.856   7.586  52.174  1.00  0.00     0.000 C 
BRANCH   9  10
ATOM     10  C   UNL     1       5.233   8.807  51.317  1.00  0.00     0.000 C 
BRANCH  10  11
ATOM     11  C   UNL     1       4.654   8.737  49.894  1.00  0.00     0.000 C 
BRANCH  11  12
ATOM     12  C   UNL     1       5.128   9.854  48.941  1.00  0.00     0.000 C 
BRANCH  12  13
ATOM     13  C   UNL     1       6.625   9.814  48.581  1.00  0.00     0.006 C 
BRANCH  13  14
ATOM     14  C   UNL     1       7.053   8.479  47.958  1.00  0.00     0.053 C 
BRANCH  14  15
ATOM     15  C   UNL     1       8.543   8.334  47.997  1.00  0.00     0.041 C 
ATOM     16  O   UNL     1       9.078   7.218  47.760  1.00  0.00    -0.550 OA
ATOM     17  O   UNL     1       9.343   9.438  48.266  1.00  0.00    -0.550 OA
ENDBRANCH  14  15
ENDBRANCH  13  14
ENDBRANCH  12  13
ENDBRANCH  11  12
ENDBRANCH  10  11
ENDBRANCH   9  10
ENDBRANCH   8   9
ENDBRANCH   7   8
ENDBRANCH   6   7
ENDBRANCH   5   6
ENDBRANCH   4   5
ENDBRANCH   3   4
ENDBRANCH   2   3
ENDBRANCH   1   2
BRANCH   1  18
ATOM     18  C   UNL     1       6.012   0.565  49.379  1.00  0.00     0.000 C 
BRANCH  18  19
ATOM     19  C   UNL     1       6.336   0.695  50.878  1.00  0.00     0.000 C 
BRANCH  19  20
ATOM     20  C   UNL     1       7.099   1.975  51.260  1.00  0.00     0.000 C 
BRANCH  20  21
ATOM     21  C   UNL     1       6.374   2.836  52.321  1.00  0.00     0.000 C 
BRANCH  21  22
ATOM     22  C   UNL     1       4.861   2.559  52.371  1.00  0.00     0.000 C 
BRANCH  22  23
ATOM     23  C   UNL     1       4.023   3.727  51.810  1.00  0.00     0.000 C 
BRANCH  23  24
ATOM     24  C   UNL     1       3.032   3.309  50.705  1.00  0.00    -0.000 C 
BRANCH  24  25
ATOM     25  C   UNL     1       2.201   2.048  51.009  1.00  0.00    -0.000 C 
BRANCH  25  26
ATOM     26  C   UNL     1       2.404   0.872  50.035  1.00  0.00    -0.000 C 
BRANCH  26  27
ATOM     27  C   UNL     1       2.069  -0.492  50.662  1.00  0.00    -0.000 C 
BRANCH  27  28
ATOM     28  C   UNL     1       3.198  -1.034  51.559  1.00  0.00    -0.000 C 
BRANCH  28  29
ATOM     29  C   UNL     1       3.513  -2.532  51.391  1.00  0.00    -0.000 C 
BRANCH  29  30
ATOM     30  C   UNL     1       4.901  -2.789  50.780  1.00  0.00    -0.000 C 
BRANCH  30  31
ATOM     31  C   UNL     1       4.850  -2.956  49.254  1.00  0.00    -0.003 C 
ATOM     32  C   UNL     1       3.785  -3.957  48.802  1.00  0.00     0.004 C 
ENDBRANCH  30  31
ENDBRANCH  29  30
ENDBRANCH  28  29
ENDBRANCH  27  28
ENDBRANCH  26  27
ENDBRANCH  25  26
ENDBRANCH  24  25
ENDBRANCH  23  24
ENDBRANCH  22  23
ENDBRANCH  21  22
ENDBRANCH  20  21
ENDBRANCH  19  20
ENDBRANCH  18  19
ENDBRANCH   1  18
TORSDOF 28
ENDMDL
MODEL 4
REMARK VINA RESULT:    -3.645      1.922      3.462
REMARK INTER + INTRA:         -15.061
REMARK INTER:                 -10.008
REMARK INTRA:                  -5.053
REMARK UNBOUND:                -5.449
REMARK SMILES CCCCCCCCCCCCCCCCCCCCCCCCCCCCCC(=O)[O-]
REMARK SMILES IDX 16 1 17 2 18 3 19 4 20 5 21 6 22 7 23 8 24 9 25 10 26 11
REMARK SMILES IDX 27 12 28 13 29 14 30 15 31 16 32 17 15 18 14 19 13 20 12 21
REMARK SMILES IDX 11 22 10 23 9 24 8 25 7 26 6 27 5 28 4 29 3 30 2 31 1 32
REMARK H PARENT
REMARK Flexibility Score: inf
ROOT
ATOM      1  C   UNL     1       6.180   3.187  47.965  1.00  0.00     0.000 C 
ENDROOT
BRANCH   1   2
ATOM      2  C   UNL     1       4.742   3.119  48.509  1.00  0.00     0.000 C 
BRANCH   2   3
ATOM      3  C   UNL     1       4.504   4.088  49.678  1.00  0.00     0.000 C 
BRANCH   3   4
ATOM      4  C   UNL     1       3.715   3.446  50.828  1.00  0.00     0.000 C 
BRANCH   4   5
ATOM      5  C   UNL     1       3.330   4.492  51.882  1.00  0.00     0.000 C 
BRANCH   5   6
ATOM      6  C   UNL     1       2.725   5.739  51.222  1.00  0.00     0.000 C 
BRANCH   6   7
ATOM      7  C   UNL     1       1.188   5.747  51.254  1.00  0.00     0.000 C 
BRANCH   7   8
ATOM      8  C   UNL     1       0.618   5.043  52.500  1.00  0.00     0.000 C 
BRANCH   8   9
ATOM      9  C   UNL     1      -0.815   4.530  52.280  1.00  0.00     0.000 C 
BRANCH   9  10
ATOM     10  C   UNL     1      -0.935   3.014  52.517  1.00  0.00     0.000 C 
BRANCH  10  11
ATOM     11  C   UNL     1       0.429   2.304  52.526  1.00  0.00     0.000 C 
BRANCH  11  12
ATOM     12  C   UNL     1       0.411   0.851  52.008  1.00  0.00     0.000 C 
BRANCH  12  13
ATOM     13  C   UNL     1       1.742   0.351  51.417  1.00  0.00     0.006 C 
BRANCH  13  14
ATOM     14  C   UNL     1       1.694  -1.125  51.002  1.00  0.00     0.053 C 
BRANCH  14  15
ATOM     15  C   UNL     1       1.773  -1.256  49.512  1.00  0.00     0.041 C 
ATOM     16  O   UNL     1       2.691  -1.937  48.984  1.00  0.00    -0.550 OA
ATOM     17  O   UNL     1       0.815  -0.650  48.709  1.00  0.00    -0.550 OA
ENDBRANCH  14  15
ENDBRANCH  13  14
ENDBRANCH  12  13
ENDBRANCH  11  12
ENDBRANCH  10  11
ENDBRANCH   9  10
ENDBRANCH   8   9
ENDBRANCH   7   8
ENDBRANCH   6   7
ENDBRANCH   5   6
ENDBRANCH   4   5
ENDBRANCH   3   4
ENDBRANCH   2   3
ENDBRANCH   1   2
BRANCH   1  18
ATOM     18  C   UNL     1       6.751   1.795  47.607  1.00  0.00     0.000 C 
BRANCH  18  19
ATOM     19  C   UNL     1       7.009   0.898  48.832  1.00  0.00     0.000 C 
BRANCH  19  20
ATOM     20  C   UNL     1       5.872  -0.086  49.157  1.00  0.00     0.000 C 
BRANCH  20  21
ATOM     21  C   UNL     1       5.311   0.065  50.590  1.00  0.00     0.000 C 
BRANCH  21  22
ATOM     22  C   UNL     1       6.422   0.211  51.645  1.00  0.00     0.000 C 
BRANCH  22  23
ATOM     23  C   UNL     1       6.337   1.542  52.420  1.00  0.00     0.000 C 
BRANCH  23  24
ATOM     24  C   UNL     1       7.231   2.658  51.843  1.00  0.00    -0.000 C 
BRANCH  24  25
ATOM     25  C   UNL     1       7.045   4.046  52.483  1.00  0.00    -0.000 C 
BRANCH  25  26
ATOM     26  C   UNL     1       7.467   5.240  51.605  1.00  0.00    -0.000 C 
BRANCH  26  27
ATOM     27  C   UNL     1       6.546   6.462  51.772  1.00  0.00    -0.000 C 
BRANCH  27  28
ATOM     28  C   UNL     1       6.229   7.160  50.436  1.00  0.00    -0.000 C 
BRANCH  28  29
ATOM     29  C   UNL     1       7.043   6.670  49.225  1.00  0.00    -0.000 C 
BRANCH  29  30
ATOM     30  C   UNL     1       7.174   7.732  48.120  1.00  0.00    -0.000 C 
BRANCH  30  31
ATOM     31  C   UNL     1       8.574   7.751  47.485  1.00  0.00    -0.003 C 
ATOM     32  C   UNL     1       9.418   8.941  47.945  1.00  0.00     0.004 C 
ENDBRANCH  30  31
ENDBRANCH  29  30
ENDBRANCH  28  29
ENDBRANCH  27  28
ENDBRANCH  26  27
ENDBRANCH  25  26
ENDBRANCH  24  25
ENDBRANCH  23  24
ENDBRANCH  22  23
ENDBRANCH  21  22
ENDBRANCH  20  21
ENDBRANCH  19  20
ENDBRANCH  18  19
ENDBRANCH   1  18
TORSDOF 28
ENDMDL
MODEL 5
REMARK VINA RESULT:    -3.631      1.539      3.092
REMARK INTER + INTRA:         -15.023
REMARK INTER:                  -9.308
REMARK INTRA:                  -5.715
REMARK UNBOUND:                -5.449
REMARK SMILES CCCCCCCCCCCCCCCCCCCCCCCCCCCCCC(=O)[O-]
REMARK SMILES IDX 16 1 17 2 18 3 19 4 20 5 21 6 22 7 23 8 24 9 25 10 26 11
REMARK SMILES IDX 27 12 28 13 29 14 30 15 31 16 32 17 15 18 14 19 13 20 12 21
REMARK SMILES IDX 11 22 10 23 9 24 8 25 7 26 6 27 5 28 4 29 3 30 2 31 1 32
REMARK H PARENT
REMARK Flexibility Score: inf
ROOT
ATOM      1  C   UNL     1       5.786   3.454  48.241  1.00  0.00     0.000 C 
ENDROOT
BRANCH   1   2
ATOM      2  C   UNL     1       6.430   2.184  47.659  1.00  0.00     0.000 C 
BRANCH   2   3
ATOM      3  C   UNL     1       6.422   1.008  48.650  1.00  0.00     0.000 C 
BRANCH   3   4
ATOM      4  C   UNL     1       7.034   1.376  50.010  1.00  0.00     0.000 C 
BRANCH   4   5
ATOM      5  C   UNL     1       6.346   0.609  51.147  1.00  0.00     0.000 C 
BRANCH   5   6
ATOM      6  C   UNL     1       6.480   1.365  52.477  1.00  0.00     0.000 C 
BRANCH   6   7
ATOM      7  C   UNL     1       6.336   2.887  52.317  1.00  0.00     0.000 C 
BRANCH   7   8
ATOM      8  C   UNL     1       4.933   3.393  52.701  1.00  0.00     0.000 C 
BRANCH   8   9
ATOM      9  C   UNL     1       4.108   3.820  51.477  1.00  0.00     0.000 C 
BRANCH   9  10
ATOM     10  C   UNL     1       2.595   3.649  51.704  1.00  0.00     0.000 C 
BRANCH  10  11
ATOM     11  C   UNL     1       2.106   2.222  51.401  1.00  0.00     0.000 C 
BRANCH  11  12
ATOM     12  C   UNL     1       2.592   1.637  50.060  1.00  0.00     0.000 C 
BRANCH  12  13
ATOM     13  C   UNL     1       3.122   0.192  50.131  1.00  0.00     0.006 C 
BRANCH  13  14
ATOM     14  C   UNL     1       2.122  -0.779  50.770  1.00  0.00     0.053 C 
BRANCH  14  15
ATOM     15  C   UNL     1       0.897  -0.911  49.917  1.00  0.00     0.041 C 
ATOM     16  O   UNL     1      -0.247  -0.860  50.440  1.00  0.00    -0.550 OA
ATOM     17  O   UNL     1       1.021  -1.059  48.541  1.00  0.00    -0.550 OA
ENDBRANCH  14  15
ENDBRANCH  13  14
ENDBRANCH  12  13
ENDBRANCH  11  12
ENDBRANCH  10  11
ENDBRANCH   9  10
ENDBRANCH   8   9
ENDBRANCH   7   8
ENDBRANCH   6   7
ENDBRANCH   5   6
ENDBRANCH   4   5
ENDBRANCH   3   4
ENDBRANCH   2   3
ENDBRANCH   1   2
BRANCH   1  18
ATOM     18  C   UNL     1       6.792   4.619  48.395  1.00  0.00     0.000 C 
BRANCH  18  19
ATOM     19  C   UNL     1       6.440   5.596  49.531  1.00  0.00     0.000 C 
BRANCH  19  20
ATOM     20  C   UNL     1       7.603   5.914  50.487  1.00  0.00     0.000 C 
BRANCH  20  21
ATOM     21  C   UNL     1       7.147   6.474  51.854  1.00  0.00     0.000 C 
BRANCH  21  22
ATOM     22  C   UNL     1       7.015   8.007  51.849  1.00  0.00     0.000 C 
BRANCH  22  23
ATOM     23  C   UNL     1       5.625   8.488  52.315  1.00  0.00     0.000 C 
BRANCH  23  24
ATOM     24  C   UNL     1       4.514   7.432  52.154  1.00  0.00    -0.000 C 
BRANCH  24  25
ATOM     25  C   UNL     1       3.681   7.546  50.863  1.00  0.00    -0.000 C 
BRANCH  25  26
ATOM     26  C   UNL     1       3.335   8.982  50.425  1.00  0.00    -0.000 C 
BRANCH  26  27
ATOM     27  C   UNL     1       4.077   9.416  49.149  1.00  0.00    -0.000 C 
BRANCH  27  28
ATOM     28  C   UNL     1       4.907  10.699  49.344  1.00  0.00    -0.000 C 
BRANCH  28  29
ATOM     29  C   UNL     1       6.421  10.549  49.102  1.00  0.00    -0.000 C 
BRANCH  29  30
ATOM     30  C   UNL     1       6.794   9.208  48.446  1.00  0.00    -0.000 C 
BRANCH  30  31
ATOM     31  C   UNL     1       8.311   8.968  48.422  1.00  0.00    -0.003 C 
ATOM     32  C   UNL     1       8.713   7.800  47.519  1.00  0.00     0.004 C 
ENDBRANCH  30  31
ENDBRANCH  29  30
ENDBRANCH  28  29
ENDBRANCH  27  28
ENDBRANCH  26  27
ENDBRANCH  25  26
ENDBRANCH  24  25
ENDBRANCH  23  24
ENDBRANCH  22  23
ENDBRANCH  21  22
ENDBRANCH  20  21
ENDBRANCH  19  20
ENDBRANCH  18  19
ENDBRANCH   1  18
TORSDOF 28
ENDMDL
MODEL 6
REMARK VINA RESULT:    -3.578      1.080      2.517
REMARK INTER + INTRA:         -14.883
REMARK INTER:                  -9.809
REMARK INTRA:                  -5.074
REMARK UNBOUND:                -5.449
REMARK SMILES CCCCCCCCCCCCCCCCCCCCCCCCCCCCCC(=O)[O-]
REMARK SMILES IDX 16 1 17 2 18 3 19 4 20 5 21 6 22 7 23 8 24 9 25 10 26 11
REMARK SMILES IDX 27 12 28 13 29 14 30 15 31 16 32 17 15 18 14 19 13 20 12 21
REMARK SMILES IDX 11 22 10 23 9 24 8 25 7 26 6 27 5 28 4 29 3 30 2 31 1 32
REMARK H PARENT
REMARK Flexibility Score: inf
ROOT
ATOM      1  C   UNL     1       6.317   0.845  48.711  1.00  0.00     0.000 C 
ENDROOT
BRANCH   1   2
ATOM      2  C   UNL     1       6.726   1.942  47.712  1.00  0.00     0.000 C 
BRANCH   2   3
ATOM      3  C   UNL     1       6.271   3.343  48.151  1.00  0.00     0.000 C 
BRANCH   3   4
ATOM      4  C   UNL     1       4.757   3.423  48.400  1.00  0.00     0.000 C 
BRANCH   4   5
ATOM      5  C   UNL     1       4.457   4.076  49.755  1.00  0.00     0.000 C 
BRANCH   5   6
ATOM      6  C   UNL     1       3.407   3.269  50.532  1.00  0.00     0.000 C 
BRANCH   6   7
ATOM      7  C   UNL     1       3.023   1.956  49.831  1.00  0.00     0.000 C 
BRANCH   7   8
ATOM      8  C   UNL     1       1.963   1.156  50.612  1.00  0.00     0.000 C 
BRANCH   8   9
ATOM      9  C   UNL     1       1.218   0.147  49.723  1.00  0.00     0.000 C 
BRANCH   9  10
ATOM     10  C   UNL     1       1.924  -1.220  49.673  1.00  0.00     0.000 C 
BRANCH  10  11
ATOM     11  C   UNL     1       2.641  -1.567  50.989  1.00  0.00     0.000 C 
BRANCH  11  12
ATOM     12  C   UNL     1       4.112  -2.003  50.835  1.00  0.00     0.000 C 
BRANCH  12  13
ATOM     13  C   UNL     1       4.574  -2.244  49.386  1.00  0.00     0.006 C 
BRANCH  13  14
ATOM     14  C   UNL     1       5.077  -3.674  49.150  1.00  0.00     0.053 C 
BRANCH  14  15
ATOM     15  C   UNL     1       4.002  -4.515  48.534  1.00  0.00     0.041 C 
ATOM     16  O   UNL     1       2.884  -4.629  49.102  1.00  0.00    -0.550 OA
ATOM     17  O   UNL     1       4.226  -5.149  47.318  1.00  0.00    -0.550 OA
ENDBRANCH  14  15
ENDBRANCH  13  14
ENDBRANCH  12  13
ENDBRANCH  11  12
ENDBRANCH  10  11
ENDBRANCH   9  10
ENDBRANCH   8   9
ENDBRANCH   7   8
ENDBRANCH   6   7
ENDBRANCH   5   6
ENDBRANCH   4   5
ENDBRANCH   3   4
ENDBRANCH   2   3
ENDBRANCH   1   2
BRANCH   1  18
ATOM     18  C   UNL     1       7.129   0.898  50.026  1.00  0.00     0.000 C 
BRANCH  18  19
ATOM     19  C   UNL     1       6.256   0.977  51.291  1.00  0.00     0.000 C 
BRANCH  19  20
ATOM     20  C   UNL     1       6.532   2.199  52.185  1.00  0.00     0.000 C 
BRANCH  20  21
ATOM     21  C   UNL     1       7.632   3.135  51.634  1.00  0.00     0.000 C 
BRANCH  21  22
ATOM     22  C   UNL     1       7.420   4.602  52.048  1.00  0.00     0.000 C 
BRANCH  22  23
ATOM     23  C   UNL     1       7.537   5.579  50.860  1.00  0.00     0.000 C 
BRANCH  23  24
ATOM     24  C   UNL     1       6.963   6.981  51.147  1.00  0.00    -0.000 C 
BRANCH  24  25
ATOM     25  C   UNL     1       5.490   7.009  51.595  1.00  0.00    -0.000 C 
BRANCH  25  26
ATOM     26  C   UNL     1       4.799   8.384  51.509  1.00  0.00    -0.000 C 
BRANCH  26  27
ATOM     27  C   UNL     1       5.518   9.359  50.562  1.00  0.00    -0.000 C 
BRANCH  27  28
ATOM     28  C   UNL     1       4.768   9.571  49.234  1.00  0.00    -0.000 C 
BRANCH  28  29
ATOM     29  C   UNL     1       5.623   9.425  47.961  1.00  0.00    -0.000 C 
BRANCH  29  30
ATOM     30  C   UNL     1       7.102   9.130  48.263  1.00  0.00    -0.000 C 
BRANCH  30  31
ATOM     31  C   UNL     1       7.614   7.879  47.531  1.00  0.00    -0.003 C 
ATOM     32  C   UNL     1       9.064   7.540  47.878  1.00  0.00     0.004 C 
ENDBRANCH  30  31
ENDBRANCH  29  30
ENDBRANCH  28  29
ENDBRANCH  27  28
ENDBRANCH  26  27
ENDBRANCH  25  26
ENDBRANCH  24  25
ENDBRANCH  23  24
ENDBRANCH  22  23
ENDBRANCH  21  22
ENDBRANCH  20  21
ENDBRANCH  19  20
ENDBRANCH  18  19
ENDBRANCH   1  18
TORSDOF 28
ENDMDL
MODEL 7
REMARK VINA RESULT:    -3.554      2.390      4.448
REMARK INTER + INTRA:         -14.820
REMARK INTER:                  -9.345
REMARK INTRA:                  -5.475
REMARK UNBOUND:                -5.449
REMARK SMILES CCCCCCCCCCCCCCCCCCCCCCCCCCCCCC(=O)[O-]
REMARK SMILES IDX 16 1 17 2 18 3 19 4 20 5 21 6 22 7 23 8 24 9 25 10 26 11
REMARK SMILES IDX 27 12 28 13 29 14 30 15 31 16 32 17 15 18 14 19 13 20 12 21
REMARK SMILES IDX 11 22 10 23 9 24 8 25 7 26 6 27 5 28 4 29 3 30 2 31 1 32
REMARK H PARENT
REMARK Flexibility Score: inf
ROOT
ATOM      1  C   UNL     1       3.542   4.982  50.497  1.00  0.00     0.000 C 
ENDROOT
BRANCH   1   2
ATOM      2  C   UNL     1       4.124   6.344  50.916  1.00  0.00     0.000 C 
BRANCH   2   3
ATOM      3  C   UNL     1       5.025   6.247  52.157  1.00  0.00     0.000 C 
BRANCH   3   4
ATOM      4  C   UNL     1       6.281   7.123  52.047  1.00  0.00     0.000 C 
BRANCH   4   5
ATOM      5  C   UNL     1       7.541   6.324  52.403  1.00  0.00     0.000 C 
BRANCH   5   6
ATOM      6  C   UNL     1       7.184   4.884  52.799  1.00  0.00     0.000 C 
BRANCH   6   7
ATOM      7  C   UNL     1       8.205   3.853  52.291  1.00  0.00     0.000 C 
BRANCH   7   8
ATOM      8  C   UNL     1       7.536   2.632  51.633  1.00  0.00     0.000 C 
BRANCH   8   9
ATOM      9  C   UNL     1       6.753   1.777  52.643  1.00  0.00     0.000 C 
BRANCH   9  10
ATOM     10  C   UNL     1       6.171   0.505  52.002  1.00  0.00     0.000 C 
BRANCH  10  11
ATOM     11  C   UNL     1       6.328   0.483  50.472  1.00  0.00     0.000 C 
BRANCH  11  12
ATOM     12  C   UNL     1       5.141  -0.129  49.703  1.00  0.00     0.000 C 
BRANCH  12  13
ATOM     13  C   UNL     1       3.857  -0.328  50.531  1.00  0.00     0.006 C 
BRANCH  13  14
ATOM     14  C   UNL     1       2.756   0.678  50.176  1.00  0.00     0.053 C 
BRANCH  14  15
ATOM     15  C   UNL     1       2.158   1.264  51.418  1.00  0.00     0.041 C 
ATOM     16  O   UNL     1       2.862   1.407  52.453  1.00  0.00    -0.550 OA
ATOM     17  O   UNL     1       0.833   1.680  51.422  1.00  0.00    -0.550 OA
ENDBRANCH  14  15
ENDBRANCH  13  14
ENDBRANCH  12  13
ENDBRANCH  11  12
ENDBRANCH  10  11
ENDBRANCH   9  10
ENDBRANCH   8   9
ENDBRANCH   7   8
ENDBRANCH   6   7
ENDBRANCH   5   6
ENDBRANCH   4   5
ENDBRANCH   3   4
ENDBRANCH   2   3
ENDBRANCH   1   2
BRANCH   1  18
ATOM     18  C   UNL     1       4.629   3.897  50.314  1.00  0.00     0.000 C 
BRANCH  18  19
ATOM     19  C   UNL     1       4.828   3.461  48.851  1.00  0.00     0.000 C 
BRANCH  19  20
ATOM     20  C   UNL     1       6.201   3.820  48.256  1.00  0.00     0.000 C 
BRANCH  20  21
ATOM     21  C   UNL     1       6.926   4.958  49.011  1.00  0.00     0.000 C 
BRANCH  21  22
ATOM     22  C   UNL     1       7.441   6.057  48.066  1.00  0.00     0.000 C 
BRANCH  22  23
ATOM     23  C   UNL     1       8.133   7.214  48.817  1.00  0.00     0.000 C 
BRANCH  23  24
ATOM     24  C   UNL     1       7.637   8.613  48.402  1.00  0.00    -0.000 C 
BRANCH  24  25
ATOM     25  C   UNL     1       6.181   8.934  48.788  1.00  0.00    -0.000 C 
BRANCH  25  26
ATOM     26  C   UNL     1       5.391   9.764  47.756  1.00  0.00    -0.000 C 
BRANCH  26  27
ATOM     27  C   UNL     1       5.348  11.263  48.098  1.00  0.00    -0.000 C 
BRANCH  27  28
ATOM     28  C   UNL     1       4.583  11.560  49.401  1.00  0.00    -0.000 C 
BRANCH  28  29
ATOM     29  C   UNL     1       3.109  11.116  49.418  1.00  0.00    -0.000 C 
BRANCH  29  30
ATOM     30  C   UNL     1       2.881   9.818  50.211  1.00  0.00    -0.000 C 
BRANCH  30  31
ATOM     31  C   UNL     1       2.491  10.083  51.673  1.00  0.00    -0.003 C 
ATOM     32  C   UNL     1       3.589   9.686  52.662  1.00  0.00     0.004 C 
ENDBRANCH  30  31
ENDBRANCH  29  30
ENDBRANCH  28  29
ENDBRANCH  27  28
ENDBRANCH  26  27
ENDBRANCH  25  26
ENDBRANCH  24  25
ENDBRANCH  23  24
ENDBRANCH  22  23
ENDBRANCH  21  22
ENDBRANCH  20  21
ENDBRANCH  19  20
ENDBRANCH  18  19
ENDBRANCH   1  18
TORSDOF 28
ENDMDL
MODEL 8
REMARK VINA RESULT:    -3.547      1.017      1.557
REMARK INTER + INTRA:         -14.801
REMARK INTER:                  -9.656
REMARK INTRA:                  -5.144
REMARK UNBOUND:                -5.449
REMARK SMILES CCCCCCCCCCCCCCCCCCCCCCCCCCCCCC(=O)[O-]
REMARK SMILES IDX 16 1 17 2 18 3 19 4 20 5 21 6 22 7 23 8 24 9 25 10 26 11
REMARK SMILES IDX 27 12 28 13 29 14 30 15 31 16 32 17 15 18 14 19 13 20 12 21
REMARK SMILES IDX 11 22 10 23 9 24 8 25 7 26 6 27 5 28 4 29 3 30 2 31 1 32
REMARK H PARENT
REMARK Flexibility Score: inf
ROOT
ATOM      1  C   UNL     1       5.986   0.471  49.433  1.00  0.00     0.000 C 
ENDROOT
BRANCH   1   2
ATOM      2  C   UNL     1       6.308   0.371  50.934  1.00  0.00     0.000 C 
BRANCH   2   3
ATOM      3  C   UNL     1       6.641   1.734  51.561  1.00  0.00     0.000 C 
BRANCH   3   4
ATOM      4  C   UNL     1       5.806   2.028  52.817  1.00  0.00     0.000 C 
BRANCH   4   5
ATOM      5  C   UNL     1       4.833   3.188  52.571  1.00  0.00     0.000 C 
BRANCH   5   6
ATOM      6  C   UNL     1       3.506   2.677  51.994  1.00  0.00     0.000 C 
BRANCH   6   7
ATOM      7  C   UNL     1       3.353   2.971  50.492  1.00  0.00     0.000 C 
BRANCH   7   8
ATOM      8  C   UNL     1       2.660   1.825  49.732  1.00  0.00     0.000 C 
BRANCH   8   9
ATOM      9  C   UNL     1       1.919   0.861  50.673  1.00  0.00     0.000 C 
BRANCH   9  10
ATOM     10  C   UNL     1       1.225  -0.282  49.910  1.00  0.00     0.000 C 
BRANCH  10  11
ATOM     11  C   UNL     1       1.725  -1.672  50.339  1.00  0.00     0.000 C 
BRANCH  11  12
ATOM     12  C   UNL     1       3.253  -1.865  50.271  1.00  0.00     0.000 C 
BRANCH  12  13
ATOM     13  C   UNL     1       3.768  -2.569  49.002  1.00  0.00     0.006 C 
BRANCH  13  14
ATOM     14  C   UNL     1       5.167  -3.173  49.179  1.00  0.00     0.053 C 
BRANCH  14  15
ATOM     15  C   UNL     1       5.072  -4.605  49.605  1.00  0.00     0.041 C 
ATOM     16  O   UNL     1       6.073  -5.186  50.101  1.00  0.00    -0.550 OA
ATOM     17  O   UNL     1       3.869  -5.290  49.480  1.00  0.00    -0.550 OA
ENDBRANCH  14  15
ENDBRANCH  13  14
ENDBRANCH  12  13
ENDBRANCH  11  12
ENDBRANCH  10  11
ENDBRANCH   9  10
ENDBRANCH   8   9
ENDBRANCH   7   8
ENDBRANCH   6   7
ENDBRANCH   5   6
ENDBRANCH   4   5
ENDBRANCH   3   4
ENDBRANCH   2   3
ENDBRANCH   1   2
BRANCH   1  18
ATOM     18  C   UNL     1       7.069   1.239  48.638  1.00  0.00     0.000 C 
BRANCH  18  19
ATOM     19  C   UNL     1       6.516   2.020  47.432  1.00  0.00     0.000 C 
BRANCH  19  20
ATOM     20  C   UNL     1       5.789   3.327  47.794  1.00  0.00     0.000 C 
BRANCH  20  21
ATOM     21  C   UNL     1       6.719   4.412  48.383  1.00  0.00     0.000 C 
BRANCH  21  22
ATOM     22  C   UNL     1       6.210   4.958  49.728  1.00  0.00     0.000 C 
BRANCH  22  23
ATOM     23  C   UNL     1       7.354   5.352  50.684  1.00  0.00     0.000 C 
BRANCH  23  24
ATOM     24  C   UNL     1       7.103   6.667  51.450  1.00  0.00    -0.000 C 
BRANCH  24  25
ATOM     25  C   UNL     1       5.697   6.813  52.061  1.00  0.00    -0.000 C 
BRANCH  25  26
ATOM     26  C   UNL     1       4.921   8.076  51.639  1.00  0.00    -0.000 C 
BRANCH  26  27
ATOM     27  C   UNL     1       4.760   8.200  50.114  1.00  0.00    -0.000 C 
BRANCH  27  28
ATOM     28  C   UNL     1       5.147   9.591  49.580  1.00  0.00    -0.000 C 
BRANCH  28  29
ATOM     29  C   UNL     1       6.045   9.592  48.329  1.00  0.00    -0.000 C 
BRANCH  29  30
ATOM     30  C   UNL     1       6.796   8.265  48.128  1.00  0.00    -0.000 C 
BRANCH  30  31
ATOM     31  C   UNL     1       8.266   8.348  48.568  1.00  0.00    -0.003 C 
ATOM     32  C   UNL     1       9.241   7.934  47.465  1.00  0.00     0.004 C 
ENDBRANCH  30  31
ENDBRANCH  29  30
ENDBRANCH  28  29
ENDBRANCH  27  28
ENDBRANCH  26  27
ENDBRANCH  25  26
ENDBRANCH  24  25
ENDBRANCH  23  24
ENDBRANCH  22  23
ENDBRANCH  21  22
ENDBRANCH  20  21
ENDBRANCH  19  20
ENDBRANCH  18  19
ENDBRANCH   1  18
TORSDOF 28
ENDMDL
MODEL 9
REMARK VINA RESULT:    -3.537      1.739      3.812
REMARK INTER + INTRA:         -14.775
REMARK INTER:                  -8.847
REMARK INTRA:                  -5.928
REMARK UNBOUND:                -5.449
REMARK SMILES CCCCCCCCCCCCCCCCCCCCCCCCCCCCCC(=O)[O-]
REMARK SMILES IDX 16 1 17 2 18 3 19 4 20 5 21 6 22 7 23 8 24 9 25 10 26 11
REMARK SMILES IDX 27 12 28 13 29 14 30 15 31 16 32 17 15 18 14 19 13 20 12 21
REMARK SMILES IDX 11 22 10 23 9 24 8 25 7 26 6 27 5 28 4 29 3 30 2 31 1 32
REMARK H PARENT
REMARK Flexibility Score: inf
ROOT
ATOM      1  C   UNL     1       5.537   3.388  48.269  1.00  0.00     0.000 C 
ENDROOT
BRANCH   1   2
ATOM      2  C   UNL     1       6.744   4.340  48.335  1.00  0.00     0.000 C 
BRANCH   2   3
ATOM      3  C   UNL     1       6.474   5.580  49.203  1.00  0.00     0.000 C 
BRANCH   3   4
ATOM      4  C   UNL     1       7.437   5.690  50.394  1.00  0.00     0.000 C 
BRANCH   4   5
ATOM      5  C   UNL     1       6.668   5.721  51.721  1.00  0.00     0.000 C 
BRANCH   5   6
ATOM      6  C   UNL     1       6.620   4.325  52.360  1.00  0.00     0.000 C 
BRANCH   6   7
ATOM      7  C   UNL     1       7.709   3.383  51.822  1.00  0.00     0.000 C 
BRANCH   7   8
ATOM      8  C   UNL     1       7.149   2.016  51.387  1.00  0.00     0.000 C 
BRANCH   8   9
ATOM      9  C   UNL     1       6.260   1.377  52.467  1.00  0.00     0.000 C 
BRANCH   9  10
ATOM     10  C   UNL     1       5.790  -0.035  52.074  1.00  0.00     0.000 C 
BRANCH  10  11
ATOM     11  C   UNL     1       6.007  -0.341  50.583  1.00  0.00     0.000 C 
BRANCH  11  12
ATOM     12  C   UNL     1       4.718  -0.598  49.775  1.00  0.00     0.000 C 
BRANCH  12  13
ATOM     13  C   UNL     1       3.565  -1.239  50.569  1.00  0.00     0.006 C 
BRANCH  13  14
ATOM     14  C   UNL     1       2.411  -1.705  49.674  1.00  0.00     0.053 C 
BRANCH  14  15
ATOM     15  C   UNL     1       1.258  -0.753  49.762  1.00  0.00     0.041 C 
ATOM     16  O   UNL     1       1.110   0.144  48.891  1.00  0.00    -0.550 OA
ATOM     17  O   UNL     1       0.332  -0.875  50.791  1.00  0.00    -0.550 OA
ENDBRANCH  14  15
ENDBRANCH  13  14
ENDBRANCH  12  13
ENDBRANCH  11  12
ENDBRANCH  10  11
ENDBRANCH   9  10
ENDBRANCH   8   9
ENDBRANCH   7   8
ENDBRANCH   6   7
ENDBRANCH   5   6
ENDBRANCH   4   5
ENDBRANCH   3   4
ENDBRANCH   2   3
ENDBRANCH   1   2
BRANCH   1  18
ATOM     18  C   UNL     1       4.491   3.668  49.373  1.00  0.00     0.000 C 
BRANCH  18  19
ATOM     19  C   UNL     1       3.663   2.433  49.771  1.00  0.00     0.000 C 
BRANCH  19  20
ATOM     20  C   UNL     1       2.557   2.708  50.805  1.00  0.00     0.000 C 
BRANCH  20  21
ATOM     21  C   UNL     1       3.095   3.036  52.217  1.00  0.00     0.000 C 
BRANCH  21  22
ATOM     22  C   UNL     1       2.841   4.498  52.619  1.00  0.00     0.000 C 
BRANCH  22  23
ATOM     23  C   UNL     1       1.922   5.240  51.627  1.00  0.00     0.000 C 
BRANCH  23  24
ATOM     24  C   UNL     1       2.253   6.737  51.468  1.00  0.00    -0.000 C 
BRANCH  24  25
ATOM     25  C   UNL     1       3.343   7.062  50.430  1.00  0.00    -0.000 C 
BRANCH  25  26
ATOM     26  C   UNL     1       3.975   8.463  50.552  1.00  0.00    -0.000 C 
BRANCH  26  27
ATOM     27  C   UNL     1       4.130   9.172  49.196  1.00  0.00    -0.000 C 
BRANCH  27  28
ATOM     28  C   UNL     1       5.538   9.758  48.983  1.00  0.00    -0.000 C 
BRANCH  28  29
ATOM     29  C   UNL     1       6.584   9.367  50.043  1.00  0.00    -0.000 C 
BRANCH  29  30
ATOM     30  C   UNL     1       7.992   9.171  49.455  1.00  0.00    -0.000 C 
BRANCH  30  31
ATOM     31  C   UNL     1       7.958   8.709  47.990  1.00  0.00    -0.003 C 
ATOM     32  C   UNL     1       9.066   7.708  47.658  1.00  0.00     0.004 C 
ENDBRANCH  30  31
ENDBRANCH  29  30
ENDBRANCH  28  29
ENDBRANCH  27  28
ENDBRANCH  26  27
ENDBRANCH  25  26
ENDBRANCH  24  25
ENDBRANCH  23  24
ENDBRANCH  22  23
ENDBRANCH  21  22
ENDBRANCH  20  21
ENDBRANCH  19  20
ENDBRANCH  18  19
ENDBRANCH   1  18
TORSDOF 28
ENDMDL
