MODEL 1
REMARK VINA RESULT:    -5.971      0.000      0.000
REMARK INTER + INTRA:          -6.720
REMARK INTER:                  -7.193
REMARK INTRA:                   0.473
REMARK UNBOUND:                 0.473
REMARK SMILES O=c1c(O)c(-c2ccc(O)c(O)c2)oc2cc(O)cc(O)c12
REMARK SMILES IDX 5 1 3 2 2 3 1 4 22 5 20 6 19 7 17 8 16 9 15 10 14 11 6 12
REMARK SMILES IDX 7 13 8 14 9 15 13 16 11 17 10 18 12 20 4 22 21 24 18 26
REMARK H PARENT 10 19 12 21 4 23 21 25 18 27
REMARK Flexibility Score: inf
ROOT
ATOM      1  C   UNL     1       7.633   8.349  14.031  1.00  0.00     0.180 A 
ATOM      2  C   UNL     1       7.736   9.751  14.033  1.00  0.00     0.208 A 
ATOM      3  C   UNL     1       7.726  10.436  12.807  1.00  0.00     0.238 A 
ATOM      4  O   UNL     1       7.764  11.695  12.818  1.00  0.00    -0.285 OA
ATOM      5  C   UNL     1       7.628   9.711  11.595  1.00  0.00     0.111 A 
ATOM      6  C   UNL     1       7.649  10.299  10.295  1.00  0.00     0.134 A 
ATOM      7  C   UNL     1       7.415   9.498   9.171  1.00  0.00     0.093 A 
ATOM      8  C   UNL     1       7.225   8.119   9.296  1.00  0.00     0.123 A 
ATOM      9  C   UNL     1       7.263   7.527  10.556  1.00  0.00     0.094 A 
ATOM     10  C   UNL     1       7.459   8.306  11.699  1.00  0.00     0.146 A 
ATOM     11  O   UNL     1       7.477   7.702  12.882  1.00  0.00    -0.452 OA
ENDROOT
BRANCH   1  12
ATOM     12  C   UNL     1       7.662   7.555  15.281  1.00  0.00     0.025 A 
ATOM     13  C   UNL     1       8.109   8.154  16.468  1.00  0.00     0.016 A 
ATOM     14  C   UNL     1       8.125   7.431  17.664  1.00  0.00     0.051 A 
ATOM     15  C   UNL     1       7.681   6.105  17.694  1.00  0.00     0.157 A 
ATOM     16  C   UNL     1       7.197   6.228  15.318  1.00  0.00     0.062 A 
ATOM     17  C   UNL     1       7.210   5.501  16.517  1.00  0.00     0.158 A 
BRANCH  15  18
ATOM     18  O   UNL     1       7.711   5.407  18.901  1.00  0.00    -0.504 OA
ATOM     19  H   UNL     1       6.869   5.059  19.343  1.00  0.00     0.293 HD
ENDBRANCH  15  18
BRANCH  17  20
ATOM     20  O   UNL     1       6.753   4.184  16.543  1.00  0.00    -0.504 OA
ATOM     21  H   UNL     1       7.325   3.416  16.211  1.00  0.00     0.293 HD
ENDBRANCH  17  20
ENDBRANCH   1  12
BRANCH   2  22
ATOM     22  O   UNL     1       7.810  10.448  15.242  1.00  0.00    -0.502 OA
ATOM     23  H   UNL     1       8.564  11.090  15.455  1.00  0.00     0.293 HD
ENDBRANCH   2  22
BRANCH   6  24
ATOM     24  O   UNL     1       7.922  11.649  10.054  1.00  0.00    -0.507 OA
ATOM     25  H   UNL     1       7.221  12.358   9.901  1.00  0.00     0.293 HD
ENDBRANCH   6  24
BRANCH   8  26
ATOM     26  O   UNL     1       7.008   7.326   8.171  1.00  0.00    -0.508 OA
ATOM     27  H   UNL     1       7.536   6.475   8.013  1.00  0.00     0.293 HD
ENDBRANCH   8  26
TORSDOF 6
ENDMDL
MODEL 2
REMARK VINA RESULT:    -5.890     20.697     24.042
REMARK INTER + INTRA:          -6.622
REMARK INTER:                  -6.357
REMARK INTRA:                  -0.265
REMARK UNBOUND:                 0.473
REMARK SMILES O=c1c(O)c(-c2ccc(O)c(O)c2)oc2cc(O)cc(O)c12
REMARK SMILES IDX 5 1 3 2 2 3 1 4 22 5 20 6 19 7 17 8 16 9 15 10 14 11 6 12
REMARK SMILES IDX 7 13 8 14 9 15 13 16 11 17 10 18 12 20 4 22 21 24 18 26
REMARK H PARENT 10 19 12 21 4 23 21 25 18 27
REMARK Flexibility Score: inf
ROOT
ATOM      1  C   UNL     1     -10.532  -3.040  23.921  1.00  0.00     0.180 A 
ATOM      2  C   UNL     1     -11.019  -3.140  25.236  1.00  0.00     0.208 A 
ATOM      3  C   UNL     1     -10.582  -2.214  26.197  1.00  0.00     0.238 A 
ATOM      4  O   UNL     1     -11.063  -2.276  27.359  1.00  0.00    -0.285 OA
ATOM      5  C   UNL     1      -9.651  -1.210  25.835  1.00  0.00     0.111 A 
ATOM      6  C   UNL     1      -9.108  -0.246  26.737  1.00  0.00     0.134 A 
ATOM      7  C   UNL     1      -8.295   0.781  26.242  1.00  0.00     0.093 A 
ATOM      8  C   UNL     1      -7.952   0.839  24.888  1.00  0.00     0.123 A 
ATOM      9  C   UNL     1      -8.428  -0.132  24.011  1.00  0.00     0.094 A 
ATOM     10  C   UNL     1      -9.270  -1.148  24.469  1.00  0.00     0.146 A 
ATOM     11  O   UNL     1      -9.711  -2.048  23.598  1.00  0.00    -0.452 OA
ENDROOT
BRANCH   1  12
ATOM     12  C   UNL     1     -10.927  -3.994  22.860  1.00  0.00     0.025 A 
ATOM     13  C   UNL     1     -11.756  -3.558  21.814  1.00  0.00     0.016 A 
ATOM     14  C   UNL     1     -12.125  -4.435  20.791  1.00  0.00     0.051 A 
ATOM     15  C   UNL     1     -11.660  -5.754  20.789  1.00  0.00     0.157 A 
ATOM     16  C   UNL     1     -10.445  -5.315  22.845  1.00  0.00     0.062 A 
ATOM     17  C   UNL     1     -10.813  -6.196  21.817  1.00  0.00     0.158 A 
BRANCH  15  18
ATOM     18  O   UNL     1     -12.047  -6.608  19.755  1.00  0.00    -0.504 OA
ATOM     19  H   UNL     1     -12.690  -7.376  19.905  1.00  0.00     0.293 HD
ENDBRANCH  15  18
BRANCH  17  20
ATOM     20  O   UNL     1     -10.334  -7.506  21.814  1.00  0.00    -0.504 OA
ATOM     21  H   UNL     1     -10.783  -8.234  21.270  1.00  0.00     0.293 HD
ENDBRANCH  17  20
ENDBRANCH   1  12
BRANCH   2  22
ATOM     22  O   UNL     1     -11.954  -4.125  25.566  1.00  0.00    -0.502 OA
ATOM     23  H   UNL     1     -12.645  -3.997  26.295  1.00  0.00     0.293 HD
ENDBRANCH   2  22
BRANCH   6  24
ATOM     24  O   UNL     1      -9.313  -0.268  28.119  1.00  0.00    -0.507 OA
ATOM     25  H   UNL     1      -9.357   0.550  28.708  1.00  0.00     0.293 HD
ENDBRANCH   6  24
BRANCH   8  26
ATOM     26  O   UNL     1      -7.130   1.856  24.407  1.00  0.00    -0.508 OA
ATOM     27  H   UNL     1      -6.907   2.668  24.970  1.00  0.00     0.293 HD
ENDBRANCH   8  26
TORSDOF 6
ENDMDL
MODEL 3
REMARK VINA RESULT:    -5.789     20.398     23.270
REMARK INTER + INTRA:          -6.500
REMARK INTER:                  -6.310
REMARK INTRA:                  -0.191
REMARK UNBOUND:                 0.473
REMARK SMILES O=c1c(O)c(-c2ccc(O)c(O)c2)oc2cc(O)cc(O)c12
REMARK SMILES IDX 5 1 3 2 2 3 1 4 22 5 20 6 19 7 17 8 16 9 15 10 14 11 6 12
REMARK SMILES IDX 7 13 8 14 9 15 13 16 11 17 10 18 12 20 4 22 21 24 18 26
REMARK H PARENT 10 19 12 21 4 23 21 25 18 27
REMARK Flexibility Score: inf
ROOT
ATOM      1  C   UNL     1      -9.660  -2.971  23.830  1.00  0.00     0.180 A 
ATOM      2  C   UNL     1      -9.485  -2.195  22.671  1.00  0.00     0.208 A 
ATOM      3  C   UNL     1      -8.936  -0.908  22.788  1.00  0.00     0.238 A 
ATOM      4  O   UNL     1      -8.732  -0.240  21.741  1.00  0.00    -0.285 OA
ATOM      5  C   UNL     1      -8.583  -0.407  24.065  1.00  0.00     0.111 A 
ATOM      6  C   UNL     1      -8.057   0.897  24.306  1.00  0.00     0.134 A 
ATOM      7  C   UNL     1      -7.622   1.239  25.592  1.00  0.00     0.093 A 
ATOM      8  C   UNL     1      -7.755   0.346  26.659  1.00  0.00     0.123 A 
ATOM      9  C   UNL     1      -8.323  -0.908  26.445  1.00  0.00     0.094 A 
ATOM     10  C   UNL     1      -8.733  -1.290  25.166  1.00  0.00     0.146 A 
ATOM     11  O   UNL     1      -9.259  -2.499  25.004  1.00  0.00    -0.452 OA
ENDROOT
BRANCH   1  12
ATOM     12  C   UNL     1     -10.255  -4.327  23.788  1.00  0.00     0.025 A 
ATOM     13  C   UNL     1     -11.535  -4.535  24.324  1.00  0.00     0.016 A 
ATOM     14  C   UNL     1     -12.125  -5.801  24.277  1.00  0.00     0.051 A 
ATOM     15  C   UNL     1     -11.452  -6.872  23.681  1.00  0.00     0.157 A 
ATOM     16  C   UNL     1      -9.589  -5.401  23.171  1.00  0.00     0.062 A 
ATOM     17  C   UNL     1     -10.180  -6.672  23.122  1.00  0.00     0.158 A 
BRANCH  15  18
ATOM     18  O   UNL     1     -12.065  -8.125  23.651  1.00  0.00    -0.504 OA
ATOM     19  H   UNL     1     -11.719  -8.880  23.071  1.00  0.00     0.293 HD
ENDBRANCH  15  18
BRANCH  17  20
ATOM     20  O   UNL     1      -9.510  -7.733  22.513  1.00  0.00    -0.504 OA
ATOM     21  H   UNL     1     -10.004  -8.553  22.182  1.00  0.00     0.293 HD
ENDBRANCH  17  20
ENDBRANCH   1  12
BRANCH   2  22
ATOM     22  O   UNL     1      -9.820  -2.718  21.418  1.00  0.00    -0.502 OA
ATOM     23  H   UNL     1     -10.560  -3.398  21.292  1.00  0.00     0.293 HD
ENDBRANCH   2  22
BRANCH   6  24
ATOM     24  O   UNL     1      -7.968   1.895  23.331  1.00  0.00    -0.507 OA
ATOM     25  H   UNL     1      -8.368   1.834  22.407  1.00  0.00     0.293 HD
ENDBRANCH   6  24
BRANCH   8  26
ATOM     26  O   UNL     1      -7.334   0.700  27.939  1.00  0.00    -0.508 OA
ATOM     27  H   UNL     1      -6.382   0.535  28.248  1.00  0.00     0.293 HD
ENDBRANCH   8  26
TORSDOF 6
ENDMDL
MODEL 4
REMARK VINA RESULT:    -5.782     19.521     22.618
REMARK INTER + INTRA:          -6.492
REMARK INTER:                  -6.876
REMARK INTRA:                   0.384
REMARK UNBOUND:                 0.473
REMARK SMILES O=c1c(O)c(-c2ccc(O)c(O)c2)oc2cc(O)cc(O)c12
REMARK SMILES IDX 5 1 3 2 2 3 1 4 22 5 20 6 19 7 17 8 16 9 15 10 14 11 6 12
REMARK SMILES IDX 7 13 8 14 9 15 13 16 11 17 10 18 12 20 4 22 21 24 18 26
REMARK H PARENT 10 19 12 21 4 23 21 25 18 27
REMARK Flexibility Score: inf
ROOT
ATOM      1  C   UNL     1      -9.353  -3.023  23.171  1.00  0.00     0.180 A 
ATOM      2  C   UNL     1      -9.075  -2.811  24.532  1.00  0.00     0.208 A 
ATOM      3  C   UNL     1      -8.643  -1.542  24.950  1.00  0.00     0.238 A 
ATOM      4  O   UNL     1      -8.448  -1.343  26.177  1.00  0.00    -0.285 OA
ATOM      5  C   UNL     1      -8.480  -0.505  23.998  1.00  0.00     0.111 A 
ATOM      6  C   UNL     1      -8.010   0.807  24.303  1.00  0.00     0.134 A 
ATOM      7  C   UNL     1      -8.011   1.790  23.306  1.00  0.00     0.093 A 
ATOM      8  C   UNL     1      -8.405   1.489  21.999  1.00  0.00     0.123 A 
ATOM      9  C   UNL     1      -8.809   0.195  21.678  1.00  0.00     0.094 A 
ATOM     10  C   UNL     1      -8.852  -0.797  22.660  1.00  0.00     0.146 A 
ATOM     11  O   UNL     1      -9.253  -2.015  22.314  1.00  0.00    -0.452 OA
ENDROOT
BRANCH   1  12
ATOM     12  C   UNL     1      -9.788  -4.340  22.652  1.00  0.00     0.025 A 
ATOM     13  C   UNL     1      -9.464  -5.504  23.365  1.00  0.00     0.016 A 
ATOM     14  C   UNL     1      -9.882  -6.756  22.905  1.00  0.00     0.051 A 
ATOM     15  C   UNL     1     -10.642  -6.862  21.736  1.00  0.00     0.157 A 
ATOM     16  C   UNL     1     -10.569  -4.447  21.487  1.00  0.00     0.062 A 
ATOM     17  C   UNL     1     -10.991  -5.703  21.024  1.00  0.00     0.158 A 
BRANCH  15  18
ATOM     18  O   UNL     1     -11.042  -8.125  21.300  1.00  0.00    -0.504 OA
ATOM     19  H   UNL     1     -11.988  -8.312  20.991  1.00  0.00     0.293 HD
ENDBRANCH  15  18
BRANCH  17  20
ATOM     20  O   UNL     1     -11.760  -5.800  19.865  1.00  0.00    -0.504 OA
ATOM     21  H   UNL     1     -11.751  -6.635  19.290  1.00  0.00     0.293 HD
ENDBRANCH  17  20
ENDBRANCH   1  12
BRANCH   2  22
ATOM     22  O   UNL     1      -9.264  -3.842  25.457  1.00  0.00    -0.502 OA
ATOM     23  H   UNL     1      -8.491  -4.350  25.870  1.00  0.00     0.293 HD
ENDBRANCH   2  22
BRANCH   6  24
ATOM     24  O   UNL     1      -7.508   1.186  25.552  1.00  0.00    -0.507 OA
ATOM     25  H   UNL     1      -6.552   1.061  25.849  1.00  0.00     0.293 HD
ENDBRANCH   6  24
BRANCH   8  26
ATOM     26  O   UNL     1      -8.389   2.470  21.009  1.00  0.00    -0.508 OA
ATOM     27  H   UNL     1      -7.912   3.354  21.146  1.00  0.00     0.293 HD
ENDBRANCH   8  26
TORSDOF 6
ENDMDL
MODEL 5
REMARK VINA RESULT:    -5.664     21.464     23.807
REMARK INTER + INTRA:          -6.349
REMARK INTER:                  -6.053
REMARK INTRA:                  -0.296
REMARK UNBOUND:                 0.473
REMARK SMILES O=c1c(O)c(-c2ccc(O)c(O)c2)oc2cc(O)cc(O)c12
REMARK SMILES IDX 5 1 3 2 2 3 1 4 22 5 20 6 19 7 17 8 16 9 15 10 14 11 6 12
REMARK SMILES IDX 7 13 8 14 9 15 13 16 11 17 10 18 12 20 4 22 21 24 18 26
REMARK H PARENT 10 19 12 21 4 23 21 25 18 27
REMARK Flexibility Score: inf
ROOT
ATOM      1  C   UNL     1      -9.745  -2.495  24.795  1.00  0.00     0.180 A 
ATOM      2  C   UNL     1     -10.746  -2.492  23.809  1.00  0.00     0.208 A 
ATOM      3  C   UNL     1     -10.943  -3.647  23.034  1.00  0.00     0.238 A 
ATOM      4  O   UNL     1     -11.876  -3.657  22.189  1.00  0.00    -0.285 OA
ATOM      5  C   UNL     1     -10.124  -4.783  23.243  1.00  0.00     0.111 A 
ATOM      6  C   UNL     1     -10.208  -5.992  22.489  1.00  0.00     0.134 A 
ATOM      7  C   UNL     1      -9.437  -7.098  22.869  1.00  0.00     0.093 A 
ATOM      8  C   UNL     1      -8.538  -7.017  23.936  1.00  0.00     0.123 A 
ATOM      9  C   UNL     1      -8.406  -5.822  24.641  1.00  0.00     0.094 A 
ATOM     10  C   UNL     1      -9.188  -4.713  24.307  1.00  0.00     0.146 A 
ATOM     11  O   UNL     1      -9.038  -3.598  25.012  1.00  0.00    -0.452 OA
ENDROOT
BRANCH   1  12
ATOM     12  C   UNL     1      -9.463  -1.308  25.634  1.00  0.00     0.025 A 
ATOM     13  C   UNL     1     -10.261  -1.052  26.759  1.00  0.00     0.016 A 
ATOM     14  C   UNL     1     -10.000   0.050  27.577  1.00  0.00     0.051 A 
ATOM     15  C   UNL     1      -8.930   0.904  27.292  1.00  0.00     0.157 A 
ATOM     16  C   UNL     1      -8.374  -0.460  25.361  1.00  0.00     0.062 A 
ATOM     17  C   UNL     1      -8.109   0.647  26.182  1.00  0.00     0.158 A 
BRANCH  15  18
ATOM     18  O   UNL     1      -8.695   1.998  28.125  1.00  0.00    -0.504 OA
ATOM     19  H   UNL     1      -9.401   2.353  28.759  1.00  0.00     0.293 HD
ENDBRANCH  15  18
BRANCH  17  20
ATOM     20  O   UNL     1      -7.032   1.485  25.901  1.00  0.00    -0.504 OA
ATOM     21  H   UNL     1      -6.300   1.657  26.581  1.00  0.00     0.293 HD
ENDBRANCH  17  20
ENDBRANCH   1  12
BRANCH   2  22
ATOM     22  O   UNL     1     -11.557  -1.367  23.633  1.00  0.00    -0.502 OA
ATOM     23  H   UNL     1     -11.261  -0.562  23.095  1.00  0.00     0.293 HD
ENDBRANCH   2  22
BRANCH   6  24
ATOM     24  O   UNL     1     -11.004  -6.148  21.351  1.00  0.00    -0.507 OA
ATOM     25  H   UNL     1     -11.755  -5.529  21.085  1.00  0.00     0.293 HD
ENDBRANCH   6  24
BRANCH   8  26
ATOM     26  O   UNL     1      -7.764  -8.117  24.298  1.00  0.00    -0.508 OA
ATOM     27  H   UNL     1      -7.201  -8.114  25.141  1.00  0.00     0.293 HD
ENDBRANCH   8  26
TORSDOF 6
ENDMDL
MODEL 6
REMARK VINA RESULT:    -5.563     21.218     23.807
REMARK INTER + INTRA:          -6.228
REMARK INTER:                  -6.268
REMARK INTRA:                   0.041
REMARK UNBOUND:                 0.473
REMARK SMILES O=c1c(O)c(-c2ccc(O)c(O)c2)oc2cc(O)cc(O)c12
REMARK SMILES IDX 5 1 3 2 2 3 1 4 22 5 20 6 19 7 17 8 16 9 15 10 14 11 6 12
REMARK SMILES IDX 7 13 8 14 9 15 13 16 11 17 10 18 12 20 4 22 21 24 18 26
REMARK H PARENT 10 19 12 21 4 23 21 25 18 27
REMARK Flexibility Score: inf
ROOT
ATOM      1  C   UNL     1      -9.864  -2.101  24.503  1.00  0.00     0.180 A 
ATOM      2  C   UNL     1      -9.884  -1.936  23.107  1.00  0.00     0.208 A 
ATOM      3  C   UNL     1     -10.258  -3.021  22.297  1.00  0.00     0.238 A 
ATOM      4  O   UNL     1     -10.326  -2.851  21.052  1.00  0.00    -0.285 OA
ATOM      5  C   UNL     1     -10.592  -4.261  22.893  1.00  0.00     0.111 A 
ATOM      6  C   UNL     1     -10.946  -5.438  22.169  1.00  0.00     0.134 A 
ATOM      7  C   UNL     1     -11.384  -6.572  22.864  1.00  0.00     0.093 A 
ATOM      8  C   UNL     1     -11.417  -6.592  24.261  1.00  0.00     0.123 A 
ATOM      9  C   UNL     1     -11.016  -5.467  24.979  1.00  0.00     0.094 A 
ATOM     10  C   UNL     1     -10.609  -4.309  24.311  1.00  0.00     0.146 A 
ATOM     11  O   UNL     1     -10.245  -3.256  25.034  1.00  0.00    -0.452 OA
ENDROOT
BRANCH   1  12
ATOM     12  C   UNL     1      -9.457  -1.011  25.419  1.00  0.00     0.025 A 
ATOM     13  C   UNL     1     -10.194  -0.782  26.591  1.00  0.00     0.016 A 
ATOM     14  C   UNL     1      -9.816   0.226  27.480  1.00  0.00     0.051 A 
ATOM     15  C   UNL     1      -8.688   1.011  27.220  1.00  0.00     0.157 A 
ATOM     16  C   UNL     1      -8.311  -0.234  25.170  1.00  0.00     0.062 A 
ATOM     17  C   UNL     1      -7.928   0.778  26.062  1.00  0.00     0.158 A 
BRANCH  15  18
ATOM     18  O   UNL     1      -8.336   2.013  28.125  1.00  0.00    -0.504 OA
ATOM     19  H   UNL     1      -7.499   2.571  28.010  1.00  0.00     0.293 HD
ENDBRANCH  15  18
BRANCH  17  20
ATOM     20  O   UNL     1      -6.794   1.548  25.804  1.00  0.00    -0.504 OA
ATOM     21  H   UNL     1      -5.873   1.131  25.744  1.00  0.00     0.293 HD
ENDBRANCH  17  20
ENDBRANCH   1  12
BRANCH   2  22
ATOM     22  O   UNL     1      -9.572  -0.696  22.541  1.00  0.00    -0.502 OA
ATOM     23  H   UNL     1      -9.286  -0.596  21.575  1.00  0.00     0.293 HD
ENDBRANCH   2  22
BRANCH   6  24
ATOM     24  O   UNL     1     -10.859  -5.555  20.778  1.00  0.00    -0.507 OA
ATOM     25  H   UNL     1     -10.399  -4.892  20.173  1.00  0.00     0.293 HD
ENDBRANCH   6  24
BRANCH   8  26
ATOM     26  O   UNL     1     -11.839  -7.729  24.946  1.00  0.00    -0.508 OA
ATOM     27  H   UNL     1     -12.795  -8.061  24.885  1.00  0.00     0.293 HD
ENDBRANCH   8  26
TORSDOF 6
ENDMDL
MODEL 7
REMARK VINA RESULT:    -5.561     21.715     23.909
REMARK INTER + INTRA:          -6.226
REMARK INTER:                  -5.907
REMARK INTRA:                  -0.319
REMARK UNBOUND:                 0.473
REMARK SMILES O=c1c(O)c(-c2ccc(O)c(O)c2)oc2cc(O)cc(O)c12
REMARK SMILES IDX 5 1 3 2 2 3 1 4 22 5 20 6 19 7 17 8 16 9 15 10 14 11 6 12
REMARK SMILES IDX 7 13 8 14 9 15 13 16 11 17 10 18 12 20 4 22 21 24 18 26
REMARK H PARENT 10 19 12 21 4 23 21 25 18 27
REMARK Flexibility Score: inf
ROOT
ATOM      1  C   UNL     1      -9.650  -2.756  25.061  1.00  0.00     0.180 A 
ATOM      2  C   UNL     1      -9.101  -3.973  25.500  1.00  0.00     0.208 A 
ATOM      3  C   UNL     1      -9.309  -5.130  24.731  1.00  0.00     0.238 A 
ATOM      4  O   UNL     1      -8.769  -6.206  25.100  1.00  0.00    -0.285 OA
ATOM      5  C   UNL     1     -10.076  -5.058  23.543  1.00  0.00     0.111 A 
ATOM      6  C   UNL     1     -10.384  -6.174  22.709  1.00  0.00     0.134 A 
ATOM      7  C   UNL     1     -11.040  -5.965  21.490  1.00  0.00     0.093 A 
ATOM      8  C   UNL     1     -11.458  -4.687  21.107  1.00  0.00     0.123 A 
ATOM      9  C   UNL     1     -11.214  -3.600  21.943  1.00  0.00     0.094 A 
ATOM     10  C   UNL     1     -10.530  -3.773  23.148  1.00  0.00     0.146 A 
ATOM     11  O   UNL     1     -10.309  -2.708  23.911  1.00  0.00    -0.452 OA
ENDROOT
BRANCH   1  12
ATOM     12  C   UNL     1      -9.495  -1.500  25.831  1.00  0.00     0.025 A 
ATOM     13  C   UNL     1     -10.390  -1.214  26.873  1.00  0.00     0.016 A 
ATOM     14  C   UNL     1     -10.250  -0.045  27.626  1.00  0.00     0.051 A 
ATOM     15  C   UNL     1      -9.207   0.847  27.359  1.00  0.00     0.157 A 
ATOM     16  C   UNL     1      -8.435  -0.611  25.577  1.00  0.00     0.062 A 
ATOM     17  C   UNL     1      -8.292   0.562  26.333  1.00  0.00     0.158 A 
BRANCH  15  18
ATOM     18  O   UNL     1      -9.094   2.007  28.125  1.00  0.00    -0.504 OA
ATOM     19  H   UNL     1      -9.423   2.054  29.082  1.00  0.00     0.293 HD
ENDBRANCH  15  18
BRANCH  17  20
ATOM     20  O   UNL     1      -7.241   1.440  26.071  1.00  0.00    -0.504 OA
ATOM     21  H   UNL     1      -7.373   2.274  25.511  1.00  0.00     0.293 HD
ENDBRANCH  17  20
ENDBRANCH   1  12
BRANCH   2  22
ATOM     22  O   UNL     1      -8.328  -4.017  26.664  1.00  0.00    -0.502 OA
ATOM     23  H   UNL     1      -7.464  -3.500  26.762  1.00  0.00     0.293 HD
ENDBRANCH   2  22
BRANCH   6  24
ATOM     24  O   UNL     1     -10.095  -7.501  23.042  1.00  0.00    -0.507 OA
ATOM     25  H   UNL     1     -10.228  -8.290  22.428  1.00  0.00     0.293 HD
ENDBRANCH   6  24
BRANCH   8  26
ATOM     26  O   UNL     1     -12.124  -4.490  19.899  1.00  0.00    -0.508 OA
ATOM     27  H   UNL     1     -11.650  -4.105  19.090  1.00  0.00     0.293 HD
ENDBRANCH   8  26
TORSDOF 6
ENDMDL
MODEL 8
REMARK VINA RESULT:    -5.480      1.632      6.619
REMARK INTER + INTRA:          -6.128
REMARK INTER:                  -6.406
REMARK INTRA:                   0.278
REMARK UNBOUND:                 0.473
REMARK SMILES O=c1c(O)c(-c2ccc(O)c(O)c2)oc2cc(O)cc(O)c12
REMARK SMILES IDX 5 1 3 2 2 3 1 4 22 5 20 6 19 7 17 8 16 9 15 10 14 11 6 12
REMARK SMILES IDX 7 13 8 14 9 15 13 16 11 17 10 18 12 20 4 22 21 24 18 26
REMARK H PARENT 10 19 12 21 4 23 21 25 18 27
REMARK Flexibility Score: inf
ROOT
ATOM      1  C   UNL     1       6.668   8.477  13.658  1.00  0.00     0.180 A 
ATOM      2  C   UNL     1       7.326   8.900  14.827  1.00  0.00     0.208 A 
ATOM      3  C   UNL     1       7.488   7.991  15.884  1.00  0.00     0.238 A 
ATOM      4  O   UNL     1       8.125   8.359  16.906  1.00  0.00    -0.285 OA
ATOM      5  C   UNL     1       6.977   6.675  15.767  1.00  0.00     0.111 A 
ATOM      6  C   UNL     1       7.048   5.684  16.791  1.00  0.00     0.134 A 
ATOM      7  C   UNL     1       6.626   4.377  16.518  1.00  0.00     0.093 A 
ATOM      8  C   UNL     1       6.073   4.043  15.278  1.00  0.00     0.123 A 
ATOM      9  C   UNL     1       5.944   5.019  14.293  1.00  0.00     0.094 A 
ATOM     10  C   UNL     1       6.390   6.323  14.524  1.00  0.00     0.146 A 
ATOM     11  O   UNL     1       6.258   7.219  13.553  1.00  0.00    -0.452 OA
ENDROOT
BRANCH   1  12
ATOM     12  C   UNL     1       6.437   9.385  12.512  1.00  0.00     0.025 A 
ATOM     13  C   UNL     1       6.239  10.755  12.745  1.00  0.00     0.016 A 
ATOM     14  C   UNL     1       6.041  11.634  11.677  1.00  0.00     0.051 A 
ATOM     15  C   UNL     1       6.052  11.161  10.361  1.00  0.00     0.157 A 
ATOM     16  C   UNL     1       6.469   8.915  11.186  1.00  0.00     0.062 A 
ATOM     17  C   UNL     1       6.271   9.796  10.112  1.00  0.00     0.158 A 
BRANCH  15  18
ATOM     18  O   UNL     1       5.848  12.061   9.315  1.00  0.00    -0.504 OA
ATOM     19  H   UNL     1       5.678  13.046   9.479  1.00  0.00     0.293 HD
ENDBRANCH  15  18
BRANCH  17  20
ATOM     20  O   UNL     1       6.298   9.321   8.802  1.00  0.00    -0.504 OA
ATOM     21  H   UNL     1       5.459   9.278   8.235  1.00  0.00     0.293 HD
ENDBRANCH  17  20
ENDBRANCH   1  12
BRANCH   2  22
ATOM     22  O   UNL     1       7.842  10.196  14.912  1.00  0.00    -0.502 OA
ATOM     23  H   UNL     1       7.660  10.803  15.703  1.00  0.00     0.293 HD
ENDBRANCH   2  22
BRANCH   6  24
ATOM     24  O   UNL     1       7.497   5.936  18.091  1.00  0.00    -0.507 OA
ATOM     25  H   UNL     1       7.000   6.489  18.773  1.00  0.00     0.293 HD
ENDBRANCH   6  24
BRANCH   8  26
ATOM     26  O   UNL     1       5.641   2.744  15.020  1.00  0.00    -0.508 OA
ATOM     27  H   UNL     1       5.666   2.025  15.734  1.00  0.00     0.293 HD
ENDBRANCH   8  26
TORSDOF 6
ENDMDL
MODEL 9
REMARK VINA RESULT:    -4.919     18.598     21.348
REMARK INTER + INTRA:          -5.452
REMARK INTER:                  -5.226
REMARK INTRA:                  -0.226
REMARK UNBOUND:                 0.473
REMARK SMILES O=c1c(O)c(-c2ccc(O)c(O)c2)oc2cc(O)cc(O)c12
REMARK SMILES IDX 5 1 3 2 2 3 1 4 22 5 20 6 19 7 17 8 16 9 15 10 14 11 6 12
REMARK SMILES IDX 7 13 8 14 9 15 13 16 11 17 10 18 12 20 4 22 21 24 18 26
REMARK H PARENT 10 19 12 21 4 23 21 25 18 27
REMARK Flexibility Score: inf
ROOT
ATOM      1  C   UNL     1      -2.158  -6.639  24.583  1.00  0.00     0.180 A 
ATOM      2  C   UNL     1      -1.236  -7.160  23.658  1.00  0.00     0.208 A 
ATOM      3  C   UNL     1       0.098  -6.725  23.708  1.00  0.00     0.238 A 
ATOM      4  O   UNL     1       0.930  -7.235  22.912  1.00  0.00    -0.285 OA
ATOM      5  C   UNL     1       0.490  -5.763  24.670  1.00  0.00     0.111 A 
ATOM      6  C   UNL     1       1.804  -5.221  24.785  1.00  0.00     0.134 A 
ATOM      7  C   UNL     1       2.111  -4.373  25.856  1.00  0.00     0.093 A 
ATOM      8  C   UNL     1       1.132  -3.996  26.780  1.00  0.00     0.123 A 
ATOM      9  C   UNL     1      -0.170  -4.473  26.641  1.00  0.00     0.094 A 
ATOM     10  C   UNL     1      -0.497  -5.349  25.603  1.00  0.00     0.146 A 
ATOM     11  O   UNL     1      -1.746  -5.789  25.514  1.00  0.00    -0.452 OA
ENDROOT
BRANCH   1  12
ATOM     12  C   UNL     1      -3.587  -7.031  24.576  1.00  0.00     0.025 A 
ATOM     13  C   UNL     1      -4.114  -7.737  25.669  1.00  0.00     0.016 A 
ATOM     14  C   UNL     1      -5.463  -8.098  25.694  1.00  0.00     0.051 A 
ATOM     15  C   UNL     1      -6.309  -7.748  24.636  1.00  0.00     0.157 A 
ATOM     16  C   UNL     1      -4.443  -6.662  23.523  1.00  0.00     0.062 A 
ATOM     17  C   UNL     1      -5.799  -7.023  23.547  1.00  0.00     0.158 A 
BRANCH  15  18
ATOM     18  O   UNL     1      -7.650  -8.125  24.688  1.00  0.00    -0.504 OA
ATOM     19  H   UNL     1      -8.393  -7.452  24.835  1.00  0.00     0.293 HD
ENDBRANCH  15  18
BRANCH  17  20
ATOM     20  O   UNL     1      -6.639  -6.658  22.496  1.00  0.00    -0.504 OA
ATOM     21  H   UNL     1      -6.276  -6.248  21.644  1.00  0.00     0.293 HD
ENDBRANCH  17  20
ENDBRANCH   1  12
BRANCH   2  22
ATOM     22  O   UNL     1      -1.640  -8.125  22.730  1.00  0.00    -0.502 OA
ATOM     23  H   UNL     1      -0.992  -8.784  22.315  1.00  0.00     0.293 HD
ENDBRANCH   2  22
BRANCH   6  24
ATOM     24  O   UNL     1       2.830  -5.459  23.865  1.00  0.00    -0.507 OA
ATOM     25  H   UNL     1       3.458  -4.754  23.508  1.00  0.00     0.293 HD
ENDBRANCH   6  24
BRANCH   8  26
ATOM     26  O   UNL     1       1.441  -3.140  27.834  1.00  0.00    -0.508 OA
ATOM     27  H   UNL     1       1.801  -2.206  27.670  1.00  0.00     0.293 HD
ENDBRANCH   8  26
TORSDOF 6
ENDMDL
