MODEL 1
REMARK VINA RESULT:    87.194      0.000      0.000
REMARK INTER + INTRA:         141.320
REMARK INTER:                 143.264
REMARK INTRA:                  -1.944
REMARK UNBOUND:                -1.944
REMARK SMILES C[C@H]1O[C@@H](OC[C@@H]2O[C@H](Oc3c(-c4ccc(O)c(O)c4)oc4cc(O)cc(O)c4c3=O)[C@H](O)[C@H](O)[C@@H]2O)[C@@H](O)[C@@H](O)[C@H]1O
REMARK SMILES IDX 7 1 36 2 34 3 32 4 9 5 8 6 6 7 5 8 4 9 1 10 2 11 42 12 3 13
REMARK SMILES IDX 40 14 38 15 43 16 41 18 39 20 37 22 35 24 10 26 11 27 12 28
REMARK SMILES IDX 30 29 21 30 29 31 31 32 22 33 27 34 23 35 26 36 24 37 13 38
REMARK SMILES IDX 20 39 14 40 18 41 15 42 16 43 19 44 17 46 28 48 25 50 33 52
REMARK H PARENT 43 17 41 19 39 21 37 23 35 25 19 45 17 47 28 49 25 51 33 53
REMARK Flexibility Score: inf
ROOT
ATOM      1  C   UNL     1      21.304  23.538  15.694  1.00  0.00     0.180 C 
ATOM      2  C   UNL     1      21.409  22.478  16.856  1.00  0.00     0.177 C 
ATOM      3  C   UNL     1      22.898  22.040  17.182  1.00  0.00     0.180 C 
ATOM      4  C   UNL     1      23.682  22.408  15.886  1.00  0.00     0.214 C 
ATOM      5  C   UNL     1      23.460  24.181  15.898  1.00  0.00     0.339 C 
ATOM      6  O   UNL     1      22.116  24.556  16.150  1.00  0.00    -0.332 OA
ENDROOT
BRANCH   1   7
ATOM      7  C   UNL     1      21.469  23.325  14.113  1.00  0.00     0.198 C 
BRANCH   7   8
ATOM      8  O   UNL     1      20.357  23.719  13.375  1.00  0.00    -0.347 OA
BRANCH   8   9
ATOM      9  C   UNL     1      19.756  22.514  12.822  1.00  0.00     0.281 C 
ATOM     10  C   UNL     1      20.851  20.183  10.071  1.00  0.00     0.041 C 
ATOM     11  C   UNL     1      19.940  20.791  11.293  1.00  0.00     0.150 C 
ATOM     12  C   UNL     1      18.493  20.863  10.802  1.00  0.00     0.174 C 
ATOM     13  O   UNL     1      20.318  22.148  11.599  1.00  0.00    -0.344 OA
ATOM     14  C   UNL     1      17.529  21.600  11.804  1.00  0.00     0.179 C 
ATOM     15  C   UNL     1      18.216  22.471  12.893  1.00  0.00     0.202 C 
BRANCH  12  16
ATOM     16  O   UNL     1      18.472  21.478   9.511  1.00  0.00    -0.388 OA
ATOM     17  H   UNL     1      19.364  21.884   9.387  1.00  0.00     0.211 HD
ENDBRANCH  12  16
BRANCH  14  18
ATOM     18  O   UNL     1      16.673  22.475  11.083  1.00  0.00    -0.387 OA
ATOM     19  H   UNL     1      15.803  21.988  10.923  1.00  0.00     0.211 HD
ENDBRANCH  14  18
BRANCH  15  20
ATOM     20  O   UNL     1      17.641  23.741  13.034  1.00  0.00    -0.385 OA
ATOM     21  H   UNL     1      18.031  24.323  12.344  1.00  0.00     0.211 HD
ENDBRANCH  15  20
ENDBRANCH   8   9
ENDBRANCH   7   8
ENDBRANCH   1   7
BRANCH   2  22
ATOM     22  O   UNL     1      20.563  21.328  16.652  1.00  0.00    -0.387 OA
ATOM     23  H   UNL     1      21.045  20.489  16.993  1.00  0.00     0.211 HD
ENDBRANCH   2  22
BRANCH   3  24
ATOM     24  O   UNL     1      22.929  20.672  17.481  1.00  0.00    -0.387 OA
ATOM     25  H   UNL     1      22.778  20.145  16.630  1.00  0.00     0.211 HD
ENDBRANCH   3  24
BRANCH   5  26
ATOM     26  O   UNL     1      23.884  25.103  14.824  1.00  0.00    -0.454 OA
BRANCH  26  27
ATOM     27  C   UNL     1      25.292  25.645  14.717  1.00  0.00     0.214 A 
ATOM     28  C   UNL     1      26.088  26.199  15.843  1.00  0.00     0.180 A 
ATOM     29  C   UNL     1      26.132  24.977  13.806  1.00  0.00     0.239 A 
ATOM     30  O   UNL     1      26.912  25.333  16.406  1.00  0.00    -0.452 OA
ATOM     31  C   UNL     1      27.174  24.192  14.326  1.00  0.00     0.111 A 
ATOM     32  O   UNL     1      25.844  24.965  12.586  1.00  0.00    -0.285 OA
ATOM     33  C   UNL     1      27.490  24.383  15.696  1.00  0.00     0.146 A 
ATOM     34  C   UNL     1      27.857  23.175  13.612  1.00  0.00     0.134 A 
ATOM     35  C   UNL     1      28.396  23.551  16.360  1.00  0.00     0.094 A 
ATOM     36  C   UNL     1      28.869  22.464  14.265  1.00  0.00     0.093 A 
ATOM     37  C   UNL     1      29.020  22.524  15.649  1.00  0.00     0.123 A 
BRANCH  28  38
ATOM     38  C   UNL     1      26.748  27.618  15.955  1.00  0.00     0.025 A 
ATOM     39  C   UNL     1      28.147  27.859  16.114  1.00  0.00     0.062 A 
ATOM     40  C   UNL     1      26.003  28.572  15.235  1.00  0.00     0.016 A 
ATOM     41  C   UNL     1      28.750  28.958  15.445  1.00  0.00     0.158 A 
ATOM     42  C   UNL     1      26.605  29.617  14.552  1.00  0.00     0.051 A 
ATOM     43  C   UNL     1      27.968  29.777  14.626  1.00  0.00     0.157 A 
BRANCH  41  44
ATOM     44  O   UNL     1      30.113  29.188  15.515  1.00  0.00    -0.504 OA
ATOM     45  H   UNL     1      30.726  28.938  14.740  1.00  0.00     0.293 HD
ENDBRANCH  41  44
BRANCH  43  46
ATOM     46  O   UNL     1      28.546  30.653  13.738  1.00  0.00    -0.504 OA
ATOM     47  H   UNL     1      28.792  31.646  13.933  1.00  0.00     0.293 HD
ENDBRANCH  43  46
ENDBRANCH  28  38
BRANCH  34  48
ATOM     48  O   UNL     1      27.416  22.736  12.347  1.00  0.00    -0.507 OA
ATOM     49  H   UNL     1      26.982  23.394  11.710  1.00  0.00     0.293 HD
ENDBRANCH  34  48
BRANCH  37  50
ATOM     50  O   UNL     1      29.712  21.543  16.322  1.00  0.00    -0.508 OA
ATOM     51  H   UNL     1      29.475  21.300  17.263  1.00  0.00     0.293 HD
ENDBRANCH  37  50
ENDBRANCH  26  27
ENDBRANCH   5  26
BRANCH   4  52
ATOM     52  O   UNL     1      23.121  21.539  14.843  1.00  0.00    -0.384 OA
ATOM     53  H   UNL     1      23.329  20.510  14.869  1.00  0.00     0.211 HD
ENDBRANCH   4  52
TORSDOF 16
ENDMDL
