MODEL 1
REMARK VINA RESULT:    -4.570      0.000      0.000
REMARK INTER + INTRA:         -15.372
REMARK INTER:                 -12.051
REMARK INTRA:                  -3.321
REMARK UNBOUND:                -3.321
REMARK SMILES CCCCCCCCCCCCCCCCCCCCCCCCCCCCCC(=O)[O-]
REMARK SMILES IDX 16 1 17 2 18 3 19 4 20 5 21 6 22 7 23 8 24 9 25 10 26 11
REMARK SMILES IDX 27 12 28 13 29 14 30 15 31 16 32 17 15 18 14 19 13 20 12 21
REMARK SMILES IDX 11 22 10 23 9 24 8 25 7 26 6 27 5 28 4 29 3 30 2 31 1 32
REMARK H PARENT
REMARK Flexibility Score: inf
ROOT
ATOM      1  C   UNL     1      66.099  31.009  23.185  1.00  0.00     0.000 C 
ENDROOT
BRANCH   1   2
ATOM      2  C   UNL     1      65.220  30.358  24.268  1.00  0.00     0.000 C 
BRANCH   2   3
ATOM      3  C   UNL     1      66.049  29.791  25.434  1.00  0.00     0.000 C 
BRANCH   3   4
ATOM      4  C   UNL     1      65.278  29.794  26.762  1.00  0.00     0.000 C 
BRANCH   4   5
ATOM      5  C   UNL     1      63.840  30.294  26.558  1.00  0.00     0.000 C 
BRANCH   5   6
ATOM      6  C   UNL     1      63.075  30.495  27.878  1.00  0.00     0.000 C 
BRANCH   6   7
ATOM      7  C   UNL     1      62.543  29.205  28.530  1.00  0.00     0.000 C 
BRANCH   7   8
ATOM      8  C   UNL     1      61.149  28.806  28.025  1.00  0.00     0.000 C 
BRANCH   8   9
ATOM      9  C   UNL     1      61.194  27.454  27.294  1.00  0.00     0.000 C 
BRANCH   9  10
ATOM     10  C   UNL     1      61.069  27.602  25.762  1.00  0.00     0.000 C 
BRANCH  10  11
ATOM     11  C   UNL     1      62.396  27.415  25.002  1.00  0.00     0.000 C 
BRANCH  11  12
ATOM     12  C   UNL     1      63.421  26.502  25.694  1.00  0.00     0.000 C 
BRANCH  12  13
ATOM     13  C   UNL     1      64.771  26.455  24.961  1.00  0.00     0.006 C 
BRANCH  13  14
ATOM     14  C   UNL     1      64.604  26.817  23.481  1.00  0.00     0.053 C 
BRANCH  14  15
ATOM     15  C   UNL     1      65.877  26.587  22.724  1.00  0.00     0.041 C 
ATOM     16  O   UNL     1      66.653  27.549  22.478  1.00  0.00    -0.550 OA
ATOM     17  O   UNL     1      66.198  25.313  22.272  1.00  0.00    -0.550 OA
ENDBRANCH  14  15
ENDBRANCH  13  14
ENDBRANCH  12  13
ENDBRANCH  11  12
ENDBRANCH  10  11
ENDBRANCH   9  10
ENDBRANCH   8   9
ENDBRANCH   7   8
ENDBRANCH   6   7
ENDBRANCH   5   6
ENDBRANCH   4   5
ENDBRANCH   3   4
ENDBRANCH   2   3
ENDBRANCH   1   2
BRANCH   1  18
ATOM     18  C   UNL     1      65.526  32.343  22.682  1.00  0.00     0.000 C 
BRANCH  18  19
ATOM     19  C   UNL     1      66.518  33.120  21.799  1.00  0.00     0.000 C 
BRANCH  19  20
ATOM     20  C   UNL     1      65.829  34.208  20.958  1.00  0.00     0.000 C 
BRANCH  20  21
ATOM     21  C   UNL     1      65.830  33.881  19.456  1.00  0.00     0.000 C 
BRANCH  21  22
ATOM     22  C   UNL     1      66.015  35.141  18.580  1.00  0.00     0.000 C 
BRANCH  22  23
ATOM     23  C   UNL     1      64.864  35.379  17.585  1.00  0.00     0.000 C 
BRANCH  23  24
ATOM     24  C   UNL     1      65.303  35.569  16.121  1.00  0.00    -0.000 C 
BRANCH  24  25
ATOM     25  C   UNL     1      64.684  34.573  15.118  1.00  0.00    -0.000 C 
BRANCH  25  26
ATOM     26  C   UNL     1      65.296  33.158  15.139  1.00  0.00    -0.000 C 
BRANCH  26  27
ATOM     27  C   UNL     1      64.476  32.079  14.405  1.00  0.00    -0.000 C 
BRANCH  27  28
ATOM     28  C   UNL     1      63.931  32.498  13.024  1.00  0.00    -0.000 C 
BRANCH  28  29
ATOM     29  C   UNL     1      62.425  32.245  12.816  1.00  0.00    -0.000 C 
BRANCH  29  30
ATOM     30  C   UNL     1      61.584  32.257  14.107  1.00  0.00    -0.000 C 
BRANCH  30  31
ATOM     31  C   UNL     1      60.939  33.625  14.415  1.00  0.00    -0.003 C 
ATOM     32  C   UNL     1      61.079  34.023  15.884  1.00  0.00     0.004 C 
ENDBRANCH  30  31
ENDBRANCH  29  30
ENDBRANCH  28  29
ENDBRANCH  27  28
ENDBRANCH  26  27
ENDBRANCH  25  26
ENDBRANCH  24  25
ENDBRANCH  23  24
ENDBRANCH  22  23
ENDBRANCH  21  22
ENDBRANCH  20  21
ENDBRANCH  19  20
ENDBRANCH  18  19
ENDBRANCH   1  18
TORSDOF 28
ENDMDL
MODEL 2
REMARK VINA RESULT:    -4.481      5.677     10.161
REMARK INTER + INTRA:         -15.137
REMARK INTER:                 -10.863
REMARK INTRA:                  -4.273
REMARK UNBOUND:                -3.321
REMARK SMILES CCCCCCCCCCCCCCCCCCCCCCCCCCCCCC(=O)[O-]
REMARK SMILES IDX 16 1 17 2 18 3 19 4 20 5 21 6 22 7 23 8 24 9 25 10 26 11
REMARK SMILES IDX 27 12 28 13 29 14 30 15 31 16 32 17 15 18 14 19 13 20 12 21
REMARK SMILES IDX 11 22 10 23 9 24 8 25 7 26 6 27 5 28 4 29 3 30 2 31 1 32
REMARK H PARENT
REMARK Flexibility Score: inf
ROOT
ATOM      1  C   UNL     1      60.126  30.333  13.447  1.00  0.00     0.000 C 
ENDROOT
BRANCH   1   2
ATOM      2  C   UNL     1      60.630  31.422  12.482  1.00  0.00     0.000 C 
BRANCH   2   3
ATOM      3  C   UNL     1      60.432  32.840  13.044  1.00  0.00     0.000 C 
BRANCH   3   4
ATOM      4  C   UNL     1      60.387  32.866  14.579  1.00  0.00     0.000 C 
BRANCH   4   5
ATOM      5  C   UNL     1      61.210  34.040  15.130  1.00  0.00     0.000 C 
BRANCH   5   6
ATOM      6  C   UNL     1      60.875  34.382  16.592  1.00  0.00     0.000 C 
BRANCH   6   7
ATOM      7  C   UNL     1      62.053  34.919  17.425  1.00  0.00     0.000 C 
BRANCH   7   8
ATOM      8  C   UNL     1      63.409  34.770  16.720  1.00  0.00     0.000 C 
BRANCH   8   9
ATOM      9  C   UNL     1      64.503  35.559  17.457  1.00  0.00     0.000 C 
BRANCH   9  10
ATOM     10  C   UNL     1      65.910  35.320  16.867  1.00  0.00     0.000 C 
BRANCH  10  11
ATOM     11  C   UNL     1      66.930  34.764  17.878  1.00  0.00     0.000 C 
BRANCH  11  12
ATOM     12  C   UNL     1      66.464  33.528  18.663  1.00  0.00     0.000 C 
BRANCH  12  13
ATOM     13  C   UNL     1      66.695  33.658  20.177  1.00  0.00     0.006 C 
BRANCH  13  14
ATOM     14  C   UNL     1      65.778  34.727  20.781  1.00  0.00     0.053 C 
BRANCH  14  15
ATOM     15  C   UNL     1      64.490  34.126  21.256  1.00  0.00     0.041 C 
ATOM     16  O   UNL     1      64.447  33.494  22.345  1.00  0.00    -0.550 OA
ATOM     17  O   UNL     1      63.341  34.247  20.486  1.00  0.00    -0.550 OA
ENDBRANCH  14  15
ENDBRANCH  13  14
ENDBRANCH  12  13
ENDBRANCH  11  12
ENDBRANCH  10  11
ENDBRANCH   9  10
ENDBRANCH   8   9
ENDBRANCH   7   8
ENDBRANCH   6   7
ENDBRANCH   5   6
ENDBRANCH   4   5
ENDBRANCH   3   4
ENDBRANCH   2   3
ENDBRANCH   1   2
BRANCH   1  18
ATOM     18  C   UNL     1      61.105  29.154  13.569  1.00  0.00     0.000 C 
BRANCH  18  19
ATOM     19  C   UNL     1      61.138  28.277  12.305  1.00  0.00     0.000 C 
BRANCH  19  20
ATOM     20  C   UNL     1      59.753  28.136  11.651  1.00  0.00     0.000 C 
BRANCH  20  21
ATOM     21  C   UNL     1      59.703  28.737  10.238  1.00  0.00     0.000 C 
BRANCH  21  22
ATOM     22  C   UNL     1      60.896  28.289   9.364  1.00  0.00     0.000 C 
BRANCH  22  23
ATOM     23  C   UNL     1      61.828  29.442   8.949  1.00  0.00     0.000 C 
BRANCH  23  24
ATOM     24  C   UNL     1      63.332  29.134   9.067  1.00  0.00    -0.000 C 
BRANCH  24  25
ATOM     25  C   UNL     1      64.263  30.357   8.931  1.00  0.00    -0.000 C 
BRANCH  25  26
ATOM     26  C   UNL     1      65.014  30.754  10.218  1.00  0.00    -0.000 C 
BRANCH  26  27
ATOM     27  C   UNL     1      64.115  31.144  11.407  1.00  0.00    -0.000 C 
BRANCH  27  28
ATOM     28  C   UNL     1      64.228  32.615  11.858  1.00  0.00    -0.000 C 
BRANCH  28  29
ATOM     29  C   UNL     1      64.132  32.838  13.379  1.00  0.00    -0.000 C 
BRANCH  29  30
ATOM     30  C   UNL     1      63.956  31.552  14.210  1.00  0.00    -0.000 C 
BRANCH  30  31
ATOM     31  C   UNL     1      65.237  31.111  14.949  1.00  0.00    -0.003 C 
ATOM     32  C   UNL     1      66.306  32.204  14.976  1.00  0.00     0.004 C 
ENDBRANCH  30  31
ENDBRANCH  29  30
ENDBRANCH  28  29
ENDBRANCH  27  28
ENDBRANCH  26  27
ENDBRANCH  25  26
ENDBRANCH  24  25
ENDBRANCH  23  24
ENDBRANCH  22  23
ENDBRANCH  21  22
ENDBRANCH  20  21
ENDBRANCH  19  20
ENDBRANCH  18  19
ENDBRANCH   1  18
TORSDOF 28
ENDMDL
MODEL 3
REMARK VINA RESULT:    -4.466      3.066     11.072
REMARK INTER + INTRA:         -15.097
REMARK INTER:                 -12.192
REMARK INTRA:                  -2.905
REMARK UNBOUND:                -3.321
REMARK SMILES CCCCCCCCCCCCCCCCCCCCCCCCCCCCCC(=O)[O-]
REMARK SMILES IDX 16 1 17 2 18 3 19 4 20 5 21 6 22 7 23 8 24 9 25 10 26 11
REMARK SMILES IDX 27 12 28 13 29 14 30 15 31 16 32 17 15 18 14 19 13 20 12 21
REMARK SMILES IDX 11 22 10 23 9 24 8 25 7 26 6 27 5 28 4 29 3 30 2 31 1 32
REMARK H PARENT
REMARK Flexibility Score: inf
ROOT
ATOM      1  C   UNL     1      66.725  30.599  22.461  1.00  0.00     0.000 C 
ENDROOT
BRANCH   1   2
ATOM      2  C   UNL     1      66.755  32.111  22.748  1.00  0.00     0.000 C 
BRANCH   2   3
ATOM      3  C   UNL     1      66.832  32.951  21.461  1.00  0.00     0.000 C 
BRANCH   3   4
ATOM      4  C   UNL     1      65.593  33.836  21.258  1.00  0.00     0.000 C 
BRANCH   4   5
ATOM      5  C   UNL     1      65.881  34.955  20.247  1.00  0.00     0.000 C 
BRANCH   5   6
ATOM      6  C   UNL     1      65.889  34.465  18.787  1.00  0.00     0.000 C 
BRANCH   6   7
ATOM      7  C   UNL     1      65.190  35.398  17.780  1.00  0.00     0.000 C 
BRANCH   7   8
ATOM      8  C   UNL     1      65.368  34.953  16.322  1.00  0.00     0.000 C 
BRANCH   8   9
ATOM      9  C   UNL     1      66.108  33.608  16.243  1.00  0.00     0.000 C 
BRANCH   9  10
ATOM     10  C   UNL     1      66.332  33.136  14.790  1.00  0.00     0.000 C 
BRANCH  10  11
ATOM     11  C   UNL     1      65.258  32.161  14.273  1.00  0.00     0.000 C 
BRANCH  11  12
ATOM     12  C   UNL     1      64.552  32.593  12.978  1.00  0.00     0.000 C 
BRANCH  12  13
ATOM     13  C   UNL     1      63.025  32.686  13.131  1.00  0.00     0.006 C 
BRANCH  13  14
ATOM     14  C   UNL     1      62.645  33.231  14.512  1.00  0.00     0.053 C 
BRANCH  14  15
ATOM     15  C   UNL     1      61.169  33.473  14.607  1.00  0.00     0.041 C 
ATOM     16  O   UNL     1      60.685  34.064  15.609  1.00  0.00    -0.550 OA
ATOM     17  O   UNL     1      60.324  33.027  13.599  1.00  0.00    -0.550 OA
ENDBRANCH  14  15
ENDBRANCH  13  14
ENDBRANCH  12  13
ENDBRANCH  11  12
ENDBRANCH  10  11
ENDBRANCH   9  10
ENDBRANCH   8   9
ENDBRANCH   7   8
ENDBRANCH   6   7
ENDBRANCH   5   6
ENDBRANCH   4   5
ENDBRANCH   3   4
ENDBRANCH   2   3
ENDBRANCH   1   2
BRANCH   1  18
ATOM     18  C   UNL     1      66.768  29.754  23.744  1.00  0.00     0.000 C 
BRANCH  18  19
ATOM     19  C   UNL     1      65.628  30.095  24.718  1.00  0.00     0.000 C 
BRANCH  19  20
ATOM     20  C   UNL     1      65.769  29.367  26.066  1.00  0.00     0.000 C 
BRANCH  20  21
ATOM     21  C   UNL     1      65.335  30.238  27.256  1.00  0.00     0.000 C 
BRANCH  21  22
ATOM     22  C   UNL     1      63.857  30.676  27.157  1.00  0.00     0.000 C 
BRANCH  22  23
ATOM     23  C   UNL     1      63.028  30.350  28.413  1.00  0.00     0.000 C 
BRANCH  23  24
ATOM     24  C   UNL     1      61.873  29.357  28.188  1.00  0.00    -0.000 C 
BRANCH  24  25
ATOM     25  C   UNL     1      62.245  28.093  27.384  1.00  0.00    -0.000 C 
BRANCH  25  26
ATOM     26  C   UNL     1      61.050  27.318  26.793  1.00  0.00    -0.000 C 
BRANCH  26  27
ATOM     27  C   UNL     1      60.882  27.440  25.266  1.00  0.00    -0.000 C 
BRANCH  27  28
ATOM     28  C   UNL     1      61.835  28.441  24.580  1.00  0.00    -0.000 C 
BRANCH  28  29
ATOM     29  C   UNL     1      62.975  27.799  23.766  1.00  0.00    -0.000 C 
BRANCH  29  30
ATOM     30  C   UNL     1      63.355  26.371  24.201  1.00  0.00    -0.000 C 
BRANCH  30  31
ATOM     31  C   UNL     1      64.871  26.166  24.405  1.00  0.00    -0.003 C 
ATOM     32  C   UNL     1      65.648  26.186  23.088  1.00  0.00     0.004 C 
ENDBRANCH  30  31
ENDBRANCH  29  30
ENDBRANCH  28  29
ENDBRANCH  27  28
ENDBRANCH  26  27
ENDBRANCH  25  26
ENDBRANCH  24  25
ENDBRANCH  23  24
ENDBRANCH  22  23
ENDBRANCH  21  22
ENDBRANCH  20  21
ENDBRANCH  19  20
ENDBRANCH  18  19
ENDBRANCH   1  18
TORSDOF 28
ENDMDL
MODEL 4
REMARK VINA RESULT:    -4.461      3.096     11.563
REMARK INTER + INTRA:         -15.084
REMARK INTER:                 -12.726
REMARK INTRA:                  -2.357
REMARK UNBOUND:                -3.321
REMARK SMILES CCCCCCCCCCCCCCCCCCCCCCCCCCCCCC(=O)[O-]
REMARK SMILES IDX 16 1 17 2 18 3 19 4 20 5 21 6 22 7 23 8 24 9 25 10 26 11
REMARK SMILES IDX 27 12 28 13 29 14 30 15 31 16 32 17 15 18 14 19 13 20 12 21
REMARK SMILES IDX 11 22 10 23 9 24 8 25 7 26 6 27 5 28 4 29 3 30 2 31 1 32
REMARK H PARENT
REMARK Flexibility Score: inf
ROOT
ATOM      1  C   UNL     1      64.028  33.873  21.710  1.00  0.00     0.000 C 
ENDROOT
BRANCH   1   2
ATOM      2  C   UNL     1      65.487  34.065  21.254  1.00  0.00     0.000 C 
BRANCH   2   3
ATOM      3  C   UNL     1      65.663  35.303  20.358  1.00  0.00     0.000 C 
BRANCH   3   4
ATOM      4  C   UNL     1      65.996  34.937  18.904  1.00  0.00     0.000 C 
BRANCH   4   5
ATOM      5  C   UNL     1      65.600  36.074  17.951  1.00  0.00     0.000 C 
BRANCH   5   6
ATOM      6  C   UNL     1      64.886  35.579  16.680  1.00  0.00     0.000 C 
BRANCH   6   7
ATOM      7  C   UNL     1      65.792  35.404  15.447  1.00  0.00     0.000 C 
BRANCH   7   8
ATOM      8  C   UNL     1      65.202  34.453  14.395  1.00  0.00     0.000 C 
BRANCH   8   9
ATOM      9  C   UNL     1      63.875  33.848  14.882  1.00  0.00     0.000 C 
BRANCH   9  10
ATOM     10  C   UNL     1      63.128  33.081  13.771  1.00  0.00     0.000 C 
BRANCH  10  11
ATOM     11  C   UNL     1      61.711  32.623  14.166  1.00  0.00     0.000 C 
BRANCH  11  12
ATOM     12  C   UNL     1      60.663  32.701  13.044  1.00  0.00     0.000 C 
BRANCH  12  13
ATOM     13  C   UNL     1      59.684  31.516  13.057  1.00  0.00     0.006 C 
BRANCH  13  14
ATOM     14  C   UNL     1      60.192  30.375  12.168  1.00  0.00     0.053 C 
BRANCH  14  15
ATOM     15  C   UNL     1      60.284  29.093  12.938  1.00  0.00     0.041 C 
ATOM     16  O   UNL     1      61.204  28.923  13.782  1.00  0.00    -0.550 OA
ATOM     17  O   UNL     1      59.365  28.077  12.710  1.00  0.00    -0.550 OA
ENDBRANCH  14  15
ENDBRANCH  13  14
ENDBRANCH  12  13
ENDBRANCH  11  12
ENDBRANCH  10  11
ENDBRANCH   9  10
ENDBRANCH   8   9
ENDBRANCH   7   8
ENDBRANCH   6   7
ENDBRANCH   5   6
ENDBRANCH   4   5
ENDBRANCH   3   4
ENDBRANCH   2   3
ENDBRANCH   1   2
BRANCH   1  18
ATOM     18  C   UNL     1      63.921  33.111  23.040  1.00  0.00     0.000 C 
BRANCH  18  19
ATOM     19  C   UNL     1      64.903  31.931  23.129  1.00  0.00     0.000 C 
BRANCH  19  20
ATOM     20  C   UNL     1      64.251  30.666  23.714  1.00  0.00     0.000 C 
BRANCH  20  21
ATOM     21  C   UNL     1      64.691  30.390  25.160  1.00  0.00     0.000 C 
BRANCH  21  22
ATOM     22  C   UNL     1      63.567  30.669  26.182  1.00  0.00     0.000 C 
BRANCH  22  23
ATOM     23  C   UNL     1      63.810  30.031  27.562  1.00  0.00     0.000 C 
BRANCH  23  24
ATOM     24  C   UNL     1      62.659  30.208  28.569  1.00  0.00    -0.000 C 
BRANCH  24  25
ATOM     25  C   UNL     1      61.556  29.133  28.498  1.00  0.00    -0.000 C 
BRANCH  25  26
ATOM     26  C   UNL     1      62.006  27.769  27.936  1.00  0.00    -0.000 C 
BRANCH  26  27
ATOM     27  C   UNL     1      61.063  27.151  26.885  1.00  0.00    -0.000 C 
BRANCH  27  28
ATOM     28  C   UNL     1      61.013  27.892  25.533  1.00  0.00    -0.000 C 
BRANCH  28  29
ATOM     29  C   UNL     1      62.265  27.722  24.652  1.00  0.00    -0.000 C 
BRANCH  29  30
ATOM     30  C   UNL     1      63.013  26.388  24.842  1.00  0.00    -0.000 C 
BRANCH  30  31
ATOM     31  C   UNL     1      64.534  26.552  25.041  1.00  0.00    -0.003 C 
ATOM     32  C   UNL     1      65.308  26.503  23.723  1.00  0.00     0.004 C 
ENDBRANCH  30  31
ENDBRANCH  29  30
ENDBRANCH  28  29
ENDBRANCH  27  28
ENDBRANCH  26  27
ENDBRANCH  25  26
ENDBRANCH  24  25
ENDBRANCH  23  24
ENDBRANCH  22  23
ENDBRANCH  21  22
ENDBRANCH  20  21
ENDBRANCH  19  20
ENDBRANCH  18  19
ENDBRANCH   1  18
TORSDOF 28
ENDMDL
MODEL 5
REMARK VINA RESULT:    -4.430      2.722     11.088
REMARK INTER + INTRA:         -15.002
REMARK INTER:                 -11.975
REMARK INTRA:                  -3.027
REMARK UNBOUND:                -3.321
REMARK SMILES CCCCCCCCCCCCCCCCCCCCCCCCCCCCCC(=O)[O-]
REMARK SMILES IDX 16 1 17 2 18 3 19 4 20 5 21 6 22 7 23 8 24 9 25 10 26 11
REMARK SMILES IDX 27 12 28 13 29 14 30 15 31 16 32 17 15 18 14 19 13 20 12 21
REMARK SMILES IDX 11 22 10 23 9 24 8 25 7 26 6 27 5 28 4 29 3 30 2 31 1 32
REMARK H PARENT
REMARK Flexibility Score: inf
ROOT
ATOM      1  C   UNL     1      66.117  30.482  23.189  1.00  0.00     0.000 C 
ENDROOT
BRANCH   1   2
ATOM      2  C   UNL     1      67.020  31.385  22.328  1.00  0.00     0.000 C 
BRANCH   2   3
ATOM      3  C   UNL     1      66.368  32.744  22.020  1.00  0.00     0.000 C 
BRANCH   3   4
ATOM      4  C   UNL     1      66.844  33.338  20.686  1.00  0.00     0.000 C 
BRANCH   4   5
ATOM      5  C   UNL     1      65.756  34.227  20.065  1.00  0.00     0.000 C 
BRANCH   5   6
ATOM      6  C   UNL     1      65.931  34.430  18.549  1.00  0.00     0.000 C 
BRANCH   6   7
ATOM      7  C   UNL     1      66.719  33.322  17.827  1.00  0.00     0.000 C 
BRANCH   7   8
ATOM      8  C   UNL     1      66.414  33.245  16.324  1.00  0.00     0.000 C 
BRANCH   8   9
ATOM      9  C   UNL     1      65.739  34.536  15.833  1.00  0.00     0.000 C 
BRANCH   9  10
ATOM     10  C   UNL     1      64.818  34.300  14.616  1.00  0.00     0.000 C 
BRANCH  10  11
ATOM     11  C   UNL     1      64.186  32.896  14.570  1.00  0.00     0.000 C 
BRANCH  11  12
ATOM     12  C   UNL     1      63.606  32.486  13.206  1.00  0.00     0.000 C 
BRANCH  12  13
ATOM     13  C   UNL     1      62.072  32.396  13.210  1.00  0.00     0.006 C 
BRANCH  13  14
ATOM     14  C   UNL     1      61.598  31.105  12.534  1.00  0.00     0.053 C 
BRANCH  14  15
ATOM     15  C   UNL     1      61.978  29.902  13.343  1.00  0.00     0.041 C 
ATOM     16  O   UNL     1      62.697  28.998  12.839  1.00  0.00    -0.550 OA
ATOM     17  O   UNL     1      61.522  29.769  14.648  1.00  0.00    -0.550 OA
ENDBRANCH  14  15
ENDBRANCH  13  14
ENDBRANCH  12  13
ENDBRANCH  11  12
ENDBRANCH  10  11
ENDBRANCH   9  10
ENDBRANCH   8   9
ENDBRANCH   7   8
ENDBRANCH   6   7
ENDBRANCH   5   6
ENDBRANCH   4   5
ENDBRANCH   3   4
ENDBRANCH   2   3
ENDBRANCH   1   2
BRANCH   1  18
ATOM     18  C   UNL     1      66.914  29.431  23.977  1.00  0.00     0.000 C 
BRANCH  18  19
ATOM     19  C   UNL     1      66.303  29.137  25.359  1.00  0.00     0.000 C 
BRANCH  19  20
ATOM     20  C   UNL     1      65.011  29.933  25.611  1.00  0.00     0.000 C 
BRANCH  20  21
ATOM     21  C   UNL     1      64.286  29.492  26.893  1.00  0.00     0.000 C 
BRANCH  21  22
ATOM     22  C   UNL     1      63.374  30.600  27.464  1.00  0.00     0.000 C 
BRANCH  22  23
ATOM     23  C   UNL     1      62.518  30.143  28.660  1.00  0.00     0.000 C 
BRANCH  23  24
ATOM     24  C   UNL     1      62.445  28.618  28.860  1.00  0.00    -0.000 C 
BRANCH  24  25
ATOM     25  C   UNL     1      61.134  27.958  28.386  1.00  0.00    -0.000 C 
BRANCH  25  26
ATOM     26  C   UNL     1      61.238  27.168  27.066  1.00  0.00    -0.000 C 
BRANCH  26  27
ATOM     27  C   UNL     1      60.762  27.925  25.810  1.00  0.00    -0.000 C 
BRANCH  27  28
ATOM     28  C   UNL     1      61.771  27.960  24.645  1.00  0.00    -0.000 C 
BRANCH  28  29
ATOM     29  C   UNL     1      62.903  26.919  24.733  1.00  0.00    -0.000 C 
BRANCH  29  30
ATOM     30  C   UNL     1      63.872  26.915  23.534  1.00  0.00    -0.000 C 
BRANCH  30  31
ATOM     31  C   UNL     1      65.103  26.006  23.734  1.00  0.00    -0.003 C 
ATOM     32  C   UNL     1      65.981  25.924  22.486  1.00  0.00     0.004 C 
ENDBRANCH  30  31
ENDBRANCH  29  30
ENDBRANCH  28  29
ENDBRANCH  27  28
ENDBRANCH  26  27
ENDBRANCH  25  26
ENDBRANCH  24  25
ENDBRANCH  23  24
ENDBRANCH  22  23
ENDBRANCH  21  22
ENDBRANCH  20  21
ENDBRANCH  19  20
ENDBRANCH  18  19
ENDBRANCH   1  18
TORSDOF 28
ENDMDL
MODEL 6
REMARK VINA RESULT:    -4.386      3.726     11.478
REMARK INTER + INTRA:         -14.887
REMARK INTER:                 -12.363
REMARK INTRA:                  -2.524
REMARK UNBOUND:                -3.321
REMARK SMILES CCCCCCCCCCCCCCCCCCCCCCCCCCCCCC(=O)[O-]
REMARK SMILES IDX 16 1 17 2 18 3 19 4 20 5 21 6 22 7 23 8 24 9 25 10 26 11
REMARK SMILES IDX 27 12 28 13 29 14 30 15 31 16 32 17 15 18 14 19 13 20 12 21
REMARK SMILES IDX 11 22 10 23 9 24 8 25 7 26 6 27 5 28 4 29 3 30 2 31 1 32
REMARK H PARENT
REMARK Flexibility Score: inf
ROOT
ATOM      1  C   UNL     1      65.194  33.383  22.012  1.00  0.00     0.000 C 
ENDROOT
BRANCH   1   2
ATOM      2  C   UNL     1      64.744  34.276  20.840  1.00  0.00     0.000 C 
BRANCH   2   3
ATOM      3  C   UNL     1      65.933  34.851  20.052  1.00  0.00     0.000 C 
BRANCH   3   4
ATOM      4  C   UNL     1      65.780  34.667  18.534  1.00  0.00     0.000 C 
BRANCH   4   5
ATOM      5  C   UNL     1      65.368  35.985  17.863  1.00  0.00     0.000 C 
BRANCH   5   6
ATOM      6  C   UNL     1      65.325  35.896  16.327  1.00  0.00     0.000 C 
BRANCH   6   7
ATOM      7  C   UNL     1      64.936  34.517  15.762  1.00  0.00     0.000 C 
BRANCH   7   8
ATOM      8  C   UNL     1      65.249  34.368  14.266  1.00  0.00     0.000 C 
BRANCH   8   9
ATOM      9  C   UNL     1      64.245  33.424  13.585  1.00  0.00     0.000 C 
BRANCH   9  10
ATOM     10  C   UNL     1      62.917  33.304  14.364  1.00  0.00     0.000 C 
BRANCH  10  11
ATOM     11  C   UNL     1      61.973  32.209  13.834  1.00  0.00     0.000 C 
BRANCH  11  12
ATOM     12  C   UNL     1      62.673  30.960  13.274  1.00  0.00     0.000 C 
BRANCH  12  13
ATOM     13  C   UNL     1      61.688  29.935  12.688  1.00  0.00     0.006 C 
BRANCH  13  14
ATOM     14  C   UNL     1      62.013  29.642  11.219  1.00  0.00     0.053 C 
BRANCH  14  15
ATOM     15  C   UNL     1      60.907  28.869  10.567  1.00  0.00     0.041 C 
ATOM     16  O   UNL     1      61.154  28.093   9.605  1.00  0.00    -0.550 OA
ATOM     17  O   UNL     1      59.599  29.020  11.008  1.00  0.00    -0.550 OA
ENDBRANCH  14  15
ENDBRANCH  13  14
ENDBRANCH  12  13
ENDBRANCH  11  12
ENDBRANCH  10  11
ENDBRANCH   9  10
ENDBRANCH   8   9
ENDBRANCH   7   8
ENDBRANCH   6   7
ENDBRANCH   5   6
ENDBRANCH   4   5
ENDBRANCH   3   4
ENDBRANCH   2   3
ENDBRANCH   1   2
BRANCH   1  18
ATOM     18  C   UNL     1      66.709  33.129  22.013  1.00  0.00     0.000 C 
BRANCH  18  19
ATOM     19  C   UNL     1      67.059  31.631  22.037  1.00  0.00     0.000 C 
BRANCH  19  20
ATOM     20  C   UNL     1      66.281  30.863  23.119  1.00  0.00     0.000 C 
BRANCH  20  21
ATOM     21  C   UNL     1      66.141  29.367  22.796  1.00  0.00     0.000 C 
BRANCH  21  22
ATOM     22  C   UNL     1      66.111  28.491  24.068  1.00  0.00     0.000 C 
BRANCH  22  23
ATOM     23  C   UNL     1      66.179  29.297  25.379  1.00  0.00     0.000 C 
BRANCH  23  24
ATOM     24  C   UNL     1      64.878  29.304  26.203  1.00  0.00    -0.000 C 
BRANCH  24  25
ATOM     25  C   UNL     1      63.967  30.527  25.976  1.00  0.00    -0.000 C 
BRANCH  25  26
ATOM     26  C   UNL     1      62.623  30.223  25.284  1.00  0.00    -0.000 C 
BRANCH  26  27
ATOM     27  C   UNL     1      62.502  28.808  24.685  1.00  0.00    -0.000 C 
BRANCH  27  28
ATOM     28  C   UNL     1      61.072  28.231  24.654  1.00  0.00    -0.000 C 
BRANCH  28  29
ATOM     29  C   UNL     1      60.739  27.257  25.801  1.00  0.00    -0.000 C 
BRANCH  29  30
ATOM     30  C   UNL     1      61.865  27.070  26.837  1.00  0.00    -0.000 C 
BRANCH  30  31
ATOM     31  C   UNL     1      61.443  27.415  28.280  1.00  0.00    -0.003 C 
ATOM     32  C   UNL     1      61.445  28.920  28.550  1.00  0.00     0.004 C 
ENDBRANCH  30  31
ENDBRANCH  29  30
ENDBRANCH  28  29
ENDBRANCH  27  28
ENDBRANCH  26  27
ENDBRANCH  25  26
ENDBRANCH  24  25
ENDBRANCH  23  24
ENDBRANCH  22  23
ENDBRANCH  21  22
ENDBRANCH  20  21
ENDBRANCH  19  20
ENDBRANCH  18  19
ENDBRANCH   1  18
TORSDOF 28
ENDMDL
MODEL 7
REMARK VINA RESULT:    -4.381      1.483      2.077
REMARK INTER + INTRA:         -14.873
REMARK INTER:                 -12.302
REMARK INTRA:                  -2.571
REMARK UNBOUND:                -3.321
REMARK SMILES CCCCCCCCCCCCCCCCCCCCCCCCCCCCCC(=O)[O-]
REMARK SMILES IDX 16 1 17 2 18 3 19 4 20 5 21 6 22 7 23 8 24 9 25 10 26 11
REMARK SMILES IDX 27 12 28 13 29 14 30 15 31 16 32 17 15 18 14 19 13 20 12 21
REMARK SMILES IDX 11 22 10 23 9 24 8 25 7 26 6 27 5 28 4 29 3 30 2 31 1 32
REMARK H PARENT
REMARK Flexibility Score: inf
ROOT
ATOM      1  C   UNL     1      64.567  31.269  23.511  1.00  0.00     0.000 C 
ENDROOT
BRANCH   1   2
ATOM      2  C   UNL     1      63.971  30.889  24.879  1.00  0.00     0.000 C 
BRANCH   2   3
ATOM      3  C   UNL     1      64.927  30.019  25.713  1.00  0.00     0.000 C 
BRANCH   3   4
ATOM      4  C   UNL     1      64.520  29.945  27.192  1.00  0.00     0.000 C 
BRANCH   4   5
ATOM      5  C   UNL     1      63.107  30.512  27.397  1.00  0.00     0.000 C 
BRANCH   5   6
ATOM      6  C   UNL     1      62.154  29.526  28.096  1.00  0.00     0.000 C 
BRANCH   6   7
ATOM      7  C   UNL     1      62.249  28.067  27.610  1.00  0.00     0.000 C 
BRANCH   7   8
ATOM      8  C   UNL     1      60.880  27.440  27.311  1.00  0.00     0.000 C 
BRANCH   8   9
ATOM      9  C   UNL     1      60.742  27.103  25.818  1.00  0.00     0.000 C 
BRANCH   9  10
ATOM     10  C   UNL     1      61.383  28.171  24.905  1.00  0.00     0.000 C 
BRANCH  10  11
ATOM     11  C   UNL     1      62.585  27.659  24.088  1.00  0.00     0.000 C 
BRANCH  11  12
ATOM     12  C   UNL     1      63.206  26.347  24.592  1.00  0.00     0.000 C 
BRANCH  12  13
ATOM     13  C   UNL     1      64.740  26.406  24.679  1.00  0.00     0.006 C 
BRANCH  13  14
ATOM     14  C   UNL     1      65.384  25.763  23.446  1.00  0.00     0.053 C 
BRANCH  14  15
ATOM     15  C   UNL     1      66.023  26.798  22.571  1.00  0.00     0.041 C 
ATOM     16  O   UNL     1      66.033  28.008  22.921  1.00  0.00    -0.550 OA
ATOM     17  O   UNL     1      66.591  26.429  21.358  1.00  0.00    -0.550 OA
ENDBRANCH  14  15
ENDBRANCH  13  14
ENDBRANCH  12  13
ENDBRANCH  11  12
ENDBRANCH  10  11
ENDBRANCH   9  10
ENDBRANCH   8   9
ENDBRANCH   7   8
ENDBRANCH   6   7
ENDBRANCH   5   6
ENDBRANCH   4   5
ENDBRANCH   3   4
ENDBRANCH   2   3
ENDBRANCH   1   2
BRANCH   1  18
ATOM     18  C   UNL     1      64.133  32.669  23.047  1.00  0.00     0.000 C 
BRANCH  18  19
ATOM     19  C   UNL     1      65.100  33.278  22.017  1.00  0.00     0.000 C 
BRANCH  19  20
ATOM     20  C   UNL     1      64.412  34.304  21.100  1.00  0.00     0.000 C 
BRANCH  20  21
ATOM     21  C   UNL     1      65.416  35.179  20.333  1.00  0.00     0.000 C 
BRANCH  21  22
ATOM     22  C   UNL     1      65.153  35.181  18.811  1.00  0.00     0.000 C 
BRANCH  22  23
ATOM     23  C   UNL     1      66.069  34.227  18.022  1.00  0.00     0.000 C 
BRANCH  23  24
ATOM     24  C   UNL     1      66.129  34.494  16.506  1.00  0.00    -0.000 C 
BRANCH  24  25
ATOM     25  C   UNL     1      64.760  34.546  15.797  1.00  0.00    -0.000 C 
BRANCH  25  26
ATOM     26  C   UNL     1      64.590  33.554  14.629  1.00  0.00    -0.000 C 
BRANCH  26  27
ATOM     27  C   UNL     1      63.174  32.965  14.471  1.00  0.00    -0.000 C 
BRANCH  27  28
ATOM     28  C   UNL     1      63.117  31.558  13.843  1.00  0.00    -0.000 C 
BRANCH  28  29
ATOM     29  C   UNL     1      62.141  30.580  14.526  1.00  0.00    -0.000 C 
BRANCH  29  30
ATOM     30  C   UNL     1      61.653  29.425  13.630  1.00  0.00    -0.000 C 
BRANCH  30  31
ATOM     31  C   UNL     1      62.702  28.950  12.603  1.00  0.00    -0.003 C 
ATOM     32  C   UNL     1      62.150  28.902  11.178  1.00  0.00     0.004 C 
ENDBRANCH  30  31
ENDBRANCH  29  30
ENDBRANCH  28  29
ENDBRANCH  27  28
ENDBRANCH  26  27
ENDBRANCH  25  26
ENDBRANCH  24  25
ENDBRANCH  23  24
ENDBRANCH  22  23
ENDBRANCH  21  22
ENDBRANCH  20  21
ENDBRANCH  19  20
ENDBRANCH  18  19
ENDBRANCH   1  18
TORSDOF 28
ENDMDL
MODEL 8
REMARK VINA RESULT:    -4.255      2.362      4.294
REMARK INTER + INTRA:         -14.541
REMARK INTER:                 -12.798
REMARK INTRA:                  -1.742
REMARK UNBOUND:                -3.321
REMARK SMILES CCCCCCCCCCCCCCCCCCCCCCCCCCCCCC(=O)[O-]
REMARK SMILES IDX 16 1 17 2 18 3 19 4 20 5 21 6 22 7 23 8 24 9 25 10 26 11
REMARK SMILES IDX 27 12 28 13 29 14 30 15 31 16 32 17 15 18 14 19 13 20 12 21
REMARK SMILES IDX 11 22 10 23 9 24 8 25 7 26 6 27 5 28 4 29 3 30 2 31 1 32
REMARK H PARENT
REMARK Flexibility Score: inf
ROOT
ATOM      1  C   UNL     1      67.096  32.819  20.917  1.00  0.00     0.000 C 
ENDROOT
BRANCH   1   2
ATOM      2  C   UNL     1      66.716  32.440  22.360  1.00  0.00     0.000 C 
BRANCH   2   3
ATOM      3  C   UNL     1      66.760  30.920  22.599  1.00  0.00     0.000 C 
BRANCH   3   4
ATOM      4  C   UNL     1      65.772  30.464  23.682  1.00  0.00     0.000 C 
BRANCH   4   5
ATOM      5  C   UNL     1      66.276  29.193  24.381  1.00  0.00     0.000 C 
BRANCH   5   6
ATOM      6  C   UNL     1      66.261  27.953  23.470  1.00  0.00     0.000 C 
BRANCH   6   7
ATOM      7  C   UNL     1      64.983  27.098  23.549  1.00  0.00     0.000 C 
BRANCH   7   8
ATOM      8  C   UNL     1      64.865  26.309  24.861  1.00  0.00     0.000 C 
BRANCH   8   9
ATOM      9  C   UNL     1      63.788  26.917  25.775  1.00  0.00     0.000 C 
BRANCH   9  10
ATOM     10  C   UNL     1      62.462  27.188  25.032  1.00  0.00     0.000 C 
BRANCH  10  11
ATOM     11  C   UNL     1      61.223  27.213  25.947  1.00  0.00     0.000 C 
BRANCH  11  12
ATOM     12  C   UNL     1      61.525  27.208  27.454  1.00  0.00     0.000 C 
BRANCH  12  13
ATOM     13  C   UNL     1      61.176  28.539  28.139  1.00  0.00     0.006 C 
BRANCH  13  14
ATOM     14  C   UNL     1      62.412  29.153  28.806  1.00  0.00     0.053 C 
BRANCH  14  15
ATOM     15  C   UNL     1      62.912  30.333  28.030  1.00  0.00     0.041 C 
ATOM     16  O   UNL     1      63.475  31.292  28.623  1.00  0.00    -0.550 OA
ATOM     17  O   UNL     1      62.738  30.385  26.653  1.00  0.00    -0.550 OA
ENDBRANCH  14  15
ENDBRANCH  13  14
ENDBRANCH  12  13
ENDBRANCH  11  12
ENDBRANCH  10  11
ENDBRANCH   9  10
ENDBRANCH   8   9
ENDBRANCH   7   8
ENDBRANCH   6   7
ENDBRANCH   5   6
ENDBRANCH   4   5
ENDBRANCH   3   4
ENDBRANCH   2   3
ENDBRANCH   1   2
BRANCH   1  18
ATOM     18  C   UNL     1      66.016  33.665  20.225  1.00  0.00     0.000 C 
BRANCH  18  19
ATOM     19  C   UNL     1      66.417  35.144  20.090  1.00  0.00     0.000 C 
BRANCH  19  20
ATOM     20  C   UNL     1      66.566  35.581  18.623  1.00  0.00     0.000 C 
BRANCH  20  21
ATOM     21  C   UNL     1      65.903  34.599  17.644  1.00  0.00     0.000 C 
BRANCH  21  22
ATOM     22  C   UNL     1      66.411  34.779  16.196  1.00  0.00     0.000 C 
BRANCH  22  23
ATOM     23  C   UNL     1      65.414  34.299  15.125  1.00  0.00     0.000 C 
BRANCH  23  24
ATOM     24  C   UNL     1      63.931  34.391  15.532  1.00  0.00    -0.000 C 
BRANCH  24  25
ATOM     25  C   UNL     1      62.972  33.505  14.710  1.00  0.00    -0.000 C 
BRANCH  25  26
ATOM     26  C   UNL     1      61.497  33.549  15.158  1.00  0.00    -0.000 C 
BRANCH  26  27
ATOM     27  C   UNL     1      60.482  33.040  14.115  1.00  0.00    -0.000 C 
BRANCH  27  28
ATOM     28  C   UNL     1      61.099  32.332  12.892  1.00  0.00    -0.000 C 
BRANCH  28  29
ATOM     29  C   UNL     1      60.244  31.196  12.298  1.00  0.00    -0.000 C 
BRANCH  29  30
ATOM     30  C   UNL     1      61.050  30.038  11.678  1.00  0.00    -0.000 C 
BRANCH  30  31
ATOM     31  C   UNL     1      60.860  28.690  12.407  1.00  0.00    -0.003 C 
ATOM     32  C   UNL     1      59.388  28.300  12.546  1.00  0.00     0.004 C 
ENDBRANCH  30  31
ENDBRANCH  29  30
ENDBRANCH  28  29
ENDBRANCH  27  28
ENDBRANCH  26  27
ENDBRANCH  25  26
ENDBRANCH  24  25
ENDBRANCH  23  24
ENDBRANCH  22  23
ENDBRANCH  21  22
ENDBRANCH  20  21
ENDBRANCH  19  20
ENDBRANCH  18  19
ENDBRANCH   1  18
TORSDOF 28
ENDMDL
MODEL 9
REMARK VINA RESULT:    -4.204      3.403     11.357
REMARK INTER + INTRA:         -14.406
REMARK INTER:                 -12.156
REMARK INTRA:                  -2.250
REMARK UNBOUND:                -3.321
REMARK SMILES CCCCCCCCCCCCCCCCCCCCCCCCCCCCCC(=O)[O-]
REMARK SMILES IDX 16 1 17 2 18 3 19 4 20 5 21 6 22 7 23 8 24 9 25 10 26 11
REMARK SMILES IDX 27 12 28 13 29 14 30 15 31 16 32 17 15 18 14 19 13 20 12 21
REMARK SMILES IDX 11 22 10 23 9 24 8 25 7 26 6 27 5 28 4 29 3 30 2 31 1 32
REMARK H PARENT
REMARK Flexibility Score: inf
ROOT
ATOM      1  C   UNL     1      66.997  32.745  22.159  1.00  0.00     0.000 C 
ENDROOT
BRANCH   1   2
ATOM      2  C   UNL     1      66.250  33.122  20.866  1.00  0.00     0.000 C 
BRANCH   2   3
ATOM      3  C   UNL     1      66.578  34.550  20.395  1.00  0.00     0.000 C 
BRANCH   3   4
ATOM      4  C   UNL     1      66.954  34.608  18.907  1.00  0.00     0.000 C 
BRANCH   4   5
ATOM      5  C   UNL     1      66.495  33.336  18.178  1.00  0.00     0.000 C 
BRANCH   5   6
ATOM      6  C   UNL     1      67.016  33.244  16.732  1.00  0.00     0.000 C 
BRANCH   6   7
ATOM      7  C   UNL     1      65.943  32.949  15.667  1.00  0.00     0.000 C 
BRANCH   7   8
ATOM      8  C   UNL     1      65.055  34.161  15.352  1.00  0.00     0.000 C 
BRANCH   8   9
ATOM      9  C   UNL     1      64.093  33.853  14.194  1.00  0.00     0.000 C 
BRANCH   9  10
ATOM     10  C   UNL     1      62.984  32.855  14.592  1.00  0.00     0.000 C 
BRANCH  10  11
ATOM     11  C   UNL     1      61.655  33.520  14.997  1.00  0.00     0.000 C 
BRANCH  11  12
ATOM     12  C   UNL     1      60.398  32.908  14.358  1.00  0.00     0.000 C 
BRANCH  12  13
ATOM     13  C   UNL     1      60.615  31.467  13.870  1.00  0.00     0.006 C 
BRANCH  13  14
ATOM     14  C   UNL     1      60.592  31.398  12.339  1.00  0.00     0.053 C 
BRANCH  14  15
ATOM     15  C   UNL     1      60.569  29.977  11.865  1.00  0.00     0.041 C 
ATOM     16  O   UNL     1      61.556  29.222  12.070  1.00  0.00    -0.550 OA
ATOM     17  O   UNL     1      59.464  29.491  11.178  1.00  0.00    -0.550 OA
ENDBRANCH  14  15
ENDBRANCH  13  14
ENDBRANCH  12  13
ENDBRANCH  11  12
ENDBRANCH  10  11
ENDBRANCH   9  10
ENDBRANCH   8   9
ENDBRANCH   7   8
ENDBRANCH   6   7
ENDBRANCH   5   6
ENDBRANCH   4   5
ENDBRANCH   3   4
ENDBRANCH   2   3
ENDBRANCH   1   2
BRANCH   1  18
ATOM     18  C   UNL     1      67.059  31.226  22.382  1.00  0.00     0.000 C 
BRANCH  18  19
ATOM     19  C   UNL     1      66.069  30.743  23.455  1.00  0.00     0.000 C 
BRANCH  19  20
ATOM     20  C   UNL     1      66.476  29.391  24.066  1.00  0.00     0.000 C 
BRANCH  20  21
ATOM     21  C   UNL     1      66.774  28.326  22.998  1.00  0.00     0.000 C 
BRANCH  21  22
ATOM     22  C   UNL     1      65.835  27.104  23.108  1.00  0.00     0.000 C 
BRANCH  22  23
ATOM     23  C   UNL     1      65.057  27.037  24.435  1.00  0.00     0.000 C 
BRANCH  23  24
ATOM     24  C   UNL     1      63.526  26.957  24.285  1.00  0.00    -0.000 C 
BRANCH  24  25
ATOM     25  C   UNL     1      62.837  28.281  23.894  1.00  0.00    -0.000 C 
BRANCH  25  26
ATOM     26  C   UNL     1      61.456  28.515  24.538  1.00  0.00    -0.000 C 
BRANCH  26  27
ATOM     27  C   UNL     1      60.901  27.326  25.347  1.00  0.00    -0.000 C 
BRANCH  27  28
ATOM     28  C   UNL     1      61.296  27.306  26.837  1.00  0.00    -0.000 C 
BRANCH  28  29
ATOM     29  C   UNL     1      61.218  28.671  27.548  1.00  0.00    -0.000 C 
BRANCH  29  30
ATOM     30  C   UNL     1      62.494  29.073  28.315  1.00  0.00    -0.000 C 
BRANCH  30  31
ATOM     31  C   UNL     1      62.998  30.493  27.979  1.00  0.00    -0.003 C 
ATOM     32  C   UNL     1      63.682  30.565  26.614  1.00  0.00     0.004 C 
ENDBRANCH  30  31
ENDBRANCH  29  30
ENDBRANCH  28  29
ENDBRANCH  27  28
ENDBRANCH  26  27
ENDBRANCH  25  26
ENDBRANCH  24  25
ENDBRANCH  23  24
ENDBRANCH  22  23
ENDBRANCH  21  22
ENDBRANCH  20  21
ENDBRANCH  19  20
ENDBRANCH  18  19
ENDBRANCH   1  18
TORSDOF 28
ENDMDL
