MODEL 1
REMARK VINA RESULT:    -4.805      0.000      0.000
REMARK INTER + INTRA:         -14.693
REMARK INTER:                 -10.985
REMARK INTRA:                  -3.708
REMARK UNBOUND:                -3.708
REMARK SMILES CCCCCCCCCCCCCCCCCCCCCCCC(=O)[O-]
REMARK SMILES IDX 13 1 14 2 15 3 16 4 17 5 18 6 19 7 20 8 21 9 22 10 23 11
REMARK SMILES IDX 24 12 25 13 26 14 12 15 11 16 10 17 9 18 8 19 7 20 6 21 5 22
REMARK SMILES IDX 4 23 3 24 2 25 1 26
REMARK H PARENT
REMARK Flexibility Score: inf
ROOT
ATOM      1  C   UNL     1      12.057 -22.872 -13.873  1.00  0.00     0.000 C 
ENDROOT
BRANCH   1   2
ATOM      2  C   UNL     1      11.562 -21.771 -14.823  1.00  0.00     0.000 C 
BRANCH   2   3
ATOM      3  C   UNL     1      12.685 -20.820 -15.267  1.00  0.00     0.000 C 
BRANCH   3   4
ATOM      4  C   UNL     1      12.176 -19.688 -16.177  1.00  0.00     0.000 C 
BRANCH   4   5
ATOM      5  C   UNL     1      13.319 -18.803 -16.705  1.00  0.00     0.000 C 
BRANCH   5   6
ATOM      6  C   UNL     1      14.268 -18.344 -15.585  1.00  0.00     0.000 C 
BRANCH   6   7
ATOM      7  C   UNL     1      14.171 -16.833 -15.303  1.00  0.00     0.000 C 
BRANCH   7   8
ATOM      8  C   UNL     1      13.757 -16.463 -13.866  1.00  0.00     0.000 C 
BRANCH   8   9
ATOM      9  C   UNL     1      13.165 -17.619 -13.036  1.00  0.00     0.000 C 
BRANCH   9  10
ATOM     10  C   UNL     1      11.626 -17.715 -13.056  1.00  0.00     0.006 C 
BRANCH  10  11
ATOM     11  C   UNL     1      11.058 -18.967 -12.367  1.00  0.00     0.053 C 
BRANCH  11  12
ATOM     12  C   UNL     1      10.782 -18.730 -10.914  1.00  0.00     0.041 C 
ATOM     13  O   UNL     1      10.118 -19.569 -10.252  1.00  0.00    -0.550 OA
ATOM     14  O   UNL     1      11.233 -17.569 -10.299  1.00  0.00    -0.550 OA
ENDBRANCH  11  12
ENDBRANCH  10  11
ENDBRANCH   9  10
ENDBRANCH   8   9
ENDBRANCH   7   8
ENDBRANCH   6   7
ENDBRANCH   5   6
ENDBRANCH   4   5
ENDBRANCH   3   4
ENDBRANCH   2   3
ENDBRANCH   1   2
BRANCH   1  15
ATOM     15  C   UNL     1      11.283 -24.177 -14.098  1.00  0.00     0.000 C 
BRANCH  15  16
ATOM     16  C   UNL     1      12.224 -25.390 -14.046  1.00  0.00     0.000 C 
BRANCH  16  17
ATOM     17  C   UNL     1      13.711 -25.001 -14.134  1.00  0.00     0.000 C 
BRANCH  17  18
ATOM     18  C   UNL     1      14.577 -25.478 -12.954  1.00  0.00    -0.000 C 
BRANCH  18  19
ATOM     19  C   UNL     1      15.843 -24.626 -12.755  1.00  0.00    -0.000 C 
BRANCH  19  20
ATOM     20  C   UNL     1      15.529 -23.121 -12.640  1.00  0.00    -0.000 C 
BRANCH  20  21
ATOM     21  C   UNL     1      16.068 -22.275 -13.811  1.00  0.00    -0.000 C 
BRANCH  21  22
ATOM     22  C   UNL     1      16.100 -20.757 -13.532  1.00  0.00    -0.000 C 
BRANCH  22  23
ATOM     23  C   UNL     1      15.101 -20.312 -12.449  1.00  0.00    -0.000 C 
BRANCH  23  24
ATOM     24  C   UNL     1      15.796 -19.598 -11.277  1.00  0.00    -0.000 C 
BRANCH  24  25
ATOM     25  C   UNL     1      17.239 -20.079 -11.064  1.00  0.00    -0.003 C 
ATOM     26  C   UNL     1      17.362 -21.101  -9.934  1.00  0.00     0.004 C 
ENDBRANCH  24  25
ENDBRANCH  23  24
ENDBRANCH  22  23
ENDBRANCH  21  22
ENDBRANCH  20  21
ENDBRANCH  19  20
ENDBRANCH  18  19
ENDBRANCH  17  18
ENDBRANCH  16  17
ENDBRANCH  15  16
ENDBRANCH   1  15
TORSDOF 22
ENDMDL
MODEL 2
REMARK VINA RESULT:    -4.774      3.805      7.681
REMARK INTER + INTRA:         -14.622
REMARK INTER:                 -11.178
REMARK INTRA:                  -3.444
REMARK UNBOUND:                -3.708
REMARK SMILES CCCCCCCCCCCCCCCCCCCCCCCC(=O)[O-]
REMARK SMILES IDX 13 1 14 2 15 3 16 4 17 5 18 6 19 7 20 8 21 9 22 10 23 11
REMARK SMILES IDX 24 12 25 13 26 14 12 15 11 16 10 17 9 18 8 19 7 20 6 21 5 22
REMARK SMILES IDX 4 23 3 24 2 25 1 26
REMARK H PARENT
REMARK Flexibility Score: inf
ROOT
ATOM      1  C   UNL     1      12.848 -19.565 -16.508  1.00  0.00     0.000 C 
ENDROOT
BRANCH   1   2
ATOM      2  C   UNL     1      11.823 -20.589 -15.997  1.00  0.00     0.000 C 
BRANCH   2   3
ATOM      3  C   UNL     1      11.584 -20.485 -14.482  1.00  0.00     0.000 C 
BRANCH   3   4
ATOM      4  C   UNL     1      11.965 -21.773 -13.733  1.00  0.00     0.000 C 
BRANCH   4   5
ATOM      5  C   UNL     1      11.740 -23.034 -14.585  1.00  0.00     0.000 C 
BRANCH   5   6
ATOM      6  C   UNL     1      11.807 -24.324 -13.750  1.00  0.00     0.000 C 
BRANCH   6   7
ATOM      7  C   UNL     1      11.218 -25.542 -14.485  1.00  0.00     0.000 C 
BRANCH   7   8
ATOM      8  C   UNL     1      12.057 -26.831 -14.390  1.00  0.00     0.000 C 
BRANCH   8   9
ATOM      9  C   UNL     1      13.580 -26.615 -14.287  1.00  0.00     0.000 C 
BRANCH   9  10
ATOM     10  C   UNL     1      14.426 -27.460 -15.260  1.00  0.00     0.006 C 
BRANCH  10  11
ATOM     11  C   UNL     1      15.808 -27.860 -14.718  1.00  0.00     0.053 C 
BRANCH  11  12
ATOM     12  C   UNL     1      15.847 -29.294 -14.287  1.00  0.00     0.041 C 
ATOM     13  O   UNL     1      15.612 -29.602 -13.090  1.00  0.00    -0.550 OA
ATOM     14  O   UNL     1      16.174 -30.287 -15.202  1.00  0.00    -0.550 OA
ENDBRANCH  11  12
ENDBRANCH  10  11
ENDBRANCH   9  10
ENDBRANCH   8   9
ENDBRANCH   7   8
ENDBRANCH   6   7
ENDBRANCH   5   6
ENDBRANCH   4   5
ENDBRANCH   3   4
ENDBRANCH   2   3
ENDBRANCH   1   2
BRANCH   1  15
ATOM     15  C   UNL     1      13.054 -18.440 -15.486  1.00  0.00     0.000 C 
BRANCH  15  16
ATOM     16  C   UNL     1      14.369 -17.691 -15.750  1.00  0.00     0.000 C 
BRANCH  16  17
ATOM     17  C   UNL     1      14.571 -16.485 -14.815  1.00  0.00     0.000 C 
BRANCH  17  18
ATOM     18  C   UNL     1      13.445 -16.264 -13.789  1.00  0.00    -0.000 C 
BRANCH  18  19
ATOM     19  C   UNL     1      13.873 -16.589 -12.347  1.00  0.00    -0.000 C 
BRANCH  19  20
ATOM     20  C   UNL     1      13.200 -17.867 -11.806  1.00  0.00    -0.000 C 
BRANCH  20  21
ATOM     21  C   UNL     1      14.031 -19.149 -12.009  1.00  0.00    -0.000 C 
BRANCH  21  22
ATOM     22  C   UNL     1      15.555 -18.911 -12.077  1.00  0.00    -0.000 C 
BRANCH  22  23
ATOM     23  C   UNL     1      16.230 -19.601 -13.277  1.00  0.00    -0.000 C 
BRANCH  23  24
ATOM     24  C   UNL     1      15.433 -20.824 -13.766  1.00  0.00    -0.000 C 
BRANCH  24  25
ATOM     25  C   UNL     1      16.188 -22.145 -13.549  1.00  0.00    -0.003 C 
ATOM     26  C   UNL     1      15.464 -23.346 -14.158  1.00  0.00     0.004 C 
ENDBRANCH  24  25
ENDBRANCH  23  24
ENDBRANCH  22  23
ENDBRANCH  21  22
ENDBRANCH  20  21
ENDBRANCH  19  20
ENDBRANCH  18  19
ENDBRANCH  17  18
ENDBRANCH  16  17
ENDBRANCH  15  16
ENDBRANCH   1  15
TORSDOF 22
ENDMDL
MODEL 3
REMARK VINA RESULT:    -4.771      1.769      2.888
REMARK INTER + INTRA:         -14.615
REMARK INTER:                 -11.729
REMARK INTRA:                  -2.886
REMARK UNBOUND:                -3.708
REMARK SMILES CCCCCCCCCCCCCCCCCCCCCCCC(=O)[O-]
REMARK SMILES IDX 13 1 14 2 15 3 16 4 17 5 18 6 19 7 20 8 21 9 22 10 23 11
REMARK SMILES IDX 24 12 25 13 26 14 12 15 11 16 10 17 9 18 8 19 7 20 6 21 5 22
REMARK SMILES IDX 4 23 3 24 2 25 1 26
REMARK H PARENT
REMARK Flexibility Score: inf
ROOT
ATOM      1  C   UNL     1      11.273 -23.500 -14.023  1.00  0.00     0.000 C 
ENDROOT
BRANCH   1   2
ATOM      2  C   UNL     1      12.669 -22.898 -13.811  1.00  0.00     0.000 C 
BRANCH   2   3
ATOM      3  C   UNL     1      12.899 -21.623 -14.637  1.00  0.00     0.000 C 
BRANCH   3   4
ATOM      4  C   UNL     1      11.607 -21.098 -15.287  1.00  0.00     0.000 C 
BRANCH   4   5
ATOM      5  C   UNL     1      11.741 -19.640 -15.761  1.00  0.00     0.000 C 
BRANCH   5   6
ATOM      6  C   UNL     1      12.605 -19.513 -17.027  1.00  0.00     0.000 C 
BRANCH   6   7
ATOM      7  C   UNL     1      13.787 -18.543 -16.847  1.00  0.00     0.000 C 
BRANCH   7   8
ATOM      8  C   UNL     1      14.131 -18.198 -15.386  1.00  0.00     0.000 C 
BRANCH   8   9
ATOM      9  C   UNL     1      14.195 -16.692 -15.066  1.00  0.00     0.000 C 
BRANCH   9  10
ATOM     10  C   UNL     1      13.339 -16.242 -13.865  1.00  0.00     0.006 C 
BRANCH  10  11
ATOM     11  C   UNL     1      12.771 -17.397 -13.022  1.00  0.00     0.053 C 
BRANCH  11  12
ATOM     12  C   UNL     1      13.592 -17.652 -11.796  1.00  0.00     0.041 C 
ATOM     13  O   UNL     1      13.893 -18.830 -11.471  1.00  0.00    -0.550 OA
ATOM     14  O   UNL     1      13.998 -16.592 -10.996  1.00  0.00    -0.550 OA
ENDBRANCH  11  12
ENDBRANCH  10  11
ENDBRANCH   9  10
ENDBRANCH   8   9
ENDBRANCH   7   8
ENDBRANCH   6   7
ENDBRANCH   5   6
ENDBRANCH   4   5
ENDBRANCH   3   4
ENDBRANCH   2   3
ENDBRANCH   1   2
BRANCH   1  15
ATOM     15  C   UNL     1      11.344 -25.029 -14.118  1.00  0.00     0.000 C 
BRANCH  15  16
ATOM     16  C   UNL     1      12.801 -25.513 -14.107  1.00  0.00     0.000 C 
BRANCH  16  17
ATOM     17  C   UNL     1      12.935 -27.020 -14.398  1.00  0.00     0.000 C 
BRANCH  17  18
ATOM     18  C   UNL     1      14.253 -27.435 -15.077  1.00  0.00    -0.000 C 
BRANCH  18  19
ATOM     19  C   UNL     1      15.407 -27.631 -14.078  1.00  0.00    -0.000 C 
BRANCH  19  20
ATOM     20  C   UNL     1      16.429 -26.477 -14.123  1.00  0.00    -0.000 C 
BRANCH  20  21
ATOM     21  C   UNL     1      16.850 -25.956 -12.735  1.00  0.00    -0.000 C 
BRANCH  21  22
ATOM     22  C   UNL     1      15.690 -25.370 -11.901  1.00  0.00    -0.000 C 
BRANCH  22  23
ATOM     23  C   UNL     1      15.605 -23.834 -11.964  1.00  0.00    -0.000 C 
BRANCH  23  24
ATOM     24  C   UNL     1      16.911 -23.201 -12.475  1.00  0.00    -0.000 C 
BRANCH  24  25
ATOM     25  C   UNL     1      16.709 -22.388 -13.762  1.00  0.00    -0.003 C 
ATOM     26  C   UNL     1      16.329 -20.932 -13.489  1.00  0.00     0.004 C 
ENDBRANCH  24  25
ENDBRANCH  23  24
ENDBRANCH  22  23
ENDBRANCH  21  22
ENDBRANCH  20  21
ENDBRANCH  19  20
ENDBRANCH  18  19
ENDBRANCH  17  18
ENDBRANCH  16  17
ENDBRANCH  15  16
ENDBRANCH   1  15
TORSDOF 22
ENDMDL
MODEL 4
REMARK VINA RESULT:    -4.754      2.235      3.236
REMARK INTER + INTRA:         -14.576
REMARK INTER:                 -10.236
REMARK INTRA:                  -4.340
REMARK UNBOUND:                -3.708
REMARK SMILES CCCCCCCCCCCCCCCCCCCCCCCC(=O)[O-]
REMARK SMILES IDX 13 1 14 2 15 3 16 4 17 5 18 6 19 7 20 8 21 9 22 10 23 11
REMARK SMILES IDX 24 12 25 13 26 14 12 15 11 16 10 17 9 18 8 19 7 20 6 21 5 22
REMARK SMILES IDX 4 23 3 24 2 25 1 26
REMARK H PARENT
REMARK Flexibility Score: inf
ROOT
ATOM      1  C   UNL     1      11.726 -22.504 -13.399  1.00  0.00     0.000 C 
ENDROOT
BRANCH   1   2
ATOM      2  C   UNL     1      12.327 -21.149 -13.801  1.00  0.00     0.000 C 
BRANCH   2   3
ATOM      3  C   UNL     1      11.603 -20.508 -14.997  1.00  0.00     0.000 C 
BRANCH   3   4
ATOM      4  C   UNL     1      11.049 -19.110 -14.673  1.00  0.00     0.000 C 
BRANCH   4   5
ATOM      5  C   UNL     1      11.355 -18.679 -13.228  1.00  0.00     0.000 C 
BRANCH   5   6
ATOM      6  C   UNL     1      11.981 -17.276 -13.157  1.00  0.00     0.000 C 
BRANCH   6   7
ATOM      7  C   UNL     1      13.159 -17.198 -12.168  1.00  0.00     0.000 C 
BRANCH   7   8
ATOM      8  C   UNL     1      13.542 -18.534 -11.503  1.00  0.00     0.000 C 
BRANCH   8   9
ATOM      9  C   UNL     1      14.830 -19.188 -12.041  1.00  0.00     0.000 C 
BRANCH   9  10
ATOM     10  C   UNL     1      15.483 -18.460 -13.233  1.00  0.00     0.006 C 
BRANCH  10  11
ATOM     11  C   UNL     1      15.136 -19.055 -14.608  1.00  0.00     0.053 C 
BRANCH  11  12
ATOM     12  C   UNL     1      14.601 -18.020 -15.548  1.00  0.00     0.041 C 
ATOM     13  O   UNL     1      14.851 -16.801 -15.356  1.00  0.00    -0.550 OA
ATOM     14  O   UNL     1      13.801 -18.398 -16.619  1.00  0.00    -0.550 OA
ENDBRANCH  11  12
ENDBRANCH  10  11
ENDBRANCH   9  10
ENDBRANCH   8   9
ENDBRANCH   7   8
ENDBRANCH   6   7
ENDBRANCH   5   6
ENDBRANCH   4   5
ENDBRANCH   3   4
ENDBRANCH   2   3
ENDBRANCH   1   2
BRANCH   1  15
ATOM     15  C   UNL     1      11.729 -23.477 -14.585  1.00  0.00     0.000 C 
BRANCH  15  16
ATOM     16  C   UNL     1      11.366 -24.899 -14.130  1.00  0.00     0.000 C 
BRANCH  16  17
ATOM     17  C   UNL     1      12.592 -25.824 -14.019  1.00  0.00     0.000 C 
BRANCH  17  18
ATOM     18  C   UNL     1      13.951 -25.128 -14.216  1.00  0.00    -0.000 C 
BRANCH  18  19
ATOM     19  C   UNL     1      14.769 -25.029 -12.916  1.00  0.00    -0.000 C 
BRANCH  19  20
ATOM     20  C   UNL     1      15.151 -23.577 -12.569  1.00  0.00    -0.000 C 
BRANCH  20  21
ATOM     21  C   UNL     1      15.538 -22.719 -13.789  1.00  0.00    -0.000 C 
BRANCH  21  22
ATOM     22  C   UNL     1      17.046 -22.401 -13.887  1.00  0.00    -0.000 C 
BRANCH  22  23
ATOM     23  C   UNL     1      17.755 -22.368 -12.520  1.00  0.00    -0.000 C 
BRANCH  23  24
ATOM     24  C   UNL     1      17.949 -20.932 -12.002  1.00  0.00    -0.000 C 
BRANCH  24  25
ATOM     25  C   UNL     1      17.856 -20.839 -10.472  1.00  0.00    -0.003 C 
ATOM     26  C   UNL     1      16.643 -21.579  -9.906  1.00  0.00     0.004 C 
ENDBRANCH  24  25
ENDBRANCH  23  24
ENDBRANCH  22  23
ENDBRANCH  21  22
ENDBRANCH  20  21
ENDBRANCH  19  20
ENDBRANCH  18  19
ENDBRANCH  17  18
ENDBRANCH  16  17
ENDBRANCH  15  16
ENDBRANCH   1  15
TORSDOF 22
ENDMDL
MODEL 5
REMARK VINA RESULT:    -4.721      3.082      6.886
REMARK INTER + INTRA:         -14.501
REMARK INTER:                 -10.783
REMARK INTRA:                  -3.718
REMARK UNBOUND:                -3.708
REMARK SMILES CCCCCCCCCCCCCCCCCCCCCCCC(=O)[O-]
REMARK SMILES IDX 13 1 14 2 15 3 16 4 17 5 18 6 19 7 20 8 21 9 22 10 23 11
REMARK SMILES IDX 24 12 25 13 26 14 12 15 11 16 10 17 9 18 8 19 7 20 6 21 5 22
REMARK SMILES IDX 4 23 3 24 2 25 1 26
REMARK H PARENT
REMARK Flexibility Score: inf
ROOT
ATOM      1  C   UNL     1      11.483 -25.008 -14.166  1.00  0.00     0.000 C 
ENDROOT
BRANCH   1   2
ATOM      2  C   UNL     1      12.950 -25.415 -13.962  1.00  0.00     0.000 C 
BRANCH   2   3
ATOM      3  C   UNL     1      13.220 -26.878 -14.347  1.00  0.00     0.000 C 
BRANCH   3   4
ATOM      4  C   UNL     1      14.652 -27.100 -14.864  1.00  0.00     0.000 C 
BRANCH   4   5
ATOM      5  C   UNL     1      15.283 -28.387 -14.305  1.00  0.00     0.000 C 
BRANCH   5   6
ATOM      6  C   UNL     1      16.675 -28.140 -13.700  1.00  0.00     0.000 C 
BRANCH   6   7
ATOM      7  C   UNL     1      16.618 -27.766 -12.207  1.00  0.00     0.000 C 
BRANCH   7   8
ATOM      8  C   UNL     1      16.926 -26.289 -11.893  1.00  0.00     0.000 C 
BRANCH   8   9
ATOM      9  C   UNL     1      15.689 -25.389 -11.696  1.00  0.00     0.000 C 
BRANCH   9  10
ATOM     10  C   UNL     1      15.878 -23.918 -12.118  1.00  0.00     0.006 C 
BRANCH  10  11
ATOM     11  C   UNL     1      16.152 -23.718 -13.618  1.00  0.00     0.053 C 
BRANCH  11  12
ATOM     12  C   UNL     1      17.509 -23.137 -13.868  1.00  0.00     0.041 C 
ATOM     13  O   UNL     1      17.976 -23.100 -15.036  1.00  0.00    -0.550 OA
ATOM     14  O   UNL     1      18.271 -22.666 -12.806  1.00  0.00    -0.550 OA
ENDBRANCH  11  12
ENDBRANCH  10  11
ENDBRANCH   9  10
ENDBRANCH   8   9
ENDBRANCH   7   8
ENDBRANCH   6   7
ENDBRANCH   5   6
ENDBRANCH   4   5
ENDBRANCH   3   4
ENDBRANCH   2   3
ENDBRANCH   1   2
BRANCH   1  15
ATOM     15  C   UNL     1      11.319 -23.486 -14.065  1.00  0.00     0.000 C 
BRANCH  15  16
ATOM     16  C   UNL     1      12.685 -22.786 -14.023  1.00  0.00     0.000 C 
BRANCH  16  17
ATOM     17  C   UNL     1      12.697 -21.446 -14.781  1.00  0.00     0.000 C 
BRANCH  17  18
ATOM     18  C   UNL     1      11.620 -20.440 -14.336  1.00  0.00    -0.000 C 
BRANCH  18  19
ATOM     19  C   UNL     1      11.634 -19.141 -15.161  1.00  0.00    -0.000 C 
BRANCH  19  20
ATOM     20  C   UNL     1      13.033 -18.810 -15.717  1.00  0.00    -0.000 C 
BRANCH  20  21
ATOM     21  C   UNL     1      13.625 -17.489 -15.187  1.00  0.00    -0.000 C 
BRANCH  21  22
ATOM     22  C   UNL     1      13.290 -17.195 -13.709  1.00  0.00    -0.000 C 
BRANCH  22  23
ATOM     23  C   UNL     1      14.394 -17.635 -12.731  1.00  0.00    -0.000 C 
BRANCH  23  24
ATOM     24  C   UNL     1      14.070 -18.980 -12.058  1.00  0.00    -0.000 C 
BRANCH  24  25
ATOM     25  C   UNL     1      15.222 -19.990 -12.173  1.00  0.00    -0.003 C 
ATOM     26  C   UNL     1      15.867 -19.998 -13.559  1.00  0.00     0.004 C 
ENDBRANCH  24  25
ENDBRANCH  23  24
ENDBRANCH  22  23
ENDBRANCH  21  22
ENDBRANCH  20  21
ENDBRANCH  19  20
ENDBRANCH  18  19
ENDBRANCH  17  18
ENDBRANCH  16  17
ENDBRANCH  15  16
ENDBRANCH   1  15
TORSDOF 22
ENDMDL
MODEL 6
REMARK VINA RESULT:    -4.720      3.781      7.934
REMARK INTER + INTRA:         -14.498
REMARK INTER:                 -12.224
REMARK INTRA:                  -2.274
REMARK UNBOUND:                -3.708
REMARK SMILES CCCCCCCCCCCCCCCCCCCCCCCC(=O)[O-]
REMARK SMILES IDX 13 1 14 2 15 3 16 4 17 5 18 6 19 7 20 8 21 9 22 10 23 11
REMARK SMILES IDX 24 12 25 13 26 14 12 15 11 16 10 17 9 18 8 19 7 20 6 21 5 22
REMARK SMILES IDX 4 23 3 24 2 25 1 26
REMARK H PARENT
REMARK Flexibility Score: inf
ROOT
ATOM      1  C   UNL     1      11.787 -21.293 -15.494  1.00  0.00     0.000 C 
ENDROOT
BRANCH   1   2
ATOM      2  C   UNL     1      12.909 -21.579 -14.485  1.00  0.00     0.000 C 
BRANCH   2   3
ATOM      3  C   UNL     1      12.715 -22.911 -13.743  1.00  0.00     0.000 C 
BRANCH   3   4
ATOM      4  C   UNL     1      11.384 -23.597 -14.096  1.00  0.00     0.000 C 
BRANCH   4   5
ATOM      5  C   UNL     1      11.505 -25.131 -14.121  1.00  0.00     0.000 C 
BRANCH   5   6
ATOM      6  C   UNL     1      12.967 -25.604 -14.063  1.00  0.00     0.000 C 
BRANCH   6   7
ATOM      7  C   UNL     1      13.128 -27.090 -14.432  1.00  0.00     0.000 C 
BRANCH   7   8
ATOM      8  C   UNL     1      14.542 -27.500 -14.886  1.00  0.00     0.000 C 
BRANCH   8   9
ATOM      9  C   UNL     1      15.134 -28.725 -14.161  1.00  0.00     0.000 C 
BRANCH   9  10
ATOM     10  C   UNL     1      16.579 -28.547 -13.652  1.00  0.00     0.006 C 
BRANCH  10  11
ATOM     11  C   UNL     1      16.685 -27.978 -12.228  1.00  0.00     0.053 C 
BRANCH  11  12
ATOM     12  C   UNL     1      18.053 -27.442 -11.939  1.00  0.00     0.041 C 
ATOM     13  O   UNL     1      18.511 -26.482 -12.612  1.00  0.00    -0.550 OA
ATOM     14  O   UNL     1      18.834 -28.021 -10.946  1.00  0.00    -0.550 OA
ENDBRANCH  11  12
ENDBRANCH  10  11
ENDBRANCH   9  10
ENDBRANCH   8   9
ENDBRANCH   7   8
ENDBRANCH   6   7
ENDBRANCH   5   6
ENDBRANCH   4   5
ENDBRANCH   3   4
ENDBRANCH   2   3
ENDBRANCH   1   2
BRANCH   1  15
ATOM     15  C   UNL     1      11.745 -19.804 -15.858  1.00  0.00     0.000 C 
BRANCH  15  16
ATOM     16  C   UNL     1      12.436 -19.547 -17.205  1.00  0.00     0.000 C 
BRANCH  16  17
ATOM     17  C   UNL     1      13.612 -18.558 -17.098  1.00  0.00     0.000 C 
BRANCH  17  18
ATOM     18  C   UNL     1      14.176 -18.372 -15.677  1.00  0.00    -0.000 C 
BRANCH  18  19
ATOM     19  C   UNL     1      13.917 -16.967 -15.107  1.00  0.00    -0.000 C 
BRANCH  19  20
ATOM     20  C   UNL     1      13.792 -16.967 -13.571  1.00  0.00    -0.000 C 
BRANCH  20  21
ATOM     21  C   UNL     1      14.049 -18.340 -12.919  1.00  0.00    -0.000 C 
BRANCH  21  22
ATOM     22  C   UNL     1      12.921 -18.814 -11.978  1.00  0.00    -0.000 C 
BRANCH  22  23
ATOM     23  C   UNL     1      11.531 -18.277 -12.368  1.00  0.00    -0.000 C 
BRANCH  23  24
ATOM     24  C   UNL     1      10.428 -18.778 -11.419  1.00  0.00    -0.000 C 
BRANCH  24  25
ATOM     25  C   UNL     1      10.978 -19.208 -10.051  1.00  0.00    -0.003 C 
ATOM     26  C   UNL     1      10.863 -18.108  -8.995  1.00  0.00     0.004 C 
ENDBRANCH  24  25
ENDBRANCH  23  24
ENDBRANCH  22  23
ENDBRANCH  21  22
ENDBRANCH  20  21
ENDBRANCH  19  20
ENDBRANCH  18  19
ENDBRANCH  17  18
ENDBRANCH  16  17
ENDBRANCH  15  16
ENDBRANCH   1  15
TORSDOF 22
ENDMDL
MODEL 7
REMARK VINA RESULT:    -4.708      2.359      6.571
REMARK INTER + INTRA:         -14.472
REMARK INTER:                 -11.323
REMARK INTRA:                  -3.149
REMARK UNBOUND:                -3.708
REMARK SMILES CCCCCCCCCCCCCCCCCCCCCCCC(=O)[O-]
REMARK SMILES IDX 13 1 14 2 15 3 16 4 17 5 18 6 19 7 20 8 21 9 22 10 23 11
REMARK SMILES IDX 24 12 25 13 26 14 12 15 11 16 10 17 9 18 8 19 7 20 6 21 5 22
REMARK SMILES IDX 4 23 3 24 2 25 1 26
REMARK H PARENT
REMARK Flexibility Score: inf
ROOT
ATOM      1  C   UNL     1      12.851 -22.708 -13.776  1.00  0.00     0.000 C 
ENDROOT
BRANCH   1   2
ATOM      2  C   UNL     1      11.444 -23.209 -14.134  1.00  0.00     0.000 C 
BRANCH   2   3
ATOM      3  C   UNL     1      11.344 -24.743 -14.140  1.00  0.00     0.000 C 
BRANCH   3   4
ATOM      4  C   UNL     1      12.719 -25.427 -14.045  1.00  0.00     0.000 C 
BRANCH   4   5
ATOM      5  C   UNL     1      12.646 -26.933 -14.351  1.00  0.00     0.000 C 
BRANCH   5   6
ATOM      6  C   UNL     1      13.951 -27.469 -14.962  1.00  0.00     0.000 C 
BRANCH   6   7
ATOM      7  C   UNL     1      15.103 -26.450 -14.897  1.00  0.00     0.000 C 
BRANCH   7   8
ATOM      8  C   UNL     1      16.012 -26.569 -13.658  1.00  0.00     0.000 C 
BRANCH   8   9
ATOM      9  C   UNL     1      16.715 -25.265 -13.233  1.00  0.00     0.000 C 
BRANCH   9  10
ATOM     10  C   UNL     1      16.238 -23.996 -13.968  1.00  0.00     0.006 C 
BRANCH  10  11
ATOM     11  C   UNL     1      17.182 -22.791 -13.834  1.00  0.00     0.053 C 
BRANCH  11  12
ATOM     12  C   UNL     1      16.617 -21.733 -12.937  1.00  0.00     0.041 C 
ATOM     13  O   UNL     1      16.045 -22.054 -11.862  1.00  0.00    -0.550 OA
ATOM     14  O   UNL     1      16.696 -20.395 -13.302  1.00  0.00    -0.550 OA
ENDBRANCH  11  12
ENDBRANCH  10  11
ENDBRANCH   9  10
ENDBRANCH   8   9
ENDBRANCH   7   8
ENDBRANCH   6   7
ENDBRANCH   5   6
ENDBRANCH   4   5
ENDBRANCH   3   4
ENDBRANCH   2   3
ENDBRANCH   1   2
BRANCH   1  15
ATOM     15  C   UNL     1      12.973 -21.198 -14.021  1.00  0.00     0.000 C 
BRANCH  15  16
ATOM     16  C   UNL     1      11.601 -20.577 -14.322  1.00  0.00     0.000 C 
BRANCH  16  17
ATOM     17  C   UNL     1      11.689 -19.343 -15.238  1.00  0.00     0.000 C 
BRANCH  17  18
ATOM     18  C   UNL     1      12.665 -19.480 -16.420  1.00  0.00    -0.000 C 
BRANCH  18  19
ATOM     19  C   UNL     1      13.758 -18.398 -16.426  1.00  0.00    -0.000 C 
BRANCH  19  20
ATOM     20  C   UNL     1      13.617 -17.411 -15.250  1.00  0.00    -0.000 C 
BRANCH  20  21
ATOM     21  C   UNL     1      14.940 -17.114 -14.516  1.00  0.00    -0.000 C 
BRANCH  21  22
ATOM     22  C   UNL     1      14.888 -17.364 -12.993  1.00  0.00    -0.000 C 
BRANCH  22  23
ATOM     23  C   UNL     1      13.571 -16.903 -12.342  1.00  0.00    -0.000 C 
BRANCH  23  24
ATOM     24  C   UNL     1      12.847 -18.055 -11.623  1.00  0.00    -0.000 C 
BRANCH  24  25
ATOM     25  C   UNL     1      11.321 -17.991 -11.795  1.00  0.00    -0.003 C 
ATOM     26  C   UNL     1      10.593 -19.099 -11.034  1.00  0.00     0.004 C 
ENDBRANCH  24  25
ENDBRANCH  23  24
ENDBRANCH  22  23
ENDBRANCH  21  22
ENDBRANCH  20  21
ENDBRANCH  19  20
ENDBRANCH  18  19
ENDBRANCH  17  18
ENDBRANCH  16  17
ENDBRANCH  15  16
ENDBRANCH   1  15
TORSDOF 22
ENDMDL
MODEL 8
REMARK VINA RESULT:    -4.657      2.639      7.196
REMARK INTER + INTRA:         -14.355
REMARK INTER:                 -11.677
REMARK INTRA:                  -2.678
REMARK UNBOUND:                -3.708
REMARK SMILES CCCCCCCCCCCCCCCCCCCCCCCC(=O)[O-]
REMARK SMILES IDX 13 1 14 2 15 3 16 4 17 5 18 6 19 7 20 8 21 9 22 10 23 11
REMARK SMILES IDX 24 12 25 13 26 14 12 15 11 16 10 17 9 18 8 19 7 20 6 21 5 22
REMARK SMILES IDX 4 23 3 24 2 25 1 26
REMARK H PARENT
REMARK Flexibility Score: inf
ROOT
ATOM      1  C   UNL     1      11.479 -23.540 -14.131  1.00  0.00     0.000 C 
ENDROOT
BRANCH   1   2
ATOM      2  C   UNL     1      11.596 -25.071 -14.104  1.00  0.00     0.000 C 
BRANCH   2   3
ATOM      3  C   UNL     1      13.054 -25.554 -14.049  1.00  0.00     0.000 C 
BRANCH   3   4
ATOM      4  C   UNL     1      13.199 -27.043 -14.412  1.00  0.00     0.000 C 
BRANCH   4   5
ATOM      5  C   UNL     1      14.646 -27.420 -14.772  1.00  0.00     0.000 C 
BRANCH   5   6
ATOM      6  C   UNL     1      15.072 -28.762 -14.154  1.00  0.00     0.000 C 
BRANCH   6   7
ATOM      7  C   UNL     1      16.199 -28.610 -13.116  1.00  0.00     0.000 C 
BRANCH   7   8
ATOM      8  C   UNL     1      16.872 -27.224 -13.082  1.00  0.00     0.000 C 
BRANCH   8   9
ATOM      9  C   UNL     1      17.577 -26.870 -11.758  1.00  0.00     0.000 C 
BRANCH   9  10
ATOM     10  C   UNL     1      16.900 -25.754 -10.936  1.00  0.00     0.006 C 
BRANCH  10  11
ATOM     11  C   UNL     1      15.678 -25.115 -11.617  1.00  0.00     0.053 C 
BRANCH  11  12
ATOM     12  C   UNL     1      15.982 -23.747 -12.144  1.00  0.00     0.041 C 
ATOM     13  O   UNL     1      16.257 -23.584 -13.361  1.00  0.00    -0.550 OA
ATOM     14  O   UNL     1      15.990 -22.655 -11.284  1.00  0.00    -0.550 OA
ENDBRANCH  11  12
ENDBRANCH  10  11
ENDBRANCH   9  10
ENDBRANCH   8   9
ENDBRANCH   7   8
ENDBRANCH   6   7
ENDBRANCH   5   6
ENDBRANCH   4   5
ENDBRANCH   3   4
ENDBRANCH   2   3
ENDBRANCH   1   2
BRANCH   1  15
ATOM     15  C   UNL     1      12.821 -22.882 -13.789  1.00  0.00     0.000 C 
BRANCH  15  16
ATOM     16  C   UNL     1      12.963 -21.524 -14.493  1.00  0.00     0.000 C 
BRANCH  16  17
ATOM     17  C   UNL     1      11.735 -21.159 -15.348  1.00  0.00     0.000 C 
BRANCH  17  18
ATOM     18  C   UNL     1      11.648 -19.679 -15.760  1.00  0.00    -0.000 C 
BRANCH  18  19
ATOM     19  C   UNL     1      12.985 -19.119 -16.276  1.00  0.00    -0.000 C 
BRANCH  19  20
ATOM     20  C   UNL     1      13.550 -18.009 -15.368  1.00  0.00    -0.000 C 
BRANCH  20  21
ATOM     21  C   UNL     1      12.609 -17.597 -14.219  1.00  0.00    -0.000 C 
BRANCH  21  22
ATOM     22  C   UNL     1      13.328 -17.318 -12.881  1.00  0.00    -0.000 C 
BRANCH  22  23
ATOM     23  C   UNL     1      12.933 -18.294 -11.758  1.00  0.00    -0.000 C 
BRANCH  23  24
ATOM     24  C   UNL     1      11.717 -19.156 -12.140  1.00  0.00    -0.000 C 
BRANCH  24  25
ATOM     25  C   UNL     1      10.454 -18.775 -11.354  1.00  0.00    -0.003 C 
ATOM     26  C   UNL     1      10.608 -18.984  -9.847  1.00  0.00     0.004 C 
ENDBRANCH  24  25
ENDBRANCH  23  24
ENDBRANCH  22  23
ENDBRANCH  21  22
ENDBRANCH  20  21
ENDBRANCH  19  20
ENDBRANCH  18  19
ENDBRANCH  17  18
ENDBRANCH  16  17
ENDBRANCH  15  16
ENDBRANCH   1  15
TORSDOF 22
ENDMDL
MODEL 9
REMARK VINA RESULT:    -4.610      3.888      7.822
REMARK INTER + INTRA:         -14.248
REMARK INTER:                 -11.283
REMARK INTRA:                  -2.964
REMARK UNBOUND:                -3.708
REMARK SMILES CCCCCCCCCCCCCCCCCCCCCCCC(=O)[O-]
REMARK SMILES IDX 13 1 14 2 15 3 16 4 17 5 18 6 19 7 20 8 21 9 22 10 23 11
REMARK SMILES IDX 24 12 25 13 26 14 12 15 11 16 10 17 9 18 8 19 7 20 6 21 5 22
REMARK SMILES IDX 4 23 3 24 2 25 1 26
REMARK H PARENT
REMARK Flexibility Score: inf
ROOT
ATOM      1  C   UNL     1      11.023 -18.506  -8.917  1.00  0.00     0.000 C 
ENDROOT
BRANCH   1   2
ATOM      2  C   UNL     1      10.582 -19.210 -10.208  1.00  0.00     0.000 C 
BRANCH   2   3
ATOM      3  C   UNL     1      10.920 -18.401 -11.471  1.00  0.00     0.000 C 
BRANCH   3   4
ATOM      4  C   UNL     1      11.424 -19.286 -12.624  1.00  0.00     0.000 C 
BRANCH   4   5
ATOM      5  C   UNL     1      11.026 -18.733 -14.004  1.00  0.00     0.000 C 
BRANCH   5   6
ATOM      6  C   UNL     1      11.801 -19.407 -15.149  1.00  0.00     0.000 C 
BRANCH   6   7
ATOM      7  C   UNL     1      13.243 -19.777 -14.756  1.00  0.00     0.000 C 
BRANCH   7   8
ATOM      8  C   UNL     1      14.329 -18.820 -15.283  1.00  0.00     0.000 C 
BRANCH   8   9
ATOM      9  C   UNL     1      13.887 -17.351 -15.442  1.00  0.00     0.000 C 
BRANCH   9  10
ATOM     10  C   UNL     1      14.401 -16.394 -14.347  1.00  0.00     0.006 C 
BRANCH  10  11
ATOM     11  C   UNL     1      15.285 -17.062 -13.282  1.00  0.00     0.053 C 
BRANCH  11  12
ATOM     12  C   UNL     1      14.547 -17.281 -11.998  1.00  0.00     0.041 C 
ATOM     13  O   UNL     1      13.843 -16.360 -11.507  1.00  0.00    -0.550 OA
ATOM     14  O   UNL     1      14.660 -18.492 -11.327  1.00  0.00    -0.550 OA
ENDBRANCH  11  12
ENDBRANCH  10  11
ENDBRANCH   9  10
ENDBRANCH   8   9
ENDBRANCH   7   8
ENDBRANCH   6   7
ENDBRANCH   5   6
ENDBRANCH   4   5
ENDBRANCH   3   4
ENDBRANCH   2   3
ENDBRANCH   1   2
BRANCH   1  15
ATOM     15  C   UNL     1      11.545 -17.095  -9.213  1.00  0.00     0.000 C 
BRANCH  15  16
ATOM     16  C   UNL     1      12.544 -16.640  -8.138  1.00  0.00     0.000 C 
BRANCH  16  17
ATOM     17  C   UNL     1      12.785 -15.119  -8.147  1.00  0.00     0.000 C 
BRANCH  17  18
ATOM     18  C   UNL     1      11.576 -14.268  -7.716  1.00  0.00    -0.000 C 
BRANCH  18  19
ATOM     19  C   UNL     1      10.830 -14.855  -6.505  1.00  0.00    -0.000 C 
BRANCH  19  20
ATOM     20  C   UNL     1       9.319 -15.018  -6.765  1.00  0.00    -0.000 C 
BRANCH  20  21
ATOM     21  C   UNL     1       8.629 -16.046  -5.847  1.00  0.00    -0.000 C 
BRANCH  21  22
ATOM     22  C   UNL     1       8.901 -17.517  -6.229  1.00  0.00    -0.000 C 
BRANCH  22  23
ATOM     23  C   UNL     1       8.734 -18.497  -5.053  1.00  0.00    -0.000 C 
BRANCH  23  24
ATOM     24  C   UNL     1      10.046 -19.226  -4.715  1.00  0.00    -0.000 C 
BRANCH  24  25
ATOM     25  C   UNL     1      11.283 -18.503  -5.269  1.00  0.00    -0.003 C 
ATOM     26  C   UNL     1      12.461 -19.447  -5.513  1.00  0.00     0.004 C 
ENDBRANCH  24  25
ENDBRANCH  23  24
ENDBRANCH  22  23
ENDBRANCH  21  22
ENDBRANCH  20  21
ENDBRANCH  19  20
ENDBRANCH  18  19
ENDBRANCH  17  18
ENDBRANCH  16  17
ENDBRANCH  15  16
ENDBRANCH   1  15
TORSDOF 22
ENDMDL
