MODEL 1
REMARK VINA RESULT:    -1.626      0.000      0.000
REMARK INTER + INTRA:          -5.303
REMARK INTER:                  -4.097
REMARK INTRA:                  -1.206
REMARK UNBOUND:                -1.206
REMARK SMILES CCCCCCCCCCCCCCCCCCCCCCCCCCCC(=O)[O-]
REMARK SMILES IDX 15 1 16 2 17 3 18 4 19 5 20 6 21 7 22 8 23 9 24 10 25 11
REMARK SMILES IDX 26 12 27 13 28 14 29 15 30 16 14 17 13 18 12 19 11 20 10 21
REMARK SMILES IDX 9 22 8 23 7 24 6 25 5 26 4 27 3 28 2 29 1 30
REMARK H PARENT
REMARK Flexibility Score: inf
ROOT
ATOM      1  C   UNL     1       8.623 -29.761  13.529  1.00  0.00     0.000 C 
ENDROOT
BRANCH   1   2
ATOM      2  C   UNL     1       7.569 -30.751  14.061  1.00  0.00     0.000 C 
BRANCH   2   3
ATOM      3  C   UNL     1       6.513 -30.117  14.989  1.00  0.00     0.000 C 
BRANCH   3   4
ATOM      4  C   UNL     1       6.493 -30.753  16.392  1.00  0.00     0.000 C 
BRANCH   4   5
ATOM      5  C   UNL     1       5.875 -29.830  17.454  1.00  0.00     0.000 C 
BRANCH   5   6
ATOM      6  C   UNL     1       6.926 -28.976  18.184  1.00  0.00     0.000 C 
BRANCH   6   7
ATOM      7  C   UNL     1       7.967 -29.822  18.942  1.00  0.00     0.000 C 
BRANCH   7   8
ATOM      8  C   UNL     1       9.271 -29.081  19.290  1.00  0.00     0.000 C 
BRANCH   8   9
ATOM      9  C   UNL     1       9.739 -28.136  18.171  1.00  0.00     0.000 C 
BRANCH   9  10
ATOM     10  C   UNL     1       9.933 -28.861  16.828  1.00  0.00     0.000 C 
BRANCH  10  11
ATOM     11  C   UNL     1      10.552 -27.949  15.753  1.00  0.00     0.000 C 
BRANCH  11  12
ATOM     12  C   UNL     1      11.663 -28.645  14.942  1.00  0.00     0.006 C 
BRANCH  12  13
ATOM     13  C   UNL     1      12.323 -27.742  13.887  1.00  0.00     0.053 C 
BRANCH  13  14
ATOM     14  C   UNL     1      13.769 -27.480  14.176  1.00  0.00     0.041 C 
ATOM     15  O   UNL     1      14.461 -26.795  13.377  1.00  0.00    -0.550 OA
ATOM     16  O   UNL     1      14.349 -27.979  15.335  1.00  0.00    -0.550 OA
ENDBRANCH  13  14
ENDBRANCH  12  13
ENDBRANCH  11  12
ENDBRANCH  10  11
ENDBRANCH   9  10
ENDBRANCH   8   9
ENDBRANCH   7   8
ENDBRANCH   6   7
ENDBRANCH   5   6
ENDBRANCH   4   5
ENDBRANCH   3   4
ENDBRANCH   2   3
ENDBRANCH   1   2
BRANCH   1  17
ATOM     17  C   UNL     1       9.768 -30.446  12.773  1.00  0.00     0.000 C 
BRANCH  17  18
ATOM     18  C   UNL     1      10.226 -31.725  13.490  1.00  0.00     0.000 C 
BRANCH  18  19
ATOM     19  C   UNL     1      11.356 -32.455  12.747  1.00  0.00     0.000 C 
BRANCH  19  20
ATOM     20  C   UNL     1      11.328 -33.993  12.851  1.00  0.00     0.000 C 
BRANCH  20  21
ATOM     21  C   UNL     1      10.143 -34.659  12.117  1.00  0.00     0.000 C 
BRANCH  21  22
ATOM     22  C   UNL     1       8.801 -34.452  12.844  1.00  0.00    -0.000 C 
BRANCH  22  23
ATOM     23  C   UNL     1       7.773 -33.695  11.989  1.00  0.00    -0.000 C 
BRANCH  23  24
ATOM     24  C   UNL     1       6.342 -34.234  12.167  1.00  0.00    -0.000 C 
BRANCH  24  25
ATOM     25  C   UNL     1       5.943 -34.392  13.645  1.00  0.00    -0.000 C 
BRANCH  25  26
ATOM     26  C   UNL     1       7.119 -34.621  14.613  1.00  0.00    -0.000 C 
BRANCH  26  27
ATOM     27  C   UNL     1       7.134 -33.628  15.784  1.00  0.00    -0.000 C 
BRANCH  27  28
ATOM     28  C   UNL     1       6.776 -34.330  17.099  1.00  0.00    -0.000 C 
BRANCH  28  29
ATOM     29  C   UNL     1       7.552 -33.725  18.274  1.00  0.00    -0.003 C 
ATOM     30  C   UNL     1       7.757 -34.752  19.385  1.00  0.00     0.004 C 
ENDBRANCH  28  29
ENDBRANCH  27  28
ENDBRANCH  26  27
ENDBRANCH  25  26
ENDBRANCH  24  25
ENDBRANCH  23  24
ENDBRANCH  22  23
ENDBRANCH  21  22
ENDBRANCH  20  21
ENDBRANCH  19  20
ENDBRANCH  18  19
ENDBRANCH  17  18
ENDBRANCH   1  17
TORSDOF 26
ENDMDL
MODEL 2
REMARK VINA RESULT:    -1.334      2.431      4.948
REMARK INTER + INTRA:          -4.568
REMARK INTER:                  -2.433
REMARK INTRA:                  -2.135
REMARK UNBOUND:                -1.206
REMARK SMILES CCCCCCCCCCCCCCCCCCCCCCCCCCCC(=O)[O-]
REMARK SMILES IDX 15 1 16 2 17 3 18 4 19 5 20 6 21 7 22 8 23 9 24 10 25 11
REMARK SMILES IDX 26 12 27 13 28 14 29 15 30 16 14 17 13 18 12 19 11 20 10 21
REMARK SMILES IDX 9 22 8 23 7 24 6 25 5 26 4 27 3 28 2 29 1 30
REMARK H PARENT
REMARK Flexibility Score: inf
ROOT
ATOM      1  C   UNL     1       8.445 -31.700  17.836  1.00  0.00     0.000 C 
ENDROOT
BRANCH   1   2
ATOM      2  C   UNL     1       7.713 -30.797  16.826  1.00  0.00     0.000 C 
BRANCH   2   3
ATOM      3  C   UNL     1       6.550 -29.983  17.428  1.00  0.00     0.000 C 
BRANCH   3   4
ATOM      4  C   UNL     1       6.868 -29.438  18.834  1.00  0.00     0.000 C 
BRANCH   4   5
ATOM      5  C   UNL     1       7.773 -28.198  18.800  1.00  0.00     0.000 C 
BRANCH   5   6
ATOM      6  C   UNL     1       9.267 -28.548  18.907  1.00  0.00     0.000 C 
BRANCH   6   7
ATOM      7  C   UNL     1      10.111 -27.933  17.775  1.00  0.00     0.000 C 
BRANCH   7   8
ATOM      8  C   UNL     1       9.905 -28.579  16.392  1.00  0.00     0.000 C 
BRANCH   8   9
ATOM      9  C   UNL     1      11.156 -28.500  15.502  1.00  0.00     0.000 C 
BRANCH   9  10
ATOM     10  C   UNL     1      10.950 -29.172  14.134  1.00  0.00     0.000 C 
BRANCH  10  11
ATOM     11  C   UNL     1      10.568 -28.163  13.035  1.00  0.00     0.000 C 
BRANCH  11  12
ATOM     12  C   UNL     1       9.564 -28.734  12.017  1.00  0.00     0.006 C 
BRANCH  12  13
ATOM     13  C   UNL     1       8.900 -30.047  12.465  1.00  0.00     0.053 C 
BRANCH  13  14
ATOM     14  C   UNL     1       7.433 -29.894  12.720  1.00  0.00     0.041 C 
ATOM     15  O   UNL     1       6.770 -29.016  12.106  1.00  0.00    -0.550 OA
ATOM     16  O   UNL     1       6.792 -30.731  13.626  1.00  0.00    -0.550 OA
ENDBRANCH  13  14
ENDBRANCH  12  13
ENDBRANCH  11  12
ENDBRANCH  10  11
ENDBRANCH   9  10
ENDBRANCH   8   9
ENDBRANCH   7   8
ENDBRANCH   6   7
ENDBRANCH   5   6
ENDBRANCH   4   5
ENDBRANCH   3   4
ENDBRANCH   2   3
ENDBRANCH   1   2
BRANCH   1  17
ATOM     17  C   UNL     1       7.502 -32.639  18.600  1.00  0.00     0.000 C 
BRANCH  17  18
ATOM     18  C   UNL     1       7.342 -33.983  17.874  1.00  0.00     0.000 C 
BRANCH  18  19
ATOM     19  C   UNL     1       7.501 -33.862  16.350  1.00  0.00     0.000 C 
BRANCH  19  20
ATOM     20  C   UNL     1       6.183 -33.811  15.551  1.00  0.00     0.000 C 
BRANCH  20  21
ATOM     21  C   UNL     1       5.877 -35.093  14.746  1.00  0.00     0.000 C 
BRANCH  21  22
ATOM     22  C   UNL     1       6.589 -35.121  13.379  1.00  0.00    -0.000 C 
BRANCH  22  23
ATOM     23  C   UNL     1       6.951 -33.719  12.869  1.00  0.00    -0.000 C 
BRANCH  23  24
ATOM     24  C   UNL     1       8.309 -33.683  12.144  1.00  0.00    -0.000 C 
BRANCH  24  25
ATOM     25  C   UNL     1       9.408 -34.454  12.896  1.00  0.00    -0.000 C 
BRANCH  25  26
ATOM     26  C   UNL     1      10.515 -35.043  12.001  1.00  0.00    -0.000 C 
BRANCH  26  27
ATOM     27  C   UNL     1      11.928 -34.693  12.488  1.00  0.00    -0.000 C 
BRANCH  27  28
ATOM     28  C   UNL     1      11.881 -33.589  13.550  1.00  0.00    -0.000 C 
BRANCH  28  29
ATOM     29  C   UNL     1      11.710 -32.210  12.902  1.00  0.00    -0.003 C 
ATOM     30  C   UNL     1      12.933 -31.838  12.068  1.00  0.00     0.004 C 
ENDBRANCH  28  29
ENDBRANCH  27  28
ENDBRANCH  26  27
ENDBRANCH  25  26
ENDBRANCH  24  25
ENDBRANCH  23  24
ENDBRANCH  22  23
ENDBRANCH  21  22
ENDBRANCH  20  21
ENDBRANCH  19  20
ENDBRANCH  18  19
ENDBRANCH  17  18
ENDBRANCH   1  17
TORSDOF 26
ENDMDL
MODEL 3
REMARK VINA RESULT:    -1.219      1.124      1.776
REMARK INTER + INTRA:          -4.278
REMARK INTER:                  -0.967
REMARK INTRA:                  -3.311
REMARK UNBOUND:                -1.206
REMARK SMILES CCCCCCCCCCCCCCCCCCCCCCCCCCCC(=O)[O-]
REMARK SMILES IDX 15 1 16 2 17 3 18 4 19 5 20 6 21 7 22 8 23 9 24 10 25 11
REMARK SMILES IDX 26 12 27 13 28 14 29 15 30 16 14 17 13 18 12 19 11 20 10 21
REMARK SMILES IDX 9 22 8 23 7 24 6 25 5 26 4 27 3 28 2 29 1 30
REMARK H PARENT
REMARK Flexibility Score: inf
ROOT
ATOM      1  C   UNL     1       7.439 -30.516  13.772  1.00  0.00     0.000 C 
ENDROOT
BRANCH   1   2
ATOM      2  C   UNL     1       8.144 -30.083  15.072  1.00  0.00     0.000 C 
BRANCH   2   3
ATOM      3  C   UNL     1       7.388 -29.006  15.875  1.00  0.00     0.000 C 
BRANCH   3   4
ATOM      4  C   UNL     1       6.029 -29.501  16.407  1.00  0.00     0.000 C 
BRANCH   4   5
ATOM      5  C   UNL     1       6.093 -29.950  17.874  1.00  0.00     0.000 C 
BRANCH   5   6
ATOM      6  C   UNL     1       7.294 -30.867  18.164  1.00  0.00     0.000 C 
BRANCH   6   7
ATOM      7  C   UNL     1       8.192 -30.340  19.300  1.00  0.00     0.000 C 
BRANCH   7   8
ATOM      8  C   UNL     1       8.574 -28.853  19.183  1.00  0.00     0.000 C 
BRANCH   8   9
ATOM      9  C   UNL     1       9.897 -28.632  18.433  1.00  0.00     0.000 C 
BRANCH   9  10
ATOM     10  C   UNL     1       9.828 -27.450  17.451  1.00  0.00     0.000 C 
BRANCH  10  11
ATOM     11  C   UNL     1      11.080 -27.354  16.559  1.00  0.00     0.000 C 
BRANCH  11  12
ATOM     12  C   UNL     1      11.201 -28.526  15.566  1.00  0.00     0.006 C 
BRANCH  12  13
ATOM     13  C   UNL     1      11.932 -28.165  14.262  1.00  0.00     0.053 C 
BRANCH  13  14
ATOM     14  C   UNL     1      13.384 -27.871  14.477  1.00  0.00     0.041 C 
ATOM     15  O   UNL     1      14.078 -27.386  13.545  1.00  0.00    -0.550 OA
ATOM     16  O   UNL     1      13.969 -28.118  15.713  1.00  0.00    -0.550 OA
ENDBRANCH  13  14
ENDBRANCH  12  13
ENDBRANCH  11  12
ENDBRANCH  10  11
ENDBRANCH   9  10
ENDBRANCH   8   9
ENDBRANCH   7   8
ENDBRANCH   6   7
ENDBRANCH   5   6
ENDBRANCH   4   5
ENDBRANCH   3   4
ENDBRANCH   2   3
ENDBRANCH   1   2
BRANCH   1  17
ATOM     17  C   UNL     1       8.417 -30.855  12.640  1.00  0.00     0.000 C 
BRANCH  17  18
ATOM     18  C   UNL     1       9.836 -30.361  12.959  1.00  0.00     0.000 C 
BRANCH  18  19
ATOM     19  C   UNL     1      10.901 -30.958  12.024  1.00  0.00     0.000 C 
BRANCH  19  20
ATOM     20  C   UNL     1      10.863 -32.493  11.877  1.00  0.00     0.000 C 
BRANCH  20  21
ATOM     21  C   UNL     1      11.765 -33.250  12.877  1.00  0.00     0.000 C 
BRANCH  21  22
ATOM     22  C   UNL     1      11.048 -34.443  13.538  1.00  0.00    -0.000 C 
BRANCH  22  23
ATOM     23  C   UNL     1       9.596 -34.124  13.926  1.00  0.00    -0.000 C 
BRANCH  23  24
ATOM     24  C   UNL     1       8.583 -35.080  13.271  1.00  0.00    -0.000 C 
BRANCH  24  25
ATOM     25  C   UNL     1       7.778 -34.414  12.142  1.00  0.00    -0.000 C 
BRANCH  25  26
ATOM     26  C   UNL     1       6.262 -34.314  12.398  1.00  0.00    -0.000 C 
BRANCH  26  27
ATOM     27  C   UNL     1       5.879 -34.619  13.853  1.00  0.00    -0.000 C 
BRANCH  27  28
ATOM     28  C   UNL     1       6.024 -33.370  14.729  1.00  0.00    -0.000 C 
BRANCH  28  29
ATOM     29  C   UNL     1       6.024 -33.738  16.216  1.00  0.00    -0.003 C 
ATOM     30  C   UNL     1       7.415 -33.578  16.824  1.00  0.00     0.004 C 
ENDBRANCH  28  29
ENDBRANCH  27  28
ENDBRANCH  26  27
ENDBRANCH  25  26
ENDBRANCH  24  25
ENDBRANCH  23  24
ENDBRANCH  22  23
ENDBRANCH  21  22
ENDBRANCH  20  21
ENDBRANCH  19  20
ENDBRANCH  18  19
ENDBRANCH  17  18
ENDBRANCH   1  17
TORSDOF 26
ENDMDL
MODEL 4
REMARK VINA RESULT:    -1.201      2.726      5.979
REMARK INTER + INTRA:          -4.233
REMARK INTER:                  -2.100
REMARK INTRA:                  -2.134
REMARK UNBOUND:                -1.206
REMARK SMILES CCCCCCCCCCCCCCCCCCCCCCCCCCCC(=O)[O-]
REMARK SMILES IDX 15 1 16 2 17 3 18 4 19 5 20 6 21 7 22 8 23 9 24 10 25 11
REMARK SMILES IDX 26 12 27 13 28 14 29 15 30 16 14 17 13 18 12 19 11 20 10 21
REMARK SMILES IDX 9 22 8 23 7 24 6 25 5 26 4 27 3 28 2 29 1 30
REMARK H PARENT
REMARK Flexibility Score: inf
ROOT
ATOM      1  C   UNL     1       9.306 -29.018  18.789  1.00  0.00     0.000 C 
ENDROOT
BRANCH   1   2
ATOM      2  C   UNL     1       9.392 -29.220  17.265  1.00  0.00     0.000 C 
BRANCH   2   3
ATOM      3  C   UNL     1      10.544 -28.451  16.587  1.00  0.00     0.000 C 
BRANCH   3   4
ATOM      4  C   UNL     1      10.869 -28.981  15.177  1.00  0.00     0.000 C 
BRANCH   4   5
ATOM      5  C   UNL     1       9.719 -28.766  14.182  1.00  0.00     0.000 C 
BRANCH   5   6
ATOM      6  C   UNL     1      10.132 -29.046  12.726  1.00  0.00     0.000 C 
BRANCH   6   7
ATOM      7  C   UNL     1       9.071 -29.842  11.943  1.00  0.00     0.000 C 
BRANCH   7   8
ATOM      8  C   UNL     1       9.242 -31.371  11.996  1.00  0.00     0.000 C 
BRANCH   8   9
ATOM      9  C   UNL     1      10.508 -31.806  12.753  1.00  0.00     0.000 C 
BRANCH   9  10
ATOM     10  C   UNL     1      11.775 -31.716  11.886  1.00  0.00     0.000 C 
BRANCH  10  11
ATOM     11  C   UNL     1      12.627 -32.996  11.957  1.00  0.00     0.000 C 
BRANCH  11  12
ATOM     12  C   UNL     1      12.048 -34.050  12.920  1.00  0.00     0.006 C 
BRANCH  12  13
ATOM     13  C   UNL     1      11.145 -35.090  12.236  1.00  0.00     0.053 C 
BRANCH  13  14
ATOM     14  C   UNL     1       9.725 -35.020  12.708  1.00  0.00     0.041 C 
ATOM     15  O   UNL     1       8.783 -34.936  11.875  1.00  0.00    -0.550 OA
ATOM     16  O   UNL     1       9.440 -35.061  14.067  1.00  0.00    -0.550 OA
ENDBRANCH  13  14
ENDBRANCH  12  13
ENDBRANCH  11  12
ENDBRANCH  10  11
ENDBRANCH   9  10
ENDBRANCH   8   9
ENDBRANCH   7   8
ENDBRANCH   6   7
ENDBRANCH   5   6
ENDBRANCH   4   5
ENDBRANCH   3   4
ENDBRANCH   2   3
ENDBRANCH   1   2
BRANCH   1  17
ATOM     17  C   UNL     1       7.866 -28.864  19.297  1.00  0.00     0.000 C 
BRANCH  17  18
ATOM     18  C   UNL     1       7.068 -30.166  19.122  1.00  0.00     0.000 C 
BRANCH  18  19
ATOM     19  C   UNL     1       5.897 -30.021  18.137  1.00  0.00     0.000 C 
BRANCH  19  20
ATOM     20  C   UNL     1       6.045 -28.891  17.098  1.00  0.00     0.000 C 
BRANCH  20  21
ATOM     21  C   UNL     1       6.524 -29.363  15.708  1.00  0.00     0.000 C 
BRANCH  21  22
ATOM     22  C   UNL     1       5.877 -30.692  15.275  1.00  0.00    -0.000 C 
BRANCH  22  23
ATOM     23  C   UNL     1       6.382 -31.184  13.910  1.00  0.00    -0.000 C 
BRANCH  23  24
ATOM     24  C   UNL     1       5.879 -32.597  13.565  1.00  0.00    -0.000 C 
BRANCH  24  25
ATOM     25  C   UNL     1       6.569 -33.695  14.392  1.00  0.00    -0.000 C 
BRANCH  25  26
ATOM     26  C   UNL     1       6.661 -33.407  15.903  1.00  0.00    -0.000 C 
BRANCH  26  27
ATOM     27  C   UNL     1       8.058 -32.946  16.341  1.00  0.00    -0.000 C 
BRANCH  27  28
ATOM     28  C   UNL     1       8.259 -33.167  17.845  1.00  0.00    -0.000 C 
BRANCH  28  29
ATOM     29  C   UNL     1       7.424 -34.352  18.343  1.00  0.00    -0.003 C 
ATOM     30  C   UNL     1       7.845 -34.769  19.750  1.00  0.00     0.004 C 
ENDBRANCH  28  29
ENDBRANCH  27  28
ENDBRANCH  26  27
ENDBRANCH  25  26
ENDBRANCH  24  25
ENDBRANCH  23  24
ENDBRANCH  22  23
ENDBRANCH  21  22
ENDBRANCH  20  21
ENDBRANCH  19  20
ENDBRANCH  18  19
ENDBRANCH  17  18
ENDBRANCH   1  17
TORSDOF 26
ENDMDL
MODEL 5
REMARK VINA RESULT:    -0.966      2.131      6.216
REMARK INTER + INTRA:          -3.639
REMARK INTER:                  -2.772
REMARK INTRA:                  -0.867
REMARK UNBOUND:                -1.206
REMARK SMILES CCCCCCCCCCCCCCCCCCCCCCCCCCCC(=O)[O-]
REMARK SMILES IDX 15 1 16 2 17 3 18 4 19 5 20 6 21 7 22 8 23 9 24 10 25 11
REMARK SMILES IDX 26 12 27 13 28 14 29 15 30 16 14 17 13 18 12 19 11 20 10 21
REMARK SMILES IDX 9 22 8 23 7 24 6 25 5 26 4 27 3 28 2 29 1 30
REMARK H PARENT
REMARK Flexibility Score: inf
ROOT
ATOM      1  C   UNL     1       8.894 -28.793  17.749  1.00  0.00     0.000 C 
ENDROOT
BRANCH   1   2
ATOM      2  C   UNL     1       8.948 -30.261  18.211  1.00  0.00     0.000 C 
BRANCH   2   3
ATOM      3  C   UNL     1       7.872 -30.640  19.248  1.00  0.00     0.000 C 
BRANCH   3   4
ATOM      4  C   UNL     1       6.956 -31.784  18.768  1.00  0.00     0.000 C 
BRANCH   4   5
ATOM      5  C   UNL     1       7.742 -32.973  18.196  1.00  0.00     0.000 C 
BRANCH   5   6
ATOM      6  C   UNL     1       6.858 -33.934  17.382  1.00  0.00     0.000 C 
BRANCH   6   7
ATOM      7  C   UNL     1       6.836 -33.601  15.878  1.00  0.00     0.000 C 
BRANCH   7   8
ATOM      8  C   UNL     1       6.267 -34.714  14.979  1.00  0.00     0.000 C 
BRANCH   8   9
ATOM      9  C   UNL     1       6.017 -34.248  13.535  1.00  0.00     0.000 C 
BRANCH   9  10
ATOM     10  C   UNL     1       6.862 -35.022  12.510  1.00  0.00     0.000 C 
BRANCH  10  11
ATOM     11  C   UNL     1       8.361 -35.019  12.863  1.00  0.00     0.000 C 
BRANCH  11  12
ATOM     12  C   UNL     1       9.195 -34.119  11.932  1.00  0.00     0.006 C 
BRANCH  12  13
ATOM     13  C   UNL     1      10.699 -34.444  11.934  1.00  0.00     0.053 C 
BRANCH  13  14
ATOM     14  C   UNL     1      11.374 -34.043  13.208  1.00  0.00     0.041 C 
ATOM     15  O   UNL     1      11.250 -32.870  13.650  1.00  0.00    -0.550 OA
ATOM     16  O   UNL     1      12.129 -34.969  13.918  1.00  0.00    -0.550 OA
ENDBRANCH  13  14
ENDBRANCH  12  13
ENDBRANCH  11  12
ENDBRANCH  10  11
ENDBRANCH   9  10
ENDBRANCH   8   9
ENDBRANCH   7   8
ENDBRANCH   6   7
ENDBRANCH   5   6
ENDBRANCH   4   5
ENDBRANCH   3   4
ENDBRANCH   2   3
ENDBRANCH   1   2
BRANCH   1  17
ATOM     17  C   UNL     1       9.201 -28.618  16.256  1.00  0.00     0.000 C 
BRANCH  17  18
ATOM     18  C   UNL     1       9.303 -29.975  15.543  1.00  0.00     0.000 C 
BRANCH  18  19
ATOM     19  C   UNL     1       8.024 -30.817  15.673  1.00  0.00     0.000 C 
BRANCH  19  20
ATOM     20  C   UNL     1       6.703 -30.039  15.498  1.00  0.00     0.000 C 
BRANCH  20  21
ATOM     21  C   UNL     1       5.875 -30.461  14.264  1.00  0.00     0.000 C 
BRANCH  21  22
ATOM     22  C   UNL     1       6.667 -31.361  13.296  1.00  0.00    -0.000 C 
BRANCH  22  23
ATOM     23  C   UNL     1       6.754 -30.777  11.878  1.00  0.00    -0.000 C 
BRANCH  23  24
ATOM     24  C   UNL     1       6.994 -29.256  11.876  1.00  0.00    -0.000 C 
BRANCH  24  25
ATOM     25  C   UNL     1       8.487 -28.888  11.933  1.00  0.00    -0.000 C 
BRANCH  25  26
ATOM     26  C   UNL     1       9.389 -29.938  12.609  1.00  0.00    -0.000 C 
BRANCH  26  27
ATOM     27  C   UNL     1      10.877 -29.745  12.288  1.00  0.00    -0.000 C 
BRANCH  27  28
ATOM     28  C   UNL     1      11.716 -29.741  13.571  1.00  0.00    -0.000 C 
BRANCH  28  29
ATOM     29  C   UNL     1      11.998 -28.309  14.039  1.00  0.00    -0.003 C 
ATOM     30  C   UNL     1      13.478 -28.114  14.356  1.00  0.00     0.004 C 
ENDBRANCH  28  29
ENDBRANCH  27  28
ENDBRANCH  26  27
ENDBRANCH  25  26
ENDBRANCH  24  25
ENDBRANCH  23  24
ENDBRANCH  22  23
ENDBRANCH  21  22
ENDBRANCH  20  21
ENDBRANCH  19  20
ENDBRANCH  18  19
ENDBRANCH  17  18
ENDBRANCH   1  17
TORSDOF 26
ENDMDL
MODEL 6
REMARK VINA RESULT:    -0.905      1.295      4.798
REMARK INTER + INTRA:          -3.487
REMARK INTER:                  -1.580
REMARK INTRA:                  -1.908
REMARK UNBOUND:                -1.206
REMARK SMILES CCCCCCCCCCCCCCCCCCCCCCCCCCCC(=O)[O-]
REMARK SMILES IDX 15 1 16 2 17 3 18 4 19 5 20 6 21 7 22 8 23 9 24 10 25 11
REMARK SMILES IDX 26 12 27 13 28 14 29 15 30 16 14 17 13 18 12 19 11 20 10 21
REMARK SMILES IDX 9 22 8 23 7 24 6 25 5 26 4 27 3 28 2 29 1 30
REMARK H PARENT
REMARK Flexibility Score: inf
ROOT
ATOM      1  C   UNL     1       9.797 -29.120  18.299  1.00  0.00     0.000 C 
ENDROOT
BRANCH   1   2
ATOM      2  C   UNL     1       9.983 -27.990  17.269  1.00  0.00     0.000 C 
BRANCH   2   3
ATOM      3  C   UNL     1       9.946 -28.457  15.800  1.00  0.00     0.000 C 
BRANCH   3   4
ATOM      4  C   UNL     1       9.016 -29.666  15.582  1.00  0.00     0.000 C 
BRANCH   4   5
ATOM      5  C   UNL     1       7.584 -29.255  15.209  1.00  0.00     0.000 C 
BRANCH   5   6
ATOM      6  C   UNL     1       7.081 -29.945  13.929  1.00  0.00     0.000 C 
BRANCH   6   7
ATOM      7  C   UNL     1       8.225 -30.429  13.018  1.00  0.00     0.000 C 
BRANCH   7   8
ATOM      8  C   UNL     1       8.646 -29.429  11.925  1.00  0.00     0.000 C 
BRANCH   8   9
ATOM      9  C   UNL     1      10.157 -29.143  11.926  1.00  0.00     0.000 C 
BRANCH   9  10
ATOM     10  C   UNL     1      10.983 -30.334  12.441  1.00  0.00     0.000 C 
BRANCH  10  11
ATOM     11  C   UNL     1      11.752 -30.001  13.732  1.00  0.00     0.000 C 
BRANCH  11  12
ATOM     12  C   UNL     1      12.154 -28.516  13.826  1.00  0.00     0.006 C 
BRANCH  12  13
ATOM     13  C   UNL     1      13.257 -28.232  14.859  1.00  0.00     0.053 C 
BRANCH  13  14
ATOM     14  C   UNL     1      14.221 -27.183  14.399  1.00  0.00     0.041 C 
ATOM     15  O   UNL     1      14.850 -26.487  15.240  1.00  0.00    -0.550 OA
ATOM     16  O   UNL     1      14.438 -26.984  13.041  1.00  0.00    -0.550 OA
ENDBRANCH  13  14
ENDBRANCH  12  13
ENDBRANCH  11  12
ENDBRANCH  10  11
ENDBRANCH   9  10
ENDBRANCH   8   9
ENDBRANCH   7   8
ENDBRANCH   6   7
ENDBRANCH   5   6
ENDBRANCH   4   5
ENDBRANCH   3   4
ENDBRANCH   2   3
ENDBRANCH   1   2
BRANCH   1  17
ATOM     17  C   UNL     1       8.456 -29.045  19.040  1.00  0.00     0.000 C 
BRANCH  17  18
ATOM     18  C   UNL     1       7.680 -30.367  18.929  1.00  0.00     0.000 C 
BRANCH  18  19
ATOM     19  C   UNL     1       6.306 -30.199  18.261  1.00  0.00     0.000 C 
BRANCH  19  20
ATOM     20  C   UNL     1       6.192 -30.773  16.834  1.00  0.00     0.000 C 
BRANCH  20  21
ATOM     21  C   UNL     1       5.919 -32.292  16.779  1.00  0.00     0.000 C 
BRANCH  21  22
ATOM     22  C   UNL     1       7.071 -33.081  16.128  1.00  0.00    -0.000 C 
BRANCH  22  23
ATOM     23  C   UNL     1       6.682 -34.527  15.784  1.00  0.00    -0.000 C 
BRANCH  23  24
ATOM     24  C   UNL     1       6.062 -34.656  14.381  1.00  0.00    -0.000 C 
BRANCH  24  25
ATOM     25  C   UNL     1       6.586 -33.595  13.397  1.00  0.00    -0.000 C 
BRANCH  25  26
ATOM     26  C   UNL     1       6.931 -34.127  11.993  1.00  0.00    -0.000 C 
BRANCH  26  27
ATOM     27  C   UNL     1       8.281 -34.858  11.945  1.00  0.00    -0.000 C 
BRANCH  27  28
ATOM     28  C   UNL     1       9.423 -33.922  12.357  1.00  0.00    -0.000 C 
BRANCH  28  29
ATOM     29  C   UNL     1      10.504 -34.683  13.131  1.00  0.00    -0.003 C 
ATOM     30  C   UNL     1      11.508 -33.721  13.763  1.00  0.00     0.004 C 
ENDBRANCH  28  29
ENDBRANCH  27  28
ENDBRANCH  26  27
ENDBRANCH  25  26
ENDBRANCH  24  25
ENDBRANCH  23  24
ENDBRANCH  22  23
ENDBRANCH  21  22
ENDBRANCH  20  21
ENDBRANCH  19  20
ENDBRANCH  18  19
ENDBRANCH  17  18
ENDBRANCH   1  17
TORSDOF 26
ENDMDL
MODEL 7
REMARK VINA RESULT:    -0.532      2.400      7.388
REMARK INTER + INTRA:          -2.546
REMARK INTER:                   0.190
REMARK INTRA:                  -2.736
REMARK UNBOUND:                -1.206
REMARK SMILES CCCCCCCCCCCCCCCCCCCCCCCCCCCC(=O)[O-]
REMARK SMILES IDX 15 1 16 2 17 3 18 4 19 5 20 6 21 7 22 8 23 9 24 10 25 11
REMARK SMILES IDX 26 12 27 13 28 14 29 15 30 16 14 17 13 18 12 19 11 20 10 21
REMARK SMILES IDX 9 22 8 23 7 24 6 25 5 26 4 27 3 28 2 29 1 30
REMARK H PARENT
REMARK Flexibility Score: inf
ROOT
ATOM      1  C   UNL     1       6.023 -31.958  14.980  1.00  0.00     0.000 C 
ENDROOT
BRANCH   1   2
ATOM      2  C   UNL     1       5.887 -33.252  15.805  1.00  0.00     0.000 C 
BRANCH   2   3
ATOM      3  C   UNL     1       6.778 -34.413  15.317  1.00  0.00     0.000 C 
BRANCH   3   4
ATOM      4  C   UNL     1       7.206 -34.258  13.844  1.00  0.00     0.000 C 
BRANCH   4   5
ATOM      5  C   UNL     1       8.725 -34.379  13.651  1.00  0.00     0.000 C 
BRANCH   5   6
ATOM      6  C   UNL     1       9.123 -34.586  12.179  1.00  0.00     0.000 C 
BRANCH   6   7
ATOM      7  C   UNL     1      10.556 -35.125  12.014  1.00  0.00     0.000 C 
BRANCH   7   8
ATOM      8  C   UNL     1      11.460 -34.944  13.248  1.00  0.00     0.000 C 
BRANCH   8   9
ATOM      9  C   UNL     1      11.978 -33.505  13.404  1.00  0.00     0.000 C 
BRANCH   9  10
ATOM     10  C   UNL     1      12.321 -32.851  12.055  1.00  0.00     0.000 C 
BRANCH  10  11
ATOM     11  C   UNL     1      11.761 -31.422  11.935  1.00  0.00     0.000 C 
BRANCH  11  12
ATOM     12  C   UNL     1      10.256 -31.338  12.258  1.00  0.00     0.006 C 
BRANCH  12  13
ATOM     13  C   UNL     1       9.611 -29.996  11.876  1.00  0.00     0.053 C 
BRANCH  13  14
ATOM     14  C   UNL     1       8.131 -29.983  12.099  1.00  0.00     0.041 C 
ATOM     15  O   UNL     1       7.491 -28.899  12.058  1.00  0.00    -0.550 OA
ATOM     16  O   UNL     1       7.452 -31.173  12.338  1.00  0.00    -0.550 OA
ENDBRANCH  13  14
ENDBRANCH  12  13
ENDBRANCH  11  12
ENDBRANCH  10  11
ENDBRANCH   9  10
ENDBRANCH   8   9
ENDBRANCH   7   8
ENDBRANCH   6   7
ENDBRANCH   5   6
ENDBRANCH   4   5
ENDBRANCH   3   4
ENDBRANCH   2   3
ENDBRANCH   1   2
BRANCH   1  17
ATOM     17  C   UNL     1       6.250 -30.712  15.846  1.00  0.00     0.000 C 
BRANCH  17  18
ATOM     18  C   UNL     1       6.588 -31.092  17.296  1.00  0.00     0.000 C 
BRANCH  18  19
ATOM     19  C   UNL     1       8.095 -31.031  17.594  1.00  0.00     0.000 C 
BRANCH  19  20
ATOM     20  C   UNL     1       8.469 -30.953  19.088  1.00  0.00     0.000 C 
BRANCH  20  21
ATOM     21  C   UNL     1       9.002 -29.576  19.540  1.00  0.00     0.000 C 
BRANCH  21  22
ATOM     22  C   UNL     1       8.219 -28.403  18.918  1.00  0.00    -0.000 C 
BRANCH  22  23
ATOM     23  C   UNL     1       9.075 -27.557  17.963  1.00  0.00    -0.000 C 
BRANCH  23  24
ATOM     24  C   UNL     1      10.103 -28.398  17.184  1.00  0.00    -0.000 C 
BRANCH  24  25
ATOM     25  C   UNL     1      10.435 -27.805  15.804  1.00  0.00    -0.000 C 
BRANCH  25  26
ATOM     26  C   UNL     1      11.122 -28.780  14.828  1.00  0.00    -0.000 C 
BRANCH  26  27
ATOM     27  C   UNL     1      12.161 -28.094  13.929  1.00  0.00    -0.000 C 
BRANCH  27  28
ATOM     28  C   UNL     1      13.579 -28.314  14.469  1.00  0.00    -0.000 C 
BRANCH  28  29
ATOM     29  C   UNL     1      14.601 -27.490  13.679  1.00  0.00    -0.003 C 
ATOM     30  C   UNL     1      14.764 -26.094  14.275  1.00  0.00     0.004 C 
ENDBRANCH  28  29
ENDBRANCH  27  28
ENDBRANCH  26  27
ENDBRANCH  25  26
ENDBRANCH  24  25
ENDBRANCH  23  24
ENDBRANCH  22  23
ENDBRANCH  21  22
ENDBRANCH  20  21
ENDBRANCH  19  20
ENDBRANCH  18  19
ENDBRANCH  17  18
ENDBRANCH   1  17
TORSDOF 26
ENDMDL
