MODEL 1
REMARK VINA RESULT:    -6.673      0.000      0.000
REMARK INTER + INTRA:          -7.525
REMARK INTER:                  -7.259
REMARK INTRA:                  -0.266
REMARK UNBOUND:                -0.266
REMARK SMILES C[C@@H]1[C@@H](C)CC[C@@]2(C(=O)[O-])CC[C@]3(C)C(=CC[C@@H]4[C@@]5(C)CC[C@@H](O)C(C)(C)[C@H]5CC[C@@]43C)[C@@H]12
REMARK SMILES IDX 7 1 6 2 11 3 33 4 5 5 12 6 15 7 2 8 3 9 13 10 16 11 1 12
REMARK SMILES IDX 4 13 14 14 31 15 17 16 18 17 30 18 32 19 19 20 29 21 28 22
REMARK SMILES IDX 21 23 20 24 25 25 22 26 23 27 26 28 27 29 8 30 9 31 10 32
REMARK SMILES IDX 24 33
REMARK H PARENT 24 34
REMARK Flexibility Score: inf
ROOT
ATOM      1  C   UNL     1      -8.666  89.407 -10.238  1.00  0.00     0.017 C 
ATOM      2  C   UNL     1      -9.363  89.524 -11.624  1.00  0.00     0.014 C 
ATOM      3  C   UNL     1      -9.047  87.992  -9.652  1.00  0.00     0.014 C 
ATOM      4  C   UNL     1      -7.083  89.600 -10.349  1.00  0.00     0.030 C 
ATOM      5  C   UNL     1      -8.515  88.927 -12.745  1.00  0.00     0.004 C 
ATOM      6  C   UNL     1      -8.231  87.501  -8.419  1.00  0.00     0.013 C 
ATOM      7  C   UNL     1      -6.379  88.331  -9.840  1.00  0.00    -0.063 C 
ATOM      8  C   UNL     1      -6.513  90.188 -11.705  1.00  0.00    -0.003 C 
ATOM      9  C   UNL     1      -7.321  89.845 -13.005  1.00  0.00    -0.011 C 
ATOM     10  C   UNL     1      -6.713  87.895  -8.407  1.00  0.00    -0.006 C 
ATOM     11  C   UNL     1      -5.977  87.393 -10.718  1.00  0.00    -0.027 C 
ATOM     12  C   UNL     1      -6.338  91.719 -11.612  1.00  0.00     0.008 C 
ATOM     13  C   UNL     1      -6.429  89.283 -14.123  1.00  0.00     0.008 C 
ATOM     14  C   UNL     1      -6.573  89.121  -7.438  1.00  0.00     0.017 C 
ATOM     15  C   UNL     1      -5.710  86.711  -7.933  1.00  0.00    -0.020 C 
ATOM     16  C   UNL     1      -6.097  85.932 -10.417  1.00  0.00     0.032 C 
ATOM     17  C   UNL     1      -5.574  85.537  -9.015  1.00  0.00     0.006 C 
ATOM     18  C   UNL     1      -6.122  86.148  -6.533  1.00  0.00     0.008 C 
ATOM     19  C   UNL     1      -4.285  87.338  -7.751  1.00  0.00     0.012 C 
ATOM     20  C   UNL     1      -5.996  84.069  -8.555  1.00  0.00    -0.025 C 
ATOM     21  C   UNL     1      -5.425  84.840  -6.107  1.00  0.00     0.005 C 
ATOM     22  C   UNL     1      -5.295  83.708  -7.181  1.00  0.00     0.003 C 
ATOM     23  C   UNL     1      -5.649  82.998  -9.650  1.00  0.00     0.010 C 
ATOM     24  C   UNL     1      -7.544  83.916  -8.375  1.00  0.00     0.012 C 
ATOM     25  C   UNL     1      -3.838  83.041  -7.226  1.00  0.00    -0.006 C 
ATOM     26  C   UNL     1      -4.185  82.598  -9.712  1.00  0.00     0.033 C 
ATOM     27  C   UNL     1      -3.767  81.987  -8.375  1.00  0.00     0.120 C 
ATOM     28  C   UNL     1      -2.655  84.044  -7.380  1.00  0.00     0.014 C 
ATOM     29  C   UNL     1      -3.605  82.290  -5.886  1.00  0.00     0.014 C 
ENDROOT
BRANCH   1  30
ATOM     30  C   UNL     1      -9.259  90.494  -9.344  1.00  0.00     0.048 C 
ATOM     31  O   UNL     1      -8.567  91.496  -9.023  1.00  0.00    -0.550 OA
ATOM     32  O   UNL     1     -10.549  90.390  -8.840  1.00  0.00    -0.550 OA
ENDBRANCH   1  30
BRANCH  27  33
ATOM     33  O   UNL     1      -2.472  81.456  -8.513  1.00  0.00    -0.393 OA
ATOM     34  H   UNL     1      -2.249  80.985  -7.668  1.00  0.00     0.210 HD
ENDBRANCH  27  33
TORSDOF 2
ENDMDL
MODEL 2
REMARK VINA RESULT:    -6.303      4.721      8.172
REMARK INTER + INTRA:          -7.122
REMARK INTER:                  -7.029
REMARK INTRA:                  -0.094
REMARK UNBOUND:                -0.266
REMARK SMILES C[C@@H]1[C@@H](C)CC[C@@]2(C(=O)[O-])CC[C@]3(C)C(=CC[C@@H]4[C@@]5(C)CC[C@@H](O)C(C)(C)[C@H]5CC[C@@]43C)[C@@H]12
REMARK SMILES IDX 7 1 6 2 11 3 33 4 5 5 12 6 15 7 2 8 3 9 13 10 16 11 1 12
REMARK SMILES IDX 4 13 14 14 31 15 17 16 18 17 30 18 32 19 19 20 29 21 28 22
REMARK SMILES IDX 21 23 20 24 25 25 22 26 23 27 26 28 27 29 8 30 9 31 10 32
REMARK SMILES IDX 24 33
REMARK H PARENT 24 34
REMARK Flexibility Score: inf
ROOT
ATOM      1  C   UNL     1      -4.390  92.006 -15.950  1.00  0.00     0.017 C 
ATOM      2  C   UNL     1      -4.168  93.444 -16.501  1.00  0.00     0.014 C 
ATOM      3  C   UNL     1      -4.315  92.102 -14.376  1.00  0.00     0.014 C 
ATOM      4  C   UNL     1      -5.778  91.386 -16.444  1.00  0.00     0.030 C 
ATOM      5  C   UNL     1      -5.470  94.238 -16.573  1.00  0.00     0.004 C 
ATOM      6  C   UNL     1      -4.811  90.862 -13.573  1.00  0.00     0.013 C 
ATOM      7  C   UNL     1      -6.651  91.054 -15.222  1.00  0.00    -0.063 C 
ATOM      8  C   UNL     1      -6.529  92.128 -17.626  1.00  0.00    -0.003 C 
ATOM      9  C   UNL     1      -6.327  93.681 -17.710  1.00  0.00    -0.011 C 
ATOM     10  C   UNL     1      -6.038  90.101 -14.186  1.00  0.00    -0.006 C 
ATOM     11  C   UNL     1      -7.587  91.932 -14.812  1.00  0.00    -0.027 C 
ATOM     12  C   UNL     1      -6.168  91.500 -18.989  1.00  0.00     0.008 C 
ATOM     13  C   UNL     1      -7.656  94.444 -17.821  1.00  0.00     0.008 C 
ATOM     14  C   UNL     1      -5.467  88.833 -14.910  1.00  0.00     0.017 C 
ATOM     15  C   UNL     1      -7.162  89.650 -13.107  1.00  0.00    -0.020 C 
ATOM     16  C   UNL     1      -7.850  92.178 -13.359  1.00  0.00     0.032 C 
ATOM     17  C   UNL     1      -8.000  90.885 -12.522  1.00  0.00     0.006 C 
ATOM     18  C   UNL     1      -6.531  88.798 -11.957  1.00  0.00     0.008 C 
ATOM     19  C   UNL     1      -8.178  88.709 -13.841  1.00  0.00     0.012 C 
ATOM     20  C   UNL     1      -7.945  91.122 -10.946  1.00  0.00    -0.025 C 
ATOM     21  C   UNL     1      -7.437  88.552 -10.733  1.00  0.00     0.005 C 
ATOM     22  C   UNL     1      -8.253  89.769 -10.182  1.00  0.00     0.003 C 
ATOM     23  C   UNL     1      -8.942  92.249 -10.497  1.00  0.00     0.010 C 
ATOM     24  C   UNL     1      -6.554  91.656 -10.465  1.00  0.00     0.012 C 
ATOM     25  C   UNL     1      -9.782  89.413  -9.858  1.00  0.00    -0.006 C 
ATOM     26  C   UNL     1     -10.398  91.821 -10.419  1.00  0.00     0.033 C 
ATOM     27  C   UNL     1     -10.543  90.694  -9.397  1.00  0.00     0.120 C 
ATOM     28  C   UNL     1     -10.568  88.743 -11.025  1.00  0.00     0.014 C 
ATOM     29  C   UNL     1      -9.806  88.403  -8.677  1.00  0.00     0.014 C 
ENDROOT
BRANCH   1  30
ATOM     30  C   UNL     1      -3.231  91.148 -16.452  1.00  0.00     0.048 C 
ATOM     31  O   UNL     1      -2.356  90.733 -15.646  1.00  0.00    -0.550 OA
ATOM     32  O   UNL     1      -3.094  90.834 -17.798  1.00  0.00    -0.550 OA
ENDBRANCH   1  30
BRANCH  27  33
ATOM     33  O   UNL     1     -11.914  90.443  -9.204  1.00  0.00    -0.393 OA
ATOM     34  H   UNL     1     -12.317  91.261  -8.811  1.00  0.00     0.210 HD
ENDBRANCH  27  33
TORSDOF 2
ENDMDL
MODEL 3
REMARK VINA RESULT:    -6.132      2.858      8.160
REMARK INTER + INTRA:          -6.936
REMARK INTER:                  -6.677
REMARK INTRA:                  -0.259
REMARK UNBOUND:                -0.266
REMARK SMILES C[C@@H]1[C@@H](C)CC[C@@]2(C(=O)[O-])CC[C@]3(C)C(=CC[C@@H]4[C@@]5(C)CC[C@@H](O)C(C)(C)[C@H]5CC[C@@]43C)[C@@H]12
REMARK SMILES IDX 7 1 6 2 11 3 33 4 5 5 12 6 15 7 2 8 3 9 13 10 16 11 1 12
REMARK SMILES IDX 4 13 14 14 31 15 17 16 18 17 30 18 32 19 19 20 29 21 28 22
REMARK SMILES IDX 21 23 20 24 25 25 22 26 23 27 26 28 27 29 8 30 9 31 10 32
REMARK SMILES IDX 24 33
REMARK H PARENT 24 34
REMARK Flexibility Score: inf
ROOT
ATOM      1  C   UNL     1      -6.890  87.341  -7.419  1.00  0.00     0.017 C 
ATOM      2  C   UNL     1      -6.327  86.845  -6.056  1.00  0.00     0.014 C 
ATOM      3  C   UNL     1      -7.380  88.826  -7.199  1.00  0.00     0.014 C 
ATOM      4  C   UNL     1      -5.803  87.239  -8.586  1.00  0.00     0.030 C 
ATOM      5  C   UNL     1      -4.856  87.213  -5.875  1.00  0.00     0.004 C 
ATOM      6  C   UNL     1      -7.699  89.656  -8.478  1.00  0.00     0.013 C 
ATOM      7  C   UNL     1      -5.548  88.640  -9.168  1.00  0.00    -0.063 C 
ATOM      8  C   UNL     1      -4.501  86.383  -8.297  1.00  0.00    -0.003 C 
ATOM      9  C   UNL     1      -4.011  86.345  -6.808  1.00  0.00    -0.011 C 
ATOM     10  C   UNL     1      -6.774  89.383  -9.715  1.00  0.00    -0.006 C 
ATOM     11  C   UNL     1      -4.500  89.364  -8.730  1.00  0.00    -0.027 C 
ATOM     12  C   UNL     1      -4.668  84.936  -8.808  1.00  0.00     0.008 C 
ATOM     13  C   UNL     1      -2.518  86.682  -6.669  1.00  0.00     0.008 C 
ATOM     14  C   UNL     1      -7.574  88.441 -10.679  1.00  0.00     0.017 C 
ATOM     15  C   UNL     1      -6.309  90.714 -10.518  1.00  0.00    -0.020 C 
ATOM     16  C   UNL     1      -4.601  90.842  -8.520  1.00  0.00     0.032 C 
ATOM     17  C   UNL     1      -5.251  91.599  -9.703  1.00  0.00     0.006 C 
ATOM     18  C   UNL     1      -7.543  91.567 -10.959  1.00  0.00     0.008 C 
ATOM     19  C   UNL     1      -5.603  90.251 -11.839  1.00  0.00     0.012 C 
ATOM     20  C   UNL     1      -5.666  93.101  -9.363  1.00  0.00    -0.025 C 
ATOM     21  C   UNL     1      -7.225  92.985 -11.476  1.00  0.00     0.005 C 
ATOM     22  C   UNL     1      -6.183  93.832 -10.671  1.00  0.00     0.003 C 
ATOM     23  C   UNL     1      -4.475  93.898  -8.720  1.00  0.00     0.010 C 
ATOM     24  C   UNL     1      -6.788  93.185  -8.274  1.00  0.00     0.012 C 
ATOM     25  C   UNL     1      -5.108  94.568 -11.603  1.00  0.00    -0.006 C 
ATOM     26  C   UNL     1      -3.419  94.373  -9.704  1.00  0.00     0.033 C 
ATOM     27  C   UNL     1      -4.059  95.316 -10.722  1.00  0.00     0.120 C 
ATOM     28  C   UNL     1      -4.361  93.643 -12.611  1.00  0.00     0.014 C 
ATOM     29  C   UNL     1      -5.851  95.634 -12.454  1.00  0.00     0.014 C 
ENDROOT
BRANCH   1  30
ATOM     30  C   UNL     1      -8.094  86.464  -7.754  1.00  0.00     0.048 C 
ATOM     31  O   UNL     1      -9.159  86.570  -7.088  1.00  0.00    -0.550 OA
ATOM     32  O   UNL     1      -8.038  85.515  -8.766  1.00  0.00    -0.550 OA
ENDBRANCH   1  30
BRANCH  27  33
ATOM     33  O   UNL     1      -3.038  95.888 -11.503  1.00  0.00    -0.393 OA
ATOM     34  H   UNL     1      -2.591  95.151 -11.996  1.00  0.00     0.210 HD
ENDBRANCH  27  33
TORSDOF 2
ENDMDL
MODEL 4
REMARK VINA RESULT:    -5.858      4.741      9.825
REMARK INTER + INTRA:          -6.638
REMARK INTER:                  -6.381
REMARK INTRA:                  -0.257
REMARK UNBOUND:                -0.266
REMARK SMILES C[C@@H]1[C@@H](C)CC[C@@]2(C(=O)[O-])CC[C@]3(C)C(=CC[C@@H]4[C@@]5(C)CC[C@@H](O)C(C)(C)[C@H]5CC[C@@]43C)[C@@H]12
REMARK SMILES IDX 7 1 6 2 11 3 33 4 5 5 12 6 15 7 2 8 3 9 13 10 16 11 1 12
REMARK SMILES IDX 4 13 14 14 31 15 17 16 18 17 30 18 32 19 19 20 29 21 28 22
REMARK SMILES IDX 21 23 20 24 25 25 22 26 23 27 26 28 27 29 8 30 9 31 10 32
REMARK SMILES IDX 24 33
REMARK H PARENT 24 34
REMARK Flexibility Score: inf
ROOT
ATOM      1  C   UNL     1      -7.279  90.584 -11.015  1.00  0.00     0.017 C 
ATOM      2  C   UNL     1      -7.966  91.377  -9.866  1.00  0.00     0.014 C 
ATOM      3  C   UNL     1      -8.032  90.965 -12.349  1.00  0.00     0.014 C 
ATOM      4  C   UNL     1      -5.714  90.896 -11.103  1.00  0.00     0.030 C 
ATOM      5  C   UNL     1      -7.373  92.774  -9.700  1.00  0.00     0.004 C 
ATOM      6  C   UNL     1      -7.347  90.550 -13.685  1.00  0.00     0.013 C 
ATOM      7  C   UNL     1      -5.390  91.485 -12.487  1.00  0.00    -0.063 C 
ATOM      8  C   UNL     1      -5.051  91.651  -9.878  1.00  0.00    -0.003 C 
ATOM      9  C   UNL     1      -5.974  92.649  -9.095  1.00  0.00    -0.011 C 
ATOM     10  C   UNL     1      -5.780  90.629 -13.699  1.00  0.00    -0.006 C 
ATOM     11  C   UNL     1      -5.313  92.821 -12.642  1.00  0.00    -0.027 C 
ATOM     12  C   UNL     1      -4.435  90.648  -8.880  1.00  0.00     0.008 C 
ATOM     13  C   UNL     1      -5.328  94.031  -8.913  1.00  0.00     0.008 C 
ATOM     14  C   UNL     1      -5.252  89.166 -13.503  1.00  0.00     0.017 C 
ATOM     15  C   UNL     1      -5.147  91.257 -15.055  1.00  0.00    -0.020 C 
ATOM     16  C   UNL     1      -5.840  93.500 -13.867  1.00  0.00     0.032 C 
ATOM     17  C   UNL     1      -5.401  92.833 -15.192  1.00  0.00     0.006 C 
ATOM     18  C   UNL     1      -5.650  90.489 -16.321  1.00  0.00     0.008 C 
ATOM     19  C   UNL     1      -3.595  91.042 -15.000  1.00  0.00     0.012 C 
ATOM     20  C   UNL     1      -6.213  93.333 -16.470  1.00  0.00    -0.025 C 
ATOM     21  C   UNL     1      -5.347  91.163 -17.675  1.00  0.00     0.005 C 
ATOM     22  C   UNL     1      -5.593  92.705 -17.787  1.00  0.00     0.003 C 
ATOM     23  C   UNL     1      -6.235  94.901 -16.564  1.00  0.00     0.010 C 
ATOM     24  C   UNL     1      -7.730  92.952 -16.408  1.00  0.00     0.012 C 
ATOM     25  C   UNL     1      -4.396  93.488 -18.509  1.00  0.00    -0.006 C 
ATOM     26  C   UNL     1      -4.954  95.528 -17.086  1.00  0.00     0.033 C 
ATOM     27  C   UNL     1      -4.680  95.023 -18.503  1.00  0.00     0.120 C 
ATOM     28  C   UNL     1      -2.980  93.228 -17.913  1.00  0.00     0.014 C 
ATOM     29  C   UNL     1      -4.339  93.028 -19.992  1.00  0.00     0.014 C 
ENDROOT
BRANCH   1  30
ATOM     30  C   UNL     1      -7.496  89.099 -10.728  1.00  0.00     0.048 C 
ATOM     31  O   UNL     1      -8.657  88.612 -10.765  1.00  0.00    -0.550 OA
ATOM     32  O   UNL     1      -6.438  88.266 -10.391  1.00  0.00    -0.550 OA
ENDBRANCH   1  30
BRANCH  27  33
ATOM     33  O   UNL     1      -3.601  95.753 -19.035  1.00  0.00    -0.393 OA
ATOM     34  H   UNL     1      -2.765  95.284 -18.775  1.00  0.00     0.210 HD
ENDBRANCH  27  33
TORSDOF 2
ENDMDL
MODEL 5
REMARK VINA RESULT:    -5.816      5.876     10.984
REMARK INTER + INTRA:          -6.592
REMARK INTER:                  -6.327
REMARK INTRA:                  -0.265
REMARK UNBOUND:                -0.266
REMARK SMILES C[C@@H]1[C@@H](C)CC[C@@]2(C(=O)[O-])CC[C@]3(C)C(=CC[C@@H]4[C@@]5(C)CC[C@@H](O)C(C)(C)[C@H]5CC[C@@]43C)[C@@H]12
REMARK SMILES IDX 7 1 6 2 11 3 33 4 5 5 12 6 15 7 2 8 3 9 13 10 16 11 1 12
REMARK SMILES IDX 4 13 14 14 31 15 17 16 18 17 30 18 32 19 19 20 29 21 28 22
REMARK SMILES IDX 21 23 20 24 25 25 22 26 23 27 26 28 27 29 8 30 9 31 10 32
REMARK SMILES IDX 24 33
REMARK H PARENT 24 34
REMARK Flexibility Score: inf
ROOT
ATOM      1  C   UNL     1      -6.541  91.697 -12.674  1.00  0.00     0.017 C 
ATOM      2  C   UNL     1      -6.349  90.318 -11.979  1.00  0.00     0.014 C 
ATOM      3  C   UNL     1      -5.144  92.100 -13.288  1.00  0.00     0.014 C 
ATOM      4  C   UNL     1      -7.689  91.651 -13.785  1.00  0.00     0.030 C 
ATOM      5  C   UNL     1      -6.538  89.156 -12.951  1.00  0.00     0.004 C 
ATOM      6  C   UNL     1      -5.137  93.284 -14.299  1.00  0.00     0.013 C 
ATOM      7  C   UNL     1      -7.089  92.020 -15.152  1.00  0.00    -0.063 C 
ATOM      8  C   UNL     1      -8.649  90.390 -13.790  1.00  0.00    -0.003 C 
ATOM      9  C   UNL     1      -8.022  89.038 -13.299  1.00  0.00    -0.011 C 
ATOM     10  C   UNL     1      -6.387  93.382 -15.241  1.00  0.00    -0.006 C 
ATOM     11  C   UNL     1      -6.710  91.046 -16.001  1.00  0.00    -0.027 C 
ATOM     12  C   UNL     1      -9.933  90.670 -12.981  1.00  0.00     0.008 C 
ATOM     13  C   UNL     1      -8.265  87.883 -14.284  1.00  0.00     0.008 C 
ATOM     14  C   UNL     1      -7.317  94.495 -14.644  1.00  0.00     0.017 C 
ATOM     15  C   UNL     1      -6.043  93.735 -16.787  1.00  0.00    -0.020 C 
ATOM     16  C   UNL     1      -5.471  91.166 -16.831  1.00  0.00     0.032 C 
ATOM     17  C   UNL     1      -5.337  92.523 -17.563  1.00  0.00     0.006 C 
ATOM     18  C   UNL     1      -5.197  95.046 -16.893  1.00  0.00     0.008 C 
ATOM     19  C   UNL     1      -7.397  94.027 -17.522  1.00  0.00     0.012 C 
ATOM     20  C   UNL     1      -3.888  92.792 -18.171  1.00  0.00    -0.025 C 
ATOM     21  C   UNL     1      -4.572  95.328 -18.274  1.00  0.00     0.005 C 
ATOM     22  C   UNL     1      -3.894  94.130 -19.020  1.00  0.00     0.003 C 
ATOM     23  C   UNL     1      -3.394  91.586 -19.046  1.00  0.00     0.010 C 
ATOM     24  C   UNL     1      -2.784  92.914 -17.066  1.00  0.00     0.012 C 
ATOM     25  C   UNL     1      -4.291  94.041 -20.570  1.00  0.00    -0.006 C 
ATOM     26  C   UNL     1      -4.004  91.512 -20.436  1.00  0.00     0.033 C 
ATOM     27  C   UNL     1      -3.644  92.777 -21.216  1.00  0.00     0.120 C 
ATOM     28  C   UNL     1      -5.822  94.039 -20.863  1.00  0.00     0.014 C 
ATOM     29  C   UNL     1      -3.708  95.287 -21.293  1.00  0.00     0.014 C 
ENDROOT
BRANCH   1  30
ATOM     30  C   UNL     1      -6.915  92.701 -11.585  1.00  0.00     0.048 C 
ATOM     31  O   UNL     1      -8.095  93.134 -11.502  1.00  0.00    -0.550 OA
ATOM     32  O   UNL     1      -5.968  93.182 -10.690  1.00  0.00    -0.550 OA
ENDBRANCH   1  30
BRANCH  27  33
ATOM     33  O   UNL     1      -4.056  92.607 -22.551  1.00  0.00    -0.393 OA
ATOM     34  H   UNL     1      -4.997  92.292 -22.536  1.00  0.00     0.210 HD
ENDBRANCH  27  33
TORSDOF 2
ENDMDL
MODEL 6
REMARK VINA RESULT:    -5.791      2.494      4.036
REMARK INTER + INTRA:          -6.565
REMARK INTER:                  -6.304
REMARK INTRA:                  -0.260
REMARK UNBOUND:                -0.266
REMARK SMILES C[C@@H]1[C@@H](C)CC[C@@]2(C(=O)[O-])CC[C@]3(C)C(=CC[C@@H]4[C@@]5(C)CC[C@@H](O)C(C)(C)[C@H]5CC[C@@]43C)[C@@H]12
REMARK SMILES IDX 7 1 6 2 11 3 33 4 5 5 12 6 15 7 2 8 3 9 13 10 16 11 1 12
REMARK SMILES IDX 4 13 14 14 31 15 17 16 18 17 30 18 32 19 19 20 29 21 28 22
REMARK SMILES IDX 21 23 20 24 25 25 22 26 23 27 26 28 27 29 8 30 9 31 10 32
REMARK SMILES IDX 24 33
REMARK H PARENT 24 34
REMARK Flexibility Score: inf
ROOT
ATOM      1  C   UNL     1      -6.530  93.772  -9.864  1.00  0.00     0.017 C 
ATOM      2  C   UNL     1      -7.067  94.341 -11.208  1.00  0.00     0.014 C 
ATOM      3  C   UNL     1      -7.556  92.670  -9.391  1.00  0.00     0.014 C 
ATOM      4  C   UNL     1      -5.051  93.186 -10.012  1.00  0.00     0.030 C 
ATOM      5  C   UNL     1      -6.602  93.517 -12.407  1.00  0.00     0.004 C 
ATOM      6  C   UNL     1      -7.095  91.732  -8.236  1.00  0.00     0.013 C 
ATOM      7  C   UNL     1      -5.056  91.692  -9.642  1.00  0.00    -0.063 C 
ATOM      8  C   UNL     1      -4.251  93.549 -11.331  1.00  0.00    -0.003 C 
ATOM      9  C   UNL     1      -5.109  93.764 -12.627  1.00  0.00    -0.011 C 
ATOM     10  C   UNL     1      -5.577  91.340  -8.242  1.00  0.00    -0.006 C 
ATOM     11  C   UNL     1      -5.149  90.764 -10.614  1.00  0.00    -0.027 C 
ATOM     12  C   UNL     1      -3.358  94.788 -11.110  1.00  0.00     0.008 C 
ATOM     13  C   UNL     1      -4.588  92.948 -13.821  1.00  0.00     0.008 C 
ATOM     14  C   UNL     1      -4.871  92.247  -7.175  1.00  0.00     0.017 C 
ATOM     15  C   UNL     1      -5.279  89.780  -7.911  1.00  0.00    -0.020 C 
ATOM     16  C   UNL     1      -5.965  89.522 -10.438  1.00  0.00     0.032 C 
ATOM     17  C   UNL     1      -5.716  88.794  -9.096  1.00  0.00     0.006 C 
ATOM     18  C   UNL     1      -5.928  89.358  -6.552  1.00  0.00     0.008 C 
ATOM     19  C   UNL     1      -3.731  89.619  -7.724  1.00  0.00     0.012 C 
ATOM     20  C   UNL     1      -6.801  87.678  -8.752  1.00  0.00    -0.025 C 
ATOM     21  C   UNL     1      -5.957  87.842  -6.268  1.00  0.00     0.005 C 
ATOM     22  C   UNL     1      -6.379  86.894  -7.440  1.00  0.00     0.003 C 
ATOM     23  C   UNL     1      -7.004  86.681  -9.949  1.00  0.00     0.010 C 
ATOM     24  C   UNL     1      -8.232  88.275  -8.531  1.00  0.00     0.012 C 
ATOM     25  C   UNL     1      -5.428  85.614  -7.596  1.00  0.00    -0.006 C 
ATOM     26  C   UNL     1      -5.916  85.631 -10.097  1.00  0.00     0.033 C 
ATOM     27  C   UNL     1      -5.863  84.771  -8.834  1.00  0.00     0.120 C 
ATOM     28  C   UNL     1      -3.905  85.930  -7.702  1.00  0.00     0.014 C 
ATOM     29  C   UNL     1      -5.603  84.722  -6.336  1.00  0.00     0.014 C 
ENDROOT
BRANCH   1  30
ATOM     30  C   UNL     1      -6.534  94.920  -8.857  1.00  0.00     0.048 C 
ATOM     31  O   UNL     1      -7.625  95.394  -8.442  1.00  0.00    -0.550 OA
ATOM     32  O   UNL     1      -5.350  95.488  -8.403  1.00  0.00    -0.550 OA
ENDBRANCH   1  30
BRANCH  27  33
ATOM     33  O   UNL     1      -4.985  83.696  -9.065  1.00  0.00    -0.393 OA
ATOM     34  H   UNL     1      -4.421  83.932  -9.847  1.00  0.00     0.210 HD
ENDBRANCH  27  33
TORSDOF 2
ENDMDL
MODEL 7
REMARK VINA RESULT:    -5.785      3.342      8.426
REMARK INTER + INTRA:          -6.558
REMARK INTER:                  -6.290
REMARK INTRA:                  -0.268
REMARK UNBOUND:                -0.266
REMARK SMILES C[C@@H]1[C@@H](C)CC[C@@]2(C(=O)[O-])CC[C@]3(C)C(=CC[C@@H]4[C@@]5(C)CC[C@@H](O)C(C)(C)[C@H]5CC[C@@]43C)[C@@H]12
REMARK SMILES IDX 7 1 6 2 11 3 33 4 5 5 12 6 15 7 2 8 3 9 13 10 16 11 1 12
REMARK SMILES IDX 4 13 14 14 31 15 17 16 18 17 30 18 32 19 19 20 29 21 28 22
REMARK SMILES IDX 21 23 20 24 25 25 22 26 23 27 26 28 27 29 8 30 9 31 10 32
REMARK SMILES IDX 24 33
REMARK H PARENT 24 34
REMARK Flexibility Score: inf
ROOT
ATOM      1  C   UNL     1      -6.852  89.999  -8.872  1.00  0.00     0.017 C 
ATOM      2  C   UNL     1      -6.117  88.874  -8.088  1.00  0.00     0.014 C 
ATOM      3  C   UNL     1      -5.738  90.956  -9.451  1.00  0.00     0.014 C 
ATOM      4  C   UNL     1      -7.788  89.408 -10.025  1.00  0.00     0.030 C 
ATOM      5  C   UNL     1      -5.712  87.714  -8.994  1.00  0.00     0.004 C 
ATOM      6  C   UNL     1      -6.189  91.984 -10.531  1.00  0.00     0.013 C 
ATOM      7  C   UNL     1      -7.327  89.956 -11.386  1.00  0.00    -0.063 C 
ATOM      8  C   UNL     1      -8.092  87.854  -9.993  1.00  0.00    -0.003 C 
ATOM      9  C   UNL     1      -6.967  86.938  -9.396  1.00  0.00    -0.011 C 
ATOM     10  C   UNL     1      -7.291  91.484 -11.529  1.00  0.00    -0.006 C 
ATOM     11  C   UNL     1      -6.503  89.220 -12.157  1.00  0.00    -0.027 C 
ATOM     12  C   UNL     1      -9.417  87.565  -9.256  1.00  0.00     0.008 C 
ATOM     13  C   UNL     1      -6.614  85.760 -10.317  1.00  0.00     0.008 C 
ATOM     14  C   UNL     1      -8.652  92.090 -11.039  1.00  0.00     0.017 C 
ATOM     15  C   UNL     1      -7.040  91.896 -13.077  1.00  0.00    -0.020 C 
ATOM     16  C   UNL     1      -5.394  89.847 -12.942  1.00  0.00     0.032 C 
ATOM     17  C   UNL     1      -5.825  91.095 -13.748  1.00  0.00     0.006 C 
ATOM     18  C   UNL     1      -6.852  93.441 -13.227  1.00  0.00     0.008 C 
ATOM     19  C   UNL     1      -8.334  91.532 -13.884  1.00  0.00     0.012 C 
ATOM     20  C   UNL     1      -4.606  91.956 -14.311  1.00  0.00    -0.025 C 
ATOM     21  C   UNL     1      -6.329  93.922 -14.596  1.00  0.00     0.005 C 
ATOM     22  C   UNL     1      -5.146  93.122 -15.239  1.00  0.00     0.003 C 
ATOM     23  C   UNL     1      -3.577  91.062 -15.090  1.00  0.00     0.010 C 
ATOM     24  C   UNL     1      -3.742  92.594 -13.171  1.00  0.00     0.012 C 
ATOM     25  C   UNL     1      -5.363  92.810 -16.796  1.00  0.00    -0.006 C 
ATOM     26  C   UNL     1      -4.002  90.676 -16.497  1.00  0.00     0.033 C 
ATOM     27  C   UNL     1      -4.187  91.940 -17.337  1.00  0.00     0.120 C 
ATOM     28  C   UNL     1      -6.715  92.120 -17.151  1.00  0.00     0.014 C 
ATOM     29  C   UNL     1      -5.343  94.158 -17.569  1.00  0.00     0.014 C 
ENDROOT
BRANCH   1  30
ATOM     30  C   UNL     1      -7.697  90.772  -7.863  1.00  0.00     0.048 C 
ATOM     31  O   UNL     1      -8.950  90.633  -7.849  1.00  0.00    -0.550 OA
ATOM     32  O   UNL     1      -7.120  91.662  -6.967  1.00  0.00    -0.550 OA
ENDBRANCH   1  30
BRANCH  27  33
ATOM     33  O   UNL     1      -4.395  91.558 -18.675  1.00  0.00    -0.393 OA
ATOM     34  H   UNL     1      -3.916  90.700 -18.820  1.00  0.00     0.210 HD
ENDBRANCH  27  33
TORSDOF 2
ENDMDL
MODEL 8
REMARK VINA RESULT:    -5.765      5.135      7.987
REMARK INTER + INTRA:          -6.537
REMARK INTER:                  -6.432
REMARK INTRA:                  -0.105
REMARK UNBOUND:                -0.266
REMARK SMILES C[C@@H]1[C@@H](C)CC[C@@]2(C(=O)[O-])CC[C@]3(C)C(=CC[C@@H]4[C@@]5(C)CC[C@@H](O)C(C)(C)[C@H]5CC[C@@]43C)[C@@H]12
REMARK SMILES IDX 7 1 6 2 11 3 33 4 5 5 12 6 15 7 2 8 3 9 13 10 16 11 1 12
REMARK SMILES IDX 4 13 14 14 31 15 17 16 18 17 30 18 32 19 19 20 29 21 28 22
REMARK SMILES IDX 21 23 20 24 25 25 22 26 23 27 26 28 27 29 8 30 9 31 10 32
REMARK SMILES IDX 24 33
REMARK H PARENT 24 34
REMARK Flexibility Score: inf
ROOT
ATOM      1  C   UNL     1     -13.204  89.237  -9.849  1.00  0.00     0.017 C 
ATOM      2  C   UNL     1     -13.436  88.971  -8.333  1.00  0.00     0.014 C 
ATOM      3  C   UNL     1     -12.417  90.601  -9.959  1.00  0.00     0.014 C 
ATOM      4  C   UNL     1     -12.418  88.036 -10.552  1.00  0.00     0.030 C 
ATOM      5  C   UNL     1     -12.257  88.243  -7.692  1.00  0.00     0.004 C 
ATOM      6  C   UNL     1     -11.790  90.939 -11.344  1.00  0.00     0.013 C 
ATOM      7  C   UNL     1     -11.101  88.568 -11.144  1.00  0.00    -0.063 C 
ATOM      8  C   UNL     1     -12.293  86.676  -9.748  1.00  0.00    -0.003 C 
ATOM      9  C   UNL     1     -12.242  86.795  -8.185  1.00  0.00    -0.011 C 
ATOM     10  C   UNL     1     -11.224  89.719 -12.152  1.00  0.00    -0.006 C 
ATOM     11  C   UNL     1      -9.957  88.447 -10.444  1.00  0.00    -0.027 C 
ATOM     12  C   UNL     1     -13.421  85.699 -10.140  1.00  0.00     0.008 C 
ATOM     13  C   UNL     1     -11.065  86.019  -7.573  1.00  0.00     0.008 C 
ATOM     14  C   UNL     1     -12.298  89.358 -13.236  1.00  0.00     0.017 C 
ATOM     15  C   UNL     1      -9.796  89.988 -12.872  1.00  0.00    -0.020 C 
ATOM     16  C   UNL     1      -8.928  89.533 -10.429  1.00  0.00     0.032 C 
ATOM     17  C   UNL     1      -8.580  90.086 -11.832  1.00  0.00     0.006 C 
ATOM     18  C   UNL     1      -9.857  91.250 -13.793  1.00  0.00     0.008 C 
ATOM     19  C   UNL     1      -9.500  88.772 -13.815  1.00  0.00     0.012 C 
ATOM     20  C   UNL     1      -7.751  91.447 -11.805  1.00  0.00    -0.025 C 
ATOM     21  C   UNL     1      -8.498  91.770 -14.305  1.00  0.00     0.005 C 
ATOM     22  C   UNL     1      -7.320  91.851 -13.277  1.00  0.00     0.003 C 
ATOM     23  C   UNL     1      -6.492  91.340 -10.872  1.00  0.00     0.010 C 
ATOM     24  C   UNL     1      -8.561  92.635 -11.185  1.00  0.00     0.012 C 
ATOM     25  C   UNL     1      -5.939  91.272 -13.847  1.00  0.00    -0.006 C 
ATOM     26  C   UNL     1      -5.314  90.590 -11.472  1.00  0.00     0.033 C 
ATOM     27  C   UNL     1      -4.844  91.309 -12.736  1.00  0.00     0.120 C 
ATOM     28  C   UNL     1      -6.018  89.832 -14.439  1.00  0.00     0.014 C 
ATOM     29  C   UNL     1      -5.465  92.196 -15.003  1.00  0.00     0.014 C 
ENDROOT
BRANCH   1  30
ATOM     30  C   UNL     1     -14.579  89.403 -10.491  1.00  0.00     0.048 C 
ATOM     31  O   UNL     1     -15.381  88.431 -10.528  1.00  0.00    -0.550 OA
ATOM     32  O   UNL     1     -14.965  90.603 -11.074  1.00  0.00    -0.550 OA
ENDBRANCH   1  30
BRANCH  27  33
ATOM     33  O   UNL     1      -3.645  90.712 -13.168  1.00  0.00    -0.393 OA
ATOM     34  H   UNL     1      -2.937  91.407 -13.139  1.00  0.00     0.210 HD
ENDBRANCH  27  33
TORSDOF 2
ENDMDL
MODEL 9
REMARK VINA RESULT:    -5.683      1.953      7.532
REMARK INTER + INTRA:          -6.448
REMARK INTER:                  -6.182
REMARK INTRA:                  -0.266
REMARK UNBOUND:                -0.266
REMARK SMILES C[C@@H]1[C@@H](C)CC[C@@]2(C(=O)[O-])CC[C@]3(C)C(=CC[C@@H]4[C@@]5(C)CC[C@@H](O)C(C)(C)[C@H]5CC[C@@]43C)[C@@H]12
REMARK SMILES IDX 7 1 6 2 11 3 33 4 5 5 12 6 15 7 2 8 3 9 13 10 16 11 1 12
REMARK SMILES IDX 4 13 14 14 31 15 17 16 18 17 30 18 32 19 19 20 29 21 28 22
REMARK SMILES IDX 21 23 20 24 25 25 22 26 23 27 26 28 27 29 8 30 9 31 10 32
REMARK SMILES IDX 24 33
REMARK H PARENT 24 34
REMARK Flexibility Score: inf
ROOT
ATOM      1  C   UNL     1      -6.038  83.854  -8.898  1.00  0.00     0.017 C 
ATOM      2  C   UNL     1      -7.029  82.896  -9.621  1.00  0.00     0.014 C 
ATOM      3  C   UNL     1      -5.666  84.990  -9.929  1.00  0.00     0.014 C 
ATOM      4  C   UNL     1      -6.659  84.450  -7.552  1.00  0.00     0.030 C 
ATOM      5  C   UNL     1      -8.476  83.367  -9.494  1.00  0.00     0.004 C 
ATOM      6  C   UNL     1      -4.935  86.242  -9.359  1.00  0.00     0.013 C 
ATOM      7  C   UNL     1      -6.712  85.984  -7.652  1.00  0.00    -0.063 C 
ATOM      8  C   UNL     1      -7.974  83.767  -6.990  1.00  0.00    -0.003 C 
ATOM      9  C   UNL     1      -8.944  83.146  -8.055  1.00  0.00    -0.011 C 
ATOM     10  C   UNL     1      -5.379  86.694  -7.924  1.00  0.00    -0.006 C 
ATOM     11  C   UNL     1      -7.852  86.590  -8.036  1.00  0.00    -0.027 C 
ATOM     12  C   UNL     1      -7.630  82.692  -5.938  1.00  0.00     0.008 C 
ATOM     13  C   UNL     1     -10.397  83.612  -7.872  1.00  0.00     0.008 C 
ATOM     14  C   UNL     1      -4.289  86.169  -6.927  1.00  0.00     0.017 C 
ATOM     15  C   UNL     1      -5.552  88.297  -7.744  1.00  0.00    -0.020 C 
ATOM     16  C   UNL     1      -7.841  87.785  -8.936  1.00  0.00     0.032 C 
ATOM     17  C   UNL     1      -6.833  88.879  -8.512  1.00  0.00     0.006 C 
ATOM     18  C   UNL     1      -4.249  89.056  -8.158  1.00  0.00     0.008 C 
ATOM     19  C   UNL     1      -5.759  88.586  -6.217  1.00  0.00     0.012 C 
ATOM     20  C   UNL     1      -6.572  89.988  -9.627  1.00  0.00    -0.025 C 
ATOM     21  C   UNL     1      -4.383  90.586  -8.301  1.00  0.00     0.005 C 
ATOM     22  C   UNL     1      -5.644  91.135  -9.047  1.00  0.00     0.003 C 
ATOM     23  C   UNL     1      -7.918  90.589 -10.171  1.00  0.00     0.010 C 
ATOM     24  C   UNL     1      -5.891  89.405 -10.911  1.00  0.00     0.012 C 
ATOM     25  C   UNL     1      -6.343  92.365  -8.294  1.00  0.00    -0.006 C 
ATOM     26  C   UNL     1      -8.577  91.609  -9.257  1.00  0.00     0.033 C 
ATOM     27  C   UNL     1      -7.635  92.795  -9.055  1.00  0.00     0.120 C 
ATOM     28  C   UNL     1      -6.691  92.113  -6.796  1.00  0.00     0.014 C 
ATOM     29  C   UNL     1      -5.362  93.570  -8.318  1.00  0.00     0.014 C 
ENDROOT
BRANCH   1  30
ATOM     30  C   UNL     1      -4.784  83.043  -8.576  1.00  0.00     0.048 C 
ATOM     31  O   UNL     1      -4.526  82.726  -7.384  1.00  0.00    -0.550 OA
ATOM     32  O   UNL     1      -3.891  82.668  -9.570  1.00  0.00    -0.550 OA
ENDBRANCH   1  30
BRANCH  27  33
ATOM     33  O   UNL     1      -8.333  93.804  -8.365  1.00  0.00    -0.393 OA
ATOM     34  H   UNL     1      -8.558  94.514  -9.021  1.00  0.00     0.210 HD
ENDBRANCH  27  33
TORSDOF 2
ENDMDL
