MODEL 1
REMARK VINA RESULT:    -3.924      0.000      0.000
REMARK INTER + INTRA:          -4.039
REMARK INTER:                  -4.039
REMARK INTRA:                   0.000
REMARK UNBOUND:                 0.000
REMARK SMILES CC1(C)[C@H]2CC[C@](C)(C2)[C@@H]1O
REMARK SMILES IDX 1 1 2 2 4 3 5 4 6 5 7 6 9 7 10 8 8 9 3 10 11 11
REMARK H PARENT 11 12
REMARK Flexibility Score: inf
ROOT
ATOM      1  C   UNL     1     117.439 116.119 113.162  1.00  0.00     0.014 C 
ATOM      2  C   UNL     1     116.213 115.186 112.971  1.00  0.00    -0.006 C 
ATOM      3  C   UNL     1     115.025 115.992 112.340  1.00  0.00    -0.002 C 
ATOM      4  C   UNL     1     113.891 115.052 111.876  1.00  0.00     0.005 C 
ATOM      5  C   UNL     1     113.323 114.520 113.201  1.00  0.00     0.010 C 
ATOM      6  C   UNL     1     114.143 115.294 114.262  1.00  0.00    -0.006 C 
ATOM      7  C   UNL     1     114.364 116.617 113.557  1.00  0.00     0.013 C 
ATOM      8  C   UNL     1     115.578 114.688 114.315  1.00  0.00     0.126 C 
ATOM      9  C   UNL     1     113.425 115.403 115.614  1.00  0.00     0.014 C 
ATOM     10  C   UNL     1     116.681 113.994 112.100  1.00  0.00     0.014 C 
ENDROOT
BRANCH   8  11
ATOM     11  O   UNL     1     116.309 115.075 115.459  1.00  0.00    -0.392 OA
ATOM     12  H   UNL     1     115.680 115.206 116.214  1.00  0.00     0.211 HD
ENDBRANCH   8  11
TORSDOF 1
ENDMDL
MODEL 2
REMARK VINA RESULT:    -3.923      2.734      5.007
REMARK INTER + INTRA:          -4.038
REMARK INTER:                  -4.038
REMARK INTRA:                   0.000
REMARK UNBOUND:                 0.000
REMARK SMILES CC1(C)[C@H]2CC[C@](C)(C2)[C@@H]1O
REMARK SMILES IDX 1 1 2 2 4 3 5 4 6 5 7 6 9 7 10 8 8 9 3 10 11 11
REMARK H PARENT 11 12
REMARK Flexibility Score: inf
ROOT
ATOM      1  C   UNL     1     115.769 117.038 113.432  1.00  0.00     0.014 C 
ATOM      2  C   UNL     1     116.982 117.969 113.168  1.00  0.00    -0.006 C 
ATOM      3  C   UNL     1     118.149 117.150 112.516  1.00  0.00    -0.002 C 
ATOM      4  C   UNL     1     119.261 118.080 111.983  1.00  0.00     0.005 C 
ATOM      5  C   UNL     1     119.876 118.652 113.270  1.00  0.00     0.010 C 
ATOM      6  C   UNL     1     119.101 117.905 114.382  1.00  0.00    -0.006 C 
ATOM      7  C   UNL     1     118.859 116.562 113.724  1.00  0.00     0.013 C 
ATOM      8  C   UNL     1     117.665 118.507 114.473  1.00  0.00     0.126 C 
ATOM      9  C   UNL     1     119.869 117.837 115.709  1.00  0.00     0.014 C 
ATOM     10  C   UNL     1     116.476 119.135 112.283  1.00  0.00     0.014 C 
ENDROOT
BRANCH   8  11
ATOM     11  O   UNL     1     116.980 118.149 115.654  1.00  0.00    -0.392 OA
ATOM     12  H   UNL     1     116.285 118.830 115.843  1.00  0.00     0.211 HD
ENDBRANCH   8  11
TORSDOF 1
ENDMDL
MODEL 3
REMARK VINA RESULT:    -3.917      1.532      3.505
REMARK INTER + INTRA:          -4.031
REMARK INTER:                  -4.031
REMARK INTRA:                   0.000
REMARK UNBOUND:                 0.000
REMARK SMILES CC1(C)[C@H]2CC[C@](C)(C2)[C@@H]1O
REMARK SMILES IDX 1 1 2 2 4 3 5 4 6 5 7 6 9 7 10 8 8 9 3 10 11 11
REMARK H PARENT 11 12
REMARK Flexibility Score: inf
ROOT
ATOM      1  C   UNL     1     113.317 115.125 111.907  1.00  0.00     0.014 C 
ATOM      2  C   UNL     1     114.270 115.510 113.070  1.00  0.00    -0.006 C 
ATOM      3  C   UNL     1     114.592 117.043 113.007  1.00  0.00    -0.002 C 
ATOM      4  C   UNL     1     115.302 117.522 114.293  1.00  0.00     0.005 C 
ATOM      5  C   UNL     1     116.678 116.844 114.196  1.00  0.00     0.010 C 
ATOM      6  C   UNL     1     116.617 116.137 112.821  1.00  0.00    -0.006 C 
ATOM      7  C   UNL     1     115.755 117.100 112.031  1.00  0.00     0.013 C 
ATOM      8  C   UNL     1     115.702 114.882 112.951  1.00  0.00     0.126 C 
ATOM      9  C   UNL     1     118.004 115.879 112.217  1.00  0.00     0.014 C 
ATOM     10  C   UNL     1     113.578 115.077 114.386  1.00  0.00     0.014 C 
ENDROOT
BRANCH   8  11
ATOM     11  O   UNL     1     115.832 113.978 111.875  1.00  0.00    -0.392 OA
ATOM     12  H   UNL     1     115.569 114.436 111.036  1.00  0.00     0.211 HD
ENDBRANCH   8  11
TORSDOF 1
ENDMDL
MODEL 4
REMARK VINA RESULT:    -3.916      1.824      3.212
REMARK INTER + INTRA:          -4.031
REMARK INTER:                  -4.031
REMARK INTRA:                   0.000
REMARK UNBOUND:                 0.000
REMARK SMILES CC1(C)[C@H]2CC[C@](C)(C2)[C@@H]1O
REMARK SMILES IDX 1 1 2 2 4 3 5 4 6 5 7 6 9 7 10 8 8 9 3 10 11 11
REMARK H PARENT 11 12
REMARK Flexibility Score: inf
ROOT
ATOM      1  C   UNL     1     118.041 113.199 112.045  1.00  0.00     0.014 C 
ATOM      2  C   UNL     1     117.739 114.589 112.665  1.00  0.00    -0.006 C 
ATOM      3  C   UNL     1     118.060 114.567 114.199  1.00  0.00    -0.002 C 
ATOM      4  C   UNL     1     118.043 115.990 114.799  1.00  0.00     0.005 C 
ATOM      5  C   UNL     1     116.556 116.372 114.731  1.00  0.00     0.010 C 
ATOM      6  C   UNL     1     115.894 115.083 114.187  1.00  0.00    -0.006 C 
ATOM      7  C   UNL     1     116.778 114.015 114.801  1.00  0.00     0.013 C 
ATOM      8  C   UNL     1     116.217 114.965 112.667  1.00  0.00     0.126 C 
ATOM      9  C   UNL     1     114.408 114.969 114.554  1.00  0.00     0.014 C 
ATOM     10  C   UNL     1     118.570 115.630 111.875  1.00  0.00     0.014 C 
ENDROOT
BRANCH   8  11
ATOM     11  O   UNL     1     115.405 114.029 111.991  1.00  0.00    -0.392 OA
ATOM     12  H   UNL     1     114.465 114.344 112.010  1.00  0.00     0.211 HD
ENDBRANCH   8  11
TORSDOF 1
ENDMDL
MODEL 5
REMARK VINA RESULT:    -3.897      2.525      4.046
REMARK INTER + INTRA:          -4.011
REMARK INTER:                  -4.011
REMARK INTRA:                   0.000
REMARK UNBOUND:                 0.000
REMARK SMILES CC1(C)[C@H]2CC[C@](C)(C2)[C@@H]1O
REMARK SMILES IDX 1 1 2 2 4 3 5 4 6 5 7 6 9 7 10 8 8 9 3 10 11 11
REMARK H PARENT 11 12
REMARK Flexibility Score: inf
ROOT
ATOM      1  C   UNL     1     114.569 115.778 113.960  1.00  0.00     0.014 C 
ATOM      2  C   UNL     1     115.766 116.331 113.143  1.00  0.00    -0.006 C 
ATOM      3  C   UNL     1     116.671 117.223 114.063  1.00  0.00    -0.002 C 
ATOM      4  C   UNL     1     118.011 117.562 113.375  1.00  0.00     0.005 C 
ATOM      5  C   UNL     1     117.585 118.505 112.240  1.00  0.00     0.010 C 
ATOM      6  C   UNL     1     116.063 118.662 112.476  1.00  0.00    -0.006 C 
ATOM      7  C   UNL     1     115.989 118.579 113.988  1.00  0.00     0.013 C 
ATOM      8  C   UNL     1     115.355 117.349 112.023  1.00  0.00     0.126 C 
ATOM      9  C   UNL     1     115.492 119.956 111.880  1.00  0.00     0.014 C 
ATOM     10  C   UNL     1     116.508 115.112 112.542  1.00  0.00     0.014 C 
ENDROOT
BRANCH   8  11
ATOM     11  O   UNL     1     113.958 117.488 111.875  1.00  0.00    -0.392 OA
ATOM     12  H   UNL     1     113.615 118.083 112.590  1.00  0.00     0.211 HD
ENDBRANCH   8  11
TORSDOF 1
ENDMDL
MODEL 6
REMARK VINA RESULT:    -3.888      2.790      4.576
REMARK INTER + INTRA:          -4.002
REMARK INTER:                  -4.002
REMARK INTRA:                   0.000
REMARK UNBOUND:                 0.000
REMARK SMILES CC1(C)[C@H]2CC[C@](C)(C2)[C@@H]1O
REMARK SMILES IDX 1 1 2 2 4 3 5 4 6 5 7 6 9 7 10 8 8 9 3 10 11 11
REMARK H PARENT 11 12
REMARK Flexibility Score: inf
ROOT
ATOM      1  C   UNL     1     114.755 119.266 113.450  1.00  0.00     0.014 C 
ATOM      2  C   UNL     1     115.616 118.000 113.194  1.00  0.00    -0.006 C 
ATOM      3  C   UNL     1     116.218 117.485 114.548  1.00  0.00    -0.002 C 
ATOM      4  C   UNL     1     116.844 116.083 114.388  1.00  0.00     0.005 C 
ATOM      5  C   UNL     1     118.074 116.355 113.507  1.00  0.00     0.010 C 
ATOM      6  C   UNL     1     118.051 117.894 113.351  1.00  0.00    -0.006 C 
ATOM      7  C   UNL     1     117.481 118.319 114.689  1.00  0.00     0.013 C 
ATOM      8  C   UNL     1     116.912 118.273 112.355  1.00  0.00     0.126 C 
ATOM      9  C   UNL     1     119.429 118.487 113.027  1.00  0.00     0.014 C 
ATOM     10  C   UNL     1     114.703 116.965 112.491  1.00  0.00     0.014 C 
ENDROOT
BRANCH   8  11
ATOM     11  O   UNL     1     117.003 119.596 111.875  1.00  0.00    -0.392 OA
ATOM     12  H   UNL     1     117.109 119.576 110.890  1.00  0.00     0.211 HD
ENDBRANCH   8  11
TORSDOF 1
ENDMDL
MODEL 7
REMARK VINA RESULT:    -3.859      1.664      2.683
REMARK INTER + INTRA:          -3.972
REMARK INTER:                  -3.972
REMARK INTRA:                   0.000
REMARK UNBOUND:                 0.000
REMARK SMILES CC1(C)[C@H]2CC[C@](C)(C2)[C@@H]1O
REMARK SMILES IDX 1 1 2 2 4 3 5 4 6 5 7 6 9 7 10 8 8 9 3 10 11 11
REMARK H PARENT 11 12
REMARK Flexibility Score: inf
ROOT
ATOM      1  C   UNL     1     117.151 114.711 114.069  1.00  0.00     0.014 C 
ATOM      2  C   UNL     1     116.586 115.873 113.211  1.00  0.00    -0.006 C 
ATOM      3  C   UNL     1     115.651 116.776 114.088  1.00  0.00    -0.002 C 
ATOM      4  C   UNL     1     115.293 118.090 113.361  1.00  0.00     0.005 C 
ATOM      5  C   UNL     1     114.387 117.612 112.216  1.00  0.00     0.010 C 
ATOM      6  C   UNL     1     114.264 116.093 112.486  1.00  0.00    -0.006 C 
ATOM      7  C   UNL     1     114.315 116.057 114.000  1.00  0.00     0.013 C 
ATOM      8  C   UNL     1     115.605 115.409 112.079  1.00  0.00     0.126 C 
ATOM      9  C   UNL     1     112.999 115.474 111.875  1.00  0.00     0.014 C 
ATOM     10  C   UNL     1     117.800 116.633 112.619  1.00  0.00     0.014 C 
ENDROOT
BRANCH   8  11
ATOM     11  O   UNL     1     115.506 114.006 111.962  1.00  0.00    -0.392 OA
ATOM     12  H   UNL     1     115.749 113.742 111.038  1.00  0.00     0.211 HD
ENDBRANCH   8  11
TORSDOF 1
ENDMDL
MODEL 8
REMARK VINA RESULT:    -1.650      2.683      3.947
REMARK INTER + INTRA:          -1.698
REMARK INTER:                  -1.698
REMARK INTRA:                   0.000
REMARK UNBOUND:                 0.000
REMARK SMILES CC1(C)[C@H]2CC[C@](C)(C2)[C@@H]1O
REMARK SMILES IDX 1 1 2 2 4 3 5 4 6 5 7 6 9 7 10 8 8 9 3 10 11 11
REMARK H PARENT 11 12
REMARK Flexibility Score: inf
ROOT
ATOM      1  C   UNL     1     117.864 116.150 112.310  1.00  0.00     0.014 C 
ATOM      2  C   UNL     1     117.088 117.054 113.304  1.00  0.00    -0.006 C 
ATOM      3  C   UNL     1     115.548 116.788 113.172  1.00  0.00    -0.002 C 
ATOM      4  C   UNL     1     114.762 117.451 114.324  1.00  0.00     0.005 C 
ATOM      5  C   UNL     1     114.912 118.950 114.024  1.00  0.00     0.010 C 
ATOM      6  C   UNL     1     115.688 118.957 112.685  1.00  0.00    -0.006 C 
ATOM      7  C   UNL     1     115.149 117.703 112.025  1.00  0.00     0.013 C 
ATOM      8  C   UNL     1     117.174 118.584 112.973  1.00  0.00     0.126 C 
ATOM      9  C   UNL     1     115.479 120.243 111.875  1.00  0.00     0.014 C 
ATOM     10  C   UNL     1     117.646 116.757 114.718  1.00  0.00     0.014 C 
ENDROOT
BRANCH   8  11
ATOM     11  O   UNL     1     118.045 118.879 111.902  1.00  0.00    -0.392 OA
ATOM     12  H   UNL     1     117.511 118.995 111.075  1.00  0.00     0.211 HD
ENDBRANCH   8  11
TORSDOF 1
ENDMDL
