MODEL 1
REMARK VINA RESULT:    -5.412      0.000      0.000
REMARK INTER + INTRA:          -9.442
REMARK INTER:                  -7.468
REMARK INTRA:                  -1.973
REMARK UNBOUND:                -1.973
REMARK SMILES CC[C@H](CC[C@H](C)[C@@H]1CC[C@@H]2[C@@H]3CC=C4C[C@H](O)CC[C@]4(C)[C@H]3CC[C@@]21C)C(C)C
REMARK SMILES IDX 5 1 4 2 3 3 2 4 1 5 28 6 29 7 30 8 6 9 7 10 8 11 9 12 26 13
REMARK SMILES IDX 10 14 11 15 25 16 27 17 12 18 24 19 23 20 13 21 21 22 14 23
REMARK SMILES IDX 15 24 20 25 22 26 16 27 19 28 17 29 18 30
REMARK H PARENT 18 31
REMARK Flexibility Score: inf
ROOT
ATOM      1  C   UNL     1      -1.686 -12.194 -39.867  1.00  0.00     0.004 C 
ENDROOT
BRANCH   1   2
ATOM      2  C   UNL     1      -0.442 -11.269 -39.987  1.00  0.00     0.004 C 
BRANCH   2   3
ATOM      3  C   UNL     1      -0.527 -10.239 -41.161  1.00  0.00    -0.009 C 
BRANCH   3   4
ATOM      4  C   UNL     1      -0.477  -8.796 -40.564  1.00  0.00     0.000 C 
ATOM      5  C   UNL     1      -0.847  -8.685 -39.081  1.00  0.00     0.004 C 
ENDBRANCH   3   4
BRANCH   3   6
ATOM      6  C   UNL     1       0.528 -10.491 -42.308  1.00  0.00    -0.014 C 
ATOM      7  C   UNL     1       1.693 -11.389 -41.846  1.00  0.00     0.007 C 
ATOM      8  C   UNL     1       1.153  -9.189 -42.849  1.00  0.00     0.007 C 
ENDBRANCH   3   6
ENDBRANCH   2   3
ENDBRANCH   1   2
BRANCH   1   9
ATOM      9  C   UNL     1      -3.083 -11.510 -39.724  1.00  0.00    -0.011 C 
ATOM     10  C   UNL     1      -3.712 -11.741 -38.335  1.00  0.00     0.008 C 
BRANCH   9  11
ATOM     11  C   UNL     1      -4.134 -11.745 -40.876  1.00  0.00    -0.002 C 
ATOM     12  C   UNL     1      -3.665 -12.476 -42.123  1.00  0.00     0.005 C 
ATOM     13  C   UNL     1      -4.937 -10.509 -41.392  1.00  0.00    -0.026 C 
ATOM     14  C   UNL     1      -4.801 -12.303 -43.126  1.00  0.00     0.005 C 
ATOM     15  C   UNL     1      -5.605 -11.049 -42.695  1.00  0.00    -0.001 C 
ATOM     16  C   UNL     1      -4.069  -9.225 -41.677  1.00  0.00     0.007 C 
ATOM     17  C   UNL     1      -6.026 -10.128 -40.356  1.00  0.00     0.012 C 
ATOM     18  C   UNL     1      -5.754  -9.951 -43.784  1.00  0.00     0.000 C 
ATOM     19  C   UNL     1      -3.398  -9.178 -43.063  1.00  0.00     0.005 C 
ATOM     20  C   UNL     1      -4.390  -9.385 -44.253  1.00  0.00     0.003 C 
ATOM     21  C   UNL     1      -6.569 -10.435 -44.989  1.00  0.00     0.031 C 
ATOM     22  C   UNL     1      -4.590  -8.142 -45.204  1.00  0.00    -0.008 C 
ATOM     23  C   UNL     1      -6.622  -9.399 -46.079  1.00  0.00    -0.027 C 
ATOM     24  C   UNL     1      -5.687  -8.434 -46.247  1.00  0.00    -0.065 C 
ATOM     25  C   UNL     1      -3.251  -7.867 -45.964  1.00  0.00     0.014 C 
ATOM     26  C   UNL     1      -5.018  -6.879 -44.397  1.00  0.00     0.016 C 
ATOM     27  C   UNL     1      -5.811  -7.509 -47.445  1.00  0.00     0.063 C 
ATOM     28  C   UNL     1      -3.381  -6.891 -47.147  1.00  0.00     0.033 C 
ATOM     29  C   UNL     1      -4.458  -7.337 -48.145  1.00  0.00     0.118 C 
BRANCH  29  30
ATOM     30  O   UNL     1      -4.068  -8.546 -48.749  1.00  0.00    -0.393 OA
ATOM     31  H   UNL     1      -4.894  -9.083 -48.886  1.00  0.00     0.210 HD
ENDBRANCH  29  30
ENDBRANCH   9  11
ENDBRANCH   1   9
TORSDOF 7
ENDMDL
MODEL 2
REMARK VINA RESULT:    -5.378     11.495     14.657
REMARK INTER + INTRA:          -9.394
REMARK INTER:                  -7.605
REMARK INTRA:                  -1.789
REMARK UNBOUND:                -1.973
REMARK SMILES CC[C@H](CC[C@H](C)[C@@H]1CC[C@@H]2[C@@H]3CC=C4C[C@H](O)CC[C@]4(C)[C@H]3CC[C@@]21C)C(C)C
REMARK SMILES IDX 5 1 4 2 3 3 2 4 1 5 28 6 29 7 30 8 6 9 7 10 8 11 9 12 26 13
REMARK SMILES IDX 10 14 11 15 25 16 27 17 12 18 24 19 23 20 13 21 21 22 14 23
REMARK SMILES IDX 15 24 20 25 22 26 16 27 19 28 17 29 18 30
REMARK H PARENT 18 31
REMARK Flexibility Score: inf
ROOT
ATOM      1  C   UNL     1       0.358 -25.666 -43.472  1.00  0.00     0.004 C 
ENDROOT
BRANCH   1   2
ATOM      2  C   UNL     1       0.597 -26.685 -44.623  1.00  0.00     0.004 C 
BRANCH   2   3
ATOM      3  C   UNL     1       1.862 -26.380 -45.490  1.00  0.00    -0.009 C 
BRANCH   3   4
ATOM      4  C   UNL     1       1.495 -26.574 -46.995  1.00  0.00     0.000 C 
ATOM      5  C   UNL     1       0.012 -26.394 -47.338  1.00  0.00     0.004 C 
ENDBRANCH   3   4
BRANCH   3   6
ATOM      6  C   UNL     1       2.532 -24.986 -45.172  1.00  0.00    -0.014 C 
ATOM      7  C   UNL     1       2.778 -24.151 -46.443  1.00  0.00     0.007 C 
ATOM      8  C   UNL     1       3.889 -25.119 -44.452  1.00  0.00     0.007 C 
ENDBRANCH   3   6
ENDBRANCH   2   3
ENDBRANCH   1   2
BRANCH   1   9
ATOM      9  C   UNL     1      -1.008 -24.910 -43.450  1.00  0.00    -0.011 C 
ATOM     10  C   UNL     1      -2.045 -25.540 -44.401  1.00  0.00     0.008 C 
BRANCH   9  11
ATOM     11  C   UNL     1      -0.978 -23.340 -43.592  1.00  0.00    -0.002 C 
ATOM     12  C   UNL     1      -0.085 -22.743 -44.667  1.00  0.00     0.005 C 
ATOM     13  C   UNL     1      -0.705 -22.497 -42.305  1.00  0.00    -0.026 C 
ATOM     14  C   UNL     1      -0.067 -21.248 -44.373  1.00  0.00     0.005 C 
ATOM     15  C   UNL     1      -0.435 -21.071 -42.876  1.00  0.00    -0.001 C 
ATOM     16  C   UNL     1       0.497 -23.004 -41.423  1.00  0.00     0.007 C 
ATOM     17  C   UNL     1      -1.976 -22.481 -41.416  1.00  0.00     0.012 C 
ATOM     18  C   UNL     1       0.600 -20.279 -42.030  1.00  0.00     0.000 C 
ATOM     19  C   UNL     1       1.890 -22.509 -41.860  1.00  0.00     0.005 C 
ATOM     20  C   UNL     1       1.993 -20.956 -42.001  1.00  0.00     0.003 C 
ATOM     21  C   UNL     1       0.729 -18.820 -42.485  1.00  0.00     0.031 C 
ATOM     22  C   UNL     1       2.951 -20.235 -40.975  1.00  0.00    -0.008 C 
ATOM     23  C   UNL     1       1.803 -18.092 -41.724  1.00  0.00    -0.027 C 
ATOM     24  C   UNL     1       2.857 -18.705 -41.135  1.00  0.00    -0.065 C 
ATOM     25  C   UNL     1       4.424 -20.670 -41.271  1.00  0.00     0.014 C 
ATOM     26  C   UNL     1       2.572 -20.590 -39.506  1.00  0.00     0.016 C 
ATOM     27  C   UNL     1       3.920 -17.843 -40.479  1.00  0.00     0.063 C 
ATOM     28  C   UNL     1       5.492 -19.816 -40.561  1.00  0.00     0.033 C 
ATOM     29  C   UNL     1       5.325 -18.321 -40.862  1.00  0.00     0.118 C 
BRANCH  29  30
ATOM     30  O   UNL     1       5.561 -18.086 -42.229  1.00  0.00    -0.393 OA
ATOM     31  H   UNL     1       4.766 -17.604 -42.583  1.00  0.00     0.210 HD
ENDBRANCH  29  30
ENDBRANCH   9  11
ENDBRANCH   1   9
TORSDOF 7
ENDMDL
MODEL 3
REMARK VINA RESULT:    -5.025      1.546      2.186
REMARK INTER + INTRA:          -8.908
REMARK INTER:                  -6.932
REMARK INTRA:                  -1.976
REMARK UNBOUND:                -1.973
REMARK SMILES CC[C@H](CC[C@H](C)[C@@H]1CC[C@@H]2[C@@H]3CC=C4C[C@H](O)CC[C@]4(C)[C@H]3CC[C@@]21C)C(C)C
REMARK SMILES IDX 5 1 4 2 3 3 2 4 1 5 28 6 29 7 30 8 6 9 7 10 8 11 9 12 26 13
REMARK SMILES IDX 10 14 11 15 25 16 27 17 12 18 24 19 23 20 13 21 21 22 14 23
REMARK SMILES IDX 15 24 20 25 22 26 16 27 19 28 17 29 18 30
REMARK H PARENT 18 31
REMARK Flexibility Score: inf
ROOT
ATOM      1  C   UNL     1      -4.800 -11.698 -39.184  1.00  0.00     0.004 C 
ENDROOT
BRANCH   1   2
ATOM      2  C   UNL     1      -3.438 -10.966 -39.015  1.00  0.00     0.004 C 
BRANCH   2   3
ATOM      3  C   UNL     1      -2.869 -10.368 -40.344  1.00  0.00    -0.009 C 
BRANCH   3   4
ATOM      4  C   UNL     1      -2.582  -8.849 -40.126  1.00  0.00     0.000 C 
ATOM      5  C   UNL     1      -1.122  -8.492 -39.828  1.00  0.00     0.004 C 
ENDBRANCH   3   4
BRANCH   3   6
ATOM      6  C   UNL     1      -1.642 -11.171 -40.929  1.00  0.00    -0.014 C 
ATOM      7  C   UNL     1      -1.870 -11.610 -42.389  1.00  0.00     0.007 C 
ATOM      8  C   UNL     1      -1.315 -12.444 -40.124  1.00  0.00     0.007 C 
ENDBRANCH   3   6
ENDBRANCH   2   3
ENDBRANCH   1   2
BRANCH   1   9
ATOM      9  C   UNL     1      -5.982 -10.889 -39.808  1.00  0.00    -0.011 C 
ATOM     10  C   UNL     1      -7.177 -10.755 -38.844  1.00  0.00     0.008 C 
BRANCH   9  11
ATOM     11  C   UNL     1      -6.455 -11.287 -41.258  1.00  0.00    -0.002 C 
ATOM     12  C   UNL     1      -5.521 -12.143 -42.098  1.00  0.00     0.005 C 
ATOM     13  C   UNL     1      -6.941 -10.145 -42.205  1.00  0.00    -0.026 C 
ATOM     14  C   UNL     1      -6.126 -12.122 -43.497  1.00  0.00     0.005 C 
ATOM     15  C   UNL     1      -7.011 -10.852 -43.595  1.00  0.00    -0.001 C 
ATOM     16  C   UNL     1      -6.008  -8.877 -42.248  1.00  0.00     0.007 C 
ATOM     17  C   UNL     1      -8.357  -9.681 -41.774  1.00  0.00     0.012 C 
ATOM     18  C   UNL     1      -6.666  -9.893 -44.767  1.00  0.00     0.000 C 
ATOM     19  C   UNL     1      -4.816  -8.969 -43.220  1.00  0.00     0.005 C 
ATOM     20  C   UNL     1      -5.220  -9.343 -44.683  1.00  0.00     0.003 C 
ATOM     21  C   UNL     1      -6.909 -10.537 -46.136  1.00  0.00     0.031 C 
ATOM     22  C   UNL     1      -4.975  -8.224 -45.770  1.00  0.00    -0.008 C 
ATOM     23  C   UNL     1      -6.478  -9.636 -47.261  1.00  0.00    -0.027 C 
ATOM     24  C   UNL     1      -5.539  -8.669 -47.134  1.00  0.00    -0.065 C 
ATOM     25  C   UNL     1      -3.436  -7.998 -45.924  1.00  0.00     0.014 C 
ATOM     26  C   UNL     1      -5.677  -6.890 -45.372  1.00  0.00     0.016 C 
ATOM     27  C   UNL     1      -5.129  -7.893 -48.373  1.00  0.00     0.063 C 
ATOM     28  C   UNL     1      -3.037  -7.169 -47.159  1.00  0.00     0.033 C 
ATOM     29  C   UNL     1      -3.603  -7.761 -48.456  1.00  0.00     0.118 C 
BRANCH  29  30
ATOM     30  O   UNL     1      -3.021  -9.019 -48.693  1.00  0.00    -0.393 OA
ATOM     31  H   UNL     1      -2.556  -8.965 -49.570  1.00  0.00     0.210 HD
ENDBRANCH  29  30
ENDBRANCH   9  11
ENDBRANCH   1   9
TORSDOF 7
ENDMDL
MODEL 4
REMARK VINA RESULT:    -4.983      8.524     11.904
REMARK INTER + INTRA:          -8.850
REMARK INTER:                  -7.271
REMARK INTRA:                  -1.578
REMARK UNBOUND:                -1.973
REMARK SMILES CC[C@H](CC[C@H](C)[C@@H]1CC[C@@H]2[C@@H]3CC=C4C[C@H](O)CC[C@]4(C)[C@H]3CC[C@@]21C)C(C)C
REMARK SMILES IDX 5 1 4 2 3 3 2 4 1 5 28 6 29 7 30 8 6 9 7 10 8 11 9 12 26 13
REMARK SMILES IDX 10 14 11 15 25 16 27 17 12 18 24 19 23 20 13 21 21 22 14 23
REMARK SMILES IDX 15 24 20 25 22 26 16 27 19 28 17 29 18 30
REMARK H PARENT 18 31
REMARK Flexibility Score: inf
ROOT
ATOM      1  C   UNL     1       4.279 -16.610 -32.365  1.00  0.00     0.004 C 
ENDROOT
BRANCH   1   2
ATOM      2  C   UNL     1       5.596 -17.412 -32.159  1.00  0.00     0.004 C 
BRANCH   2   3
ATOM      3  C   UNL     1       6.491 -17.503 -33.438  1.00  0.00    -0.009 C 
BRANCH   3   4
ATOM      4  C   UNL     1       7.817 -16.722 -33.176  1.00  0.00     0.000 C 
ATOM      5  C   UNL     1       8.544 -17.079 -31.875  1.00  0.00     0.004 C 
ENDBRANCH   3   4
BRANCH   3   6
ATOM      6  C   UNL     1       6.711 -18.978 -33.958  1.00  0.00    -0.014 C 
ATOM      7  C   UNL     1       5.712 -19.365 -35.066  1.00  0.00     0.007 C 
ATOM      8  C   UNL     1       6.578 -20.036 -32.844  1.00  0.00     0.007 C 
ENDBRANCH   3   6
ENDBRANCH   2   3
ENDBRANCH   1   2
BRANCH   1   9
ATOM      9  C   UNL     1       2.947 -17.420 -32.452  1.00  0.00    -0.011 C 
ATOM     10  C   UNL     1       3.119 -18.886 -32.006  1.00  0.00     0.008 C 
BRANCH   9  11
ATOM     11  C   UNL     1       2.116 -17.320 -33.789  1.00  0.00    -0.002 C 
ATOM     12  C   UNL     1       2.791 -16.691 -34.997  1.00  0.00     0.005 C 
ATOM     13  C   UNL     1       0.697 -16.671 -33.718  1.00  0.00    -0.026 C 
ATOM     14  C   UNL     1       1.671 -16.497 -36.012  1.00  0.00     0.005 C 
ATOM     15  C   UNL     1       0.337 -16.459 -35.221  1.00  0.00    -0.001 C 
ATOM     16  C   UNL     1       0.624 -15.322 -32.909  1.00  0.00     0.007 C 
ATOM     17  C   UNL     1      -0.298 -17.671 -33.071  1.00  0.00     0.012 C 
ATOM     18  C   UNL     1      -0.532 -15.192 -35.450  1.00  0.00     0.000 C 
ATOM     19  C   UNL     1       0.996 -14.056 -33.705  1.00  0.00     0.005 C 
ATOM     20  C   UNL     1       0.193 -13.887 -35.035  1.00  0.00     0.003 C 
ATOM     21  C   UNL     1      -1.033 -15.083 -36.895  1.00  0.00     0.031 C 
ATOM     22  C   UNL     1      -0.788 -12.652 -35.092  1.00  0.00    -0.008 C 
ATOM     23  C   UNL     1      -1.789 -13.804 -37.128  1.00  0.00    -0.027 C 
ATOM     24  C   UNL     1      -1.611 -12.679 -36.395  1.00  0.00    -0.065 C 
ATOM     25  C   UNL     1       0.056 -11.336 -35.073  1.00  0.00     0.014 C 
ATOM     26  C   UNL     1      -1.784 -12.668 -33.894  1.00  0.00     0.016 C 
ATOM     27  C   UNL     1      -2.371 -11.428 -36.797  1.00  0.00     0.063 C 
ATOM     28  C   UNL     1      -0.738 -10.067 -35.436  1.00  0.00     0.033 C 
ATOM     29  C   UNL     1      -1.450 -10.202 -36.788  1.00  0.00     0.118 C 
BRANCH  29  30
ATOM     30  O   UNL     1      -0.495 -10.307 -37.815  1.00  0.00    -0.393 OA
ATOM     31  H   UNL     1      -0.793 -11.041 -38.417  1.00  0.00     0.210 HD
ENDBRANCH  29  30
ENDBRANCH   9  11
ENDBRANCH   1   9
TORSDOF 7
ENDMDL
MODEL 5
REMARK VINA RESULT:    -4.968      3.370      6.199
REMARK INTER + INTRA:          -8.829
REMARK INTER:                  -7.107
REMARK INTRA:                  -1.722
REMARK UNBOUND:                -1.973
REMARK SMILES CC[C@H](CC[C@H](C)[C@@H]1CC[C@@H]2[C@@H]3CC=C4C[C@H](O)CC[C@]4(C)[C@H]3CC[C@@]21C)C(C)C
REMARK SMILES IDX 5 1 4 2 3 3 2 4 1 5 28 6 29 7 30 8 6 9 7 10 8 11 9 12 26 13
REMARK SMILES IDX 10 14 11 15 25 16 27 17 12 18 24 19 23 20 13 21 21 22 14 23
REMARK SMILES IDX 15 24 20 25 22 26 16 27 19 28 17 29 18 30
REMARK H PARENT 18 31
REMARK Flexibility Score: inf
ROOT
ATOM      1  C   UNL     1      -3.354 -13.298 -35.798  1.00  0.00     0.004 C 
ENDROOT
BRANCH   1   2
ATOM      2  C   UNL     1      -3.150 -13.364 -34.257  1.00  0.00     0.004 C 
BRANCH   2   3
ATOM      3  C   UNL     1      -2.856 -11.978 -33.595  1.00  0.00    -0.009 C 
BRANCH   3   4
ATOM      4  C   UNL     1      -4.030 -11.628 -32.626  1.00  0.00     0.000 C 
ATOM      5  C   UNL     1      -4.895 -12.814 -32.187  1.00  0.00     0.004 C 
ENDBRANCH   3   4
BRANCH   3   6
ATOM      6  C   UNL     1      -1.428 -11.880 -32.928  1.00  0.00    -0.014 C 
ATOM      7  C   UNL     1      -0.362 -11.339 -33.900  1.00  0.00     0.007 C 
ATOM      8  C   UNL     1      -0.913 -13.237 -32.406  1.00  0.00     0.007 C 
ENDBRANCH   3   6
ENDBRANCH   2   3
ENDBRANCH   1   2
BRANCH   1   9
ATOM      9  C   UNL     1      -2.141 -13.683 -36.703  1.00  0.00    -0.011 C 
ATOM     10  C   UNL     1      -1.105 -14.552 -35.961  1.00  0.00     0.008 C 
BRANCH   9  11
ATOM     11  C   UNL     1      -1.443 -12.530 -37.521  1.00  0.00    -0.002 C 
ATOM     12  C   UNL     1      -1.814 -11.095 -37.180  1.00  0.00     0.005 C 
ATOM     13  C   UNL     1      -1.485 -12.614 -39.080  1.00  0.00    -0.026 C 
ATOM     14  C   UNL     1      -1.199 -10.259 -38.296  1.00  0.00     0.005 C 
ATOM     15  C   UNL     1      -1.003 -11.195 -39.516  1.00  0.00    -0.001 C 
ATOM     16  C   UNL     1      -2.896 -12.958 -39.688  1.00  0.00     0.007 C 
ATOM     17  C   UNL     1      -0.479 -13.689 -39.568  1.00  0.00     0.012 C 
ATOM     18  C   UNL     1      -1.679 -10.718 -40.832  1.00  0.00     0.000 C 
ATOM     19  C   UNL     1      -3.842 -11.757 -39.879  1.00  0.00     0.005 C 
ATOM     20  C   UNL     1      -3.216 -10.584 -40.700  1.00  0.00     0.003 C 
ATOM     21  C   UNL     1      -1.075  -9.409 -41.354  1.00  0.00     0.031 C 
ATOM     22  C   UNL     1      -3.882 -10.295 -42.101  1.00  0.00    -0.008 C 
ATOM     23  C   UNL     1      -1.801  -8.906 -42.571  1.00  0.00    -0.027 C 
ATOM     24  C   UNL     1      -3.089  -9.212 -42.860  1.00  0.00    -0.065 C 
ATOM     25  C   UNL     1      -5.336  -9.768 -41.870  1.00  0.00     0.014 C 
ATOM     26  C   UNL     1      -3.910 -11.578 -42.986  1.00  0.00     0.016 C 
ATOM     27  C   UNL     1      -3.732  -8.561 -44.071  1.00  0.00     0.063 C 
ATOM     28  C   UNL     1      -5.994  -9.153 -43.120  1.00  0.00     0.033 C 
ATOM     29  C   UNL     1      -5.134  -8.040 -43.733  1.00  0.00     0.118 C 
BRANCH  29  30
ATOM     30  O   UNL     1      -5.047  -6.963 -42.834  1.00  0.00    -0.393 OA
ATOM     31  H   UNL     1      -5.218  -7.327 -41.925  1.00  0.00     0.210 HD
ENDBRANCH  29  30
ENDBRANCH   9  11
ENDBRANCH   1   9
TORSDOF 7
ENDMDL
MODEL 6
REMARK VINA RESULT:    -4.967      2.374      3.837
REMARK INTER + INTRA:          -8.828
REMARK INTER:                  -7.385
REMARK INTRA:                  -1.443
REMARK UNBOUND:                -1.973
REMARK SMILES CC[C@H](CC[C@H](C)[C@@H]1CC[C@@H]2[C@@H]3CC=C4C[C@H](O)CC[C@]4(C)[C@H]3CC[C@@]21C)C(C)C
REMARK SMILES IDX 5 1 4 2 3 3 2 4 1 5 28 6 29 7 30 8 6 9 7 10 8 11 9 12 26 13
REMARK SMILES IDX 10 14 11 15 25 16 27 17 12 18 24 19 23 20 13 21 21 22 14 23
REMARK SMILES IDX 15 24 20 25 22 26 16 27 19 28 17 29 18 30
REMARK H PARENT 18 31
REMARK Flexibility Score: inf
ROOT
ATOM      1  C   UNL     1      -1.232  -9.567 -41.611  1.00  0.00     0.004 C 
ENDROOT
BRANCH   1   2
ATOM      2  C   UNL     1       0.009 -10.192 -40.912  1.00  0.00     0.004 C 
BRANCH   2   3
ATOM      3  C   UNL     1       0.115 -11.743 -41.074  1.00  0.00    -0.009 C 
BRANCH   3   4
ATOM      4  C   UNL     1       1.619 -12.126 -41.247  1.00  0.00     0.000 C 
ATOM      5  C   UNL     1       2.478 -11.097 -41.990  1.00  0.00     0.004 C 
ENDBRANCH   3   4
BRANCH   3   6
ATOM      6  C   UNL     1      -0.621 -12.554 -39.936  1.00  0.00    -0.014 C 
ATOM      7  C   UNL     1      -1.848 -13.323 -40.464  1.00  0.00     0.007 C 
ATOM      8  C   UNL     1      -1.115 -11.659 -38.781  1.00  0.00     0.007 C 
ENDBRANCH   3   6
ENDBRANCH   2   3
ENDBRANCH   1   2
BRANCH   1   9
ATOM      9  C   UNL     1      -2.124  -8.600 -40.768  1.00  0.00    -0.011 C 
ATOM     10  C   UNL     1      -1.428  -8.136 -39.473  1.00  0.00     0.008 C 
BRANCH   9  11
ATOM     11  C   UNL     1      -3.615  -9.032 -40.496  1.00  0.00    -0.002 C 
ATOM     12  C   UNL     1      -3.950 -10.513 -40.572  1.00  0.00     0.005 C 
ATOM     13  C   UNL     1      -4.742  -8.307 -41.298  1.00  0.00    -0.026 C 
ATOM     14  C   UNL     1      -5.472 -10.571 -40.535  1.00  0.00     0.005 C 
ATOM     15  C   UNL     1      -5.995  -9.192 -41.013  1.00  0.00    -0.001 C 
ATOM     16  C   UNL     1      -4.472  -8.168 -42.844  1.00  0.00     0.007 C 
ATOM     17  C   UNL     1      -4.956  -6.883 -40.721  1.00  0.00     0.012 C 
ATOM     18  C   UNL     1      -6.976  -9.237 -42.217  1.00  0.00     0.000 C 
ATOM     19  C   UNL     1      -4.863  -9.392 -43.694  1.00  0.00     0.005 C 
ATOM     20  C   UNL     1      -6.339  -9.861 -43.484  1.00  0.00     0.003 C 
ATOM     21  C   UNL     1      -8.286  -9.956 -41.874  1.00  0.00     0.031 C 
ATOM     22  C   UNL     1      -7.293  -9.706 -44.732  1.00  0.00    -0.008 C 
ATOM     23  C   UNL     1      -9.185 -10.080 -43.073  1.00  0.00    -0.027 C 
ATOM     24  C   UNL     1      -8.740 -10.075 -44.352  1.00  0.00    -0.065 C 
ATOM     25  C   UNL     1      -6.816 -10.683 -45.856  1.00  0.00     0.014 C 
ATOM     26  C   UNL     1      -7.293  -8.239 -45.261  1.00  0.00     0.016 C 
ATOM     27  C   UNL     1      -9.745 -10.303 -45.467  1.00  0.00     0.063 C 
ATOM     28  C   UNL     1      -7.824 -10.869 -47.005  1.00  0.00     0.033 C 
ATOM     29  C   UNL     1      -9.203 -11.305 -46.494  1.00  0.00     0.118 C 
BRANCH  29  30
ATOM     30  O   UNL     1      -9.109 -12.585 -45.919  1.00  0.00    -0.393 OA
ATOM     31  H   UNL     1      -9.220 -13.245 -46.655  1.00  0.00     0.210 HD
ENDBRANCH  29  30
ENDBRANCH   9  11
ENDBRANCH   1   9
TORSDOF 7
ENDMDL
MODEL 7
REMARK VINA RESULT:    -4.959      5.246      9.939
REMARK INTER + INTRA:          -8.816
REMARK INTER:                  -7.073
REMARK INTRA:                  -1.743
REMARK UNBOUND:                -1.973
REMARK SMILES CC[C@H](CC[C@H](C)[C@@H]1CC[C@@H]2[C@@H]3CC=C4C[C@H](O)CC[C@]4(C)[C@H]3CC[C@@]21C)C(C)C
REMARK SMILES IDX 5 1 4 2 3 3 2 4 1 5 28 6 29 7 30 8 6 9 7 10 8 11 9 12 26 13
REMARK SMILES IDX 10 14 11 15 25 16 27 17 12 18 24 19 23 20 13 21 21 22 14 23
REMARK SMILES IDX 15 24 20 25 22 26 16 27 19 28 17 29 18 30
REMARK H PARENT 18 31
REMARK Flexibility Score: inf
ROOT
ATOM      1  C   UNL     1      -1.844 -12.372 -41.332  1.00  0.00     0.004 C 
ENDROOT
BRANCH   1   2
ATOM      2  C   UNL     1      -1.708 -11.251 -42.402  1.00  0.00     0.004 C 
BRANCH   2   3
ATOM      3  C   UNL     1      -1.000  -9.958 -41.881  1.00  0.00    -0.009 C 
BRANCH   3   4
ATOM      4  C   UNL     1       0.380  -9.821 -42.598  1.00  0.00     0.000 C 
ATOM      5  C   UNL     1       1.608  -9.976 -41.694  1.00  0.00     0.004 C 
ENDBRANCH   3   4
BRANCH   3   6
ATOM      6  C   UNL     1      -1.896  -8.661 -41.971  1.00  0.00    -0.014 C 
ATOM      7  C   UNL     1      -2.614  -8.351 -40.643  1.00  0.00     0.007 C 
ATOM      8  C   UNL     1      -2.985  -8.754 -43.059  1.00  0.00     0.007 C 
ENDBRANCH   3   6
ENDBRANCH   2   3
ENDBRANCH   1   2
BRANCH   1   9
ATOM      9  C   UNL     1      -3.133 -12.376 -40.451  1.00  0.00    -0.011 C 
ATOM     10  C   UNL     1      -4.301 -11.618 -41.113  1.00  0.00     0.008 C 
BRANCH   9  11
ATOM     11  C   UNL     1      -2.981 -11.983 -38.931  1.00  0.00    -0.002 C 
ATOM     12  C   UNL     1      -1.675 -11.341 -38.493  1.00  0.00     0.005 C 
ATOM     13  C   UNL     1      -3.288 -13.078 -37.861  1.00  0.00    -0.026 C 
ATOM     14  C   UNL     1      -1.735 -11.336 -36.970  1.00  0.00     0.005 C 
ATOM     15  C   UNL     1      -2.734 -12.445 -36.547  1.00  0.00    -0.001 C 
ATOM     16  C   UNL     1      -2.638 -14.484 -38.145  1.00  0.00     0.007 C 
ATOM     17  C   UNL     1      -4.823 -13.277 -37.748  1.00  0.00     0.012 C 
ATOM     18  C   UNL     1      -2.166 -13.510 -35.569  1.00  0.00     0.000 C 
ATOM     19  C   UNL     1      -1.181 -14.644 -37.669  1.00  0.00     0.005 C 
ATOM     20  C   UNL     1      -0.965 -14.287 -36.163  1.00  0.00     0.003 C 
ATOM     21  C   UNL     1      -1.788 -12.909 -34.210  1.00  0.00     0.031 C 
ATOM     22  C   UNL     1      -0.548 -15.488 -35.227  1.00  0.00    -0.008 C 
ATOM     23  C   UNL     1      -1.149 -13.928 -33.308  1.00  0.00    -0.027 C 
ATOM     24  C   UNL     1      -0.501 -15.030 -33.755  1.00  0.00    -0.065 C 
ATOM     25  C   UNL     1       0.880 -15.974 -35.636  1.00  0.00     0.014 C 
ATOM     26  C   UNL     1      -1.566 -16.663 -35.332  1.00  0.00     0.016 C 
ATOM     27  C   UNL     1       0.182 -15.928 -32.740  1.00  0.00     0.063 C 
ATOM     28  C   UNL     1       1.542 -16.923 -34.619  1.00  0.00     0.033 C 
ATOM     29  C   UNL     1       1.589 -16.316 -33.211  1.00  0.00     0.118 C 
BRANCH  29  30
ATOM     30  O   UNL     1       2.427 -15.187 -33.212  1.00  0.00    -0.393 OA
ATOM     31  H   UNL     1       3.353 -15.511 -33.377  1.00  0.00     0.210 HD
ENDBRANCH  29  30
ENDBRANCH   9  11
ENDBRANCH   1   9
TORSDOF 7
ENDMDL
MODEL 8
REMARK VINA RESULT:    -4.901      4.194      7.160
REMARK INTER + INTRA:          -8.737
REMARK INTER:                  -6.654
REMARK INTRA:                  -2.083
REMARK UNBOUND:                -1.973
REMARK SMILES CC[C@H](CC[C@H](C)[C@@H]1CC[C@@H]2[C@@H]3CC=C4C[C@H](O)CC[C@]4(C)[C@H]3CC[C@@]21C)C(C)C
REMARK SMILES IDX 5 1 4 2 3 3 2 4 1 5 28 6 29 7 30 8 6 9 7 10 8 11 9 12 26 13
REMARK SMILES IDX 10 14 11 15 25 16 27 17 12 18 24 19 23 20 13 21 21 22 14 23
REMARK SMILES IDX 15 24 20 25 22 26 16 27 19 28 17 29 18 30
REMARK H PARENT 18 31
REMARK Flexibility Score: inf
ROOT
ATOM      1  C   UNL     1      -1.299 -14.953 -33.918  1.00  0.00     0.004 C 
ENDROOT
BRANCH   1   2
ATOM      2  C   UNL     1      -1.194 -13.969 -32.718  1.00  0.00     0.004 C 
BRANCH   2   3
ATOM      3  C   UNL     1      -0.429 -12.645 -33.047  1.00  0.00    -0.009 C 
BRANCH   3   4
ATOM      4  C   UNL     1       0.391 -12.855 -34.359  1.00  0.00     0.000 C 
ATOM      5  C   UNL     1       1.911 -12.926 -34.181  1.00  0.00     0.004 C 
ENDBRANCH   3   4
BRANCH   3   6
ATOM      6  C   UNL     1      -1.351 -11.364 -33.070  1.00  0.00    -0.014 C 
ATOM      7  C   UNL     1      -2.850 -11.721 -33.095  1.00  0.00     0.007 C 
ATOM      8  C   UNL     1      -1.086 -10.453 -34.285  1.00  0.00     0.007 C 
ENDBRANCH   3   6
ENDBRANCH   2   3
ENDBRANCH   1   2
BRANCH   1   9
ATOM      9  C   UNL     1      -2.700 -15.131 -34.586  1.00  0.00    -0.011 C 
ATOM     10  C   UNL     1      -3.585 -16.147 -33.835  1.00  0.00     0.008 C 
BRANCH   9  11
ATOM     11  C   UNL     1      -2.743 -15.372 -36.143  1.00  0.00    -0.002 C 
ATOM     12  C   UNL     1      -1.427 -15.648 -36.854  1.00  0.00     0.005 C 
ATOM     13  C   UNL     1      -3.481 -14.315 -37.024  1.00  0.00    -0.026 C 
ATOM     14  C   UNL     1      -1.762 -15.564 -38.338  1.00  0.00     0.005 C 
ATOM     15  C   UNL     1      -3.046 -14.705 -38.471  1.00  0.00    -0.001 C 
ATOM     16  C   UNL     1      -3.125 -12.815 -36.698  1.00  0.00     0.007 C 
ATOM     17  C   UNL     1      -5.014 -14.487 -36.866  1.00  0.00     0.012 C 
ATOM     18  C   UNL     1      -2.923 -13.471 -39.407  1.00  0.00     0.000 C 
ATOM     19  C   UNL     1      -1.855 -12.276 -37.383  1.00  0.00     0.005 C 
ATOM     20  C   UNL     1      -1.842 -12.467 -38.934  1.00  0.00     0.003 C 
ATOM     21  C   UNL     1      -2.673 -13.870 -40.866  1.00  0.00     0.031 C 
ATOM     22  C   UNL     1      -1.887 -11.142 -39.789  1.00  0.00    -0.008 C 
ATOM     23  C   UNL     1      -2.457 -12.668 -41.744  1.00  0.00    -0.027 C 
ATOM     24  C   UNL     1      -2.006 -11.474 -41.290  1.00  0.00    -0.065 C 
ATOM     25  C   UNL     1      -0.556 -10.352 -39.566  1.00  0.00     0.014 C 
ATOM     26  C   UNL     1      -3.109 -10.258 -39.394  1.00  0.00     0.016 C 
ATOM     27  C   UNL     1      -1.742 -10.371 -42.298  1.00  0.00     0.063 C 
ATOM     28  C   UNL     1      -0.324  -9.205 -40.566  1.00  0.00     0.033 C 
ATOM     29  C   UNL     1      -0.398  -9.686 -42.021  1.00  0.00     0.118 C 
BRANCH  29  30
ATOM     30  O   UNL     1       0.660 -10.576 -42.278  1.00  0.00    -0.393 OA
ATOM     31  H   UNL     1       0.333 -11.489 -42.058  1.00  0.00     0.210 HD
ENDBRANCH  29  30
ENDBRANCH   9  11
ENDBRANCH   1   9
TORSDOF 7
ENDMDL
MODEL 9
REMARK VINA RESULT:    -4.863      4.331      8.457
REMARK INTER + INTRA:          -8.685
REMARK INTER:                  -6.412
REMARK INTRA:                  -2.273
REMARK UNBOUND:                -1.973
REMARK SMILES CC[C@H](CC[C@H](C)[C@@H]1CC[C@@H]2[C@@H]3CC=C4C[C@H](O)CC[C@]4(C)[C@H]3CC[C@@]21C)C(C)C
REMARK SMILES IDX 5 1 4 2 3 3 2 4 1 5 28 6 29 7 30 8 6 9 7 10 8 11 9 12 26 13
REMARK SMILES IDX 10 14 11 15 25 16 27 17 12 18 24 19 23 20 13 21 21 22 14 23
REMARK SMILES IDX 15 24 20 25 22 26 16 27 19 28 17 29 18 30
REMARK H PARENT 18 31
REMARK Flexibility Score: inf
ROOT
ATOM      1  C   UNL     1      -3.510 -14.342 -33.099  1.00  0.00     0.004 C 
ENDROOT
BRANCH   1   2
ATOM      2  C   UNL     1      -4.072 -15.601 -33.821  1.00  0.00     0.004 C 
BRANCH   2   3
ATOM      3  C   UNL     1      -4.836 -15.284 -35.148  1.00  0.00    -0.009 C 
BRANCH   3   4
ATOM      4  C   UNL     1      -5.207 -13.767 -35.160  1.00  0.00     0.000 C 
ATOM      5  C   UNL     1      -5.769 -13.238 -36.484  1.00  0.00     0.004 C 
ENDBRANCH   3   4
BRANCH   3   6
ATOM      6  C   UNL     1      -4.082 -15.765 -36.449  1.00  0.00    -0.014 C 
ATOM      7  C   UNL     1      -4.901 -16.792 -37.255  1.00  0.00     0.007 C 
ATOM      8  C   UNL     1      -2.718 -16.418 -36.148  1.00  0.00     0.007 C 
ENDBRANCH   3   6
ENDBRANCH   2   3
ENDBRANCH   1   2
BRANCH   1   9
ATOM      9  C   UNL     1      -1.973 -14.081 -33.195  1.00  0.00    -0.011 C 
ATOM     10  C   UNL     1      -1.202 -14.663 -31.993  1.00  0.00     0.008 C 
BRANCH   9  11
ATOM     11  C   UNL     1      -1.500 -12.614 -33.526  1.00  0.00    -0.002 C 
ATOM     12  C   UNL     1      -2.556 -11.521 -33.567  1.00  0.00     0.005 C 
ATOM     13  C   UNL     1      -0.629 -12.402 -34.805  1.00  0.00    -0.026 C 
ATOM     14  C   UNL     1      -1.844 -10.314 -34.166  1.00  0.00     0.005 C 
ATOM     15  C   UNL     1      -0.633 -10.850 -34.973  1.00  0.00    -0.001 C 
ATOM     16  C   UNL     1      -1.161 -13.125 -36.099  1.00  0.00     0.007 C 
ATOM     17  C   UNL     1       0.815 -12.902 -34.538  1.00  0.00     0.012 C 
ATOM     18  C   UNL     1      -0.587 -10.415 -36.464  1.00  0.00     0.000 C 
ATOM     19  C   UNL     1      -2.237 -12.356 -36.889  1.00  0.00     0.005 C 
ATOM     20  C   UNL     1      -1.822 -10.897 -37.266  1.00  0.00     0.003 C 
ATOM     21  C   UNL     1      -0.410  -8.901 -36.623  1.00  0.00     0.031 C 
ATOM     22  C   UNL     1      -1.642 -10.612 -38.808  1.00  0.00    -0.008 C 
ATOM     23  C   UNL     1      -0.466  -8.481 -38.066  1.00  0.00    -0.027 C 
ATOM     24  C   UNL     1      -1.104  -9.185 -39.031  1.00  0.00    -0.065 C 
ATOM     25  C   UNL     1      -3.035 -10.727 -39.508  1.00  0.00     0.014 C 
ATOM     26  C   UNL     1      -0.634 -11.612 -39.451  1.00  0.00     0.016 C 
ATOM     27  C   UNL     1      -1.165  -8.600 -40.431  1.00  0.00     0.063 C 
ATOM     28  C   UNL     1      -3.071 -10.173 -40.944  1.00  0.00     0.033 C 
ATOM     29  C   UNL     1      -2.578  -8.722 -41.014  1.00  0.00     0.118 C 
BRANCH  29  30
ATOM     30  O   UNL     1      -3.465  -7.888 -40.310  1.00  0.00    -0.393 OA
ATOM     31  H   UNL     1      -3.576  -7.059 -40.849  1.00  0.00     0.210 HD
ENDBRANCH  29  30
ENDBRANCH   9  11
ENDBRANCH   1   9
TORSDOF 7
ENDMDL
