MODEL 1
REMARK VINA RESULT:    -5.499      0.000      0.000
REMARK INTER + INTRA:          -6.924
REMARK INTER:                  -6.624
REMARK INTRA:                  -0.300
REMARK UNBOUND:                -0.300
REMARK SMILES Oc1cc(O)c2cc(O)c(-c3ccc(O)c(O)c3)[o+]c2c1
REMARK SMILES IDX 10 1 19 2 20 3 21 4 2 5 3 6 4 7 6 8 7 9 8 10 11 11 12 12
REMARK SMILES IDX 13 13 14 14 18 15 16 16 15 17 17 19 9 21 1 23 5 25
REMARK H PARENT 15 18 17 20 9 22 1 24 5 26
REMARK Flexibility Score: inf
ROOT
ATOM      1  C   UNL     1      -7.573  83.619  -8.754  1.00  0.00     0.402 A 
ATOM      2  O   UNL     1      -8.475  82.659  -8.945  1.00  0.00    -0.202 OA
ATOM      3  C   UNL     1      -9.780  82.892  -9.036  1.00  0.00     0.368 A 
ATOM      4  C   UNL     1     -10.651  81.816  -9.233  1.00  0.00     0.162 A 
ATOM      5  C   UNL     1     -12.026  82.031  -9.329  1.00  0.00     0.128 A 
ATOM      6  C   UNL     1     -12.538  83.330  -9.224  1.00  0.00     0.093 A 
ATOM      7  C   UNL     1     -11.687  84.424  -9.025  1.00  0.00     0.136 A 
ATOM      8  C   UNL     1     -10.287  84.210  -8.931  1.00  0.00     0.125 A 
ATOM      9  C   UNL     1      -9.358  85.247  -8.745  1.00  0.00     0.078 A 
ATOM     10  C   UNL     1      -7.993  84.959  -8.666  1.00  0.00     0.223 A 
ENDROOT
BRANCH   1  11
ATOM     11  C   UNL     1      -6.148  83.231  -8.661  1.00  0.00     0.087 A 
ATOM     12  C   UNL     1      -5.512  83.230  -7.410  1.00  0.00     0.022 A 
ATOM     13  C   UNL     1      -4.162  82.886  -7.302  1.00  0.00     0.051 A 
ATOM     14  C   UNL     1      -3.423  82.555  -8.441  1.00  0.00     0.157 A 
ATOM     15  C   UNL     1      -5.397  82.917  -9.809  1.00  0.00     0.068 A 
ATOM     16  C   UNL     1      -4.042  82.575  -9.703  1.00  0.00     0.158 A 
BRANCH  14  17
ATOM     17  O   UNL     1      -2.078  82.215  -8.302  1.00  0.00    -0.504 OA
ATOM     18  H   UNL     1      -1.524  81.880  -9.082  1.00  0.00     0.293 HD
ENDBRANCH  14  17
BRANCH  16  19
ATOM     19  O   UNL     1      -3.307  82.258 -10.845  1.00  0.00    -0.504 OA
ATOM     20  H   UNL     1      -3.761  82.024 -11.720  1.00  0.00     0.293 HD
ENDBRANCH  16  19
ENDBRANCH   1  11
BRANCH  10  21
ATOM     21  O   UNL     1      -7.066  85.993  -8.532  1.00  0.00    -0.500 OA
ATOM     22  H   UNL     1      -6.321  86.130  -9.205  1.00  0.00     0.294 HD
ENDBRANCH  10  21
BRANCH   5  23
ATOM     23  O   UNL     1     -12.878  80.947  -9.527  1.00  0.00    -0.507 OA
ATOM     24  H   UNL     1     -12.682  80.038  -9.125  1.00  0.00     0.293 HD
ENDBRANCH   5  23
BRANCH   7  25
ATOM     25  O   UNL     1     -12.276  85.688  -8.928  1.00  0.00    -0.507 OA
ATOM     26  H   UNL     1     -12.665  86.072  -8.080  1.00  0.00     0.293 HD
ENDBRANCH   7  25
TORSDOF 6
ENDMDL
MODEL 2
REMARK VINA RESULT:    -5.484      9.849     11.843
REMARK INTER + INTRA:          -6.906
REMARK INTER:                  -6.647
REMARK INTRA:                  -0.258
REMARK UNBOUND:                -0.300
REMARK SMILES Oc1cc(O)c2cc(O)c(-c3ccc(O)c(O)c3)[o+]c2c1
REMARK SMILES IDX 10 1 19 2 20 3 21 4 2 5 3 6 4 7 6 8 7 9 8 10 11 11 12 12
REMARK SMILES IDX 13 13 14 14 18 15 16 16 15 17 17 19 9 21 1 23 5 25
REMARK H PARENT 15 18 17 20 9 22 1 24 5 26
REMARK Flexibility Score: inf
ROOT
ATOM      1  C   UNL     1      -4.492  91.251 -14.690  1.00  0.00     0.402 A 
ATOM      2  O   UNL     1      -4.170  92.332 -13.984  1.00  0.00    -0.202 OA
ATOM      3  C   UNL     1      -4.344  92.423 -12.670  1.00  0.00     0.368 A 
ATOM      4  C   UNL     1      -3.978  93.604 -12.017  1.00  0.00     0.162 A 
ATOM      5  C   UNL     1      -4.153  93.729 -10.638  1.00  0.00     0.128 A 
ATOM      6  C   UNL     1      -4.699  92.669  -9.905  1.00  0.00     0.093 A 
ATOM      7  C   UNL     1      -5.074  91.477 -10.536  1.00  0.00     0.136 A 
ATOM      8  C   UNL     1      -4.895  91.344 -11.938  1.00  0.00     0.125 A 
ATOM      9  C   UNL     1      -5.230  90.182 -12.653  1.00  0.00     0.078 A 
ATOM     10  C   UNL     1      -5.021  90.124 -14.034  1.00  0.00     0.223 A 
ENDROOT
BRANCH   1  11
ATOM     11  C   UNL     1      -4.258  91.274 -16.152  1.00  0.00     0.087 A 
ATOM     12  C   UNL     1      -2.945  91.358 -16.639  1.00  0.00     0.022 A 
ATOM     13  C   UNL     1      -2.702  91.402 -18.015  1.00  0.00     0.051 A 
ATOM     14  C   UNL     1      -3.765  91.378 -18.922  1.00  0.00     0.157 A 
ATOM     15  C   UNL     1      -5.328  91.272 -17.066  1.00  0.00     0.068 A 
ATOM     16  C   UNL     1      -5.086  91.317 -18.446  1.00  0.00     0.158 A 
BRANCH  14  17
ATOM     17  O   UNL     1      -3.492  91.421 -20.289  1.00  0.00    -0.504 OA
ATOM     18  H   UNL     1      -3.975  90.828 -20.954  1.00  0.00     0.293 HD
ENDBRANCH  14  17
BRANCH  16  19
ATOM     19  O   UNL     1      -6.151  91.308 -19.345  1.00  0.00    -0.504 OA
ATOM     20  H   UNL     1      -6.884  92.007 -19.307  1.00  0.00     0.293 HD
ENDBRANCH  16  19
ENDBRANCH   1  11
BRANCH  10  21
ATOM     21  O   UNL     1      -5.306  88.953 -14.736  1.00  0.00    -0.500 OA
ATOM     22  H   UNL     1      -6.028  88.922 -15.447  1.00  0.00     0.294 HD
ENDBRANCH  10  21
BRANCH   5  23
ATOM     23  O   UNL     1      -3.782  94.912 -10.004  1.00  0.00    -0.507 OA
ATOM     24  H   UNL     1      -2.933  94.975  -9.453  1.00  0.00     0.293 HD
ENDBRANCH   5  23
BRANCH   7  25
ATOM     25  O   UNL     1      -5.615  90.467  -9.735  1.00  0.00    -0.507 OA
ATOM     26  H   UNL     1      -5.849  90.576  -8.760  1.00  0.00     0.293 HD
ENDBRANCH   7  25
TORSDOF 6
ENDMDL
MODEL 3
REMARK VINA RESULT:    -5.474      8.164     11.506
REMARK INTER + INTRA:          -6.894
REMARK INTER:                  -6.704
REMARK INTRA:                  -0.190
REMARK UNBOUND:                -0.300
REMARK SMILES Oc1cc(O)c2cc(O)c(-c3ccc(O)c(O)c3)[o+]c2c1
REMARK SMILES IDX 10 1 19 2 20 3 21 4 2 5 3 6 4 7 6 8 7 9 8 10 11 11 12 12
REMARK SMILES IDX 13 13 14 14 18 15 16 16 15 17 17 19 9 21 1 23 5 25
REMARK H PARENT 15 18 17 20 9 22 1 24 5 26
REMARK Flexibility Score: inf
ROOT
ATOM      1  C   UNL     1      -8.266  90.285 -13.870  1.00  0.00     0.402 A 
ATOM      2  O   UNL     1      -7.762  91.290 -14.582  1.00  0.00    -0.202 OA
ATOM      3  C   UNL     1      -6.462  91.439 -14.814  1.00  0.00     0.368 A 
ATOM      4  C   UNL     1      -6.028  92.532 -15.570  1.00  0.00     0.162 A 
ATOM      5  C   UNL     1      -4.669  92.715 -15.828  1.00  0.00     0.128 A 
ATOM      6  C   UNL     1      -3.735  91.802 -15.325  1.00  0.00     0.093 A 
ATOM      7  C   UNL     1      -4.144  90.701 -14.564  1.00  0.00     0.136 A 
ATOM      8  C   UNL     1      -5.526  90.508 -14.303  1.00  0.00     0.125 A 
ATOM      9  C   UNL     1      -6.029  89.427 -13.561  1.00  0.00     0.078 A 
ATOM     10  C   UNL     1      -7.405  89.302 -13.349  1.00  0.00     0.223 A 
ENDROOT
BRANCH   1  11
ATOM     11  C   UNL     1      -9.732  90.234 -13.673  1.00  0.00     0.087 A 
ATOM     12  C   UNL     1     -10.472  89.196 -14.260  1.00  0.00     0.022 A 
ATOM     13  C   UNL     1     -11.860  89.139 -14.104  1.00  0.00     0.051 A 
ATOM     14  C   UNL     1     -12.530  90.124 -13.374  1.00  0.00     0.157 A 
ATOM     15  C   UNL     1     -10.412  91.236 -12.956  1.00  0.00     0.068 A 
ATOM     16  C   UNL     1     -11.804  91.182 -12.801  1.00  0.00     0.158 A 
BRANCH  14  17
ATOM     17  O   UNL     1     -13.915  90.040 -13.234  1.00  0.00    -0.504 OA
ATOM     18  H   UNL     1     -14.364  89.247 -12.790  1.00  0.00     0.293 HD
ENDBRANCH  14  17
BRANCH  16  19
ATOM     19  O   UNL     1     -12.468  92.175 -12.083  1.00  0.00    -0.504 OA
ATOM     20  H   UNL     1     -12.743  92.038 -11.117  1.00  0.00     0.293 HD
ENDBRANCH  16  19
ENDBRANCH   1  11
BRANCH  10  21
ATOM     21  O   UNL     1      -7.909  88.202 -12.656  1.00  0.00    -0.500 OA
ATOM     22  H   UNL     1      -7.570  87.262 -12.829  1.00  0.00     0.294 HD
ENDBRANCH  10  21
BRANCH   5  23
ATOM     23  O   UNL     1      -4.255  93.809 -16.584  1.00  0.00    -0.507 OA
ATOM     24  H   UNL     1      -3.797  94.606 -16.158  1.00  0.00     0.293 HD
ENDBRANCH   5  23
BRANCH   7  25
ATOM     25  O   UNL     1      -3.150  89.837 -14.095  1.00  0.00    -0.507 OA
ATOM     26  H   UNL     1      -2.785  89.052 -14.615  1.00  0.00     0.293 HD
ENDBRANCH   7  25
TORSDOF 6
ENDMDL
MODEL 4
REMARK VINA RESULT:    -5.397      7.960      9.261
REMARK INTER + INTRA:          -6.802
REMARK INTER:                  -6.467
REMARK INTRA:                  -0.335
REMARK UNBOUND:                -0.300
REMARK SMILES Oc1cc(O)c2cc(O)c(-c3ccc(O)c(O)c3)[o+]c2c1
REMARK SMILES IDX 10 1 19 2 20 3 21 4 2 5 3 6 4 7 6 8 7 9 8 10 11 11 12 12
REMARK SMILES IDX 13 13 14 14 18 15 16 16 15 17 17 19 9 21 1 23 5 25
REMARK H PARENT 15 18 17 20 9 22 1 24 5 26
REMARK Flexibility Score: inf
ROOT
ATOM      1  C   UNL     1      -8.685  90.228 -13.781  1.00  0.00     0.402 A 
ATOM      2  O   UNL     1      -9.214  91.418 -13.503  1.00  0.00    -0.202 OA
ATOM      3  C   UNL     1     -10.518  91.620 -13.356  1.00  0.00     0.368 A 
ATOM      4  C   UNL     1     -10.978  92.908 -13.069  1.00  0.00     0.162 A 
ATOM      5  C   UNL     1     -12.344  93.151 -12.912  1.00  0.00     0.128 A 
ATOM      6  C   UNL     1     -13.258  92.099 -13.045  1.00  0.00     0.093 A 
ATOM      7  C   UNL     1     -12.823  90.800 -13.333  1.00  0.00     0.136 A 
ATOM      8  C   UNL     1     -11.435  90.549 -13.490  1.00  0.00     0.125 A 
ATOM      9  C   UNL     1     -10.906  89.277 -13.767  1.00  0.00     0.078 A 
ATOM     10  C   UNL     1      -9.525  89.106 -13.903  1.00  0.00     0.223 A 
ENDROOT
BRANCH   1  11
ATOM     11  C   UNL     1      -7.216  90.133 -13.930  1.00  0.00     0.087 A 
ATOM     12  C   UNL     1      -6.403  90.143 -12.786  1.00  0.00     0.022 A 
ATOM     13  C   UNL     1      -5.012  90.074 -12.904  1.00  0.00     0.051 A 
ATOM     14  C   UNL     1      -4.412  90.011 -14.164  1.00  0.00     0.157 A 
ATOM     15  C   UNL     1      -6.609  90.090 -15.199  1.00  0.00     0.068 A 
ATOM     16  C   UNL     1      -5.213  90.023 -15.319  1.00  0.00     0.158 A 
BRANCH  14  17
ATOM     17  O   UNL     1      -3.022  89.941 -14.251  1.00  0.00    -0.504 OA
ATOM     18  H   UNL     1      -2.418  90.564 -13.729  1.00  0.00     0.293 HD
ENDBRANCH  14  17
BRANCH  16  19
ATOM     19  O   UNL     1      -4.620  89.974 -16.580  1.00  0.00    -0.504 OA
ATOM     20  H   UNL     1      -4.348  90.817 -17.072  1.00  0.00     0.293 HD
ENDBRANCH  16  19
ENDBRANCH   1  11
BRANCH  10  21
ATOM     21  O   UNL     1      -8.996  87.835 -14.128  1.00  0.00    -0.500 OA
ATOM     22  H   UNL     1      -8.135  87.533 -13.688  1.00  0.00     0.294 HD
ENDBRANCH  10  21
BRANCH   5  23
ATOM     23  O   UNL     1     -12.784  94.441 -12.626  1.00  0.00    -0.507 OA
ATOM     24  H   UNL     1     -12.683  95.196 -13.294  1.00  0.00     0.293 HD
ENDBRANCH   5  23
BRANCH   7  25
ATOM     25  O   UNL     1     -13.798  89.806 -13.453  1.00  0.00    -0.507 OA
ATOM     26  H   UNL     1     -14.637  89.760 -12.895  1.00  0.00     0.293 HD
ENDBRANCH   7  25
TORSDOF 6
ENDMDL
MODEL 5
REMARK VINA RESULT:    -5.348      1.471      6.923
REMARK INTER + INTRA:          -6.742
REMARK INTER:                  -6.524
REMARK INTRA:                  -0.218
REMARK UNBOUND:                -0.300
REMARK SMILES Oc1cc(O)c2cc(O)c(-c3ccc(O)c(O)c3)[o+]c2c1
REMARK SMILES IDX 10 1 19 2 20 3 21 4 2 5 3 6 4 7 6 8 7 9 8 10 11 11 12 12
REMARK SMILES IDX 13 13 14 14 18 15 16 16 15 17 17 19 9 21 1 23 5 25
REMARK H PARENT 15 18 17 20 9 22 1 24 5 26
REMARK Flexibility Score: inf
ROOT
ATOM      1  C   UNL     1      -8.821  83.450  -8.377  1.00  0.00     0.402 A 
ATOM      2  O   UNL     1      -7.860  83.126  -9.239  1.00  0.00    -0.202 OA
ATOM      3  C   UNL     1      -6.567  83.154  -8.934  1.00  0.00     0.368 A 
ATOM      4  C   UNL     1      -5.631  82.799  -9.910  1.00  0.00     0.162 A 
ATOM      5  C   UNL     1      -4.267  82.822  -9.620  1.00  0.00     0.128 A 
ATOM      6  C   UNL     1      -3.832  83.205  -8.345  1.00  0.00     0.093 A 
ATOM      7  C   UNL     1      -4.749  83.566  -7.351  1.00  0.00     0.136 A 
ATOM      8  C   UNL     1      -6.138  83.540  -7.642  1.00  0.00     0.125 A 
ATOM      9  C   UNL     1      -7.130  83.873  -6.704  1.00  0.00     0.078 A 
ATOM     10  C   UNL     1      -8.480  83.820  -7.063  1.00  0.00     0.223 A 
ENDROOT
BRANCH   1  11
ATOM     11  C   UNL     1     -10.226  83.388  -8.839  1.00  0.00     0.087 A 
ATOM     12  C   UNL     1     -10.979  84.569  -8.922  1.00  0.00     0.022 A 
ATOM     13  C   UNL     1     -12.313  84.531  -9.336  1.00  0.00     0.051 A 
ATOM     14  C   UNL     1     -12.918  83.313  -9.658  1.00  0.00     0.157 A 
ATOM     15  C   UNL     1     -10.844  82.161  -9.143  1.00  0.00     0.068 A 
ATOM     16  C   UNL     1     -12.182  82.120  -9.557  1.00  0.00     0.158 A 
BRANCH  14  17
ATOM     17  O   UNL     1     -14.251  83.306 -10.070  1.00  0.00    -0.504 OA
ATOM     18  H   UNL     1     -14.533  83.638 -10.985  1.00  0.00     0.293 HD
ENDBRANCH  14  17
BRANCH  16  19
ATOM     19  O   UNL     1     -12.785  80.901  -9.863  1.00  0.00    -0.504 OA
ATOM     20  H   UNL     1     -12.334  80.223 -10.467  1.00  0.00     0.293 HD
ENDBRANCH  16  19
ENDBRANCH   1  11
BRANCH  10  21
ATOM     21  O   UNL     1      -9.466  84.102  -6.118  1.00  0.00    -0.500 OA
ATOM     22  H   UNL     1      -9.922  85.006  -6.078  1.00  0.00     0.294 HD
ENDBRANCH  10  21
BRANCH   5  23
ATOM     23  O   UNL     1      -3.349  82.464 -10.604  1.00  0.00    -0.507 OA
ATOM     24  H   UNL     1      -3.295  81.517 -10.960  1.00  0.00     0.293 HD
ENDBRANCH   5  23
BRANCH   7  25
ATOM     25  O   UNL     1      -4.235  83.939  -6.106  1.00  0.00    -0.507 OA
ATOM     26  H   UNL     1      -3.912  83.289  -5.405  1.00  0.00     0.293 HD
ENDBRANCH   7  25
TORSDOF 6
ENDMDL
MODEL 6
REMARK VINA RESULT:    -5.251      1.744      3.286
REMARK INTER + INTRA:          -6.625
REMARK INTER:                  -6.272
REMARK INTRA:                  -0.353
REMARK UNBOUND:                -0.300
REMARK SMILES Oc1cc(O)c2cc(O)c(-c3ccc(O)c(O)c3)[o+]c2c1
REMARK SMILES IDX 10 1 19 2 20 3 21 4 2 5 3 6 4 7 6 8 7 9 8 10 11 11 12 12
REMARK SMILES IDX 13 13 14 14 18 15 16 16 15 17 17 19 9 21 1 23 5 25
REMARK H PARENT 15 18 17 20 9 22 1 24 5 26
REMARK Flexibility Score: inf
ROOT
ATOM      1  C   UNL     1      -9.494  83.593  -8.828  1.00  0.00     0.402 A 
ATOM      2  O   UNL     1      -9.957  84.832  -8.977  1.00  0.00    -0.202 OA
ATOM      3  C   UNL     1     -11.233  85.109  -9.220  1.00  0.00     0.368 A 
ATOM      4  C   UNL     1     -11.622  86.444  -9.366  1.00  0.00     0.162 A 
ATOM      5  C   UNL     1     -12.955  86.765  -9.626  1.00  0.00     0.128 A 
ATOM      6  C   UNL     1     -13.908  85.746  -9.742  1.00  0.00     0.093 A 
ATOM      7  C   UNL     1     -13.543  84.402  -9.602  1.00  0.00     0.136 A 
ATOM      8  C   UNL     1     -12.189  84.071  -9.334  1.00  0.00     0.125 A 
ATOM      9  C   UNL     1     -11.734  82.753  -9.166  1.00  0.00     0.078 A 
ATOM     10  C   UNL     1     -10.384  82.505  -8.900  1.00  0.00     0.223 A 
ENDROOT
BRANCH   1  11
ATOM     11  C   UNL     1      -8.048  83.412  -8.568  1.00  0.00     0.087 A 
ATOM     12  C   UNL     1      -7.572  83.460  -7.249  1.00  0.00     0.022 A 
ATOM     13  C   UNL     1      -6.208  83.312  -6.983  1.00  0.00     0.051 A 
ATOM     14  C   UNL     1      -5.299  83.131  -8.029  1.00  0.00     0.157 A 
ATOM     15  C   UNL     1      -7.129  83.251  -9.622  1.00  0.00     0.068 A 
ATOM     16  C   UNL     1      -5.760  83.105  -9.357  1.00  0.00     0.158 A 
BRANCH  14  17
ATOM     17  O   UNL     1      -3.944  82.984  -7.733  1.00  0.00    -0.504 OA
ATOM     18  H   UNL     1      -3.607  82.279  -7.087  1.00  0.00     0.293 HD
ENDBRANCH  14  17
BRANCH  16  19
ATOM     19  O   UNL     1      -4.857  82.938 -10.406  1.00  0.00    -0.504 OA
ATOM     20  H   UNL     1      -3.873  83.157 -10.299  1.00  0.00     0.293 HD
ENDBRANCH  16  19
ENDBRANCH   1  11
BRANCH  10  21
ATOM     21  O   UNL     1      -9.941  81.201  -8.682  1.00  0.00    -0.500 OA
ATOM     22  H   UNL     1     -10.298  80.639  -7.918  1.00  0.00     0.294 HD
ENDBRANCH  10  21
BRANCH   5  23
ATOM     23  O   UNL     1     -13.325  88.101  -9.767  1.00  0.00    -0.507 OA
ATOM     24  H   UNL     1     -14.122  88.374 -10.330  1.00  0.00     0.293 HD
ENDBRANCH   5  23
BRANCH   7  25
ATOM     25  O   UNL     1     -14.552  83.443  -9.735  1.00  0.00    -0.507 OA
ATOM     26  H   UNL     1     -14.911  83.113 -10.619  1.00  0.00     0.293 HD
ENDBRANCH   7  25
TORSDOF 6
ENDMDL
MODEL 7
REMARK VINA RESULT:    -5.189      7.374     10.928
REMARK INTER + INTRA:          -6.551
REMARK INTER:                  -6.325
REMARK INTRA:                  -0.226
REMARK UNBOUND:                -0.300
REMARK SMILES Oc1cc(O)c2cc(O)c(-c3ccc(O)c(O)c3)[o+]c2c1
REMARK SMILES IDX 10 1 19 2 20 3 21 4 2 5 3 6 4 7 6 8 7 9 8 10 11 11 12 12
REMARK SMILES IDX 13 13 14 14 18 15 16 16 15 17 17 19 9 21 1 23 5 25
REMARK H PARENT 15 18 17 20 9 22 1 24 5 26
REMARK Flexibility Score: inf
ROOT
ATOM      1  C   UNL     1      -8.728  90.041 -13.320  1.00  0.00     0.402 A 
ATOM      2  O   UNL     1      -8.108  91.174 -12.998  1.00  0.00    -0.202 OA
ATOM      3  C   UNL     1      -6.798  91.352 -13.129  1.00  0.00     0.368 A 
ATOM      4  C   UNL     1      -6.239  92.579 -12.759  1.00  0.00     0.162 A 
ATOM      5  C   UNL     1      -4.866  92.793 -12.883  1.00  0.00     0.128 A 
ATOM      6  C   UNL     1      -4.043  91.774 -13.379  1.00  0.00     0.093 A 
ATOM      7  C   UNL     1      -4.579  90.537 -13.755  1.00  0.00     0.136 A 
ATOM      8  C   UNL     1      -5.976  90.316 -13.634  1.00  0.00     0.125 A 
ATOM      9  C   UNL     1      -6.603  89.113 -13.998  1.00  0.00     0.078 A 
ATOM     10  C   UNL     1      -7.985  88.971 -13.854  1.00  0.00     0.223 A 
ENDROOT
BRANCH   1  11
ATOM     11  C   UNL     1     -10.192  89.962 -13.119  1.00  0.00     0.087 A 
ATOM     12  C   UNL     1     -11.033  90.839 -13.820  1.00  0.00     0.022 A 
ATOM     13  C   UNL     1     -12.418  90.795 -13.631  1.00  0.00     0.051 A 
ATOM     14  C   UNL     1     -12.979  89.889 -12.729  1.00  0.00     0.157 A 
ATOM     15  C   UNL     1     -10.758  89.064 -12.195  1.00  0.00     0.068 A 
ATOM     16  C   UNL     1     -12.146  89.020 -12.003  1.00  0.00     0.158 A 
BRANCH  14  17
ATOM     17  O   UNL     1     -14.364  89.867 -12.562  1.00  0.00    -0.504 OA
ATOM     18  H   UNL     1     -14.964  90.587 -12.946  1.00  0.00     0.293 HD
ENDBRANCH  14  17
BRANCH  16  19
ATOM     19  O   UNL     1     -12.699  88.122 -11.091  1.00  0.00    -0.504 OA
ATOM     20  H   UNL     1     -12.140  87.695 -10.362  1.00  0.00     0.293 HD
ENDBRANCH  16  19
ENDBRANCH   1  11
BRANCH  10  21
ATOM     21  O   UNL     1      -8.615  87.795 -14.262  1.00  0.00    -0.500 OA
ATOM     22  H   UNL     1      -8.882  87.077 -13.599  1.00  0.00     0.294 HD
ENDBRANCH  10  21
BRANCH   5  23
ATOM     23  O   UNL     1      -4.326  94.022 -12.510  1.00  0.00    -0.507 OA
ATOM     24  H   UNL     1      -4.733  94.576 -11.765  1.00  0.00     0.293 HD
ENDBRANCH   5  23
BRANCH   7  25
ATOM     25  O   UNL     1      -3.691  89.571 -14.237  1.00  0.00    -0.507 OA
ATOM     26  H   UNL     1      -2.690  89.606 -14.117  1.00  0.00     0.293 HD
ENDBRANCH   7  25
TORSDOF 6
ENDMDL
MODEL 8
REMARK VINA RESULT:    -5.070      8.803     10.442
REMARK INTER + INTRA:          -6.407
REMARK INTER:                  -6.058
REMARK INTRA:                  -0.349
REMARK UNBOUND:                -0.300
REMARK SMILES Oc1cc(O)c2cc(O)c(-c3ccc(O)c(O)c3)[o+]c2c1
REMARK SMILES IDX 10 1 19 2 20 3 21 4 2 5 3 6 4 7 6 8 7 9 8 10 11 11 12 12
REMARK SMILES IDX 13 13 14 14 18 15 16 16 15 17 17 19 9 21 1 23 5 25
REMARK H PARENT 15 18 17 20 9 22 1 24 5 26
REMARK Flexibility Score: inf
ROOT
ATOM      1  C   UNL     1      -5.321  91.164 -14.237  1.00  0.00     0.402 A 
ATOM      2  O   UNL     1      -5.964  90.096 -13.772  1.00  0.00    -0.202 OA
ATOM      3  C   UNL     1      -6.044  89.798 -12.479  1.00  0.00     0.368 A 
ATOM      4  C   UNL     1      -6.739  88.650 -12.088  1.00  0.00     0.162 A 
ATOM      5  C   UNL     1      -6.836  88.311 -10.738  1.00  0.00     0.128 A 
ATOM      6  C   UNL     1      -6.234  89.123  -9.770  1.00  0.00     0.093 A 
ATOM      7  C   UNL     1      -5.531  90.277 -10.136  1.00  0.00     0.136 A 
ATOM      8  C   UNL     1      -5.433  90.628 -11.508  1.00  0.00     0.125 A 
ATOM      9  C   UNL     1      -4.760  91.772 -11.968  1.00  0.00     0.078 A 
ATOM     10  C   UNL     1      -4.709  92.054 -13.335  1.00  0.00     0.223 A 
ENDROOT
BRANCH   1  11
ATOM     11  C   UNL     1      -5.296  91.383 -15.701  1.00  0.00     0.087 A 
ATOM     12  C   UNL     1      -6.407  91.963 -16.332  1.00  0.00     0.022 A 
ATOM     13  C   UNL     1      -6.412  92.160 -17.716  1.00  0.00     0.051 A 
ATOM     14  C   UNL     1      -5.317  91.768 -18.490  1.00  0.00     0.157 A 
ATOM     15  C   UNL     1      -4.203  90.969 -16.485  1.00  0.00     0.068 A 
ATOM     16  C   UNL     1      -4.208  91.164 -17.873  1.00  0.00     0.158 A 
BRANCH  14  17
ATOM     17  O   UNL     1      -5.350  91.979 -19.868  1.00  0.00    -0.504 OA
ATOM     18  H   UNL     1      -5.871  91.375 -20.494  1.00  0.00     0.293 HD
ENDBRANCH  14  17
BRANCH  16  19
ATOM     19  O   UNL     1      -3.118  90.758 -18.642  1.00  0.00    -0.504 OA
ATOM     20  H   UNL     1      -3.085  89.841 -19.072  1.00  0.00     0.293 HD
ENDBRANCH  16  19
ENDBRANCH   1  11
BRANCH  10  21
ATOM     21  O   UNL     1      -4.085  93.217 -13.788  1.00  0.00    -0.500 OA
ATOM     22  H   UNL     1      -4.313  93.628 -14.686  1.00  0.00     0.294 HD
ENDBRANCH  10  21
BRANCH   5  23
ATOM     23  O   UNL     1      -7.534  87.164 -10.367  1.00  0.00    -0.507 OA
ATOM     24  H   UNL     1      -8.529  87.187 -10.176  1.00  0.00     0.293 HD
ENDBRANCH   5  23
BRANCH   7  25
ATOM     25  O   UNL     1      -4.955  91.033  -9.111  1.00  0.00    -0.507 OA
ATOM     26  H   UNL     1      -5.469  91.653  -8.503  1.00  0.00     0.293 HD
ENDBRANCH   7  25
TORSDOF 6
ENDMDL
MODEL 9
REMARK VINA RESULT:    -5.023      4.572      7.837
REMARK INTER + INTRA:          -6.351
REMARK INTER:                  -6.116
REMARK INTRA:                  -0.235
REMARK UNBOUND:                -0.300
REMARK SMILES Oc1cc(O)c2cc(O)c(-c3ccc(O)c(O)c3)[o+]c2c1
REMARK SMILES IDX 10 1 19 2 20 3 21 4 2 5 3 6 4 7 6 8 7 9 8 10 11 11 12 12
REMARK SMILES IDX 13 13 14 14 18 15 16 16 15 17 17 19 9 21 1 23 5 25
REMARK H PARENT 15 18 17 20 9 22 1 24 5 26
REMARK Flexibility Score: inf
ROOT
ATOM      1  C   UNL     1      -4.601  87.869  -8.128  1.00  0.00     0.402 A 
ATOM      2  O   UNL     1      -5.131  86.868  -8.826  1.00  0.00    -0.202 OA
ATOM      3  C   UNL     1      -4.641  85.632  -8.817  1.00  0.00     0.368 A 
ATOM      4  C   UNL     1      -5.265  84.648  -9.589  1.00  0.00     0.162 A 
ATOM      5  C   UNL     1      -4.771  83.343  -9.601  1.00  0.00     0.128 A 
ATOM      6  C   UNL     1      -3.643  83.018  -8.837  1.00  0.00     0.093 A 
ATOM      7  C   UNL     1      -2.999  83.986  -8.057  1.00  0.00     0.136 A 
ATOM      8  C   UNL     1      -3.501  85.313  -8.040  1.00  0.00     0.125 A 
ATOM      9  C   UNL     1      -2.929  86.346  -7.278  1.00  0.00     0.078 A 
ATOM     10  C   UNL     1      -3.482  87.629  -7.308  1.00  0.00     0.223 A 
ENDROOT
BRANCH   1  11
ATOM     11  C   UNL     1      -5.233  89.203  -8.228  1.00  0.00     0.087 A 
ATOM     12  C   UNL     1      -6.557  89.375  -7.795  1.00  0.00     0.022 A 
ATOM     13  C   UNL     1      -7.180  90.622  -7.899  1.00  0.00     0.051 A 
ATOM     14  C   UNL     1      -6.498  91.709  -8.451  1.00  0.00     0.157 A 
ATOM     15  C   UNL     1      -4.556  90.294  -8.803  1.00  0.00     0.068 A 
ATOM     16  C   UNL     1      -5.180  91.545  -8.910  1.00  0.00     0.158 A 
BRANCH  14  17
ATOM     17  O   UNL     1      -7.145  92.942  -8.540  1.00  0.00    -0.504 OA
ATOM     18  H   UNL     1      -7.919  93.188  -7.935  1.00  0.00     0.293 HD
ENDBRANCH  14  17
BRANCH  16  19
ATOM     19  O   UNL     1      -4.499  92.622  -9.475  1.00  0.00    -0.504 OA
ATOM     20  H   UNL     1      -4.993  93.411  -9.876  1.00  0.00     0.293 HD
ENDBRANCH  16  19
ENDBRANCH   1  11
BRANCH  10  21
ATOM     21  O   UNL     1      -2.946  88.642  -6.513  1.00  0.00    -0.500 OA
ATOM     22  H   UNL     1      -2.296  89.324  -6.888  1.00  0.00     0.294 HD
ENDBRANCH  10  21
BRANCH   5  23
ATOM     23  O   UNL     1      -5.406  82.375 -10.375  1.00  0.00    -0.507 OA
ATOM     24  H   UNL     1      -5.489  81.415 -10.061  1.00  0.00     0.293 HD
ENDBRANCH   5  23
BRANCH   7  25
ATOM     25  O   UNL     1      -1.878  83.583  -7.327  1.00  0.00    -0.507 OA
ATOM     26  H   UNL     1      -0.955  83.467  -7.717  1.00  0.00     0.293 HD
ENDBRANCH   7  25
TORSDOF 6
ENDMDL
