MODEL 1
REMARK VINA RESULT:     4.228      0.000      0.000
REMARK INTER + INTRA:           6.841
REMARK INTER:                   6.947
REMARK INTRA:                  -0.106
REMARK UNBOUND:                -0.106
REMARK SMILES C[C@H]1O[C@H](OC[C@@H]2O[C@H](Oc3c(-c4ccc(O)c(O)c4)oc4cc(O)cc(O)c4c3=O)[C@H](O)[C@@H](O)[C@@H]2O)[C@@H](O)[C@@H](O)[C@H]1O
REMARK SMILES IDX 7 1 36 2 34 3 32 4 9 5 8 6 6 7 5 8 4 9 1 10 2 11 42 12 3 13
REMARK SMILES IDX 40 14 38 15 43 16 41 18 39 20 37 22 35 24 10 26 11 27 12 28
REMARK SMILES IDX 30 29 21 30 29 31 31 32 22 33 27 34 23 35 26 36 24 37 13 38
REMARK SMILES IDX 20 39 14 40 18 41 15 42 16 43 19 44 17 46 28 48 25 50 33 52
REMARK H PARENT 43 17 41 19 39 21 37 23 35 25 19 45 17 47 28 49 25 51 33 53
REMARK Flexibility Score: inf
ROOT
ATOM      1  C   UNL     1      12.193   0.461  20.123  1.00  0.00     0.180 C 
ATOM      2  C   UNL     1      12.904   1.436  19.147  1.00  0.00     0.177 C 
ATOM      3  C   UNL     1      12.305   1.351  17.741  1.00  0.00     0.180 C 
ATOM      4  C   UNL     1      10.785   1.548  17.837  1.00  0.00     0.214 C 
ATOM      5  C   UNL     1      10.180   0.539  18.834  1.00  0.00     0.339 C 
ATOM      6  O   UNL     1      10.776   0.622  20.123  1.00  0.00    -0.332 OA
ENDROOT
BRANCH   1   7
ATOM      7  C   UNL     1      12.609  -1.019  19.978  1.00  0.00     0.198 C 
BRANCH   7   8
ATOM      8  O   UNL     1      14.005  -1.107  19.782  1.00  0.00    -0.347 OA
BRANCH   8   9
ATOM      9  C   UNL     1      14.324  -1.990  18.713  1.00  0.00     0.281 C 
ATOM     10  C   UNL     1      17.806  -2.680  19.705  1.00  0.00     0.041 C 
ATOM     11  C   UNL     1      16.279  -2.694  19.811  1.00  0.00     0.150 C 
ATOM     12  C   UNL     1      15.750  -4.126  20.080  1.00  0.00     0.174 C 
ATOM     13  O   UNL     1      15.731  -2.158  18.616  1.00  0.00    -0.344 OA
ATOM     14  C   UNL     1      14.208  -4.126  20.106  1.00  0.00     0.179 C 
ATOM     15  C   UNL     1      13.606  -3.352  18.917  1.00  0.00     0.202 C 
BRANCH  12  16
ATOM     16  O   UNL     1      16.248  -5.074  19.164  1.00  0.00    -0.388 OA
ATOM     17  H   UNL     1      16.031  -5.980  19.498  1.00  0.00     0.211 HD
ENDBRANCH  12  16
BRANCH  14  18
ATOM     18  O   UNL     1      13.708  -5.439  20.124  1.00  0.00    -0.387 OA
ATOM     19  H   UNL     1      13.590  -5.686  21.078  1.00  0.00     0.211 HD
ENDBRANCH  14  18
BRANCH  15  20
ATOM     20  O   UNL     1      13.595  -4.144  17.747  1.00  0.00    -0.385 OA
ATOM     21  H   UNL     1      13.000  -3.727  17.073  1.00  0.00     0.211 HD
ENDBRANCH  15  20
ENDBRANCH   8   9
ENDBRANCH   7   8
ENDBRANCH   1   7
BRANCH   2  22
ATOM     22  O   UNL     1      14.286   1.179  19.091  1.00  0.00    -0.387 OA
ATOM     23  H   UNL     1      14.728   2.051  18.911  1.00  0.00     0.211 HD
ENDBRANCH   2  22
BRANCH   3  24
ATOM     24  O   UNL     1      12.872   2.356  16.939  1.00  0.00    -0.387 OA
ATOM     25  H   UNL     1      12.498   3.220  17.253  1.00  0.00     0.211 HD
ENDBRANCH   3  24
BRANCH   5  26
ATOM     26  O   UNL     1      10.255  -0.795  18.318  1.00  0.00    -0.454 OA
BRANCH  26  27
ATOM     27  C   UNL     1       9.386  -1.824  18.710  1.00  0.00     0.214 A 
ATOM     28  C   UNL     1       8.020  -1.587  18.954  1.00  0.00     0.180 A 
ATOM     29  C   UNL     1       9.887  -3.122  18.859  1.00  0.00     0.239 A 
ATOM     30  O   UNL     1       7.215  -2.602  19.238  1.00  0.00    -0.452 OA
ATOM     31  C   UNL     1       9.017  -4.178  19.227  1.00  0.00     0.111 A 
ATOM     32  O   UNL     1      11.107  -3.320  18.618  1.00  0.00    -0.285 OA
ATOM     33  C   UNL     1       7.640  -3.854  19.371  1.00  0.00     0.146 A 
ATOM     34  C   UNL     1       9.421  -5.534  19.424  1.00  0.00     0.134 A 
ATOM     35  C   UNL     1       6.703  -4.849  19.663  1.00  0.00     0.094 A 
ATOM     36  C   UNL     1       8.452  -6.511  19.691  1.00  0.00     0.093 A 
ATOM     37  C   UNL     1       7.102  -6.172  19.816  1.00  0.00     0.123 A 
BRANCH  28  38
ATOM     38  C   UNL     1       7.451  -0.227  18.927  1.00  0.00     0.025 A 
ATOM     39  C   UNL     1       7.132   0.378  17.703  1.00  0.00     0.062 A 
ATOM     40  C   UNL     1       7.206   0.462  20.125  1.00  0.00     0.016 A 
ATOM     41  C   UNL     1       6.612   1.682  17.674  1.00  0.00     0.158 A 
ATOM     42  C   UNL     1       6.687   1.758  20.100  1.00  0.00     0.051 A 
ATOM     43  C   UNL     1       6.390   2.374  18.879  1.00  0.00     0.157 A 
BRANCH  41  44
ATOM     44  O   UNL     1       6.322   2.291  16.455  1.00  0.00    -0.504 OA
ATOM     45  H   UNL     1       5.623   1.914  15.824  1.00  0.00     0.293 HD
ENDBRANCH  41  44
BRANCH  43  46
ATOM     46  O   UNL     1       5.875   3.670  18.882  1.00  0.00    -0.504 OA
ATOM     47  H   UNL     1       6.161   4.369  18.203  1.00  0.00     0.293 HD
ENDBRANCH  43  46
ENDBRANCH  28  38
BRANCH  34  48
ATOM     48  O   UNL     1      10.749  -5.972  19.393  1.00  0.00    -0.507 OA
ATOM     49  H   UNL     1      11.512  -5.490  18.945  1.00  0.00     0.293 HD
ENDBRANCH  34  48
BRANCH  37  50
ATOM     50  O   UNL     1       6.151  -7.149  20.104  1.00  0.00    -0.508 OA
ATOM     51  H   UNL     1       5.696  -7.194  21.009  1.00  0.00     0.293 HD
ENDBRANCH  37  50
ENDBRANCH  26  27
ENDBRANCH   5  26
BRANCH   4  52
ATOM     52  O   UNL     1      10.207   1.387  16.568  1.00  0.00    -0.384 OA
ATOM     53  H   UNL     1      10.955   1.314  15.920  1.00  0.00     0.211 HD
ENDBRANCH   4  52
TORSDOF 16
ENDMDL
MODEL 2
REMARK VINA RESULT:     4.706      1.360      2.083
REMARK INTER + INTRA:           7.627
REMARK INTER:                   5.073
REMARK INTRA:                   2.554
REMARK UNBOUND:                -0.106
REMARK SMILES C[C@H]1O[C@H](OC[C@@H]2O[C@H](Oc3c(-c4ccc(O)c(O)c4)oc4cc(O)cc(O)c4c3=O)[C@H](O)[C@@H](O)[C@@H]2O)[C@@H](O)[C@@H](O)[C@H]1O
REMARK SMILES IDX 7 1 36 2 34 3 32 4 9 5 8 6 6 7 5 8 4 9 1 10 2 11 42 12 3 13
REMARK SMILES IDX 40 14 38 15 43 16 41 18 39 20 37 22 35 24 10 26 11 27 12 28
REMARK SMILES IDX 30 29 21 30 29 31 31 32 22 33 27 34 23 35 26 36 24 37 13 38
REMARK SMILES IDX 20 39 14 40 18 41 15 42 16 43 19 44 17 46 28 48 25 50 33 52
REMARK H PARENT 43 17 41 19 39 21 37 23 35 25 19 45 17 47 28 49 25 51 33 53
REMARK Flexibility Score: inf
ROOT
ATOM      1  C   UNL     1      13.265  -0.110  19.008  1.00  0.00     0.180 C 
ATOM      2  C   UNL     1      12.903   1.370  18.713  1.00  0.00     0.177 C 
ATOM      3  C   UNL     1      11.390   1.557  18.578  1.00  0.00     0.180 C 
ATOM      4  C   UNL     1      10.706   0.975  19.823  1.00  0.00     0.214 C 
ATOM      5  C   UNL     1      11.137  -0.492  20.029  1.00  0.00     0.339 C 
ATOM      6  O   UNL     1      12.549  -0.637  20.122  1.00  0.00    -0.332 OA
ENDROOT
BRANCH   1   7
ATOM      7  C   UNL     1      13.205  -1.048  17.782  1.00  0.00     0.198 C 
BRANCH   7   8
ATOM      8  O   UNL     1      14.063  -2.152  17.981  1.00  0.00    -0.347 OA
BRANCH   8   9
ATOM      9  C   UNL     1      15.001  -1.900  19.020  1.00  0.00     0.281 C 
ATOM     10  C   UNL     1      15.425  -5.392  20.120  1.00  0.00     0.041 C 
ATOM     11  C   UNL     1      15.516  -4.187  19.181  1.00  0.00     0.150 C 
ATOM     12  C   UNL     1      16.952  -4.021  18.620  1.00  0.00     0.174 C 
ATOM     13  O   UNL     1      15.098  -3.026  19.881  1.00  0.00    -0.344 OA
ATOM     14  C   UNL     1      17.034  -2.759  17.737  1.00  0.00     0.179 C 
ATOM     15  C   UNL     1      16.382  -1.535  18.410  1.00  0.00     0.202 C 
BRANCH  12  16
ATOM     16  O   UNL     1      17.934  -4.008  19.629  1.00  0.00    -0.388 OA
ATOM     17  H   UNL     1      18.826  -3.976  19.202  1.00  0.00     0.211 HD
ENDBRANCH  12  16
BRANCH  14  18
ATOM     18  O   UNL     1      18.368  -2.468  17.406  1.00  0.00    -0.387 OA
ATOM     19  H   UNL     1      18.792  -3.328  17.150  1.00  0.00     0.211 HD
ENDBRANCH  14  18
BRANCH  15  20
ATOM     20  O   UNL     1      17.256  -0.946  19.352  1.00  0.00    -0.385 OA
ATOM     21  H   UNL     1      16.822  -0.149  19.750  1.00  0.00     0.211 HD
ENDBRANCH  15  20
ENDBRANCH   8   9
ENDBRANCH   7   8
ENDBRANCH   1   7
BRANCH   2  22
ATOM     22  O   UNL     1      13.544   1.826  17.547  1.00  0.00    -0.387 OA
ATOM     23  H   UNL     1      12.944   2.509  17.144  1.00  0.00     0.211 HD
ENDBRANCH   2  22
BRANCH   3  24
ATOM     24  O   UNL     1      11.105   2.929  18.469  1.00  0.00    -0.387 OA
ATOM     25  H   UNL     1      11.359   3.346  19.334  1.00  0.00     0.211 HD
ENDBRANCH   3  24
BRANCH   5  26
ATOM     26  O   UNL     1      10.600  -1.331  19.000  1.00  0.00    -0.454 OA
BRANCH  26  27
ATOM     27  C   UNL     1       9.753  -2.419  19.254  1.00  0.00     0.214 A 
ATOM     28  C   UNL     1       8.354  -2.273  19.301  1.00  0.00     0.180 A 
ATOM     29  C   UNL     1      10.311  -3.686  19.464  1.00  0.00     0.239 A 
ATOM     30  O   UNL     1       7.584  -3.341  19.457  1.00  0.00    -0.452 OA
ATOM     31  C   UNL     1       9.468  -4.801  19.694  1.00  0.00     0.111 A 
ATOM     32  O   UNL     1      11.563  -3.802  19.400  1.00  0.00    -0.285 OA
ATOM     33  C   UNL     1       8.066  -4.566  19.640  1.00  0.00     0.146 A 
ATOM     34  C   UNL     1       9.926  -6.131  19.937  1.00  0.00     0.134 A 
ATOM     35  C   UNL     1       7.164  -5.623  19.786  1.00  0.00     0.094 A 
ATOM     36  C   UNL     1       8.994  -7.172  20.054  1.00  0.00     0.093 A 
ATOM     37  C   UNL     1       7.622  -6.921  19.985  1.00  0.00     0.123 A 
BRANCH  28  38
ATOM     38  C   UNL     1       7.708  -0.951  19.202  1.00  0.00     0.025 A 
ATOM     39  C   UNL     1       8.070  -0.066  18.177  1.00  0.00     0.062 A 
ATOM     40  C   UNL     1       6.713  -0.580  20.119  1.00  0.00     0.016 A 
ATOM     41  C   UNL     1       7.473   1.203  18.096  1.00  0.00     0.158 A 
ATOM     42  C   UNL     1       6.115   0.680  20.040  1.00  0.00     0.051 A 
ATOM     43  C   UNL     1       6.492   1.575  19.033  1.00  0.00     0.157 A 
BRANCH  41  44
ATOM     44  O   UNL     1       7.854   2.092  17.093  1.00  0.00    -0.504 OA
ATOM     45  H   UNL     1       8.766   2.039  16.653  1.00  0.00     0.293 HD
ENDBRANCH  41  44
BRANCH  43  46
ATOM     46  O   UNL     1       5.881   2.828  18.978  1.00  0.00    -0.504 OA
ATOM     47  H   UNL     1       5.496   3.207  18.118  1.00  0.00     0.293 HD
ENDBRANCH  43  46
ENDBRANCH  28  38
BRANCH  34  48
ATOM     48  O   UNL     1      11.271  -6.484  20.095  1.00  0.00    -0.507 OA
ATOM     49  H   UNL     1      11.815  -6.348  20.931  1.00  0.00     0.293 HD
ENDBRANCH  34  48
BRANCH  37  50
ATOM     50  O   UNL     1       6.704  -7.961  20.125  1.00  0.00    -0.508 OA
ATOM     51  H   UNL     1       6.118  -8.042  20.949  1.00  0.00     0.293 HD
ENDBRANCH  37  50
ENDBRANCH  26  27
ENDBRANCH   5  26
BRANCH   4  52
ATOM     52  O   UNL     1       9.312   1.058  19.680  1.00  0.00    -0.384 OA
ATOM     53  H   UNL     1       9.070   2.015  19.789  1.00  0.00     0.211 HD
ENDBRANCH   4  52
TORSDOF 16
ENDMDL
MODEL 3
REMARK VINA RESULT:     7.124      1.654      7.794
REMARK INTER + INTRA:          11.599
REMARK INTER:                   8.619
REMARK INTRA:                   2.980
REMARK UNBOUND:                -0.106
REMARK SMILES C[C@H]1O[C@H](OC[C@@H]2O[C@H](Oc3c(-c4ccc(O)c(O)c4)oc4cc(O)cc(O)c4c3=O)[C@H](O)[C@@H](O)[C@@H]2O)[C@@H](O)[C@@H](O)[C@H]1O
REMARK SMILES IDX 7 1 36 2 34 3 32 4 9 5 8 6 6 7 5 8 4 9 1 10 2 11 42 12 3 13
REMARK SMILES IDX 40 14 38 15 43 16 41 18 39 20 37 22 35 24 10 26 11 27 12 28
REMARK SMILES IDX 30 29 21 30 29 31 31 32 22 33 27 34 23 35 26 36 24 37 13 38
REMARK SMILES IDX 20 39 14 40 18 41 15 42 16 43 19 44 17 46 28 48 25 50 33 52
REMARK H PARENT 43 17 41 19 39 21 37 23 35 25 19 45 17 47 28 49 25 51 33 53
REMARK Flexibility Score: inf
ROOT
ATOM      1  C   UNL     1       9.953  -3.016  19.068  1.00  0.00     0.180 C 
ATOM      2  C   UNL     1       9.450  -4.482  18.997  1.00  0.00     0.177 C 
ATOM      3  C   UNL     1      10.619  -5.470  18.947  1.00  0.00     0.180 C 
ATOM      4  C   UNL     1      11.561  -5.181  20.125  1.00  0.00     0.214 C 
ATOM      5  C   UNL     1      11.995  -3.701  20.108  1.00  0.00     0.339 C 
ATOM      6  O   UNL     1      10.888  -2.808  20.125  1.00  0.00    -0.332 OA
ENDROOT
BRANCH   1   7
ATOM      7  C   UNL     1      10.455  -2.437  17.727  1.00  0.00     0.198 C 
BRANCH   7   8
ATOM      8  O   UNL     1      10.114  -1.069  17.637  1.00  0.00    -0.347 OA
BRANCH   8   9
ATOM      9  C   UNL     1       8.759  -0.899  17.241  1.00  0.00     0.281 C 
ATOM     10  C   UNL     1       7.215  -2.597  20.125  1.00  0.00     0.041 C 
ATOM     11  C   UNL     1       8.002  -1.518  19.378  1.00  0.00     0.150 C 
ATOM     12  C   UNL     1       7.482  -0.100  19.730  1.00  0.00     0.174 C 
ATOM     13  O   UNL     1       7.915  -1.768  17.984  1.00  0.00    -0.344 OA
ATOM     14  C   UNL     1       8.240   0.963  18.909  1.00  0.00     0.179 C 
ATOM     15  C   UNL     1       8.336   0.585  17.418  1.00  0.00     0.202 C 
BRANCH  12  16
ATOM     16  O   UNL     1       6.088   0.025  19.572  1.00  0.00    -0.388 OA
ATOM     17  H   UNL     1       5.665  -0.842  19.793  1.00  0.00     0.211 HD
ENDBRANCH  12  16
BRANCH  14  18
ATOM     18  O   UNL     1       7.635   2.223  19.046  1.00  0.00    -0.387 OA
ATOM     19  H   UNL     1       6.939   2.131  19.747  1.00  0.00     0.211 HD
ENDBRANCH  14  18
BRANCH  15  20
ATOM     20  O   UNL     1       7.139   0.897  16.736  1.00  0.00    -0.385 OA
ATOM     21  H   UNL     1       6.605   0.071  16.613  1.00  0.00     0.211 HD
ENDBRANCH  15  20
ENDBRANCH   8   9
ENDBRANCH   7   8
ENDBRANCH   1   7
BRANCH   2  22
ATOM     22  O   UNL     1       8.616  -4.679  17.881  1.00  0.00    -0.387 OA
ATOM     23  H   UNL     1       8.846  -5.571  17.510  1.00  0.00     0.211 HD
ENDBRANCH   2  22
BRANCH   3  24
ATOM     24  O   UNL     1      10.118  -6.779  19.042  1.00  0.00    -0.387 OA
ATOM     25  H   UNL     1       9.985  -7.105  18.114  1.00  0.00     0.211 HD
ENDBRANCH   3  24
BRANCH   5  26
ATOM     26  O   UNL     1      12.853  -3.434  18.993  1.00  0.00    -0.454 OA
BRANCH  26  27
ATOM     27  C   UNL     1      14.192  -3.036  19.127  1.00  0.00     0.214 A 
ATOM     28  C   UNL     1      14.549  -1.687  19.312  1.00  0.00     0.180 A 
ATOM     29  C   UNL     1      15.201  -4.004  19.080  1.00  0.00     0.239 A 
ATOM     30  O   UNL     1      15.817  -1.363  19.521  1.00  0.00    -0.452 OA
ATOM     31  C   UNL     1      16.556  -3.623  19.241  1.00  0.00     0.111 A 
ATOM     32  O   UNL     1      14.863  -5.209  18.932  1.00  0.00    -0.285 OA
ATOM     33  C   UNL     1      16.808  -2.248  19.504  1.00  0.00     0.146 A 
ATOM     34  C   UNL     1      17.666  -4.521  19.193  1.00  0.00     0.134 A 
ATOM     35  C   UNL     1      18.108  -1.799  19.746  1.00  0.00     0.094 A 
ATOM     36  C   UNL     1      18.954  -4.041  19.464  1.00  0.00     0.093 A 
ATOM     37  C   UNL     1      19.178  -2.689  19.733  1.00  0.00     0.123 A 
BRANCH  28  38
ATOM     38  C   UNL     1      13.548  -0.605  19.258  1.00  0.00     0.025 A 
ATOM     39  C   UNL     1      13.683   0.432  18.324  1.00  0.00     0.062 A 
ATOM     40  C   UNL     1      12.445  -0.617  20.125  1.00  0.00     0.016 A 
ATOM     41  C   UNL     1      12.745   1.476  18.286  1.00  0.00     0.158 A 
ATOM     42  C   UNL     1      11.508   0.418  20.088  1.00  0.00     0.051 A 
ATOM     43  C   UNL     1      11.653   1.467  19.174  1.00  0.00     0.157 A 
BRANCH  41  44
ATOM     44  O   UNL     1      12.896   2.519  17.376  1.00  0.00    -0.504 OA
ATOM     45  H   UNL     1      12.652   2.412  16.398  1.00  0.00     0.293 HD
ENDBRANCH  41  44
BRANCH  43  46
ATOM     46  O   UNL     1      10.705   2.490  19.161  1.00  0.00    -0.504 OA
ATOM     47  H   UNL     1      10.424   2.980  20.005  1.00  0.00     0.293 HD
ENDBRANCH  43  46
ENDBRANCH  28  38
BRANCH  34  48
ATOM     48  O   UNL     1      17.567  -5.877  18.863  1.00  0.00    -0.507 OA
ATOM     49  H   UNL     1      17.925  -6.639  19.417  1.00  0.00     0.293 HD
ENDBRANCH  34  48
BRANCH  37  50
ATOM     50  O   UNL     1      20.466  -2.219  19.980  1.00  0.00    -0.508 OA
ATOM     51  H   UNL     1      21.278  -2.816  19.866  1.00  0.00     0.293 HD
ENDBRANCH  37  50
ENDBRANCH  26  27
ENDBRANCH   5  26
BRANCH   4  52
ATOM     52  O   UNL     1      12.685  -6.019  20.048  1.00  0.00    -0.384 OA
ATOM     53  H   UNL     1      12.776  -6.457  20.934  1.00  0.00     0.211 HD
ENDBRANCH   4  52
TORSDOF 16
ENDMDL
