MODEL 1
REMARK VINA RESULT:    94.273      0.000      0.000
REMARK INTER + INTRA:         102.326
REMARK INTER:                 102.540
REMARK INTRA:                  -0.213
REMARK UNBOUND:                -0.213
REMARK SMILES C[C@@H]1[C@@H](C)CC[C@@]2(C(=O)[O-])CC[C@]3(C)C(=CC[C@H]4[C@@]5(C)CC[C@@H](O)C(C)(C)[C@@H]5CC[C@]43C)[C@@H]12
REMARK SMILES IDX 7 1 6 2 11 3 33 4 5 5 12 6 15 7 2 8 3 9 13 10 16 11 1 12
REMARK SMILES IDX 4 13 14 14 31 15 17 16 18 17 30 18 32 19 19 20 29 21 28 22
REMARK SMILES IDX 21 23 20 24 25 25 22 26 23 27 26 28 27 29 8 30 9 31 10 32
REMARK SMILES IDX 24 33
REMARK H PARENT 24 34
REMARK Flexibility Score: inf
ROOT
ATOM      1  C   UNL     1      13.721   2.799  23.682  1.00  0.00     0.017 C 
ATOM      2  C   UNL     1      13.291   3.511  22.356  1.00  0.00     0.014 C 
ATOM      3  C   UNL     1      15.013   1.956  23.381  1.00  0.00     0.014 C 
ATOM      4  C   UNL     1      13.914   3.877  24.836  1.00  0.00     0.030 C 
ATOM      5  C   UNL     1      12.361   4.697  22.630  1.00  0.00     0.004 C 
ATOM      6  C   UNL     1      16.268   2.422  24.134  1.00  0.00     0.013 C 
ATOM      7  C   UNL     1      14.863   3.404  25.953  1.00  0.00    -0.063 C 
ATOM      8  C   UNL     1      14.271   5.296  24.276  1.00  0.00    -0.003 C 
ATOM      9  C   UNL     1      13.112   5.832  23.369  1.00  0.00    -0.011 C 
ATOM     10  C   UNL     1      16.072   2.513  25.682  1.00  0.00    -0.006 C 
ATOM     11  C   UNL     1      14.591   3.737  27.228  1.00  0.00    -0.027 C 
ATOM     12  C   UNL     1      14.574   6.315  25.392  1.00  0.00     0.008 C 
ATOM     13  C   UNL     1      13.622   6.878  22.361  1.00  0.00     0.008 C 
ATOM     14  C   UNL     1      15.659   1.077  26.159  1.00  0.00     0.017 C 
ATOM     15  C   UNL     1      17.398   3.078  26.467  1.00  0.00    -0.020 C 
ATOM     16  C   UNL     1      15.613   3.544  28.313  1.00  0.00     0.032 C 
ATOM     17  C   UNL     1      17.021   3.923  27.784  1.00  0.00     0.006 C 
ATOM     18  C   UNL     1      18.358   1.887  26.809  1.00  0.00     0.008 C 
ATOM     19  C   UNL     1      18.195   4.035  25.525  1.00  0.00     0.012 C 
ATOM     20  C   UNL     1      18.172   4.098  28.909  1.00  0.00    -0.025 C 
ATOM     21  C   UNL     1      19.507   2.239  27.746  1.00  0.00     0.005 C 
ATOM     22  C   UNL     1      18.952   2.750  29.095  1.00  0.00     0.003 C 
ATOM     23  C   UNL     1      17.555   4.475  30.299  1.00  0.00     0.010 C 
ATOM     24  C   UNL     1      19.109   5.289  28.477  1.00  0.00     0.012 C 
ATOM     25  C   UNL     1      19.993   2.696  30.295  1.00  0.00    -0.006 C 
ATOM     26  C   UNL     1      18.562   4.526  31.459  1.00  0.00     0.033 C 
ATOM     27  C   UNL     1      19.337   3.212  31.627  1.00  0.00     0.120 C 
ATOM     28  C   UNL     1      21.278   3.517  30.011  1.00  0.00     0.014 C 
ATOM     29  C   UNL     1      20.456   1.230  30.535  1.00  0.00     0.014 C 
ENDROOT
BRANCH   1  30
ATOM     30  C   UNL     1      12.614   1.820  24.076  1.00  0.00     0.048 C 
ATOM     31  O   UNL     1      11.898   2.023  25.093  1.00  0.00    -0.550 OA
ATOM     32  O   UNL     1      12.440   0.633  23.371  1.00  0.00    -0.550 OA
ENDBRANCH   1  30
BRANCH  27  33
ATOM     33  O   UNL     1      18.518   2.246  32.247  1.00  0.00    -0.393 OA
ATOM     34  H   UNL     1      18.476   2.433  33.215  1.00  0.00     0.210 HD
ENDBRANCH  27  33
TORSDOF 2
ENDMDL
MODEL 2
REMARK VINA RESULT:    95.772      2.535      7.896
REMARK INTER + INTRA:         103.957
REMARK INTER:                 104.033
REMARK INTRA:                  -0.076
REMARK UNBOUND:                -0.213
REMARK SMILES C[C@@H]1[C@@H](C)CC[C@@]2(C(=O)[O-])CC[C@]3(C)C(=CC[C@H]4[C@@]5(C)CC[C@@H](O)C(C)(C)[C@@H]5CC[C@]43C)[C@@H]12
REMARK SMILES IDX 7 1 6 2 11 3 33 4 5 5 12 6 15 7 2 8 3 9 13 10 16 11 1 12
REMARK SMILES IDX 4 13 14 14 31 15 17 16 18 17 30 18 32 19 19 20 29 21 28 22
REMARK SMILES IDX 21 23 20 24 25 25 22 26 23 27 26 28 27 29 8 30 9 31 10 32
REMARK SMILES IDX 24 33
REMARK H PARENT 24 34
REMARK Flexibility Score: inf
ROOT
ATOM      1  C   UNL     1      20.424   0.949  26.681  1.00  0.00     0.017 C 
ATOM      2  C   UNL     1      21.026   0.205  27.920  1.00  0.00     0.014 C 
ATOM      3  C   UNL     1      19.578  -0.088  25.858  1.00  0.00     0.014 C 
ATOM      4  C   UNL     1      19.593   2.216  27.163  1.00  0.00     0.030 C 
ATOM      5  C   UNL     1      21.457   1.188  29.012  1.00  0.00     0.004 C 
ATOM      6  C   UNL     1      18.073   0.221  25.800  1.00  0.00     0.013 C 
ATOM      7  C   UNL     1      18.517   2.655  26.153  1.00  0.00    -0.063 C 
ATOM      8  C   UNL     1      19.046   2.053  28.622  1.00  0.00    -0.003 C 
ATOM      9  C   UNL     1      20.230   1.898  29.636  1.00  0.00    -0.011 C 
ATOM     10  C   UNL     1      17.749   1.661  25.286  1.00  0.00    -0.006 C 
ATOM     11  C   UNL     1      18.279   3.967  25.978  1.00  0.00    -0.027 C 
ATOM     12  C   UNL     1      18.142   3.225  29.051  1.00  0.00     0.008 C 
ATOM     13  C   UNL     1      19.785   1.168  30.916  1.00  0.00     0.008 C 
ATOM     14  C   UNL     1      18.378   1.768  23.853  1.00  0.00     0.017 C 
ATOM     15  C   UNL     1      16.145   2.001  25.294  1.00  0.00    -0.020 C 
ATOM     16  C   UNL     1      17.069   4.441  25.222  1.00  0.00     0.032 C 
ATOM     17  C   UNL     1      15.846   3.556  25.581  1.00  0.00     0.006 C 
ATOM     18  C   UNL     1      15.497   1.535  23.945  1.00  0.00     0.008 C 
ATOM     19  C   UNL     1      15.443   1.187  26.427  1.00  0.00     0.012 C 
ATOM     20  C   UNL     1      14.403   4.132  25.124  1.00  0.00    -0.025 C 
ATOM     21  C   UNL     1      14.066   2.007  23.724  1.00  0.00     0.005 C 
ATOM     22  C   UNL     1      14.012   3.552  23.720  1.00  0.00     0.003 C 
ATOM     23  C   UNL     1      14.431   5.693  24.991  1.00  0.00     0.010 C 
ATOM     24  C   UNL     1      13.352   3.778  26.244  1.00  0.00     0.012 C 
ATOM     25  C   UNL     1      12.711   4.161  23.041  1.00  0.00    -0.006 C 
ATOM     26  C   UNL     1      13.143   6.316  24.428  1.00  0.00     0.033 C 
ATOM     27  C   UNL     1      12.753   5.733  23.064  1.00  0.00     0.120 C 
ATOM     28  C   UNL     1      11.400   3.680  23.718  1.00  0.00     0.014 C 
ATOM     29  C   UNL     1      12.623   3.714  21.554  1.00  0.00     0.014 C 
ENDROOT
BRANCH   1  30
ATOM     30  C   UNL     1      21.583   1.405  25.792  1.00  0.00     0.048 C 
ATOM     31  O   UNL     1      22.676   0.776  25.774  1.00  0.00    -0.550 OA
ATOM     32  O   UNL     1      21.486   2.583  25.057  1.00  0.00    -0.550 OA
ENDBRANCH   1  30
BRANCH  27  33
ATOM     33  O   UNL     1      13.576   6.275  22.055  1.00  0.00    -0.393 OA
ATOM     34  H   UNL     1      13.176   6.080  21.174  1.00  0.00     0.210 HD
ENDBRANCH  27  33
TORSDOF 2
ENDMDL
MODEL 3
REMARK VINA RESULT:    95.945      1.647      2.244
REMARK INTER + INTRA:         104.145
REMARK INTER:                 104.169
REMARK INTRA:                  -0.024
REMARK UNBOUND:                -0.213
REMARK SMILES C[C@@H]1[C@@H](C)CC[C@@]2(C(=O)[O-])CC[C@]3(C)C(=CC[C@H]4[C@@]5(C)CC[C@@H](O)C(C)(C)[C@@H]5CC[C@]43C)[C@@H]12
REMARK SMILES IDX 7 1 6 2 11 3 33 4 5 5 12 6 15 7 2 8 3 9 13 10 16 11 1 12
REMARK SMILES IDX 4 13 14 14 31 15 17 16 18 17 30 18 32 19 19 20 29 21 28 22
REMARK SMILES IDX 21 23 20 24 25 25 22 26 23 27 26 28 27 29 8 30 9 31 10 32
REMARK SMILES IDX 24 33
REMARK H PARENT 24 34
REMARK Flexibility Score: inf
ROOT
ATOM      1  C   UNL     1      13.530   3.929  23.511  1.00  0.00     0.017 C 
ATOM      2  C   UNL     1      13.028   5.138  22.652  1.00  0.00     0.014 C 
ATOM      3  C   UNL     1      14.489   3.065  22.615  1.00  0.00     0.014 C 
ATOM      4  C   UNL     1      14.208   4.460  24.849  1.00  0.00     0.030 C 
ATOM      5  C   UNL     1      12.490   6.269  23.533  1.00  0.00     0.004 C 
ATOM      6  C   UNL     1      15.946   3.018  23.103  1.00  0.00     0.013 C 
ATOM      7  C   UNL     1      15.217   3.467  25.451  1.00  0.00    -0.063 C 
ATOM      8  C   UNL     1      14.778   5.911  24.695  1.00  0.00    -0.003 C 
ATOM      9  C   UNL     1      13.627   6.919  24.359  1.00  0.00    -0.011 C 
ATOM     10  C   UNL     1      16.093   2.561  24.591  1.00  0.00    -0.006 C 
ATOM     11  C   UNL     1      15.296   3.343  26.789  1.00  0.00    -0.027 C 
ATOM     12  C   UNL     1      15.538   6.385  25.948  1.00  0.00     0.008 C 
ATOM     13  C   UNL     1      14.163   8.170  23.639  1.00  0.00     0.008 C 
ATOM     14  C   UNL     1      15.447   1.133  24.678  1.00  0.00     0.017 C 
ATOM     15  C   UNL     1      17.646   2.580  25.119  1.00  0.00    -0.020 C 
ATOM     16  C   UNL     1      16.437   2.606  27.432  1.00  0.00     0.032 C 
ATOM     17  C   UNL     1      17.759   2.928  26.686  1.00  0.00     0.006 C 
ATOM     18  C   UNL     1      18.336   1.213  24.787  1.00  0.00     0.008 C 
ATOM     19  C   UNL     1      18.446   3.680  24.351  1.00  0.00     0.012 C 
ATOM     20  C   UNL     1      19.120   2.493  27.448  1.00  0.00    -0.025 C 
ATOM     21  C   UNL     1      19.700   1.009  25.434  1.00  0.00     0.005 C 
ATOM     22  C   UNL     1      19.569   1.066  26.974  1.00  0.00     0.003 C 
ATOM     23  C   UNL     1      18.906   2.422  28.998  1.00  0.00     0.010 C 
ATOM     24  C   UNL     1      20.212   3.596  27.178  1.00  0.00     0.012 C 
ATOM     25  C   UNL     1      20.785   0.411  27.760  1.00  0.00    -0.006 C 
ATOM     26  C   UNL     1      20.107   1.882  29.792  1.00  0.00     0.033 C 
ATOM     27  C   UNL     1      20.556   0.495  29.313  1.00  0.00     0.120 C 
ATOM     28  C   UNL     1      22.147   1.066  27.412  1.00  0.00     0.014 C 
ATOM     29  C   UNL     1      20.916  -1.093  27.384  1.00  0.00     0.014 C 
ENDROOT
BRANCH   1  30
ATOM     30  C   UNL     1      12.320   3.061  23.860  1.00  0.00     0.048 C 
ATOM     31  O   UNL     1      11.272   3.094  23.160  1.00  0.00    -0.550 OA
ATOM     32  O   UNL     1      12.319   2.286  25.016  1.00  0.00    -0.550 OA
ENDBRANCH   1  30
BRANCH  27  33
ATOM     33  O   UNL     1      19.668  -0.490  29.792  1.00  0.00    -0.393 OA
ATOM     34  H   UNL     1      18.983  -0.058  30.357  1.00  0.00     0.210 HD
ENDBRANCH  27  33
TORSDOF 2
ENDMDL
