MODEL 1
REMARK VINA RESULT:    -4.032      0.000      0.000
REMARK INTER + INTRA:         -13.174
REMARK INTER:                  -9.217
REMARK INTRA:                  -3.957
REMARK UNBOUND:                -3.957
REMARK SMILES CCCCCCCCCCCCCCCCCCCCCCCC(=O)[O-]
REMARK SMILES IDX 13 1 14 2 15 3 16 4 17 5 18 6 19 7 20 8 21 9 22 10 23 11
REMARK SMILES IDX 24 12 25 13 26 14 12 15 11 16 10 17 9 18 8 19 7 20 6 21 5 22
REMARK SMILES IDX 4 23 3 24 2 25 1 26
REMARK H PARENT
REMARK Flexibility Score: inf
ROOT
ATOM      1  C   UNL     1      77.258 -76.258  -0.484  1.00  0.00     0.000 C 
ENDROOT
BRANCH   1   2
ATOM      2  C   UNL     1      78.331 -77.128  -1.163  1.00  0.00     0.000 C 
BRANCH   2   3
ATOM      3  C   UNL     1      78.008 -78.637  -1.144  1.00  0.00     0.000 C 
BRANCH   3   4
ATOM      4  C   UNL     1      76.718 -78.966  -1.918  1.00  0.00     0.000 C 
BRANCH   4   5
ATOM      5  C   UNL     1      76.692 -78.357  -3.331  1.00  0.00     0.000 C 
BRANCH   5   6
ATOM      6  C   UNL     1      75.295 -77.874  -3.770  1.00  0.00     0.000 C 
BRANCH   6   7
ATOM      7  C   UNL     1      74.303 -77.814  -2.599  1.00  0.00     0.000 C 
BRANCH   7   8
ATOM      8  C   UNL     1      73.553 -76.477  -2.582  1.00  0.00     0.000 C 
BRANCH   8   9
ATOM      9  C   UNL     1      72.911 -76.220  -1.207  1.00  0.00     0.000 C 
BRANCH   9  10
ATOM     10  C   UNL     1      73.754 -76.770  -0.046  1.00  0.00     0.006 C 
BRANCH  10  11
ATOM     11  C   UNL     1      73.318 -76.210   1.322  1.00  0.00     0.053 C 
BRANCH  11  12
ATOM     12  C   UNL     1      72.981 -77.299   2.296  1.00  0.00     0.041 C 
ATOM     13  O   UNL     1      73.291 -77.199   3.514  1.00  0.00    -0.550 OA
ATOM     14  O   UNL     1      72.243 -78.398   1.866  1.00  0.00    -0.550 OA
ENDBRANCH  11  12
ENDBRANCH  10  11
ENDBRANCH   9  10
ENDBRANCH   8   9
ENDBRANCH   7   8
ENDBRANCH   6   7
ENDBRANCH   5   6
ENDBRANCH   4   5
ENDBRANCH   3   4
ENDBRANCH   2   3
ENDBRANCH   1   2
BRANCH   1  15
ATOM     15  C   UNL     1      76.797 -75.086  -1.366  1.00  0.00     0.000 C 
BRANCH  15  16
ATOM     16  C   UNL     1      77.871 -74.641  -2.373  1.00  0.00     0.000 C 
BRANCH  16  17
ATOM     17  C   UNL     1      77.360 -74.667  -3.823  1.00  0.00     0.000 C 
BRANCH  17  18
ATOM     18  C   UNL     1      76.045 -73.890  -4.000  1.00  0.00    -0.000 C 
BRANCH  18  19
ATOM     19  C   UNL     1      76.215 -72.384  -3.729  1.00  0.00    -0.000 C 
BRANCH  19  20
ATOM     20  C   UNL     1      74.989 -71.763  -3.039  1.00  0.00    -0.000 C 
BRANCH  20  21
ATOM     21  C   UNL     1      74.104 -72.817  -2.348  1.00  0.00    -0.000 C 
BRANCH  21  22
ATOM     22  C   UNL     1      74.039 -72.622  -0.824  1.00  0.00    -0.000 C 
BRANCH  22  23
ATOM     23  C   UNL     1      73.794 -71.157  -0.428  1.00  0.00    -0.000 C 
BRANCH  23  24
ATOM     24  C   UNL     1      72.381 -70.969   0.135  1.00  0.00    -0.000 C 
BRANCH  24  25
ATOM     25  C   UNL     1      72.401 -70.084   1.389  1.00  0.00    -0.003 C 
ATOM     26  C   UNL     1      73.073 -68.743   1.107  1.00  0.00     0.004 C 
ENDBRANCH  24  25
ENDBRANCH  23  24
ENDBRANCH  22  23
ENDBRANCH  21  22
ENDBRANCH  20  21
ENDBRANCH  19  20
ENDBRANCH  18  19
ENDBRANCH  17  18
ENDBRANCH  16  17
ENDBRANCH  15  16
ENDBRANCH   1  15
TORSDOF 22
ENDMDL
MODEL 2
REMARK VINA RESULT:    -3.882      1.392      2.967
REMARK INTER + INTRA:         -12.832
REMARK INTER:                  -9.140
REMARK INTRA:                  -3.692
REMARK UNBOUND:                -3.957
REMARK SMILES CCCCCCCCCCCCCCCCCCCCCCCC(=O)[O-]
REMARK SMILES IDX 13 1 14 2 15 3 16 4 17 5 18 6 19 7 20 8 21 9 22 10 23 11
REMARK SMILES IDX 24 12 25 13 26 14 12 15 11 16 10 17 9 18 8 19 7 20 6 21 5 22
REMARK SMILES IDX 4 23 3 24 2 25 1 26
REMARK H PARENT
REMARK Flexibility Score: inf
ROOT
ATOM      1  C   UNL     1      77.418 -79.907  -1.277  1.00  0.00     0.000 C 
ENDROOT
BRANCH   1   2
ATOM      2  C   UNL     1      75.908 -79.734  -1.524  1.00  0.00     0.000 C 
BRANCH   2   3
ATOM      3  C   UNL     1      75.547 -79.490  -3.003  1.00  0.00     0.000 C 
BRANCH   3   4
ATOM      4  C   UNL     1      74.424 -78.450  -3.164  1.00  0.00     0.000 C 
BRANCH   4   5
ATOM      5  C   UNL     1      74.941 -77.000  -3.161  1.00  0.00     0.000 C 
BRANCH   5   6
ATOM      6  C   UNL     1      74.233 -76.093  -2.135  1.00  0.00     0.000 C 
BRANCH   6   7
ATOM      7  C   UNL     1      75.041 -75.939  -0.837  1.00  0.00     0.000 C 
BRANCH   7   8
ATOM      8  C   UNL     1      74.261 -76.487   0.365  1.00  0.00     0.000 C 
BRANCH   8   9
ATOM      9  C   UNL     1      73.058 -75.589   0.699  1.00  0.00     0.000 C 
BRANCH   9  10
ATOM     10  C   UNL     1      72.153 -76.189   1.787  1.00  0.00     0.006 C 
BRANCH  10  11
ATOM     11  C   UNL     1      72.846 -77.311   2.584  1.00  0.00     0.053 C 
BRANCH  11  12
ATOM     12  C   UNL     1      73.257 -76.859   3.953  1.00  0.00     0.041 C 
ATOM     13  O   UNL     1      74.331 -77.266   4.475  1.00  0.00    -0.550 OA
ATOM     14  O   UNL     1      72.486 -75.915   4.623  1.00  0.00    -0.550 OA
ENDBRANCH  11  12
ENDBRANCH  10  11
ENDBRANCH   9  10
ENDBRANCH   8   9
ENDBRANCH   7   8
ENDBRANCH   6   7
ENDBRANCH   5   6
ENDBRANCH   4   5
ENDBRANCH   3   4
ENDBRANCH   2   3
ENDBRANCH   1   2
BRANCH   1  15
ATOM     15  C   UNL     1      78.133 -78.574  -1.003  1.00  0.00     0.000 C 
BRANCH  15  16
ATOM     16  C   UNL     1      78.974 -78.094  -2.198  1.00  0.00     0.000 C 
BRANCH  16  17
ATOM     17  C   UNL     1      78.595 -76.673  -2.648  1.00  0.00     0.000 C 
BRANCH  17  18
ATOM     18  C   UNL     1      78.543 -75.677  -1.477  1.00  0.00    -0.000 C 
BRANCH  18  19
ATOM     19  C   UNL     1      78.037 -74.290  -1.910  1.00  0.00    -0.000 C 
BRANCH  19  20
ATOM     20  C   UNL     1      77.484 -74.281  -3.345  1.00  0.00    -0.000 C 
BRANCH  20  21
ATOM     21  C   UNL     1      76.936 -72.903  -3.759  1.00  0.00    -0.000 C 
BRANCH  21  22
ATOM     22  C   UNL     1      75.400 -72.855  -3.752  1.00  0.00    -0.000 C 
BRANCH  22  23
ATOM     23  C   UNL     1      74.848 -71.834  -2.744  1.00  0.00    -0.000 C 
BRANCH  23  24
ATOM     24  C   UNL     1      73.642 -72.405  -1.988  1.00  0.00    -0.000 C 
BRANCH  24  25
ATOM     25  C   UNL     1      73.790 -72.190  -0.475  1.00  0.00    -0.003 C 
ATOM     26  C   UNL     1      73.827 -70.705  -0.129  1.00  0.00     0.004 C 
ENDBRANCH  24  25
ENDBRANCH  23  24
ENDBRANCH  22  23
ENDBRANCH  21  22
ENDBRANCH  20  21
ENDBRANCH  19  20
ENDBRANCH  18  19
ENDBRANCH  17  18
ENDBRANCH  16  17
ENDBRANCH  15  16
ENDBRANCH   1  15
TORSDOF 22
ENDMDL
MODEL 3
REMARK VINA RESULT:    -3.878      1.621      2.761
REMARK INTER + INTRA:         -12.823
REMARK INTER:                  -8.692
REMARK INTRA:                  -4.130
REMARK UNBOUND:                -3.957
REMARK SMILES CCCCCCCCCCCCCCCCCCCCCCCC(=O)[O-]
REMARK SMILES IDX 13 1 14 2 15 3 16 4 17 5 18 6 19 7 20 8 21 9 22 10 23 11
REMARK SMILES IDX 24 12 25 13 26 14 12 15 11 16 10 17 9 18 8 19 7 20 6 21 5 22
REMARK SMILES IDX 4 23 3 24 2 25 1 26
REMARK H PARENT
REMARK Flexibility Score: inf
ROOT
ATOM      1  C   UNL     1      77.710 -77.668  -0.883  1.00  0.00     0.000 C 
ENDROOT
BRANCH   1   2
ATOM      2  C   UNL     1      77.966 -78.131  -2.329  1.00  0.00     0.000 C 
BRANCH   2   3
ATOM      3  C   UNL     1      76.690 -78.578  -3.071  1.00  0.00     0.000 C 
BRANCH   3   4
ATOM      4  C   UNL     1      75.962 -77.398  -3.740  1.00  0.00     0.000 C 
BRANCH   4   5
ATOM      5  C   UNL     1      74.498 -77.258  -3.285  1.00  0.00     0.000 C 
BRANCH   5   6
ATOM      6  C   UNL     1      74.295 -77.494  -1.774  1.00  0.00     0.000 C 
BRANCH   6   7
ATOM      7  C   UNL     1      73.580 -76.319  -1.091  1.00  0.00     0.000 C 
BRANCH   7   8
ATOM      8  C   UNL     1      74.105 -76.109   0.334  1.00  0.00     0.000 C 
BRANCH   8   9
ATOM      9  C   UNL     1      72.946 -75.932   1.330  1.00  0.00     0.000 C 
BRANCH   9  10
ATOM     10  C   UNL     1      73.016 -76.921   2.505  1.00  0.00     0.006 C 
BRANCH  10  11
ATOM     11  C   UNL     1      72.500 -76.314   3.824  1.00  0.00     0.053 C 
BRANCH  11  12
ATOM     12  C   UNL     1      73.315 -76.752   5.004  1.00  0.00     0.041 C 
ATOM     13  O   UNL     1      72.878 -76.621   6.180  1.00  0.00    -0.550 OA
ATOM     14  O   UNL     1      74.535 -77.388   4.795  1.00  0.00    -0.550 OA
ENDBRANCH  11  12
ENDBRANCH  10  11
ENDBRANCH   9  10
ENDBRANCH   8   9
ENDBRANCH   7   8
ENDBRANCH   6   7
ENDBRANCH   5   6
ENDBRANCH   4   5
ENDBRANCH   3   4
ENDBRANCH   2   3
ENDBRANCH   1   2
BRANCH   1  15
ATOM     15  C   UNL     1      77.725 -76.137  -0.738  1.00  0.00     0.000 C 
BRANCH  15  16
ATOM     16  C   UNL     1      78.601 -75.447  -1.797  1.00  0.00     0.000 C 
BRANCH  16  17
ATOM     17  C   UNL     1      77.842 -74.350  -2.561  1.00  0.00     0.000 C 
BRANCH  17  18
ATOM     18  C   UNL     1      76.444 -74.083  -1.977  1.00  0.00    -0.000 C 
BRANCH  18  19
ATOM     19  C   UNL     1      75.440 -73.624  -3.049  1.00  0.00    -0.000 C 
BRANCH  19  20
ATOM     20  C   UNL     1      74.222 -72.900  -2.450  1.00  0.00    -0.000 C 
BRANCH  20  21
ATOM     21  C   UNL     1      74.371 -72.645  -0.939  1.00  0.00    -0.000 C 
BRANCH  21  22
ATOM     22  C   UNL     1      73.199 -71.835  -0.361  1.00  0.00    -0.000 C 
BRANCH  22  23
ATOM     23  C   UNL     1      71.872 -72.126  -1.080  1.00  0.00    -0.000 C 
BRANCH  23  24
ATOM     24  C   UNL     1      71.197 -73.376  -0.505  1.00  0.00    -0.000 C 
BRANCH  24  25
ATOM     25  C   UNL     1      70.542 -74.208  -1.616  1.00  0.00    -0.003 C 
ATOM     26  C   UNL     1      70.520 -73.444  -2.937  1.00  0.00     0.004 C 
ENDBRANCH  24  25
ENDBRANCH  23  24
ENDBRANCH  22  23
ENDBRANCH  21  22
ENDBRANCH  20  21
ENDBRANCH  19  20
ENDBRANCH  18  19
ENDBRANCH  17  18
ENDBRANCH  16  17
ENDBRANCH  15  16
ENDBRANCH   1  15
TORSDOF 22
ENDMDL
MODEL 4
REMARK VINA RESULT:    -3.833      1.414      2.502
REMARK INTER + INTRA:         -12.720
REMARK INTER:                  -8.369
REMARK INTRA:                  -4.351
REMARK UNBOUND:                -3.957
REMARK SMILES CCCCCCCCCCCCCCCCCCCCCCCC(=O)[O-]
REMARK SMILES IDX 13 1 14 2 15 3 16 4 17 5 18 6 19 7 20 8 21 9 22 10 23 11
REMARK SMILES IDX 24 12 25 13 26 14 12 15 11 16 10 17 9 18 8 19 7 20 6 21 5 22
REMARK SMILES IDX 4 23 3 24 2 25 1 26
REMARK H PARENT
REMARK Flexibility Score: inf
ROOT
ATOM      1  C   UNL     1      76.650 -75.963  -0.220  1.00  0.00     0.000 C 
ENDROOT
BRANCH   1   2
ATOM      2  C   UNL     1      75.253 -76.128  -0.845  1.00  0.00     0.000 C 
BRANCH   2   3
ATOM      3  C   UNL     1      75.149 -77.316  -1.823  1.00  0.00     0.000 C 
BRANCH   3   4
ATOM      4  C   UNL     1      74.446 -76.930  -3.136  1.00  0.00     0.000 C 
BRANCH   4   5
ATOM      5  C   UNL     1      73.012 -77.480  -3.237  1.00  0.00     0.000 C 
BRANCH   5   6
ATOM      6  C   UNL     1      71.928 -76.383  -3.256  1.00  0.00     0.000 C 
BRANCH   6   7
ATOM      7  C   UNL     1      70.924 -76.535  -2.104  1.00  0.00     0.000 C 
BRANCH   7   8
ATOM      8  C   UNL     1      71.616 -76.368  -0.745  1.00  0.00     0.000 C 
BRANCH   8   9
ATOM      9  C   UNL     1      71.071 -75.142   0.006  1.00  0.00     0.000 C 
BRANCH   9  10
ATOM     10  C   UNL     1      71.783 -74.903   1.348  1.00  0.00     0.006 C 
BRANCH  10  11
ATOM     11  C   UNL     1      72.832 -75.986   1.665  1.00  0.00     0.053 C 
BRANCH  11  12
ATOM     12  C   UNL     1      72.677 -76.531   3.054  1.00  0.00     0.041 C 
ATOM     13  O   UNL     1      71.541 -76.604   3.599  1.00  0.00    -0.550 OA
ATOM     14  O   UNL     1      73.788 -77.039   3.718  1.00  0.00    -0.550 OA
ENDBRANCH  11  12
ENDBRANCH  10  11
ENDBRANCH   9  10
ENDBRANCH   8   9
ENDBRANCH   7   8
ENDBRANCH   6   7
ENDBRANCH   5   6
ENDBRANCH   4   5
ENDBRANCH   3   4
ENDBRANCH   2   3
ENDBRANCH   1   2
BRANCH   1  15
ATOM     15  C   UNL     1      77.740 -76.727  -0.990  1.00  0.00     0.000 C 
BRANCH  15  16
ATOM     16  C   UNL     1      78.545 -75.821  -1.937  1.00  0.00     0.000 C 
BRANCH  16  17
ATOM     17  C   UNL     1      78.213 -76.078  -3.416  1.00  0.00     0.000 C 
BRANCH  17  18
ATOM     18  C   UNL     1      77.446 -74.910  -4.060  1.00  0.00    -0.000 C 
BRANCH  18  19
ATOM     19  C   UNL     1      77.194 -73.759  -3.070  1.00  0.00    -0.000 C 
BRANCH  19  20
ATOM     20  C   UNL     1      76.712 -72.474  -3.764  1.00  0.00    -0.000 C 
BRANCH  20  21
ATOM     21  C   UNL     1      75.324 -72.023  -3.271  1.00  0.00    -0.000 C 
BRANCH  21  22
ATOM     22  C   UNL     1      74.253 -73.109  -3.457  1.00  0.00    -0.000 C 
BRANCH  22  23
ATOM     23  C   UNL     1      73.259 -73.162  -2.286  1.00  0.00    -0.000 C 
BRANCH  23  24
ATOM     24  C   UNL     1      73.927 -72.727  -0.977  1.00  0.00    -0.000 C 
BRANCH  24  25
ATOM     25  C   UNL     1      73.056 -71.712  -0.225  1.00  0.00    -0.003 C 
ATOM     26  C   UNL     1      73.802 -70.398  -0.009  1.00  0.00     0.004 C 
ENDBRANCH  24  25
ENDBRANCH  23  24
ENDBRANCH  22  23
ENDBRANCH  21  22
ENDBRANCH  20  21
ENDBRANCH  19  20
ENDBRANCH  18  19
ENDBRANCH  17  18
ENDBRANCH  16  17
ENDBRANCH  15  16
ENDBRANCH   1  15
TORSDOF 22
ENDMDL
MODEL 5
REMARK VINA RESULT:    -3.786      1.926      5.313
REMARK INTER + INTRA:         -12.612
REMARK INTER:                  -8.433
REMARK INTRA:                  -4.179
REMARK UNBOUND:                -3.957
REMARK SMILES CCCCCCCCCCCCCCCCCCCCCCCC(=O)[O-]
REMARK SMILES IDX 13 1 14 2 15 3 16 4 17 5 18 6 19 7 20 8 21 9 22 10 23 11
REMARK SMILES IDX 24 12 25 13 26 14 12 15 11 16 10 17 9 18 8 19 7 20 6 21 5 22
REMARK SMILES IDX 4 23 3 24 2 25 1 26
REMARK H PARENT
REMARK Flexibility Score: inf
ROOT
ATOM      1  C   UNL     1      76.891 -74.947  -1.350  1.00  0.00     0.000 C 
ENDROOT
BRANCH   1   2
ATOM      2  C   UNL     1      77.933 -74.341  -2.306  1.00  0.00     0.000 C 
BRANCH   2   3
ATOM      3  C   UNL     1      77.501 -74.361  -3.787  1.00  0.00     0.000 C 
BRANCH   3   4
ATOM      4  C   UNL     1      76.122 -73.709  -3.999  1.00  0.00     0.000 C 
BRANCH   4   5
ATOM      5  C   UNL     1      76.153 -72.177  -3.861  1.00  0.00     0.000 C 
BRANCH   5   6
ATOM      6  C   UNL     1      74.913 -71.595  -3.152  1.00  0.00     0.000 C 
BRANCH   6   7
ATOM      7  C   UNL     1      74.086 -72.677  -2.441  1.00  0.00     0.000 C 
BRANCH   7   8
ATOM      8  C   UNL     1      74.265 -72.595  -0.921  1.00  0.00     0.000 C 
BRANCH   8   9
ATOM      9  C   UNL     1      73.783 -71.238  -0.379  1.00  0.00     0.000 C 
BRANCH   9  10
ATOM     10  C   UNL     1      72.269 -71.209  -0.114  1.00  0.00     0.006 C 
BRANCH  10  11
ATOM     11  C   UNL     1      71.713 -72.582   0.309  1.00  0.00     0.053 C 
BRANCH  11  12
ATOM     12  C   UNL     1      70.710 -73.110  -0.672  1.00  0.00     0.041 C 
ATOM     13  O   UNL     1      70.778 -74.297  -1.094  1.00  0.00    -0.550 OA
ATOM     14  O   UNL     1      69.642 -72.307  -1.060  1.00  0.00    -0.550 OA
ENDBRANCH  11  12
ENDBRANCH  10  11
ENDBRANCH   9  10
ENDBRANCH   8   9
ENDBRANCH   7   8
ENDBRANCH   6   7
ENDBRANCH   5   6
ENDBRANCH   4   5
ENDBRANCH   3   4
ENDBRANCH   2   3
ENDBRANCH   1   2
BRANCH   1  15
ATOM     15  C   UNL     1      77.445 -76.129  -0.537  1.00  0.00     0.000 C 
BRANCH  15  16
ATOM     16  C   UNL     1      78.205 -77.145  -1.407  1.00  0.00     0.000 C 
BRANCH  16  17
ATOM     17  C   UNL     1      77.681 -78.579  -1.226  1.00  0.00     0.000 C 
BRANCH  17  18
ATOM     18  C   UNL     1      76.697 -78.993  -2.333  1.00  0.00    -0.000 C 
BRANCH  18  19
ATOM     19  C   UNL     1      76.702 -78.009  -3.517  1.00  0.00    -0.000 C 
BRANCH  19  20
ATOM     20  C   UNL     1      75.313 -77.411  -3.797  1.00  0.00    -0.000 C 
BRANCH  20  21
ATOM     21  C   UNL     1      74.171 -78.283  -3.243  1.00  0.00    -0.000 C 
BRANCH  21  22
ATOM     22  C   UNL     1      73.065 -77.450  -2.576  1.00  0.00    -0.000 C 
BRANCH  22  23
ATOM     23  C   UNL     1      73.627 -76.360  -1.650  1.00  0.00    -0.000 C 
BRANCH  23  24
ATOM     24  C   UNL     1      73.808 -76.890  -0.223  1.00  0.00    -0.000 C 
BRANCH  24  25
ATOM     25  C   UNL     1      73.382 -75.841   0.813  1.00  0.00    -0.003 C 
ATOM     26  C   UNL     1      73.177 -76.473   2.187  1.00  0.00     0.004 C 
ENDBRANCH  24  25
ENDBRANCH  23  24
ENDBRANCH  22  23
ENDBRANCH  21  22
ENDBRANCH  20  21
ENDBRANCH  19  20
ENDBRANCH  18  19
ENDBRANCH  17  18
ENDBRANCH  16  17
ENDBRANCH  15  16
ENDBRANCH   1  15
TORSDOF 22
ENDMDL
MODEL 6
REMARK VINA RESULT:    -3.764      2.471      5.819
REMARK INTER + INTRA:         -12.563
REMARK INTER:                  -8.602
REMARK INTRA:                  -3.962
REMARK UNBOUND:                -3.957
REMARK SMILES CCCCCCCCCCCCCCCCCCCCCCCC(=O)[O-]
REMARK SMILES IDX 13 1 14 2 15 3 16 4 17 5 18 6 19 7 20 8 21 9 22 10 23 11
REMARK SMILES IDX 24 12 25 13 26 14 12 15 11 16 10 17 9 18 8 19 7 20 6 21 5 22
REMARK SMILES IDX 4 23 3 24 2 25 1 26
REMARK H PARENT
REMARK Flexibility Score: inf
ROOT
ATOM      1  C   UNL     1      77.098 -75.575  -1.061  1.00  0.00     0.000 C 
ENDROOT
BRANCH   1   2
ATOM      2  C   UNL     1      76.483 -74.394  -1.832  1.00  0.00     0.000 C 
BRANCH   2   3
ATOM      3  C   UNL     1      76.676 -74.483  -3.360  1.00  0.00     0.000 C 
BRANCH   3   4
ATOM      4  C   UNL     1      75.697 -73.575  -4.125  1.00  0.00     0.000 C 
BRANCH   4   5
ATOM      5  C   UNL     1      74.786 -72.754  -3.195  1.00  0.00     0.000 C 
BRANCH   5   6
ATOM      6  C   UNL     1      73.297 -73.146  -3.285  1.00  0.00     0.000 C 
BRANCH   6   7
ATOM      7  C   UNL     1      72.543 -72.879  -1.973  1.00  0.00     0.000 C 
BRANCH   7   8
ATOM      8  C   UNL     1      73.456 -72.203  -0.942  1.00  0.00     0.000 C 
BRANCH   8   9
ATOM      9  C   UNL     1      72.692 -71.133  -0.144  1.00  0.00     0.000 C 
BRANCH   9  10
ATOM     10  C   UNL     1      73.625 -70.210   0.656  1.00  0.00     0.006 C 
BRANCH  10  11
ATOM     11  C   UNL     1      72.929 -68.914   1.115  1.00  0.00     0.053 C 
BRANCH  11  12
ATOM     12  C   UNL     1      72.201 -69.095   2.413  1.00  0.00     0.041 C 
ATOM     13  O   UNL     1      72.259 -70.186   3.043  1.00  0.00    -0.550 OA
ATOM     14  O   UNL     1      71.519 -68.018   2.972  1.00  0.00    -0.550 OA
ENDBRANCH  11  12
ENDBRANCH  10  11
ENDBRANCH   9  10
ENDBRANCH   8   9
ENDBRANCH   7   8
ENDBRANCH   6   7
ENDBRANCH   5   6
ENDBRANCH   4   5
ENDBRANCH   3   4
ENDBRANCH   2   3
ENDBRANCH   1   2
BRANCH   1  15
ATOM     15  C   UNL     1      78.562 -75.841  -1.449  1.00  0.00     0.000 C 
BRANCH  15  16
ATOM     16  C   UNL     1      78.811 -77.299  -1.871  1.00  0.00     0.000 C 
BRANCH  16  17
ATOM     17  C   UNL     1      78.040 -78.301  -0.995  1.00  0.00     0.000 C 
BRANCH  17  18
ATOM     18  C   UNL     1      77.092 -79.194  -1.814  1.00  0.00    -0.000 C 
BRANCH  18  19
ATOM     19  C   UNL     1      77.060 -78.802  -3.302  1.00  0.00    -0.000 C 
BRANCH  19  20
ATOM     20  C   UNL     1      75.663 -78.359  -3.768  1.00  0.00    -0.000 C 
BRANCH  20  21
ATOM     21  C   UNL     1      74.730 -78.013  -2.593  1.00  0.00    -0.000 C 
BRANCH  21  22
ATOM     22  C   UNL     1      73.814 -76.818  -2.902  1.00  0.00    -0.000 C 
BRANCH  22  23
ATOM     23  C   UNL     1      72.811 -76.538  -1.772  1.00  0.00    -0.000 C 
BRANCH  23  24
ATOM     24  C   UNL     1      73.400 -76.912  -0.407  1.00  0.00    -0.000 C 
BRANCH  24  25
ATOM     25  C   UNL     1      73.626 -75.663   0.455  1.00  0.00    -0.003 C 
ATOM     26  C   UNL     1      72.312 -75.149   1.037  1.00  0.00     0.004 C 
ENDBRANCH  24  25
ENDBRANCH  23  24
ENDBRANCH  22  23
ENDBRANCH  21  22
ENDBRANCH  20  21
ENDBRANCH  19  20
ENDBRANCH  18  19
ENDBRANCH  17  18
ENDBRANCH  16  17
ENDBRANCH  15  16
ENDBRANCH   1  15
TORSDOF 22
ENDMDL
MODEL 7
REMARK VINA RESULT:    -3.760      1.968      4.949
REMARK INTER + INTRA:         -12.553
REMARK INTER:                  -8.293
REMARK INTRA:                  -4.260
REMARK UNBOUND:                -3.957
REMARK SMILES CCCCCCCCCCCCCCCCCCCCCCCC(=O)[O-]
REMARK SMILES IDX 13 1 14 2 15 3 16 4 17 5 18 6 19 7 20 8 21 9 22 10 23 11
REMARK SMILES IDX 24 12 25 13 26 14 12 15 11 16 10 17 9 18 8 19 7 20 6 21 5 22
REMARK SMILES IDX 4 23 3 24 2 25 1 26
REMARK H PARENT
REMARK Flexibility Score: inf
ROOT
ATOM      1  C   UNL     1      74.034 -74.954  -0.715  1.00  0.00     0.000 C 
ENDROOT
BRANCH   1   2
ATOM      2  C   UNL     1      75.100 -76.041  -0.486  1.00  0.00     0.000 C 
BRANCH   2   3
ATOM      3  C   UNL     1      75.140 -77.112  -1.596  1.00  0.00     0.000 C 
BRANCH   3   4
ATOM      4  C   UNL     1      74.784 -76.532  -2.977  1.00  0.00     0.000 C 
BRANCH   4   5
ATOM      5  C   UNL     1      73.671 -77.319  -3.692  1.00  0.00     0.000 C 
BRANCH   5   6
ATOM      6  C   UNL     1      72.265 -76.715  -3.500  1.00  0.00     0.000 C 
BRANCH   6   7
ATOM      7  C   UNL     1      71.362 -77.604  -2.632  1.00  0.00     0.000 C 
BRANCH   7   8
ATOM      8  C   UNL     1      71.036 -76.921  -1.298  1.00  0.00     0.000 C 
BRANCH   8   9
ATOM      9  C   UNL     1      70.989 -77.944  -0.150  1.00  0.00     0.000 C 
BRANCH   9  10
ATOM     10  C   UNL     1      72.361 -78.159   0.510  1.00  0.00     0.006 C 
BRANCH  10  11
ATOM     11  C   UNL     1      72.276 -78.225   2.048  1.00  0.00     0.053 C 
BRANCH  11  12
ATOM     12  C   UNL     1      72.846 -77.000   2.697  1.00  0.00     0.041 C 
ATOM     13  O   UNL     1      73.772 -77.088   3.549  1.00  0.00    -0.550 OA
ATOM     14  O   UNL     1      72.405 -75.743   2.295  1.00  0.00    -0.550 OA
ENDBRANCH  11  12
ENDBRANCH  10  11
ENDBRANCH   9  10
ENDBRANCH   8   9
ENDBRANCH   7   8
ENDBRANCH   6   7
ENDBRANCH   5   6
ENDBRANCH   4   5
ENDBRANCH   3   4
ENDBRANCH   2   3
ENDBRANCH   1   2
BRANCH   1  15
ATOM     15  C   UNL     1      74.645 -73.562  -0.944  1.00  0.00     0.000 C 
BRANCH  15  16
ATOM     16  C   UNL     1      73.814 -72.700  -1.910  1.00  0.00     0.000 C 
BRANCH  16  17
ATOM     17  C   UNL     1      74.693 -71.895  -2.882  1.00  0.00     0.000 C 
BRANCH  17  18
ATOM     18  C   UNL     1      75.448 -72.794  -3.876  1.00  0.00    -0.000 C 
BRANCH  18  19
ATOM     19  C   UNL     1      76.971 -72.754  -3.659  1.00  0.00    -0.000 C 
BRANCH  19  20
ATOM     20  C   UNL     1      77.579 -74.152  -3.459  1.00  0.00    -0.000 C 
BRANCH  20  21
ATOM     21  C   UNL     1      77.917 -74.443  -1.985  1.00  0.00    -0.000 C 
BRANCH  21  22
ATOM     22  C   UNL     1      78.653 -75.780  -1.803  1.00  0.00    -0.000 C 
BRANCH  22  23
ATOM     23  C   UNL     1      78.645 -76.635  -3.081  1.00  0.00    -0.000 C 
BRANCH  23  24
ATOM     24  C   UNL     1      78.526 -78.125  -2.745  1.00  0.00    -0.000 C 
BRANCH  24  25
ATOM     25  C   UNL     1      78.677 -78.363  -1.236  1.00  0.00    -0.003 C 
ATOM     26  C   UNL     1      78.017 -79.673  -0.815  1.00  0.00     0.004 C 
ENDBRANCH  24  25
ENDBRANCH  23  24
ENDBRANCH  22  23
ENDBRANCH  21  22
ENDBRANCH  20  21
ENDBRANCH  19  20
ENDBRANCH  18  19
ENDBRANCH  17  18
ENDBRANCH  16  17
ENDBRANCH  15  16
ENDBRANCH   1  15
TORSDOF 22
ENDMDL
MODEL 8
REMARK VINA RESULT:    -3.731      1.421      2.149
REMARK INTER + INTRA:         -12.486
REMARK INTER:                  -8.196
REMARK INTRA:                  -4.289
REMARK UNBOUND:                -3.957
REMARK SMILES CCCCCCCCCCCCCCCCCCCCCCCC(=O)[O-]
REMARK SMILES IDX 13 1 14 2 15 3 16 4 17 5 18 6 19 7 20 8 21 9 22 10 23 11
REMARK SMILES IDX 24 12 25 13 26 14 12 15 11 16 10 17 9 18 8 19 7 20 6 21 5 22
REMARK SMILES IDX 4 23 3 24 2 25 1 26
REMARK H PARENT
REMARK Flexibility Score: inf
ROOT
ATOM      1  C   UNL     1      77.593 -76.204  -0.720  1.00  0.00     0.000 C 
ENDROOT
BRANCH   1   2
ATOM      2  C   UNL     1      77.620 -77.705  -1.059  1.00  0.00     0.000 C 
BRANCH   2   3
ATOM      3  C   UNL     1      78.473 -78.045  -2.299  1.00  0.00     0.000 C 
BRANCH   3   4
ATOM      4  C   UNL     1      77.629 -78.637  -3.442  1.00  0.00     0.000 C 
BRANCH   4   5
ATOM      5  C   UNL     1      76.223 -79.070  -2.990  1.00  0.00     0.000 C 
BRANCH   5   6
ATOM      6  C   UNL     1      75.102 -78.635  -3.956  1.00  0.00     0.000 C 
BRANCH   6   7
ATOM      7  C   UNL     1      73.975 -77.879  -3.238  1.00  0.00     0.000 C 
BRANCH   7   8
ATOM      8  C   UNL     1      74.034 -78.111  -1.723  1.00  0.00     0.000 C 
BRANCH   8   9
ATOM      9  C   UNL     1      73.114 -77.129  -0.976  1.00  0.00     0.000 C 
BRANCH   9  10
ATOM     10  C   UNL     1      73.883 -76.212  -0.012  1.00  0.00     0.006 C 
BRANCH  10  11
ATOM     11  C   UNL     1      72.962 -75.521   1.013  1.00  0.00     0.053 C 
BRANCH  11  12
ATOM     12  C   UNL     1      72.587 -76.436   2.140  1.00  0.00     0.041 C 
ATOM     13  O   UNL     1      71.391 -76.800   2.310  1.00  0.00    -0.550 OA
ATOM     14  O   UNL     1      73.584 -76.957   2.960  1.00  0.00    -0.550 OA
ENDBRANCH  11  12
ENDBRANCH  10  11
ENDBRANCH   9  10
ENDBRANCH   8   9
ENDBRANCH   7   8
ENDBRANCH   6   7
ENDBRANCH   5   6
ENDBRANCH   4   5
ENDBRANCH   3   4
ENDBRANCH   2   3
ENDBRANCH   1   2
BRANCH   1  15
ATOM     15  C   UNL     1      78.548 -75.379  -1.597  1.00  0.00     0.000 C 
BRANCH  15  16
ATOM     16  C   UNL     1      77.869 -74.147  -2.220  1.00  0.00     0.000 C 
BRANCH  16  17
ATOM     17  C   UNL     1      77.569 -74.337  -3.716  1.00  0.00     0.000 C 
BRANCH  17  18
ATOM     18  C   UNL     1      76.278 -75.136  -3.962  1.00  0.00    -0.000 C 
BRANCH  18  19
ATOM     19  C   UNL     1      75.040 -74.228  -4.070  1.00  0.00    -0.000 C 
BRANCH  19  20
ATOM     20  C   UNL     1      75.400 -72.733  -4.099  1.00  0.00    -0.000 C 
BRANCH  20  21
ATOM     21  C   UNL     1      74.796 -71.957  -2.914  1.00  0.00    -0.000 C 
BRANCH  21  22
ATOM     22  C   UNL     1      74.483 -72.866  -1.715  1.00  0.00    -0.000 C 
BRANCH  22  23
ATOM     23  C   UNL     1      73.415 -72.267  -0.786  1.00  0.00    -0.000 C 
BRANCH  23  24
ATOM     24  C   UNL     1      72.015 -72.409  -1.395  1.00  0.00    -0.000 C 
BRANCH  24  25
ATOM     25  C   UNL     1      71.837 -73.785  -2.050  1.00  0.00    -0.003 C 
ATOM     26  C   UNL     1      71.397 -73.651  -3.505  1.00  0.00     0.004 C 
ENDBRANCH  24  25
ENDBRANCH  23  24
ENDBRANCH  22  23
ENDBRANCH  21  22
ENDBRANCH  20  21
ENDBRANCH  19  20
ENDBRANCH  18  19
ENDBRANCH  17  18
ENDBRANCH  16  17
ENDBRANCH  15  16
ENDBRANCH   1  15
TORSDOF 22
ENDMDL
