MODEL 1
REMARK VINA RESULT:     6.352      0.000      0.000
REMARK INTER + INTRA:          14.225
REMARK INTER:                  16.008
REMARK INTRA:                  -1.783
REMARK UNBOUND:                -1.783
REMARK SMILES CCCCCCCCCCCCCCCCCCCCCCCCCCCC(=O)[O-]
REMARK SMILES IDX 15 1 16 2 17 3 18 4 19 5 20 6 21 7 22 8 23 9 24 10 25 11
REMARK SMILES IDX 26 12 27 13 28 14 29 15 30 16 14 17 13 18 12 19 11 20 10 21
REMARK SMILES IDX 9 22 8 23 7 24 6 25 5 26 4 27 3 28 2 29 1 30
REMARK H PARENT
REMARK Flexibility Score: inf
ROOT
ATOM      1  C   UNL     1      -1.324  58.997  -6.422  1.00  0.00     0.000 C 
ENDROOT
BRANCH   1   2
ATOM      2  C   UNL     1       0.216  59.048  -6.342  1.00  0.00     0.000 C 
BRANCH   2   3
ATOM      3  C   UNL     1       0.939  59.268  -7.686  1.00  0.00     0.000 C 
BRANCH   3   4
ATOM      4  C   UNL     1       2.379  59.800  -7.569  1.00  0.00     0.000 C 
BRANCH   4   5
ATOM      5  C   UNL     1       2.731  60.417  -6.202  1.00  0.00     0.000 C 
BRANCH   5   6
ATOM      6  C   UNL     1       3.179  61.892  -6.283  1.00  0.00     0.000 C 
BRANCH   6   7
ATOM      7  C   UNL     1       2.043  62.829  -6.728  1.00  0.00     0.000 C 
BRANCH   7   8
ATOM      8  C   UNL     1       2.565  64.195  -7.223  1.00  0.00     0.000 C 
BRANCH   8   9
ATOM      9  C   UNL     1       1.584  65.359  -6.978  1.00  0.00     0.000 C 
BRANCH   9  10
ATOM     10  C   UNL     1       2.148  66.513  -6.127  1.00  0.00     0.000 C 
BRANCH  10  11
ATOM     11  C   UNL     1       1.102  67.524  -5.619  1.00  0.00     0.000 C 
BRANCH  11  12
ATOM     12  C   UNL     1       0.086  68.008  -6.672  1.00  0.00     0.006 C 
BRANCH  12  13
ATOM     13  C   UNL     1      -0.461  69.423  -6.410  1.00  0.00     0.053 C 
BRANCH  13  14
ATOM     14  C   UNL     1      -1.550  69.439  -5.381  1.00  0.00     0.041 C 
ATOM     15  O   UNL     1      -2.125  70.519  -5.083  1.00  0.00    -0.550 OA
ATOM     16  O   UNL     1      -1.908  68.269  -4.724  1.00  0.00    -0.550 OA
ENDBRANCH  13  14
ENDBRANCH  12  13
ENDBRANCH  11  12
ENDBRANCH  10  11
ENDBRANCH   9  10
ENDBRANCH   8   9
ENDBRANCH   7   8
ENDBRANCH   6   7
ENDBRANCH   5   6
ENDBRANCH   4   5
ENDBRANCH   3   4
ENDBRANCH   2   3
ENDBRANCH   1   2
BRANCH   1  17
ATOM     17  C   UNL     1      -1.903  58.875  -7.844  1.00  0.00     0.000 C 
BRANCH  17  18
ATOM     18  C   UNL     1      -3.243  59.614  -8.009  1.00  0.00     0.000 C 
BRANCH  18  19
ATOM     19  C   UNL     1      -3.312  60.903  -7.174  1.00  0.00     0.000 C 
BRANCH  19  20
ATOM     20  C   UNL     1      -4.549  60.951  -6.258  1.00  0.00     0.000 C 
BRANCH  20  21
ATOM     21  C   UNL     1      -5.074  59.549  -5.907  1.00  0.00     0.000 C 
BRANCH  21  22
ATOM     22  C   UNL     1      -4.264  58.879  -4.783  1.00  0.00    -0.000 C 
BRANCH  22  23
ATOM     23  C   UNL     1      -3.884  59.859  -3.662  1.00  0.00    -0.000 C 
BRANCH  23  24
ATOM     24  C   UNL     1      -2.746  59.334  -2.774  1.00  0.00    -0.000 C 
BRANCH  24  25
ATOM     25  C   UNL     1      -1.378  59.717  -3.353  1.00  0.00    -0.000 C 
BRANCH  25  26
ATOM     26  C   UNL     1      -0.629  60.670  -2.416  1.00  0.00    -0.000 C 
BRANCH  26  27
ATOM     27  C   UNL     1      -0.080  59.924  -1.193  1.00  0.00    -0.000 C 
BRANCH  27  28
ATOM     28  C   UNL     1       1.277  60.498  -0.761  1.00  0.00    -0.000 C 
BRANCH  28  29
ATOM     29  C   UNL     1       1.266  62.032  -0.668  1.00  0.00    -0.003 C 
ATOM     30  C   UNL     1       1.546  62.541   0.745  1.00  0.00     0.004 C 
ENDBRANCH  28  29
ENDBRANCH  27  28
ENDBRANCH  26  27
ENDBRANCH  25  26
ENDBRANCH  24  25
ENDBRANCH  23  24
ENDBRANCH  22  23
ENDBRANCH  21  22
ENDBRANCH  20  21
ENDBRANCH  19  20
ENDBRANCH  18  19
ENDBRANCH  17  18
ENDBRANCH   1  17
TORSDOF 26
ENDMDL
MODEL 2
REMARK VINA RESULT:     6.535      2.707      8.546
REMARK INTER + INTRA:          14.685
REMARK INTER:                  16.082
REMARK INTRA:                  -1.397
REMARK UNBOUND:                -1.783
REMARK SMILES CCCCCCCCCCCCCCCCCCCCCCCCCCCC(=O)[O-]
REMARK SMILES IDX 15 1 16 2 17 3 18 4 19 5 20 6 21 7 22 8 23 9 24 10 25 11
REMARK SMILES IDX 26 12 27 13 28 14 29 15 30 16 14 17 13 18 12 19 11 20 10 21
REMARK SMILES IDX 9 22 8 23 7 24 6 25 5 26 4 27 3 28 2 29 1 30
REMARK H PARENT
REMARK Flexibility Score: inf
ROOT
ATOM      1  C   UNL     1       2.266  60.617  -5.763  1.00  0.00     0.000 C 
ENDROOT
BRANCH   1   2
ATOM      2  C   UNL     1       1.661  59.261  -6.182  1.00  0.00     0.000 C 
BRANCH   2   3
ATOM      3  C   UNL     1       1.280  59.142  -7.672  1.00  0.00     0.000 C 
BRANCH   3   4
ATOM      4  C   UNL     1      -0.213  58.876  -7.940  1.00  0.00     0.000 C 
BRANCH   4   5
ATOM      5  C   UNL     1      -1.105  58.876  -6.684  1.00  0.00     0.000 C 
BRANCH   5   6
ATOM      6  C   UNL     1      -2.498  59.502  -6.911  1.00  0.00     0.000 C 
BRANCH   6   7
ATOM      7  C   UNL     1      -2.789  60.661  -5.942  1.00  0.00     0.000 C 
BRANCH   7   8
ATOM      8  C   UNL     1      -4.069  60.427  -5.111  1.00  0.00     0.000 C 
BRANCH   8   9
ATOM      9  C   UNL     1      -3.986  59.208  -4.173  1.00  0.00     0.000 C 
BRANCH   9  10
ATOM     10  C   UNL     1      -2.677  59.099  -3.366  1.00  0.00     0.000 C 
BRANCH  10  11
ATOM     11  C   UNL     1      -1.768  60.341  -3.423  1.00  0.00     0.000 C 
BRANCH  11  12
ATOM     12  C   UNL     1      -0.333  60.134  -2.899  1.00  0.00     0.006 C 
BRANCH  12  13
ATOM     13  C   UNL     1       0.237  61.344  -2.138  1.00  0.00     0.053 C 
BRANCH  13  14
ATOM     14  C   UNL     1       0.799  60.971  -0.800  1.00  0.00     0.041 C 
ATOM     15  O   UNL     1       0.686  59.792  -0.371  1.00  0.00    -0.550 OA
ATOM     16  O   UNL     1       1.414  61.932  -0.008  1.00  0.00    -0.550 OA
ENDBRANCH  13  14
ENDBRANCH  12  13
ENDBRANCH  11  12
ENDBRANCH  10  11
ENDBRANCH   9  10
ENDBRANCH   8   9
ENDBRANCH   7   8
ENDBRANCH   6   7
ENDBRANCH   5   6
ENDBRANCH   4   5
ENDBRANCH   3   4
ENDBRANCH   2   3
ENDBRANCH   1   2
BRANCH   1  17
ATOM     17  C   UNL     1       2.786  61.489  -6.921  1.00  0.00     0.000 C 
BRANCH  17  18
ATOM     18  C   UNL     1       1.953  62.767  -7.127  1.00  0.00     0.000 C 
BRANCH  18  19
ATOM     19  C   UNL     1       2.829  64.016  -7.323  1.00  0.00     0.000 C 
BRANCH  19  20
ATOM     20  C   UNL     1       2.003  65.313  -7.403  1.00  0.00     0.000 C 
BRANCH  20  21
ATOM     21  C   UNL     1       1.847  65.994  -6.033  1.00  0.00     0.000 C 
BRANCH  21  22
ATOM     22  C   UNL     1       1.301  67.428  -6.144  1.00  0.00    -0.000 C 
BRANCH  22  23
ATOM     23  C   UNL     1      -0.110  67.479  -6.754  1.00  0.00    -0.000 C 
BRANCH  23  24
ATOM     24  C   UNL     1      -0.566  68.909  -7.081  1.00  0.00    -0.000 C 
BRANCH  24  25
ATOM     25  C   UNL     1      -0.572  69.783  -5.820  1.00  0.00    -0.000 C 
BRANCH  25  26
ATOM     26  C   UNL     1      -1.437  69.158  -4.720  1.00  0.00    -0.000 C 
BRANCH  26  27
ATOM     27  C   UNL     1      -2.501  70.146  -4.225  1.00  0.00    -0.000 C 
BRANCH  27  28
ATOM     28  C   UNL     1      -3.231  70.805  -5.404  1.00  0.00    -0.000 C 
BRANCH  28  29
ATOM     29  C   UNL     1      -4.148  69.825  -6.152  1.00  0.00    -0.003 C 
ATOM     30  C   UNL     1      -4.947  70.498  -7.268  1.00  0.00     0.004 C 
ENDBRANCH  28  29
ENDBRANCH  27  28
ENDBRANCH  26  27
ENDBRANCH  25  26
ENDBRANCH  24  25
ENDBRANCH  23  24
ENDBRANCH  22  23
ENDBRANCH  21  22
ENDBRANCH  20  21
ENDBRANCH  19  20
ENDBRANCH  18  19
ENDBRANCH  17  18
ENDBRANCH   1  17
TORSDOF 26
ENDMDL
MODEL 3
REMARK VINA RESULT:     7.066      2.983      9.050
REMARK INTER + INTRA:          16.023
REMARK INTER:                  16.992
REMARK INTRA:                  -0.969
REMARK UNBOUND:                -1.783
REMARK SMILES CCCCCCCCCCCCCCCCCCCCCCCCCCCC(=O)[O-]
REMARK SMILES IDX 15 1 16 2 17 3 18 4 19 5 20 6 21 7 22 8 23 9 24 10 25 11
REMARK SMILES IDX 26 12 27 13 28 14 29 15 30 16 14 17 13 18 12 19 11 20 10 21
REMARK SMILES IDX 9 22 8 23 7 24 6 25 5 26 4 27 3 28 2 29 1 30
REMARK H PARENT
REMARK Flexibility Score: inf
ROOT
ATOM      1  C   UNL     1       2.562  62.577  -7.013  1.00  0.00     0.000 C 
ENDROOT
BRANCH   1   2
ATOM      2  C   UNL     1       3.705  61.967  -7.849  1.00  0.00     0.000 C 
BRANCH   2   3
ATOM      3  C   UNL     1       3.620  60.442  -8.069  1.00  0.00     0.000 C 
BRANCH   3   4
ATOM      4  C   UNL     1       3.151  59.636  -6.843  1.00  0.00     0.000 C 
BRANCH   4   5
ATOM      5  C   UNL     1       1.626  59.446  -6.740  1.00  0.00     0.000 C 
BRANCH   5   6
ATOM      6  C   UNL     1       0.967  60.301  -5.637  1.00  0.00     0.000 C 
BRANCH   6   7
ATOM      7  C   UNL     1      -0.125  59.535  -4.871  1.00  0.00     0.000 C 
BRANCH   7   8
ATOM      8  C   UNL     1      -0.487  60.207  -3.529  1.00  0.00     0.000 C 
BRANCH   8   9
ATOM      9  C   UNL     1      -1.989  60.145  -3.190  1.00  0.00     0.000 C 
BRANCH   9  10
ATOM     10  C   UNL     1      -2.731  58.918  -3.754  1.00  0.00     0.000 C 
BRANCH  10  11
ATOM     11  C   UNL     1      -4.266  58.963  -3.622  1.00  0.00     0.000 C 
BRANCH  11  12
ATOM     12  C   UNL     1      -5.020  59.469  -4.867  1.00  0.00     0.006 C 
BRANCH  12  13
ATOM     13  C   UNL     1      -4.180  60.377  -5.784  1.00  0.00     0.053 C 
BRANCH  13  14
ATOM     14  C   UNL     1      -4.474  60.159  -7.237  1.00  0.00     0.041 C 
ATOM     15  O   UNL     1      -4.535  61.139  -8.025  1.00  0.00    -0.550 OA
ATOM     16  O   UNL     1      -4.715  58.879  -7.717  1.00  0.00    -0.550 OA
ENDBRANCH  13  14
ENDBRANCH  12  13
ENDBRANCH  11  12
ENDBRANCH  10  11
ENDBRANCH   9  10
ENDBRANCH   8   9
ENDBRANCH   7   8
ENDBRANCH   6   7
ENDBRANCH   5   6
ENDBRANCH   4   5
ENDBRANCH   3   4
ENDBRANCH   2   3
ENDBRANCH   1   2
BRANCH   1  17
ATOM     17  C   UNL     1       2.439  64.110  -7.087  1.00  0.00     0.000 C 
BRANCH  17  18
ATOM     18  C   UNL     1       1.992  64.739  -5.755  1.00  0.00     0.000 C 
BRANCH  18  19
ATOM     19  C   UNL     1       2.982  65.797  -5.241  1.00  0.00     0.000 C 
BRANCH  19  20
ATOM     20  C   UNL     1       2.490  67.236  -5.480  1.00  0.00     0.000 C 
BRANCH  20  21
ATOM     21  C   UNL     1       1.021  67.430  -5.069  1.00  0.00     0.000 C 
BRANCH  21  22
ATOM     22  C   UNL     1       0.103  67.715  -6.271  1.00  0.00    -0.000 C 
BRANCH  22  23
ATOM     23  C   UNL     1      -0.199  69.212  -6.443  1.00  0.00    -0.000 C 
BRANCH  23  24
ATOM     24  C   UNL     1      -0.434  69.929  -5.104  1.00  0.00    -0.000 C 
BRANCH  24  25
ATOM     25  C   UNL     1      -1.881  70.423  -4.994  1.00  0.00    -0.000 C 
BRANCH  25  26
ATOM     26  C   UNL     1      -2.858  69.408  -5.597  1.00  0.00    -0.000 C 
BRANCH  26  27
ATOM     27  C   UNL     1      -3.694  70.042  -6.716  1.00  0.00    -0.000 C 
BRANCH  27  28
ATOM     28  C   UNL     1      -5.086  70.439  -6.206  1.00  0.00    -0.000 C 
BRANCH  28  29
ATOM     29  C   UNL     1      -5.124  71.870  -5.648  1.00  0.00    -0.003 C 
ATOM     30  C   UNL     1      -4.461  72.885  -6.578  1.00  0.00     0.004 C 
ENDBRANCH  28  29
ENDBRANCH  27  28
ENDBRANCH  26  27
ENDBRANCH  25  26
ENDBRANCH  24  25
ENDBRANCH  23  24
ENDBRANCH  22  23
ENDBRANCH  21  22
ENDBRANCH  20  21
ENDBRANCH  19  20
ENDBRANCH  18  19
ENDBRANCH  17  18
ENDBRANCH   1  17
TORSDOF 26
ENDMDL
MODEL 4
REMARK VINA RESULT:     7.595      4.474     10.960
REMARK INTER + INTRA:          17.356
REMARK INTER:                  18.613
REMARK INTRA:                  -1.257
REMARK UNBOUND:                -1.783
REMARK SMILES CCCCCCCCCCCCCCCCCCCCCCCCCCCC(=O)[O-]
REMARK SMILES IDX 15 1 16 2 17 3 18 4 19 5 20 6 21 7 22 8 23 9 24 10 25 11
REMARK SMILES IDX 26 12 27 13 28 14 29 15 30 16 14 17 13 18 12 19 11 20 10 21
REMARK SMILES IDX 9 22 8 23 7 24 6 25 5 26 4 27 3 28 2 29 1 30
REMARK H PARENT
REMARK Flexibility Score: inf
ROOT
ATOM      1  C   UNL     1       2.523  67.207  -4.690  1.00  0.00     0.000 C 
ENDROOT
BRANCH   1   2
ATOM      2  C   UNL     1       3.280  65.929  -5.106  1.00  0.00     0.000 C 
BRANCH   2   3
ATOM      3  C   UNL     1       2.419  64.849  -5.793  1.00  0.00     0.000 C 
BRANCH   3   4
ATOM      4  C   UNL     1       3.092  63.470  -5.926  1.00  0.00     0.000 C 
BRANCH   4   5
ATOM      5  C   UNL     1       2.136  62.269  -5.799  1.00  0.00     0.000 C 
BRANCH   5   6
ATOM      6  C   UNL     1       2.513  61.077  -6.705  1.00  0.00     0.000 C 
BRANCH   6   7
ATOM      7  C   UNL     1       1.777  59.784  -6.314  1.00  0.00     0.000 C 
BRANCH   7   8
ATOM      8  C   UNL     1       0.430  59.625  -7.052  1.00  0.00     0.000 C 
BRANCH   8   9
ATOM      9  C   UNL     1      -0.645  58.889  -6.228  1.00  0.00     0.000 C 
BRANCH   9  10
ATOM     10  C   UNL     1      -1.926  59.701  -5.960  1.00  0.00     0.000 C 
BRANCH  10  11
ATOM     11  C   UNL     1      -2.174  60.064  -4.483  1.00  0.00     0.000 C 
BRANCH  11  12
ATOM     12  C   UNL     1      -0.924  60.495  -3.690  1.00  0.00     0.006 C 
BRANCH  12  13
ATOM     13  C   UNL     1      -0.885  59.966  -2.245  1.00  0.00     0.053 C 
BRANCH  13  14
ATOM     14  C   UNL     1       0.240  60.550  -1.447  1.00  0.00     0.041 C 
ATOM     15  O   UNL     1       0.943  61.478  -1.927  1.00  0.00    -0.550 OA
ATOM     16  O   UNL     1       0.538  60.047  -0.187  1.00  0.00    -0.550 OA
ENDBRANCH  13  14
ENDBRANCH  12  13
ENDBRANCH  11  12
ENDBRANCH  10  11
ENDBRANCH   9  10
ENDBRANCH   8   9
ENDBRANCH   7   8
ENDBRANCH   6   7
ENDBRANCH   5   6
ENDBRANCH   4   5
ENDBRANCH   3   4
ENDBRANCH   2   3
ENDBRANCH   1   2
BRANCH   1  17
ATOM     17  C   UNL     1       1.673  67.857  -5.797  1.00  0.00     0.000 C 
BRANCH  17  18
ATOM     18  C   UNL     1       0.306  68.348  -5.290  1.00  0.00     0.000 C 
BRANCH  18  19
ATOM     19  C   UNL     1      -0.725  68.494  -6.421  1.00  0.00     0.000 C 
BRANCH  19  20
ATOM     20  C   UNL     1      -1.502  69.821  -6.350  1.00  0.00     0.000 C 
BRANCH  20  21
ATOM     21  C   UNL     1      -2.595  69.804  -5.268  1.00  0.00     0.000 C 
BRANCH  21  22
ATOM     22  C   UNL     1      -4.003  70.029  -5.847  1.00  0.00    -0.000 C 
BRANCH  22  23
ATOM     23  C   UNL     1      -4.511  71.463  -5.625  1.00  0.00    -0.000 C 
BRANCH  23  24
ATOM     24  C   UNL     1      -4.877  72.173  -6.937  1.00  0.00    -0.000 C 
BRANCH  24  25
ATOM     25  C   UNL     1      -5.119  73.669  -6.701  1.00  0.00    -0.000 C 
BRANCH  25  26
ATOM     26  C   UNL     1      -4.899  74.474  -7.986  1.00  0.00    -0.000 C 
BRANCH  26  27
ATOM     27  C   UNL     1      -4.982  75.981  -7.715  1.00  0.00    -0.000 C 
BRANCH  27  28
ATOM     28  C   UNL     1      -3.598  76.637  -7.816  1.00  0.00    -0.000 C 
BRANCH  28  29
ATOM     29  C   UNL     1      -3.663  78.170  -7.737  1.00  0.00    -0.003 C 
ATOM     30  C   UNL     1      -2.345  78.839  -8.123  1.00  0.00     0.004 C 
ENDBRANCH  28  29
ENDBRANCH  27  28
ENDBRANCH  26  27
ENDBRANCH  25  26
ENDBRANCH  24  25
ENDBRANCH  23  24
ENDBRANCH  22  23
ENDBRANCH  21  22
ENDBRANCH  20  21
ENDBRANCH  19  20
ENDBRANCH  18  19
ENDBRANCH  17  18
ENDBRANCH   1  17
TORSDOF 26
ENDMDL
MODEL 5
REMARK VINA RESULT:     7.757      2.001      6.821
REMARK INTER + INTRA:          17.764
REMARK INTER:                  16.970
REMARK INTRA:                   0.793
REMARK UNBOUND:                -1.783
REMARK SMILES CCCCCCCCCCCCCCCCCCCCCCCCCCCC(=O)[O-]
REMARK SMILES IDX 15 1 16 2 17 3 18 4 19 5 20 6 21 7 22 8 23 9 24 10 25 11
REMARK SMILES IDX 26 12 27 13 28 14 29 15 30 16 14 17 13 18 12 19 11 20 10 21
REMARK SMILES IDX 9 22 8 23 7 24 6 25 5 26 4 27 3 28 2 29 1 30
REMARK H PARENT
REMARK Flexibility Score: inf
ROOT
ATOM      1  C   UNL     1       2.341  65.180  -6.433  1.00  0.00     0.000 C 
ENDROOT
BRANCH   1   2
ATOM      2  C   UNL     1       1.390  66.345  -6.779  1.00  0.00     0.000 C 
BRANCH   2   3
ATOM      3  C   UNL     1       1.430  67.539  -5.804  1.00  0.00     0.000 C 
BRANCH   3   4
ATOM      4  C   UNL     1       0.475  68.695  -6.154  1.00  0.00     0.000 C 
BRANCH   4   5
ATOM      5  C   UNL     1      -0.679  68.315  -7.101  1.00  0.00     0.000 C 
BRANCH   5   6
ATOM      6  C   UNL     1      -2.075  68.416  -6.449  1.00  0.00     0.000 C 
BRANCH   6   7
ATOM      7  C   UNL     1      -3.030  69.328  -7.240  1.00  0.00     0.000 C 
BRANCH   7   8
ATOM      8  C   UNL     1      -4.509  69.106  -6.859  1.00  0.00     0.000 C 
BRANCH   8   9
ATOM      9  C   UNL     1      -5.125  70.270  -6.059  1.00  0.00     0.000 C 
BRANCH   9  10
ATOM     10  C   UNL     1      -4.569  71.663  -6.410  1.00  0.00     0.000 C 
BRANCH  10  11
ATOM     11  C   UNL     1      -3.456  72.179  -5.478  1.00  0.00     0.000 C 
BRANCH  11  12
ATOM     12  C   UNL     1      -2.397  71.134  -5.073  1.00  0.00     0.006 C 
BRANCH  12  13
ATOM     13  C   UNL     1      -2.700  70.417  -3.745  1.00  0.00     0.053 C 
BRANCH  13  14
ATOM     14  C   UNL     1      -1.610  69.474  -3.337  1.00  0.00     0.041 C 
ATOM     15  O   UNL     1      -1.474  68.369  -3.927  1.00  0.00    -0.550 OA
ATOM     16  O   UNL     1      -0.764  69.795  -2.284  1.00  0.00    -0.550 OA
ENDBRANCH  13  14
ENDBRANCH  12  13
ENDBRANCH  11  12
ENDBRANCH  10  11
ENDBRANCH   9  10
ENDBRANCH   8   9
ENDBRANCH   7   8
ENDBRANCH   6   7
ENDBRANCH   5   6
ENDBRANCH   4   5
ENDBRANCH   3   4
ENDBRANCH   2   3
ENDBRANCH   1   2
BRANCH   1  17
ATOM     17  C   UNL     1       2.501  64.114  -7.532  1.00  0.00     0.000 C 
BRANCH  17  18
ATOM     18  C   UNL     1       2.701  62.697  -6.967  1.00  0.00     0.000 C 
BRANCH  18  19
ATOM     19  C   UNL     1       2.612  61.611  -8.052  1.00  0.00     0.000 C 
BRANCH  19  20
ATOM     20  C   UNL     1       2.744  60.188  -7.480  1.00  0.00     0.000 C 
BRANCH  20  21
ATOM     21  C   UNL     1       3.119  60.187  -5.988  1.00  0.00     0.000 C 
BRANCH  21  22
ATOM     22  C   UNL     1       2.061  59.495  -5.113  1.00  0.00    -0.000 C 
BRANCH  22  23
ATOM     23  C   UNL     1       0.896  60.428  -4.744  1.00  0.00    -0.000 C 
BRANCH  23  24
ATOM     24  C   UNL     1      -0.477  59.826  -5.079  1.00  0.00    -0.000 C 
BRANCH  24  25
ATOM     25  C   UNL     1      -1.448  59.990  -3.903  1.00  0.00    -0.000 C 
BRANCH  25  26
ATOM     26  C   UNL     1      -2.747  60.670  -4.350  1.00  0.00    -0.000 C 
BRANCH  26  27
ATOM     27  C   UNL     1      -3.735  59.648  -4.926  1.00  0.00    -0.000 C 
BRANCH  27  28
ATOM     28  C   UNL     1      -4.684  60.307  -5.936  1.00  0.00    -0.000 C 
BRANCH  28  29
ATOM     29  C   UNL     1      -4.016  60.556  -7.298  1.00  0.00    -0.003 C 
ATOM     30  C   UNL     1      -3.356  59.302  -7.870  1.00  0.00     0.004 C 
ENDBRANCH  28  29
ENDBRANCH  27  28
ENDBRANCH  26  27
ENDBRANCH  25  26
ENDBRANCH  24  25
ENDBRANCH  23  24
ENDBRANCH  22  23
ENDBRANCH  21  22
ENDBRANCH  20  21
ENDBRANCH  19  20
ENDBRANCH  18  19
ENDBRANCH  17  18
ENDBRANCH   1  17
TORSDOF 26
ENDMDL
