MODEL 1
REMARK VINA RESULT:    -4.398      0.000      0.000
REMARK INTER + INTRA:          -7.624
REMARK INTER:                  -6.968
REMARK INTRA:                  -0.655
REMARK UNBOUND:                -0.655
REMARK SMILES CCCCCCCCCCCC(=O)[O-]
REMARK SMILES IDX 7 1 8 2 9 3 10 4 11 5 12 6 13 7 14 8 6 9 5 10 4 11 3 12 2 13
REMARK SMILES IDX 1 14
REMARK H PARENT
REMARK Flexibility Score: inf
ROOT
ATOM      1  C   UNL     1      -6.649   6.825 -32.733  1.00  0.00     0.000 C 
ENDROOT
BRANCH   1   2
ATOM      2  C   UNL     1      -7.700   5.702 -32.666  1.00  0.00     0.000 C 
BRANCH   2   3
ATOM      3  C   UNL     1      -8.157   5.238 -34.058  1.00  0.00     0.000 C 
BRANCH   3   4
ATOM      4  C   UNL     1      -8.104   3.712 -34.222  1.00  0.00     0.006 C 
BRANCH   4   5
ATOM      5  C   UNL     1      -6.877   3.291 -35.036  1.00  0.00     0.053 C 
BRANCH   5   6
ATOM      6  C   UNL     1      -6.967   3.816 -36.434  1.00  0.00     0.041 C 
ATOM      7  O   UNL     1      -6.063   4.564 -36.889  1.00  0.00    -0.550 OA
ATOM      8  O   UNL     1      -8.077   3.522 -37.216  1.00  0.00    -0.550 OA
ENDBRANCH   5   6
ENDBRANCH   4   5
ENDBRANCH   3   4
ENDBRANCH   2   3
ENDBRANCH   1   2
BRANCH   1   9
ATOM      9  C   UNL     1      -6.005   6.948 -34.123  1.00  0.00     0.000 C 
BRANCH   9  10
ATOM     10  C   UNL     1      -5.179   8.233 -34.285  1.00  0.00    -0.000 C 
BRANCH  10  11
ATOM     11  C   UNL     1      -4.213   8.119 -35.470  1.00  0.00    -0.000 C 
BRANCH  11  12
ATOM     12  C   UNL     1      -2.853   8.743 -35.135  1.00  0.00    -0.000 C 
BRANCH  12  13
ATOM     13  C   UNL     1      -1.728   8.070 -35.928  1.00  0.00    -0.003 C 
ATOM     14  C   UNL     1      -0.879   7.175 -35.030  1.00  0.00     0.004 C 
ENDBRANCH  12  13
ENDBRANCH  11  12
ENDBRANCH  10  11
ENDBRANCH   9  10
ENDBRANCH   1   9
TORSDOF 10
ENDMDL
MODEL 2
REMARK VINA RESULT:    -4.306     14.738     15.915
REMARK INTER + INTRA:          -7.478
REMARK INTER:                  -7.020
REMARK INTRA:                  -0.458
REMARK UNBOUND:                -0.655
REMARK SMILES CCCCCCCCCCCC(=O)[O-]
REMARK SMILES IDX 7 1 8 2 9 3 10 4 11 5 12 6 13 7 14 8 6 9 5 10 4 11 3 12 2 13
REMARK SMILES IDX 1 14
REMARK H PARENT
REMARK Flexibility Score: inf
ROOT
ATOM      1  C   UNL     1     -12.836   2.365 -22.018  1.00  0.00     0.000 C 
ENDROOT
BRANCH   1   2
ATOM      2  C   UNL     1     -12.080   1.321 -21.176  1.00  0.00     0.000 C 
BRANCH   2   3
ATOM      3  C   UNL     1     -11.346   0.284 -22.043  1.00  0.00     0.000 C 
BRANCH   3   4
ATOM      4  C   UNL     1      -9.849   0.190 -21.714  1.00  0.00     0.006 C 
BRANCH   4   5
ATOM      5  C   UNL     1      -9.200   1.577 -21.716  1.00  0.00     0.053 C 
BRANCH   5   6
ATOM      6  C   UNL     1      -8.575   1.868 -20.389  1.00  0.00     0.041 C 
ATOM      7  O   UNL     1      -9.131   2.664 -19.588  1.00  0.00    -0.550 OA
ATOM      8  O   UNL     1      -7.352   1.299 -20.057  1.00  0.00    -0.550 OA
ENDBRANCH   5   6
ENDBRANCH   4   5
ENDBRANCH   3   4
ENDBRANCH   2   3
ENDBRANCH   1   2
BRANCH   1   9
ATOM      9  C   UNL     1     -14.074   2.921 -21.297  1.00  0.00     0.000 C 
BRANCH   9  10
ATOM     10  C   UNL     1     -15.266   3.137 -22.242  1.00  0.00    -0.000 C 
BRANCH  10  11
ATOM     11  C   UNL     1     -15.367   4.606 -22.671  1.00  0.00    -0.000 C 
BRANCH  11  12
ATOM     12  C   UNL     1     -14.858   4.800 -24.103  1.00  0.00    -0.000 C 
BRANCH  12  13
ATOM     13  C   UNL     1     -15.675   5.867 -24.838  1.00  0.00    -0.003 C 
ATOM     14  C   UNL     1     -16.433   6.756 -23.857  1.00  0.00     0.004 C 
ENDBRANCH  12  13
ENDBRANCH  11  12
ENDBRANCH  10  11
ENDBRANCH   9  10
ENDBRANCH   1   9
TORSDOF 10
ENDMDL
MODEL 3
REMARK VINA RESULT:    -4.269      2.898      5.001
REMARK INTER + INTRA:          -7.419
REMARK INTER:                  -6.668
REMARK INTRA:                  -0.752
REMARK UNBOUND:                -0.655
REMARK SMILES CCCCCCCCCCCC(=O)[O-]
REMARK SMILES IDX 7 1 8 2 9 3 10 4 11 5 12 6 13 7 14 8 6 9 5 10 4 11 3 12 2 13
REMARK SMILES IDX 1 14
REMARK H PARENT
REMARK Flexibility Score: inf
ROOT
ATOM      1  C   UNL     1      -7.958   3.696 -33.851  1.00  0.00     0.000 C 
ENDROOT
BRANCH   1   2
ATOM      2  C   UNL     1      -8.189   5.207 -34.029  1.00  0.00     0.000 C 
BRANCH   2   3
ATOM      3  C   UNL     1      -7.868   6.006 -32.755  1.00  0.00     0.000 C 
BRANCH   3   4
ATOM      4  C   UNL     1      -6.450   6.596 -32.765  1.00  0.00     0.006 C 
BRANCH   4   5
ATOM      5  C   UNL     1      -6.018   6.956 -34.189  1.00  0.00     0.053 C 
BRANCH   5   6
ATOM      6  C   UNL     1      -5.300   8.268 -34.205  1.00  0.00     0.041 C 
ATOM      7  O   UNL     1      -5.861   9.303 -33.757  1.00  0.00    -0.550 OA
ATOM      8  O   UNL     1      -4.030   8.359 -34.762  1.00  0.00    -0.550 OA
ENDBRANCH   5   6
ENDBRANCH   4   5
ENDBRANCH   3   4
ENDBRANCH   2   3
ENDBRANCH   1   2
BRANCH   1   9
ATOM      9  C   UNL     1      -7.544   3.004 -35.160  1.00  0.00     0.000 C 
BRANCH   9  10
ATOM     10  C   UNL     1      -6.354   3.694 -35.847  1.00  0.00    -0.000 C 
BRANCH  10  11
ATOM     11  C   UNL     1      -6.512   3.670 -37.372  1.00  0.00    -0.000 C 
BRANCH  11  12
ATOM     12  C   UNL     1      -5.156   3.830 -38.069  1.00  0.00    -0.000 C 
BRANCH  12  13
ATOM     13  C   UNL     1      -4.146   2.801 -37.552  1.00  0.00    -0.003 C 
ATOM     14  C   UNL     1      -3.981   1.646 -38.536  1.00  0.00     0.004 C 
ENDBRANCH  12  13
ENDBRANCH  11  12
ENDBRANCH  10  11
ENDBRANCH   9  10
ENDBRANCH   1   9
TORSDOF 10
ENDMDL
MODEL 4
REMARK VINA RESULT:    -4.248      1.977      3.407
REMARK INTER + INTRA:          -7.387
REMARK INTER:                  -6.388
REMARK INTRA:                  -0.999
REMARK UNBOUND:                -0.655
REMARK SMILES CCCCCCCCCCCC(=O)[O-]
REMARK SMILES IDX 7 1 8 2 9 3 10 4 11 5 12 6 13 7 14 8 6 9 5 10 4 11 3 12 2 13
REMARK SMILES IDX 1 14
REMARK H PARENT
REMARK Flexibility Score: inf
ROOT
ATOM      1  C   UNL     1      -5.047   7.047 -36.469  1.00  0.00     0.000 C 
ENDROOT
BRANCH   1   2
ATOM      2  C   UNL     1      -5.839   7.602 -35.271  1.00  0.00     0.000 C 
BRANCH   2   3
ATOM      3  C   UNL     1      -5.792   6.667 -34.051  1.00  0.00     0.000 C 
BRANCH   3   4
ATOM      4  C   UNL     1      -6.707   7.136 -32.909  1.00  0.00     0.006 C 
BRANCH   4   5
ATOM      5  C   UNL     1      -7.554   5.977 -32.376  1.00  0.00     0.053 C 
BRANCH   5   6
ATOM      6  C   UNL     1      -8.151   5.198 -33.505  1.00  0.00     0.041 C 
ATOM      7  O   UNL     1      -9.109   5.675 -34.167  1.00  0.00    -0.550 OA
ATOM      8  O   UNL     1      -7.682   3.922 -33.793  1.00  0.00    -0.550 OA
ENDBRANCH   5   6
ENDBRANCH   4   5
ENDBRANCH   3   4
ENDBRANCH   2   3
ENDBRANCH   1   2
BRANCH   1   9
ATOM      9  C   UNL     1      -4.359   8.153 -37.284  1.00  0.00     0.000 C 
BRANCH   9  10
ATOM     10  C   UNL     1      -3.029   7.696 -37.903  1.00  0.00    -0.000 C 
BRANCH  10  11
ATOM     11  C   UNL     1      -2.195   6.904 -36.889  1.00  0.00    -0.000 C 
BRANCH  11  12
ATOM     12  C   UNL     1      -1.248   7.825 -36.113  1.00  0.00    -0.000 C 
BRANCH  12  13
ATOM     13  C   UNL     1      -1.589   7.834 -34.619  1.00  0.00    -0.003 C 
ATOM     14  C   UNL     1      -2.439   9.047 -34.254  1.00  0.00     0.004 C 
ENDBRANCH  12  13
ENDBRANCH  11  12
ENDBRANCH  10  11
ENDBRANCH   9  10
ENDBRANCH   1   9
TORSDOF 10
ENDMDL
MODEL 5
REMARK VINA RESULT:    -4.221      2.383      3.957
REMARK INTER + INTRA:          -7.344
REMARK INTER:                  -6.361
REMARK INTRA:                  -0.983
REMARK UNBOUND:                -0.655
REMARK SMILES CCCCCCCCCCCC(=O)[O-]
REMARK SMILES IDX 7 1 8 2 9 3 10 4 11 5 12 6 13 7 14 8 6 9 5 10 4 11 3 12 2 13
REMARK SMILES IDX 1 14
REMARK H PARENT
REMARK Flexibility Score: inf
ROOT
ATOM      1  C   UNL     1      -4.633   6.638 -38.102  1.00  0.00     0.000 C 
ENDROOT
BRANCH   1   2
ATOM      2  C   UNL     1      -5.438   6.256 -36.847  1.00  0.00     0.000 C 
BRANCH   2   3
ATOM      3  C   UNL     1      -5.496   7.394 -35.815  1.00  0.00     0.000 C 
BRANCH   3   4
ATOM      4  C   UNL     1      -6.087   6.946 -34.470  1.00  0.00     0.006 C 
BRANCH   4   5
ATOM      5  C   UNL     1      -6.847   5.625 -34.619  1.00  0.00     0.053 C 
BRANCH   5   6
ATOM      6  C   UNL     1      -8.039   5.598 -33.716  1.00  0.00     0.041 C 
ATOM      7  O   UNL     1      -9.201   5.590 -34.201  1.00  0.00    -0.550 OA
ATOM      8  O   UNL     1      -7.868   5.635 -32.338  1.00  0.00    -0.550 OA
ENDBRANCH   5   6
ENDBRANCH   4   5
ENDBRANCH   3   4
ENDBRANCH   2   3
ENDBRANCH   1   2
BRANCH   1   9
ATOM      9  C   UNL     1      -3.124   6.404 -37.929  1.00  0.00     0.000 C 
BRANCH   9  10
ATOM     10  C   UNL     1      -2.285   7.638 -38.294  1.00  0.00    -0.000 C 
BRANCH  10  11
ATOM     11  C   UNL     1      -1.576   8.206 -37.059  1.00  0.00    -0.000 C 
BRANCH  11  12
ATOM     12  C   UNL     1      -1.266   7.100 -36.043  1.00  0.00    -0.000 C 
BRANCH  12  13
ATOM     13  C   UNL     1      -1.169   7.668 -34.624  1.00  0.00    -0.003 C 
ATOM     14  C   UNL     1      -2.329   8.613 -34.326  1.00  0.00     0.004 C 
ENDBRANCH  12  13
ENDBRANCH  11  12
ENDBRANCH  10  11
ENDBRANCH   9  10
ENDBRANCH   1   9
TORSDOF 10
ENDMDL
MODEL 6
REMARK VINA RESULT:    -4.197     14.246     15.840
REMARK INTER + INTRA:          -7.306
REMARK INTER:                  -6.523
REMARK INTRA:                  -0.784
REMARK UNBOUND:                -0.655
REMARK SMILES CCCCCCCCCCCC(=O)[O-]
REMARK SMILES IDX 7 1 8 2 9 3 10 4 11 5 12 6 13 7 14 8 6 9 5 10 4 11 3 12 2 13
REMARK SMILES IDX 1 14
REMARK H PARENT
REMARK Flexibility Score: inf
ROOT
ATOM      1  C   UNL     1     -14.669   3.146 -20.311  1.00  0.00     0.000 C 
ENDROOT
BRANCH   1   2
ATOM      2  C   UNL     1     -13.253   2.542 -20.296  1.00  0.00     0.000 C 
BRANCH   2   3
ATOM      3  C   UNL     1     -12.919   1.791 -21.595  1.00  0.00     0.000 C 
BRANCH   3   4
ATOM      4  C   UNL     1     -11.415   1.792 -21.911  1.00  0.00     0.006 C 
BRANCH   4   5
ATOM      5  C   UNL     1     -10.586   1.820 -20.624  1.00  0.00     0.053 C 
BRANCH   5   6
ATOM      6  C   UNL     1      -9.124   1.810 -20.940  1.00  0.00     0.041 C 
ATOM      7  O   UNL     1      -8.734   1.688 -22.130  1.00  0.00    -0.550 OA
ATOM      8  O   UNL     1      -8.191   1.883 -19.913  1.00  0.00    -0.550 OA
ENDBRANCH   5   6
ENDBRANCH   4   5
ENDBRANCH   3   4
ENDBRANCH   2   3
ENDBRANCH   1   2
BRANCH   1   9
ATOM      9  C   UNL     1     -15.302   3.132 -21.712  1.00  0.00     0.000 C 
BRANCH   9  10
ATOM     10  C   UNL     1     -15.864   4.501 -22.125  1.00  0.00    -0.000 C 
BRANCH  10  11
ATOM     11  C   UNL     1     -14.746   5.546 -22.224  1.00  0.00    -0.000 C 
BRANCH  11  12
ATOM     12  C   UNL     1     -13.993   5.424 -23.554  1.00  0.00    -0.000 C 
BRANCH  12  13
ATOM     13  C   UNL     1     -14.966   5.387 -24.736  1.00  0.00    -0.003 C 
ATOM     14  C   UNL     1     -15.685   6.722 -24.902  1.00  0.00     0.004 C 
ENDBRANCH  12  13
ENDBRANCH  11  12
ENDBRANCH  10  11
ENDBRANCH   9  10
ENDBRANCH   1   9
TORSDOF 10
ENDMDL
MODEL 7
REMARK VINA RESULT:    -4.173     14.564     15.577
REMARK INTER + INTRA:          -7.267
REMARK INTER:                  -6.760
REMARK INTRA:                  -0.508
REMARK UNBOUND:                -0.655
REMARK SMILES CCCCCCCCCCCC(=O)[O-]
REMARK SMILES IDX 7 1 8 2 9 3 10 4 11 5 12 6 13 7 14 8 6 9 5 10 4 11 3 12 2 13
REMARK SMILES IDX 1 14
REMARK H PARENT
REMARK Flexibility Score: inf
ROOT
ATOM      1  C   UNL     1     -13.200   2.511 -22.222  1.00  0.00     0.000 C 
ENDROOT
BRANCH   1   2
ATOM      2  C   UNL     1     -14.676   2.537 -22.658  1.00  0.00     0.000 C 
BRANCH   2   3
ATOM      3  C   UNL     1     -15.506   3.561 -21.867  1.00  0.00     0.000 C 
BRANCH   3   4
ATOM      4  C   UNL     1     -14.943   4.986 -21.967  1.00  0.00     0.006 C 
BRANCH   4   5
ATOM      5  C   UNL     1     -14.678   5.368 -23.427  1.00  0.00     0.053 C 
BRANCH   5   6
ATOM      6  C   UNL     1     -15.901   5.971 -24.043  1.00  0.00     0.041 C 
ATOM      7  O   UNL     1     -16.869   6.320 -23.319  1.00  0.00    -0.550 OA
ATOM      8  O   UNL     1     -15.992   6.098 -25.424  1.00  0.00    -0.550 OA
ENDBRANCH   5   6
ENDBRANCH   4   5
ENDBRANCH   3   4
ENDBRANCH   2   3
ENDBRANCH   1   2
BRANCH   1   9
ATOM      9  C   UNL     1     -13.025   2.072 -20.759  1.00  0.00     0.000 C 
BRANCH   9  10
ATOM     10  C   UNL     1     -11.593   1.612 -20.443  1.00  0.00    -0.000 C 
BRANCH  10  11
ATOM     11  C   UNL     1     -10.865   1.170 -21.718  1.00  0.00    -0.000 C 
BRANCH  11  12
ATOM     12  C   UNL     1      -9.441   1.736 -21.764  1.00  0.00    -0.000 C 
BRANCH  12  13
ATOM     13  C   UNL     1      -8.954   2.117 -20.362  1.00  0.00    -0.003 C 
ATOM     14  C   UNL     1      -7.585   1.512 -20.070  1.00  0.00     0.004 C 
ENDBRANCH  12  13
ENDBRANCH  11  12
ENDBRANCH  10  11
ENDBRANCH   9  10
ENDBRANCH   1   9
TORSDOF 10
ENDMDL
MODEL 8
REMARK VINA RESULT:    -4.169      2.713      5.587
REMARK INTER + INTRA:          -7.262
REMARK INTER:                  -6.368
REMARK INTRA:                  -0.894
REMARK UNBOUND:                -0.655
REMARK SMILES CCCCCCCCCCCC(=O)[O-]
REMARK SMILES IDX 7 1 8 2 9 3 10 4 11 5 12 6 13 7 14 8 6 9 5 10 4 11 3 12 2 13
REMARK SMILES IDX 1 14
REMARK H PARENT
REMARK Flexibility Score: inf
ROOT
ATOM      1  C   UNL     1      -7.442   5.827 -32.732  1.00  0.00     0.000 C 
ENDROOT
BRANCH   1   2
ATOM      2  C   UNL     1      -6.589   7.096 -32.912  1.00  0.00     0.000 C 
BRANCH   2   3
ATOM      3  C   UNL     1      -5.879   7.139 -34.275  1.00  0.00     0.000 C 
BRANCH   3   4
ATOM      4  C   UNL     1      -4.834   8.262 -34.365  1.00  0.00     0.006 C 
BRANCH   4   5
ATOM      5  C   UNL     1      -3.796   7.958 -35.448  1.00  0.00     0.053 C 
BRANCH   5   6
ATOM      6  C   UNL     1      -2.413   8.210 -34.936  1.00  0.00     0.041 C 
ATOM      7  O   UNL     1      -1.449   7.507 -35.340  1.00  0.00    -0.550 OA
ATOM      8  O   UNL     1      -2.195   9.188 -33.973  1.00  0.00    -0.550 OA
ENDBRANCH   5   6
ENDBRANCH   4   5
ENDBRANCH   3   4
ENDBRANCH   2   3
ENDBRANCH   1   2
BRANCH   1   9
ATOM      9  C   UNL     1      -8.678   5.813 -33.645  1.00  0.00     0.000 C 
BRANCH   9  10
ATOM     10  C   UNL     1      -8.695   4.613 -34.605  1.00  0.00    -0.000 C 
BRANCH  10  11
ATOM     11  C   UNL     1      -7.698   3.538 -34.157  1.00  0.00    -0.000 C 
BRANCH  11  12
ATOM     12  C   UNL     1      -6.735   3.171 -35.292  1.00  0.00    -0.000 C 
BRANCH  12  13
ATOM     13  C   UNL     1      -6.673   4.284 -36.342  1.00  0.00    -0.003 C 
ATOM     14  C   UNL     1      -6.804   3.720 -37.754  1.00  0.00     0.004 C 
ENDBRANCH  12  13
ENDBRANCH  11  12
ENDBRANCH  10  11
ENDBRANCH   9  10
ENDBRANCH   1   9
TORSDOF 10
ENDMDL
MODEL 9
REMARK VINA RESULT:    -4.159      2.950      4.370
REMARK INTER + INTRA:          -7.245
REMARK INTER:                  -6.005
REMARK INTRA:                  -1.240
REMARK UNBOUND:                -0.655
REMARK SMILES CCCCCCCCCCCC(=O)[O-]
REMARK SMILES IDX 7 1 8 2 9 3 10 4 11 5 12 6 13 7 14 8 6 9 5 10 4 11 3 12 2 13
REMARK SMILES IDX 1 14
REMARK H PARENT
REMARK Flexibility Score: inf
ROOT
ATOM      1  C   UNL     1      -6.132   6.533 -36.275  1.00  0.00     0.000 C 
ENDROOT
BRANCH   1   2
ATOM      2  C   UNL     1      -7.137   5.831 -37.206  1.00  0.00     0.000 C 
BRANCH   2   3
ATOM      3  C   UNL     1      -7.338   4.350 -36.847  1.00  0.00     0.000 C 
BRANCH   3   4
ATOM      4  C   UNL     1      -6.718   3.979 -35.491  1.00  0.00     0.006 C 
BRANCH   4   5
ATOM      5  C   UNL     1      -7.806   3.675 -34.457  1.00  0.00     0.053 C 
BRANCH   5   6
ATOM      6  C   UNL     1      -8.255   4.932 -33.781  1.00  0.00     0.041 C 
ATOM      7  O   UNL     1      -9.260   5.557 -34.209  1.00  0.00    -0.550 OA
ATOM      8  O   UNL     1      -7.532   5.442 -32.709  1.00  0.00    -0.550 OA
ENDBRANCH   5   6
ENDBRANCH   4   5
ENDBRANCH   3   4
ENDBRANCH   2   3
ENDBRANCH   1   2
BRANCH   1   9
ATOM      9  C   UNL     1      -4.982   7.201 -37.044  1.00  0.00     0.000 C 
BRANCH   9  10
ATOM     10  C   UNL     1      -4.609   6.446 -38.330  1.00  0.00    -0.000 C 
BRANCH  10  11
ATOM     11  C   UNL     1      -3.628   5.306 -38.032  1.00  0.00    -0.000 C 
BRANCH  11  12
ATOM     12  C   UNL     1      -4.108   3.989 -38.652  1.00  0.00    -0.000 C 
BRANCH  12  13
ATOM     13  C   UNL     1      -3.913   2.820 -37.681  1.00  0.00    -0.003 C 
ATOM     14  C   UNL     1      -3.553   1.538 -38.426  1.00  0.00     0.004 C 
ENDBRANCH  12  13
ENDBRANCH  11  12
ENDBRANCH  10  11
ENDBRANCH   9  10
ENDBRANCH   1   9
TORSDOF 10
ENDMDL
