MODEL 1
REMARK VINA RESULT:    -4.140      0.000      0.000
REMARK INTER + INTRA:          -4.546
REMARK INTER:                  -4.382
REMARK INTRA:                  -0.164
REMARK UNBOUND:                -0.164
REMARK SMILES CC1=CC[C@H](C(C)C)C=C1
REMARK SMILES IDX 1 1 2 2 3 3 4 4 5 5 9 6 10 7 6 8 7 9 8 10
REMARK H PARENT
REMARK Flexibility Score: inf
ROOT
ATOM      1  C   UNL     1     140.460 154.000 159.139  1.00  0.00     0.044 C 
ATOM      2  C   UNL     1     139.508 153.922 160.296  1.00  0.00    -0.055 C 
ATOM      3  C   UNL     1     139.180 155.028 160.979  1.00  0.00    -0.023 C 
ATOM      4  C   UNL     1     138.274 154.949 162.180  1.00  0.00     0.035 C 
ATOM      5  C   UNL     1     137.180 153.868 161.987  1.00  0.00     0.018 C 
ATOM      6  C   UNL     1     137.829 152.589 161.483  1.00  0.00    -0.023 C 
ATOM      7  C   UNL     1     138.874 152.633 160.648  1.00  0.00    -0.001 C 
ENDROOT
BRANCH   5   8
ATOM      8  C   UNL     1     136.342 153.609 163.279  1.00  0.00    -0.010 C 
ATOM      9  C   UNL     1     134.879 153.240 162.969  1.00  0.00     0.008 C 
ATOM     10  C   UNL     1     136.960 152.483 164.129  1.00  0.00     0.008 C 
ENDBRANCH   5   8
TORSDOF 1
ENDMDL
MODEL 2
REMARK VINA RESULT:    -3.962     16.397     17.433
REMARK INTER + INTRA:          -4.358
REMARK INTER:                  -4.186
REMARK INTRA:                  -0.172
REMARK UNBOUND:                -0.164
REMARK SMILES CC1=CC[C@H](C(C)C)C=C1
REMARK SMILES IDX 1 1 2 2 3 3 4 4 5 5 9 6 10 7 6 8 7 9 8 10
REMARK H PARENT
REMARK Flexibility Score: inf
ROOT
ATOM      1  C   UNL     1     139.321 137.141 164.633  1.00  0.00     0.044 C 
ATOM      2  C   UNL     1     138.253 136.959 163.596  1.00  0.00    -0.055 C 
ATOM      3  C   UNL     1     138.480 136.197 162.516  1.00  0.00    -0.023 C 
ATOM      4  C   UNL     1     137.435 136.060 161.440  1.00  0.00     0.035 C 
ATOM      5  C   UNL     1     136.007 136.050 162.044  1.00  0.00     0.018 C 
ATOM      6  C   UNL     1     135.879 137.195 163.036  1.00  0.00    -0.023 C 
ATOM      7  C   UNL     1     136.918 137.565 163.794  1.00  0.00    -0.001 C 
ENDROOT
BRANCH   5   8
ATOM      8  C   UNL     1     134.885 136.110 160.959  1.00  0.00    -0.010 C 
ATOM      9  C   UNL     1     134.974 137.374 160.085  1.00  0.00     0.008 C 
ATOM     10  C   UNL     1     134.934 134.875 160.038  1.00  0.00     0.008 C 
ENDBRANCH   5   8
TORSDOF 1
ENDMDL
MODEL 3
REMARK VINA RESULT:    -3.885     21.113     22.542
REMARK INTER + INTRA:          -4.276
REMARK INTER:                  -4.076
REMARK INTRA:                  -0.200
REMARK UNBOUND:                -0.164
REMARK SMILES CC1=CC[C@H](C(C)C)C=C1
REMARK SMILES IDX 1 1 2 2 3 3 4 4 5 5 9 6 10 7 6 8 7 9 8 10
REMARK H PARENT
REMARK Flexibility Score: inf
ROOT
ATOM      1  C   UNL     1     149.911 137.291 159.285  1.00  0.00     0.044 C 
ATOM      2  C   UNL     1     151.033 137.093 160.260  1.00  0.00    -0.055 C 
ATOM      3  C   UNL     1     151.694 138.149 160.756  1.00  0.00    -0.023 C 
ATOM      4  C   UNL     1     152.862 137.956 161.687  1.00  0.00     0.035 C 
ATOM      5  C   UNL     1     152.638 136.739 162.622  1.00  0.00     0.018 C 
ATOM      6  C   UNL     1     152.170 135.555 161.792  1.00  0.00    -0.023 C 
ATOM      7  C   UNL     1     151.373 135.733 160.731  1.00  0.00    -0.001 C 
ENDROOT
BRANCH   5   8
ATOM      8  C   UNL     1     153.901 136.378 163.467  1.00  0.00    -0.010 C 
ATOM      9  C   UNL     1     154.260 134.883 163.382  1.00  0.00     0.008 C 
ATOM     10  C   UNL     1     155.125 137.201 163.020  1.00  0.00     0.008 C 
ENDBRANCH   5   8
TORSDOF 1
ENDMDL
MODEL 4
REMARK VINA RESULT:    -3.831     20.967     22.440
REMARK INTER + INTRA:          -4.219
REMARK INTER:                  -4.083
REMARK INTRA:                  -0.136
REMARK UNBOUND:                -0.164
REMARK SMILES CC1=CC[C@H](C(C)C)C=C1
REMARK SMILES IDX 1 1 2 2 3 3 4 4 5 5 9 6 10 7 6 8 7 9 8 10
REMARK H PARENT
REMARK Flexibility Score: inf
ROOT
ATOM      1  C   UNL     1     150.422 136.725 158.715  1.00  0.00     0.044 C 
ATOM      2  C   UNL     1     151.152 136.767 160.024  1.00  0.00    -0.055 C 
ATOM      3  C   UNL     1     151.343 135.643 160.730  1.00  0.00    -0.023 C 
ATOM      4  C   UNL     1     152.020 135.686 162.075  1.00  0.00     0.035 C 
ATOM      5  C   UNL     1     153.141 136.756 162.103  1.00  0.00     0.018 C 
ATOM      6  C   UNL     1     152.605 138.053 161.520  1.00  0.00    -0.023 C 
ATOM      7  C   UNL     1     151.725 138.040 160.512  1.00  0.00    -0.001 C 
ENDROOT
BRANCH   5   8
ATOM      8  C   UNL     1     153.738 136.977 163.530  1.00  0.00    -0.010 C 
ATOM      9  C   UNL     1     154.989 136.115 163.786  1.00  0.00     0.008 C 
ATOM     10  C   UNL     1     154.108 138.455 163.756  1.00  0.00     0.008 C 
ENDBRANCH   5   8
TORSDOF 1
ENDMDL
MODEL 5
REMARK VINA RESULT:    -3.297     21.273     22.271
REMARK INTER + INTRA:          -3.654
REMARK INTER:                  -3.454
REMARK INTRA:                  -0.200
REMARK UNBOUND:                -0.164
REMARK SMILES CC1=CC[C@H](C(C)C)C=C1
REMARK SMILES IDX 1 1 2 2 3 3 4 4 5 5 9 6 10 7 6 8 7 9 8 10
REMARK H PARENT
REMARK Flexibility Score: inf
ROOT
ATOM      1  C   UNL     1     154.380 139.158 164.950  1.00  0.00     0.044 C 
ATOM      2  C   UNL     1     153.678 138.471 163.817  1.00  0.00    -0.055 C 
ATOM      3  C   UNL     1     153.624 139.045 162.606  1.00  0.00    -0.023 C 
ATOM      4  C   UNL     1     152.868 138.391 161.479  1.00  0.00     0.035 C 
ATOM      5  C   UNL     1     152.993 136.847 161.542  1.00  0.00     0.018 C 
ATOM      6  C   UNL     1     152.718 136.384 162.964  1.00  0.00    -0.023 C 
ATOM      7  C   UNL     1     153.098 137.124 164.012  1.00  0.00    -0.001 C 
ENDROOT
BRANCH   5   8
ATOM      8  C   UNL     1     152.068 136.118 160.517  1.00  0.00    -0.010 C 
ATOM      9  C   UNL     1     151.385 134.875 161.118  1.00  0.00     0.008 C 
ATOM     10  C   UNL     1     150.976 137.063 159.980  1.00  0.00     0.008 C 
ENDBRANCH   5   8
TORSDOF 1
ENDMDL
MODEL 6
REMARK VINA RESULT:    -3.102     20.949     22.394
REMARK INTER + INTRA:          -3.448
REMARK INTER:                  -3.311
REMARK INTRA:                  -0.137
REMARK UNBOUND:                -0.164
REMARK SMILES CC1=CC[C@H](C(C)C)C=C1
REMARK SMILES IDX 1 1 2 2 3 3 4 4 5 5 9 6 10 7 6 8 7 9 8 10
REMARK H PARENT
REMARK Flexibility Score: inf
ROOT
ATOM      1  C   UNL     1     154.939 136.502 163.832  1.00  0.00     0.044 C 
ATOM      2  C   UNL     1     153.797 136.639 162.870  1.00  0.00    -0.055 C 
ATOM      3  C   UNL     1     153.555 137.812 162.267  1.00  0.00    -0.023 C 
ATOM      4  C   UNL     1     152.374 137.974 161.347  1.00  0.00     0.035 C 
ATOM      5  C   UNL     1     152.113 136.678 160.537  1.00  0.00     0.018 C 
ATOM      6  C   UNL     1     152.137 135.488 161.482  1.00  0.00    -0.023 C 
ATOM      7  C   UNL     1     152.971 135.460 162.528  1.00  0.00    -0.001 C 
ENDROOT
BRANCH   5   8
ATOM      8  C   UNL     1     150.784 136.728 159.719  1.00  0.00    -0.010 C 
ATOM      9  C   UNL     1     149.974 138.011 159.984  1.00  0.00     0.008 C 
ATOM     10  C   UNL     1     151.057 136.627 158.205  1.00  0.00     0.008 C 
ENDBRANCH   5   8
TORSDOF 1
ENDMDL
MODEL 7
REMARK VINA RESULT:    -2.634      1.025      4.600
REMARK INTER + INTRA:          -2.952
REMARK INTER:                  -2.811
REMARK INTRA:                  -0.141
REMARK UNBOUND:                -0.164
REMARK SMILES CC1=CC[C@H](C(C)C)C=C1
REMARK SMILES IDX 1 1 2 2 3 3 4 4 5 5 9 6 10 7 6 8 7 9 8 10
REMARK H PARENT
REMARK Flexibility Score: inf
ROOT
ATOM      1  C   UNL     1     135.847 154.052 163.793  1.00  0.00     0.044 C 
ATOM      2  C   UNL     1     136.985 153.942 162.821  1.00  0.00    -0.055 C 
ATOM      3  C   UNL     1     137.182 152.806 162.136  1.00  0.00    -0.023 C 
ATOM      4  C   UNL     1     138.359 152.666 161.206  1.00  0.00     0.035 C 
ATOM      5  C   UNL     1     138.670 154.005 160.490  1.00  0.00     0.018 C 
ATOM      6  C   UNL     1     138.689 155.125 161.518  1.00  0.00    -0.023 C 
ATOM      7  C   UNL     1     137.855 155.109 162.564  1.00  0.00    -0.001 C 
ENDROOT
BRANCH   5   8
ATOM      8  C   UNL     1     139.998 153.964 159.669  1.00  0.00    -0.010 C 
ATOM      9  C   UNL     1     140.843 152.714 159.975  1.00  0.00     0.008 C 
ATOM     10  C   UNL     1     139.718 154.006 158.154  1.00  0.00     0.008 C 
ENDBRANCH   5   8
TORSDOF 1
ENDMDL
