MODEL 1
REMARK VINA RESULT:    -0.179      0.000      0.000
REMARK INTER + INTRA:          -1.057
REMARK INTER:                  -0.410
REMARK INTRA:                  -0.647
REMARK UNBOUND:                -0.647
REMARK SMILES CCCCCCCCCCCCCCCCCCCCCCCC(=O)[O-]
REMARK SMILES IDX 13 1 14 2 15 3 16 4 17 5 18 6 19 7 20 8 21 9 22 10 23 11
REMARK SMILES IDX 24 12 25 13 26 14 12 15 11 16 10 17 9 18 8 19 7 20 6 21 5 22
REMARK SMILES IDX 4 23 3 24 2 25 1 26
REMARK H PARENT
REMARK Flexibility Score: inf
ROOT
ATOM      1  C   UNL     1       4.394 -37.863  19.822  1.00  0.00     0.000 C 
ENDROOT
BRANCH   1   2
ATOM      2  C   UNL     1       5.745 -37.131  19.966  1.00  0.00     0.000 C 
BRANCH   2   3
ATOM      3  C   UNL     1       5.610 -35.604  20.108  1.00  0.00     0.000 C 
BRANCH   3   4
ATOM      4  C   UNL     1       6.085 -35.085  21.475  1.00  0.00     0.000 C 
BRANCH   4   5
ATOM      5  C   UNL     1       5.121 -34.056  22.084  1.00  0.00     0.000 C 
BRANCH   5   6
ATOM      6  C   UNL     1       4.838 -34.322  23.574  1.00  0.00     0.000 C 
BRANCH   6   7
ATOM      7  C   UNL     1       5.971 -35.105  24.257  1.00  0.00     0.000 C 
BRANCH   7   8
ATOM      8  C   UNL     1       5.454 -36.075  25.330  1.00  0.00     0.000 C 
BRANCH   8   9
ATOM      9  C   UNL     1       6.032 -37.483  25.122  1.00  0.00     0.000 C 
BRANCH   9  10
ATOM     10  C   UNL     1       6.125 -37.882  23.639  1.00  0.00     0.006 C 
BRANCH  10  11
ATOM     11  C   UNL     1       5.035 -38.868  23.188  1.00  0.00     0.053 C 
BRANCH  11  12
ATOM     12  C   UNL     1       5.601 -40.167  22.698  1.00  0.00     0.041 C 
ATOM     13  O   UNL     1       6.054 -40.257  21.527  1.00  0.00    -0.550 OA
ATOM     14  O   UNL     1       5.661 -41.267  23.545  1.00  0.00    -0.550 OA
ENDBRANCH  11  12
ENDBRANCH  10  11
ENDBRANCH   9  10
ENDBRANCH   8   9
ENDBRANCH   7   8
ENDBRANCH   6   7
ENDBRANCH   5   6
ENDBRANCH   4   5
ENDBRANCH   3   4
ENDBRANCH   2   3
ENDBRANCH   1   2
BRANCH   1  15
ATOM     15  C   UNL     1       3.210 -36.885  19.723  1.00  0.00     0.000 C 
BRANCH  15  16
ATOM     16  C   UNL     1       1.876 -37.527  20.139  1.00  0.00     0.000 C 
BRANCH  16  17
ATOM     17  C   UNL     1       1.173 -38.233  18.968  1.00  0.00     0.000 C 
BRANCH  17  18
ATOM     18  C   UNL     1       1.308 -37.468  17.639  1.00  0.00    -0.000 C 
BRANCH  18  19
ATOM     19  C   UNL     1       2.295 -36.282  17.658  1.00  0.00    -0.000 C 
BRANCH  19  20
ATOM     20  C   UNL     1       3.070 -36.056  16.348  1.00  0.00    -0.000 C 
BRANCH  20  21
ATOM     21  C   UNL     1       2.234 -36.367  15.099  1.00  0.00    -0.000 C 
BRANCH  21  22
ATOM     22  C   UNL     1       3.136 -36.570  13.875  1.00  0.00    -0.000 C 
BRANCH  22  23
ATOM     23  C   UNL     1       4.389 -37.378  14.239  1.00  0.00    -0.000 C 
BRANCH  23  24
ATOM     24  C   UNL     1       4.110 -38.895  14.284  1.00  0.00    -0.000 C 
BRANCH  24  25
ATOM     25  C   UNL     1       5.355 -39.757  14.019  1.00  0.00    -0.003 C 
ATOM     26  C   UNL     1       5.050 -41.252  13.984  1.00  0.00     0.004 C 
ENDBRANCH  24  25
ENDBRANCH  23  24
ENDBRANCH  22  23
ENDBRANCH  21  22
ENDBRANCH  20  21
ENDBRANCH  19  20
ENDBRANCH  18  19
ENDBRANCH  17  18
ENDBRANCH  16  17
ENDBRANCH  15  16
ENDBRANCH   1  15
TORSDOF 22
ENDMDL
MODEL 2
REMARK VINA RESULT:     0.339      2.204      4.688
REMARK INTER + INTRA:           0.128
REMARK INTER:                   1.732
REMARK INTRA:                  -1.604
REMARK UNBOUND:                -0.647
REMARK SMILES CCCCCCCCCCCCCCCCCCCCCCCC(=O)[O-]
REMARK SMILES IDX 13 1 14 2 15 3 16 4 17 5 18 6 19 7 20 8 21 9 22 10 23 11
REMARK SMILES IDX 24 12 25 13 26 14 12 15 11 16 10 17 9 18 8 19 7 20 6 21 5 22
REMARK SMILES IDX 4 23 3 24 2 25 1 26
REMARK H PARENT
REMARK Flexibility Score: inf
ROOT
ATOM      1  C   UNL     1       6.125 -36.191  23.638  1.00  0.00     0.000 C 
ENDROOT
BRANCH   1   2
ATOM      2  C   UNL     1       5.333 -36.110  24.962  1.00  0.00     0.000 C 
BRANCH   2   3
ATOM      3  C   UNL     1       5.255 -37.447  25.720  1.00  0.00     0.000 C 
BRANCH   3   4
ATOM      4  C   UNL     1       4.625 -38.573  24.885  1.00  0.00     0.000 C 
BRANCH   4   5
ATOM      5  C   UNL     1       5.673 -39.512  24.270  1.00  0.00     0.000 C 
BRANCH   5   6
ATOM      6  C   UNL     1       5.104 -40.362  23.121  1.00  0.00     0.000 C 
BRANCH   6   7
ATOM      7  C   UNL     1       5.774 -40.052  21.772  1.00  0.00     0.000 C 
BRANCH   7   8
ATOM      8  C   UNL     1       5.633 -38.576  21.369  1.00  0.00     0.000 C 
BRANCH   8   9
ATOM      9  C   UNL     1       4.873 -38.440  20.041  1.00  0.00     0.000 C 
BRANCH   9  10
ATOM     10  C   UNL     1       3.441 -37.906  20.220  1.00  0.00     0.006 C 
BRANCH  10  11
ATOM     11  C   UNL     1       2.712 -37.619  18.897  1.00  0.00     0.053 C 
BRANCH  11  12
ATOM     12  C   UNL     1       1.235 -37.434  19.083  1.00  0.00     0.041 C 
ATOM     13  O   UNL     1       0.478 -37.353  18.081  1.00  0.00    -0.550 OA
ATOM     14  O   UNL     1       0.692 -37.387  20.361  1.00  0.00    -0.550 OA
ENDBRANCH  11  12
ENDBRANCH  10  11
ENDBRANCH   9  10
ENDBRANCH   8   9
ENDBRANCH   7   8
ENDBRANCH   6   7
ENDBRANCH   5   6
ENDBRANCH   4   5
ENDBRANCH   3   4
ENDBRANCH   2   3
ENDBRANCH   1   2
BRANCH   1  15
ATOM     15  C   UNL     1       5.816 -35.010  22.702  1.00  0.00     0.000 C 
BRANCH  15  16
ATOM     16  C   UNL     1       4.415 -35.104  22.074  1.00  0.00     0.000 C 
BRANCH  16  17
ATOM     17  C   UNL     1       4.330 -34.384  20.718  1.00  0.00     0.000 C 
BRANCH  17  18
ATOM     18  C   UNL     1       5.187 -35.055  19.629  1.00  0.00    -0.000 C 
BRANCH  18  19
ATOM     19  C   UNL     1       5.298 -34.274  18.302  1.00  0.00    -0.000 C 
BRANCH  19  20
ATOM     20  C   UNL     1       4.117 -34.460  17.334  1.00  0.00    -0.000 C 
BRANCH  20  21
ATOM     21  C   UNL     1       3.875 -35.931  16.965  1.00  0.00    -0.000 C 
BRANCH  21  22
ATOM     22  C   UNL     1       2.879 -36.045  15.804  1.00  0.00    -0.000 C 
BRANCH  22  23
ATOM     23  C   UNL     1       3.609 -36.164  14.459  1.00  0.00    -0.000 C 
BRANCH  23  24
ATOM     24  C   UNL     1       3.524 -37.590  13.875  1.00  0.00    -0.000 C 
BRANCH  24  25
ATOM     25  C   UNL     1       4.096 -38.670  14.807  1.00  0.00    -0.003 C 
ATOM     26  C   UNL     1       4.891 -39.740  14.063  1.00  0.00     0.004 C 
ENDBRANCH  24  25
ENDBRANCH  23  24
ENDBRANCH  22  23
ENDBRANCH  21  22
ENDBRANCH  20  21
ENDBRANCH  19  20
ENDBRANCH  18  19
ENDBRANCH  17  18
ENDBRANCH  16  17
ENDBRANCH  15  16
ENDBRANCH   1  15
TORSDOF 22
ENDMDL
MODEL 3
REMARK VINA RESULT:     0.848      1.908      3.149
REMARK INTER + INTRA:           1.292
REMARK INTER:                   1.249
REMARK INTRA:                   0.043
REMARK UNBOUND:                -0.647
REMARK SMILES CCCCCCCCCCCCCCCCCCCCCCCC(=O)[O-]
REMARK SMILES IDX 13 1 14 2 15 3 16 4 17 5 18 6 19 7 20 8 21 9 22 10 23 11
REMARK SMILES IDX 24 12 25 13 26 14 12 15 11 16 10 17 9 18 8 19 7 20 6 21 5 22
REMARK SMILES IDX 4 23 3 24 2 25 1 26
REMARK H PARENT
REMARK Flexibility Score: inf
ROOT
ATOM      1  C   UNL     1       4.219 -38.235  19.078  1.00  0.00     0.000 C 
ENDROOT
BRANCH   1   2
ATOM      2  C   UNL     1       5.616 -38.272  19.735  1.00  0.00     0.000 C 
BRANCH   2   3
ATOM      3  C   UNL     1       6.120 -39.694  20.039  1.00  0.00     0.000 C 
BRANCH   3   4
ATOM      4  C   UNL     1       6.003 -40.067  21.526  1.00  0.00     0.000 C 
BRANCH   4   5
ATOM      5  C   UNL     1       5.257 -39.003  22.345  1.00  0.00     0.000 C 
BRANCH   5   6
ATOM      6  C   UNL     1       4.986 -39.453  23.791  1.00  0.00     0.000 C 
BRANCH   6   7
ATOM      7  C   UNL     1       5.720 -38.584  24.825  1.00  0.00     0.000 C 
BRANCH   7   8
ATOM      8  C   UNL     1       4.776 -38.011  25.892  1.00  0.00     0.000 C 
BRANCH   8   9
ATOM      9  C   UNL     1       4.662 -36.485  25.763  1.00  0.00     0.000 C 
BRANCH   9  10
ATOM     10  C   UNL     1       5.908 -35.840  25.130  1.00  0.00     0.006 C 
BRANCH  10  11
ATOM     11  C   UNL     1       6.124 -36.215  23.655  1.00  0.00     0.053 C 
BRANCH  11  12
ATOM     12  C   UNL     1       5.728 -35.115  22.717  1.00  0.00     0.041 C 
ATOM     13  O   UNL     1       5.482 -33.963  23.163  1.00  0.00    -0.550 OA
ATOM     14  O   UNL     1       5.664 -35.351  21.349  1.00  0.00    -0.550 OA
ENDBRANCH  11  12
ENDBRANCH  10  11
ENDBRANCH   9  10
ENDBRANCH   8   9
ENDBRANCH   7   8
ENDBRANCH   6   7
ENDBRANCH   5   6
ENDBRANCH   4   5
ENDBRANCH   3   4
ENDBRANCH   2   3
ENDBRANCH   1   2
BRANCH   1  15
ATOM     15  C   UNL     1       3.346 -37.094  19.630  1.00  0.00     0.000 C 
BRANCH  15  16
ATOM     16  C   UNL     1       1.895 -37.531  19.888  1.00  0.00     0.000 C 
BRANCH  16  17
ATOM     17  C   UNL     1       1.016 -37.422  18.631  1.00  0.00     0.000 C 
BRANCH  17  18
ATOM     18  C   UNL     1       1.811 -37.613  17.326  1.00  0.00    -0.000 C 
BRANCH  18  19
ATOM     19  C   UNL     1       1.873 -36.377  16.405  1.00  0.00    -0.000 C 
BRANCH  19  20
ATOM     20  C   UNL     1       2.038 -36.686  14.906  1.00  0.00    -0.000 C 
BRANCH  20  21
ATOM     21  C   UNL     1       3.467 -36.445  14.401  1.00  0.00    -0.000 C 
BRANCH  21  22
ATOM     22  C   UNL     1       4.420 -37.527  14.923  1.00  0.00    -0.000 C 
BRANCH  22  23
ATOM     23  C   UNL     1       4.574 -38.666  13.906  1.00  0.00    -0.000 C 
BRANCH  23  24
ATOM     24  C   UNL     1       4.563 -40.054  14.580  1.00  0.00    -0.000 C 
BRANCH  24  25
ATOM     25  C   UNL     1       5.457 -41.086  13.875  1.00  0.00    -0.003 C 
ATOM     26  C   UNL     1       5.891 -42.227  14.793  1.00  0.00     0.004 C 
ENDBRANCH  24  25
ENDBRANCH  23  24
ENDBRANCH  22  23
ENDBRANCH  21  22
ENDBRANCH  20  21
ENDBRANCH  19  20
ENDBRANCH  18  19
ENDBRANCH  17  18
ENDBRANCH  16  17
ENDBRANCH  15  16
ENDBRANCH   1  15
TORSDOF 22
ENDMDL
MODEL 4
REMARK VINA RESULT:     1.533      2.343      8.095
REMARK INTER + INTRA:           2.857
REMARK INTER:                   2.046
REMARK INTRA:                   0.811
REMARK UNBOUND:                -0.647
REMARK SMILES CCCCCCCCCCCCCCCCCCCCCCCC(=O)[O-]
REMARK SMILES IDX 13 1 14 2 15 3 16 4 17 5 18 6 19 7 20 8 21 9 22 10 23 11
REMARK SMILES IDX 24 12 25 13 26 14 12 15 11 16 10 17 9 18 8 19 7 20 6 21 5 22
REMARK SMILES IDX 4 23 3 24 2 25 1 26
REMARK H PARENT
REMARK Flexibility Score: inf
ROOT
ATOM      1  C   UNL     1       4.714 -34.504  21.282  1.00  0.00     0.000 C 
ENDROOT
BRANCH   1   2
ATOM      2  C   UNL     1       5.441 -35.033  20.027  1.00  0.00     0.000 C 
BRANCH   2   3
ATOM      3  C   UNL     1       4.860 -36.350  19.483  1.00  0.00     0.000 C 
BRANCH   3   4
ATOM      4  C   UNL     1       3.721 -36.907  20.354  1.00  0.00     0.000 C 
BRANCH   4   5
ATOM      5  C   UNL     1       2.560 -37.467  19.520  1.00  0.00     0.000 C 
BRANCH   5   6
ATOM      6  C   UNL     1       2.513 -36.877  18.099  1.00  0.00     0.000 C 
BRANCH   6   7
ATOM      7  C   UNL     1       1.228 -37.257  17.346  1.00  0.00     0.000 C 
BRANCH   7   8
ATOM      8  C   UNL     1       1.153 -36.623  15.949  1.00  0.00     0.000 C 
BRANCH   8   9
ATOM      9  C   UNL     1       2.542 -36.170  15.476  1.00  0.00     0.000 C 
BRANCH   9  10
ATOM     10  C   UNL     1       2.906 -36.704  14.079  1.00  0.00     0.006 C 
BRANCH  10  11
ATOM     11  C   UNL     1       4.268 -37.415  14.017  1.00  0.00     0.053 C 
BRANCH  11  12
ATOM     12  C   UNL     1       4.216 -38.805  14.577  1.00  0.00     0.041 C 
ATOM     13  O   UNL     1       4.864 -39.733  14.025  1.00  0.00    -0.550 OA
ATOM     14  O   UNL     1       3.482 -39.069  15.727  1.00  0.00    -0.550 OA
ENDBRANCH  11  12
ENDBRANCH  10  11
ENDBRANCH   9  10
ENDBRANCH   8   9
ENDBRANCH   7   8
ENDBRANCH   6   7
ENDBRANCH   5   6
ENDBRANCH   4   5
ENDBRANCH   3   4
ENDBRANCH   2   3
ENDBRANCH   1   2
BRANCH   1  15
ATOM     15  C   UNL     1       5.227 -35.165  22.574  1.00  0.00     0.000 C 
BRANCH  15  16
ATOM     16  C   UNL     1       5.927 -34.166  23.511  1.00  0.00     0.000 C 
BRANCH  16  17
ATOM     17  C   UNL     1       5.979 -34.663  24.965  1.00  0.00     0.000 C 
BRANCH  17  18
ATOM     18  C   UNL     1       5.315 -36.040  25.152  1.00  0.00    -0.000 C 
BRANCH  18  19
ATOM     19  C   UNL     1       5.992 -37.206  24.401  1.00  0.00    -0.000 C 
BRANCH  19  20
ATOM     20  C   UNL     1       5.028 -38.213  23.752  1.00  0.00    -0.000 C 
BRANCH  20  21
ATOM     21  C   UNL     1       5.638 -39.614  23.606  1.00  0.00    -0.000 C 
BRANCH  21  22
ATOM     22  C   UNL     1       5.201 -40.265  22.288  1.00  0.00    -0.000 C 
BRANCH  22  23
ATOM     23  C   UNL     1       6.075 -41.483  21.955  1.00  0.00    -0.000 C 
BRANCH  23  24
ATOM     24  C   UNL     1       6.082 -42.522  23.096  1.00  0.00    -0.000 C 
BRANCH  24  25
ATOM     25  C   UNL     1       5.225 -42.113  24.305  1.00  0.00    -0.003 C 
ATOM     26  C   UNL     1       5.841 -42.526  25.640  1.00  0.00     0.004 C 
ENDBRANCH  24  25
ENDBRANCH  23  24
ENDBRANCH  22  23
ENDBRANCH  21  22
ENDBRANCH  20  21
ENDBRANCH  19  20
ENDBRANCH  18  19
ENDBRANCH  17  18
ENDBRANCH  16  17
ENDBRANCH  15  16
ENDBRANCH   1  15
TORSDOF 22
ENDMDL
MODEL 5
REMARK VINA RESULT:     1.558      1.394      3.213
REMARK INTER + INTRA:           2.915
REMARK INTER:                   3.063
REMARK INTRA:                  -0.149
REMARK UNBOUND:                -0.647
REMARK SMILES CCCCCCCCCCCCCCCCCCCCCCCC(=O)[O-]
REMARK SMILES IDX 13 1 14 2 15 3 16 4 17 5 18 6 19 7 20 8 21 9 22 10 23 11
REMARK SMILES IDX 24 12 25 13 26 14 12 15 11 16 10 17 9 18 8 19 7 20 6 21 5 22
REMARK SMILES IDX 4 23 3 24 2 25 1 26
REMARK H PARENT
REMARK Flexibility Score: inf
ROOT
ATOM      1  C   UNL     1       3.665 -35.302  21.183  1.00  0.00     0.000 C 
ENDROOT
BRANCH   1   2
ATOM      2  C   UNL     1       3.775 -34.539  22.521  1.00  0.00     0.000 C 
BRANCH   2   3
ATOM      3  C   UNL     1       4.990 -33.598  22.599  1.00  0.00     0.000 C 
BRANCH   3   4
ATOM      4  C   UNL     1       6.124 -34.155  23.476  1.00  0.00     0.000 C 
BRANCH   4   5
ATOM      5  C   UNL     1       5.861 -35.596  23.937  1.00  0.00     0.000 C 
BRANCH   5   6
ATOM      6  C   UNL     1       5.734 -35.713  25.466  1.00  0.00     0.000 C 
BRANCH   6   7
ATOM      7  C   UNL     1       5.328 -37.126  25.916  1.00  0.00     0.000 C 
BRANCH   7   8
ATOM      8  C   UNL     1       4.484 -37.861  24.864  1.00  0.00     0.000 C 
BRANCH   8   9
ATOM      9  C   UNL     1       4.604 -39.383  25.028  1.00  0.00     0.000 C 
BRANCH   9  10
ATOM     10  C   UNL     1       5.742 -39.991  24.189  1.00  0.00     0.006 C 
BRANCH  10  11
ATOM     11  C   UNL     1       5.558 -39.821  22.672  1.00  0.00     0.053 C 
BRANCH  11  12
ATOM     12  C   UNL     1       5.895 -41.067  21.909  1.00  0.00     0.041 C 
ATOM     13  O   UNL     1       6.121 -41.009  20.672  1.00  0.00    -0.550 OA
ATOM     14  O   UNL     1       5.995 -42.286  22.569  1.00  0.00    -0.550 OA
ENDBRANCH  11  12
ENDBRANCH  10  11
ENDBRANCH   9  10
ENDBRANCH   8   9
ENDBRANCH   7   8
ENDBRANCH   6   7
ENDBRANCH   5   6
ENDBRANCH   4   5
ENDBRANCH   3   4
ENDBRANCH   2   3
ENDBRANCH   1   2
BRANCH   1  15
ATOM     15  C   UNL     1       4.498 -34.644  20.069  1.00  0.00     0.000 C 
BRANCH  15  16
ATOM     16  C   UNL     1       5.730 -35.478  19.681  1.00  0.00     0.000 C 
BRANCH  16  17
ATOM     17  C   UNL     1       5.811 -36.803  20.459  1.00  0.00     0.000 C 
BRANCH  17  18
ATOM     18  C   UNL     1       5.294 -38.006  19.648  1.00  0.00    -0.000 C 
BRANCH  18  19
ATOM     19  C   UNL     1       3.972 -37.770  18.888  1.00  0.00    -0.000 C 
BRANCH  19  20
ATOM     20  C   UNL     1       2.759 -37.436  19.774  1.00  0.00    -0.000 C 
BRANCH  20  21
ATOM     21  C   UNL     1       1.441 -37.394  18.989  1.00  0.00    -0.000 C 
BRANCH  21  22
ATOM     22  C   UNL     1       1.677 -37.721  17.509  1.00  0.00    -0.000 C 
BRANCH  22  23
ATOM     23  C   UNL     1       2.707 -36.766  16.889  1.00  0.00    -0.000 C 
BRANCH  23  24
ATOM     24  C   UNL     1       2.125 -35.977  15.698  1.00  0.00    -0.000 C 
BRANCH  24  25
ATOM     25  C   UNL     1       2.829 -36.272  14.364  1.00  0.00    -0.003 C 
ATOM     26  C   UNL     1       3.865 -37.387  14.469  1.00  0.00     0.004 C 
ENDBRANCH  24  25
ENDBRANCH  23  24
ENDBRANCH  22  23
ENDBRANCH  21  22
ENDBRANCH  20  21
ENDBRANCH  19  20
ENDBRANCH  18  19
ENDBRANCH  17  18
ENDBRANCH  16  17
ENDBRANCH  15  16
ENDBRANCH   1  15
TORSDOF 22
ENDMDL
MODEL 6
REMARK VINA RESULT:     1.707      1.470      2.127
REMARK INTER + INTRA:           3.256
REMARK INTER:                   1.649
REMARK INTRA:                   1.607
REMARK UNBOUND:                -0.647
REMARK SMILES CCCCCCCCCCCCCCCCCCCCCCCC(=O)[O-]
REMARK SMILES IDX 13 1 14 2 15 3 16 4 17 5 18 6 19 7 20 8 21 9 22 10 23 11
REMARK SMILES IDX 24 12 25 13 26 14 12 15 11 16 10 17 9 18 8 19 7 20 6 21 5 22
REMARK SMILES IDX 4 23 3 24 2 25 1 26
REMARK H PARENT
REMARK Flexibility Score: inf
ROOT
ATOM      1  C   UNL     1       4.471 -37.332  20.439  1.00  0.00     0.000 C 
ENDROOT
BRANCH   1   2
ATOM      2  C   UNL     1       5.759 -37.514  21.271  1.00  0.00     0.000 C 
BRANCH   2   3
ATOM      3  C   UNL     1       6.076 -36.321  22.190  1.00  0.00     0.000 C 
BRANCH   3   4
ATOM      4  C   UNL     1       5.093 -35.151  22.014  1.00  0.00     0.000 C 
BRANCH   4   5
ATOM      5  C   UNL     1       4.949 -34.305  23.287  1.00  0.00     0.000 C 
BRANCH   5   6
ATOM      6  C   UNL     1       5.944 -34.716  24.387  1.00  0.00     0.000 C 
BRANCH   6   7
ATOM      7  C   UNL     1       6.048 -36.242  24.544  1.00  0.00     0.000 C 
BRANCH   7   8
ATOM      8  C   UNL     1       5.050 -36.799  25.570  1.00  0.00     0.000 C 
BRANCH   8   9
ATOM      9  C   UNL     1       5.190 -38.323  25.701  1.00  0.00     0.000 C 
BRANCH   9  10
ATOM     10  C   UNL     1       5.538 -39.012  24.370  1.00  0.00     0.006 C 
BRANCH  10  11
ATOM     11  C   UNL     1       5.010 -40.452  24.256  1.00  0.00     0.053 C 
BRANCH  11  12
ATOM     12  C   UNL     1       5.706 -41.236  23.183  1.00  0.00     0.041 C 
ATOM     13  O   UNL     1       6.001 -42.444  23.375  1.00  0.00    -0.550 OA
ATOM     14  O   UNL     1       5.996 -40.642  21.960  1.00  0.00    -0.550 OA
ENDBRANCH  11  12
ENDBRANCH  10  11
ENDBRANCH   9  10
ENDBRANCH   8   9
ENDBRANCH   7   8
ENDBRANCH   6   7
ENDBRANCH   5   6
ENDBRANCH   4   5
ENDBRANCH   3   4
ENDBRANCH   2   3
ENDBRANCH   1   2
BRANCH   1  15
ATOM     15  C   UNL     1       4.764 -36.831  19.014  1.00  0.00     0.000 C 
BRANCH  15  16
ATOM     16  C   UNL     1       5.745 -35.646  18.995  1.00  0.00     0.000 C 
BRANCH  16  17
ATOM     17  C   UNL     1       5.083 -34.344  18.511  1.00  0.00     0.000 C 
BRANCH  17  18
ATOM     18  C   UNL     1       3.891 -34.592  17.568  1.00  0.00    -0.000 C 
BRANCH  18  19
ATOM     19  C   UNL     1       4.017 -35.831  16.657  1.00  0.00    -0.000 C 
BRANCH  19  20
ATOM     20  C   UNL     1       2.798 -36.109  15.760  1.00  0.00    -0.000 C 
BRANCH  20  21
ATOM     21  C   UNL     1       2.783 -37.539  15.201  1.00  0.00    -0.000 C 
BRANCH  21  22
ATOM     22  C   UNL     1       3.658 -37.644  13.946  1.00  0.00    -0.000 C 
BRANCH  22  23
ATOM     23  C   UNL     1       4.923 -38.469  14.221  1.00  0.00    -0.000 C 
BRANCH  23  24
ATOM     24  C   UNL     1       4.730 -39.961  13.879  1.00  0.00    -0.000 C 
BRANCH  24  25
ATOM     25  C   UNL     1       5.509 -40.909  14.805  1.00  0.00    -0.003 C 
ATOM     26  C   UNL     1       6.022 -42.155  14.089  1.00  0.00     0.004 C 
ENDBRANCH  24  25
ENDBRANCH  23  24
ENDBRANCH  22  23
ENDBRANCH  21  22
ENDBRANCH  20  21
ENDBRANCH  19  20
ENDBRANCH  18  19
ENDBRANCH  17  18
ENDBRANCH  16  17
ENDBRANCH  15  16
ENDBRANCH   1  15
TORSDOF 22
ENDMDL
MODEL 7
REMARK VINA RESULT:     1.725      2.781      7.677
REMARK INTER + INTRA:           3.296
REMARK INTER:                   4.736
REMARK INTRA:                  -1.440
REMARK UNBOUND:                -0.647
REMARK SMILES CCCCCCCCCCCCCCCCCCCCCCCC(=O)[O-]
REMARK SMILES IDX 13 1 14 2 15 3 16 4 17 5 18 6 19 7 20 8 21 9 22 10 23 11
REMARK SMILES IDX 24 12 25 13 26 14 12 15 11 16 10 17 9 18 8 19 7 20 6 21 5 22
REMARK SMILES IDX 4 23 3 24 2 25 1 26
REMARK H PARENT
REMARK Flexibility Score: inf
ROOT
ATOM      1  C   UNL     1       3.347 -36.377  21.421  1.00  0.00     0.000 C 
ENDROOT
BRANCH   1   2
ATOM      2  C   UNL     1       3.219 -37.105  20.065  1.00  0.00     0.000 C 
BRANCH   2   3
ATOM      3  C   UNL     1       4.566 -37.568  19.481  1.00  0.00     0.000 C 
BRANCH   3   4
ATOM      4  C   UNL     1       5.775 -36.970  20.220  1.00  0.00     0.000 C 
BRANCH   4   5
ATOM      5  C   UNL     1       6.041 -35.508  19.833  1.00  0.00     0.000 C 
BRANCH   5   6
ATOM      6  C   UNL     1       5.862 -35.254  18.326  1.00  0.00     0.000 C 
BRANCH   6   7
ATOM      7  C   UNL     1       4.627 -34.393  18.017  1.00  0.00     0.000 C 
BRANCH   7   8
ATOM      8  C   UNL     1       3.430 -35.228  17.538  1.00  0.00     0.000 C 
BRANCH   8   9
ATOM      9  C   UNL     1       3.596 -35.633  16.066  1.00  0.00     0.000 C 
BRANCH   9  10
ATOM     10  C   UNL     1       2.410 -36.453  15.529  1.00  0.00     0.006 C 
BRANCH  10  11
ATOM     11  C   UNL     1       2.677 -37.122  14.170  1.00  0.00     0.053 C 
BRANCH  11  12
ATOM     12  C   UNL     1       4.053 -37.709  14.079  1.00  0.00     0.041 C 
ATOM     13  O   UNL     1       5.046 -36.963  13.875  1.00  0.00    -0.550 OA
ATOM     14  O   UNL     1       4.244 -39.075  14.255  1.00  0.00    -0.550 OA
ENDBRANCH  11  12
ENDBRANCH  10  11
ENDBRANCH   9  10
ENDBRANCH   8   9
ENDBRANCH   7   8
ENDBRANCH   6   7
ENDBRANCH   5   6
ENDBRANCH   4   5
ENDBRANCH   3   4
ENDBRANCH   2   3
ENDBRANCH   1   2
BRANCH   1  15
ATOM     15  C   UNL     1       2.850 -34.922  21.349  1.00  0.00     0.000 C 
BRANCH  15  16
ATOM     16  C   UNL     1       3.691 -33.967  22.212  1.00  0.00     0.000 C 
BRANCH  16  17
ATOM     17  C   UNL     1       5.077 -34.544  22.546  1.00  0.00     0.000 C 
BRANCH  17  18
ATOM     18  C   UNL     1       5.785 -33.783  23.683  1.00  0.00    -0.000 C 
BRANCH  18  19
ATOM     19  C   UNL     1       5.977 -34.580  24.990  1.00  0.00    -0.000 C 
BRANCH  19  20
ATOM     20  C   UNL     1       5.949 -36.110  24.833  1.00  0.00    -0.000 C 
BRANCH  20  21
ATOM     21  C   UNL     1       4.896 -36.782  25.726  1.00  0.00    -0.000 C 
BRANCH  21  22
ATOM     22  C   UNL     1       4.619 -38.215  25.258  1.00  0.00    -0.000 C 
BRANCH  22  23
ATOM     23  C   UNL     1       5.824 -38.794  24.503  1.00  0.00    -0.000 C 
BRANCH  23  24
ATOM     24  C   UNL     1       5.530 -38.991  23.001  1.00  0.00    -0.000 C 
BRANCH  24  25
ATOM     25  C   UNL     1       5.704 -40.442  22.526  1.00  0.00    -0.003 C 
ATOM     26  C   UNL     1       6.122 -40.545  21.062  1.00  0.00     0.004 C 
ENDBRANCH  24  25
ENDBRANCH  23  24
ENDBRANCH  22  23
ENDBRANCH  21  22
ENDBRANCH  20  21
ENDBRANCH  19  20
ENDBRANCH  18  19
ENDBRANCH  17  18
ENDBRANCH  16  17
ENDBRANCH  15  16
ENDBRANCH   1  15
TORSDOF 22
ENDMDL
