MODEL 1
REMARK VINA RESULT:     1.140      0.000      0.000
REMARK INTER + INTRA:           3.153
REMARK INTER:                   1.506
REMARK INTRA:                   1.647
REMARK UNBOUND:                 1.647
REMARK SMILES CC[C@H](C=C[C@H](C)[C@@H]1CC[C@@H]2[C@H]3CC=C4C[C@@H](O)CC[C@]4(C)[C@H]3CC[C@@]21C)C(C)C
REMARK SMILES IDX 6 1 7 2 5 3 4 4 3 5 2 6 1 7 28 8 29 9 30 10 8 11 9 12 26 13
REMARK SMILES IDX 10 14 11 15 25 16 27 17 12 18 24 19 23 20 13 21 21 22 14 23
REMARK SMILES IDX 15 24 20 25 22 26 16 27 19 28 17 29 18 30
REMARK H PARENT 18 31
REMARK Flexibility Score: inf
ROOT
ATOM      1  C   UNL     1      12.044   1.628  19.868  1.00  0.00     0.012 C 
ATOM      2  C   UNL     1      12.715   2.269  18.644  1.00  0.00     0.012 C 
ENDROOT
BRANCH   1   3
ATOM      3  C   UNL     1      10.713   2.314  20.113  1.00  0.00    -0.028 C 
ATOM      4  C   UNL     1       9.769   2.433  19.160  1.00  0.00    -0.027 C 
BRANCH   4   5
ATOM      5  C   UNL     1       8.426   3.097  19.401  1.00  0.00     0.014 C 
BRANCH   5   6
ATOM      6  C   UNL     1       8.213   4.332  18.473  1.00  0.00     0.004 C 
ATOM      7  C   UNL     1       7.681   5.555  19.223  1.00  0.00     0.004 C 
ENDBRANCH   5   6
BRANCH   5   8
ATOM      8  C   UNL     1       7.265   2.051  19.397  1.00  0.00    -0.011 C 
ATOM      9  C   UNL     1       5.986   2.606  20.039  1.00  0.00     0.008 C 
ATOM     10  C   UNL     1       6.943   1.450  18.017  1.00  0.00     0.008 C 
ENDBRANCH   5   8
ENDBRANCH   4   5
ENDBRANCH   1   3
BRANCH   1  11
ATOM     11  C   UNL     1      11.864   0.068  19.764  1.00  0.00     0.002 C 
ATOM     12  C   UNL     1      13.060  -0.570  19.035  1.00  0.00     0.005 C 
ATOM     13  C   UNL     1      10.592  -0.497  19.041  1.00  0.00    -0.026 C 
ATOM     14  C   UNL     1      12.555  -1.810  18.313  1.00  0.00     0.005 C 
ATOM     15  C   UNL     1      11.056  -1.922  18.608  1.00  0.00    -0.001 C 
ATOM     16  C   UNL     1      10.205   0.363  17.804  1.00  0.00     0.007 C 
ATOM     17  C   UNL     1       9.404  -0.587  20.040  1.00  0.00     0.012 C 
ATOM     18  C   UNL     1      10.286  -2.601  17.432  1.00  0.00     0.000 C 
ATOM     19  C   UNL     1       9.296  -0.360  16.799  1.00  0.00     0.005 C 
ATOM     20  C   UNL     1       9.982  -1.639  16.257  1.00  0.00     0.003 C 
ATOM     21  C   UNL     1       8.999  -3.291  17.913  1.00  0.00     0.031 C 
ATOM     22  C   UNL     1       9.244  -2.382  15.057  1.00  0.00    -0.008 C 
ATOM     23  C   UNL     1       8.300  -3.980  16.786  1.00  0.00    -0.027 C 
ATOM     24  C   UNL     1       8.342  -3.542  15.513  1.00  0.00    -0.065 C 
ATOM     25  C   UNL     1      10.334  -3.007  14.125  1.00  0.00     0.014 C 
ATOM     26  C   UNL     1       8.400  -1.377  14.224  1.00  0.00     0.016 C 
ATOM     27  C   UNL     1       7.735  -4.417  14.435  1.00  0.00     0.063 C 
ATOM     28  C   UNL     1       9.774  -3.925  13.017  1.00  0.00     0.033 C 
ATOM     29  C   UNL     1       8.860  -5.024  13.585  1.00  0.00     0.118 C 
BRANCH  29  30
ATOM     30  O   UNL     1       8.315  -5.760  12.521  1.00  0.00    -0.393 OA
ATOM     31  H   UNL     1       7.336  -5.812  12.681  1.00  0.00     0.210 HD
ENDBRANCH  29  30
ENDBRANCH   1  11
TORSDOF 6
ENDMDL
