MODEL 1
REMARK VINA RESULT:    -3.774      0.000      0.000
REMARK INTER + INTRA:         -15.595
REMARK INTER:                  -9.511
REMARK INTRA:                  -6.083
REMARK UNBOUND:                -6.083
REMARK SMILES CCCCCCCCCCCCCCCCCCCCCCCCCCCC(=O)[O-]
REMARK SMILES IDX 15 1 16 2 17 3 18 4 19 5 20 6 21 7 22 8 23 9 24 10 25 11
REMARK SMILES IDX 26 12 27 13 28 14 29 15 30 16 14 17 13 18 12 19 11 20 10 21
REMARK SMILES IDX 9 22 8 23 7 24 6 25 5 26 4 27 3 28 2 29 1 30
REMARK H PARENT
REMARK Flexibility Score: inf
ROOT
ATOM      1  C   UNL     1     -11.585  -9.659  29.332  1.00  0.00     0.000 C 
ENDROOT
BRANCH   1   2
ATOM      2  C   UNL     1     -11.843  -8.586  28.263  1.00  0.00     0.000 C 
BRANCH   2   3
ATOM      3  C   UNL     1     -11.300  -9.027  26.898  1.00  0.00     0.000 C 
BRANCH   3   4
ATOM      4  C   UNL     1     -11.896  -8.175  25.771  1.00  0.00     0.000 C 
BRANCH   4   5
ATOM      5  C   UNL     1     -12.706  -9.041  24.793  1.00  0.00     0.000 C 
BRANCH   5   6
ATOM      6  C   UNL     1     -14.181  -9.175  25.205  1.00  0.00     0.000 C 
BRANCH   6   7
ATOM      7  C   UNL     1     -14.590 -10.636  25.463  1.00  0.00     0.000 C 
BRANCH   7   8
ATOM      8  C   UNL     1     -14.288 -11.089  26.900  1.00  0.00     0.000 C 
BRANCH   8   9
ATOM      9  C   UNL     1     -13.578 -12.450  26.962  1.00  0.00     0.000 C 
BRANCH   9  10
ATOM     10  C   UNL     1     -12.890 -12.769  25.628  1.00  0.00     0.000 C 
BRANCH  10  11
ATOM     11  C   UNL     1     -11.370 -12.884  25.806  1.00  0.00     0.000 C 
BRANCH  11  12
ATOM     12  C   UNL     1     -10.578 -12.050  24.781  1.00  0.00     0.006 C 
BRANCH  12  13
ATOM     13  C   UNL     1     -11.130 -12.132  23.347  1.00  0.00     0.053 C 
BRANCH  13  14
ATOM     14  C   UNL     1     -10.900 -13.468  22.711  1.00  0.00     0.041 C 
ATOM     15  O   UNL     1      -9.744 -13.971  22.688  1.00  0.00    -0.550 OA
ATOM     16  O   UNL     1     -11.955 -14.147  22.117  1.00  0.00    -0.550 OA
ENDBRANCH  13  14
ENDBRANCH  12  13
ENDBRANCH  11  12
ENDBRANCH  10  11
ENDBRANCH   9  10
ENDBRANCH   8   9
ENDBRANCH   7   8
ENDBRANCH   6   7
ENDBRANCH   5   6
ENDBRANCH   4   5
ENDBRANCH   3   4
ENDBRANCH   2   3
ENDBRANCH   1   2
BRANCH   1  17
ATOM     17  C   UNL     1     -10.741 -10.837  28.810  1.00  0.00     0.000 C 
BRANCH  17  18
ATOM     18  C   UNL     1     -11.103 -12.211  29.405  1.00  0.00     0.000 C 
BRANCH  18  19
ATOM     19  C   UNL     1     -10.076 -13.301  29.065  1.00  0.00     0.000 C 
BRANCH  19  20
ATOM     20  C   UNL     1     -10.357 -14.586  29.858  1.00  0.00     0.000 C 
BRANCH  20  21
ATOM     21  C   UNL     1     -11.773 -14.617  30.465  1.00  0.00     0.000 C 
BRANCH  21  22
ATOM     22  C   UNL     1     -12.819 -15.379  29.630  1.00  0.00    -0.000 C 
BRANCH  22  23
ATOM     23  C   UNL     1     -12.187 -16.370  28.641  1.00  0.00    -0.000 C 
BRANCH  23  24
ATOM     24  C   UNL     1     -12.700 -16.122  27.215  1.00  0.00    -0.000 C 
BRANCH  24  25
ATOM     25  C   UNL     1     -12.060 -17.055  26.173  1.00  0.00    -0.000 C 
BRANCH  25  26
ATOM     26  C   UNL     1     -11.204 -16.358  25.092  1.00  0.00    -0.000 C 
BRANCH  26  27
ATOM     27  C   UNL     1      -9.679 -16.499  25.271  1.00  0.00    -0.000 C 
BRANCH  27  28
ATOM     28  C   UNL     1      -9.078 -15.519  26.304  1.00  0.00    -0.000 C 
BRANCH  28  29
ATOM     29  C   UNL     1      -8.151 -16.198  27.325  1.00  0.00    -0.003 C 
ATOM     30  C   UNL     1      -8.757 -17.465  27.925  1.00  0.00     0.004 C 
ENDBRANCH  28  29
ENDBRANCH  27  28
ENDBRANCH  26  27
ENDBRANCH  25  26
ENDBRANCH  24  25
ENDBRANCH  23  24
ENDBRANCH  22  23
ENDBRANCH  21  22
ENDBRANCH  20  21
ENDBRANCH  19  20
ENDBRANCH  18  19
ENDBRANCH  17  18
ENDBRANCH   1  17
TORSDOF 26
ENDMDL
MODEL 2
REMARK VINA RESULT:    -3.717      2.547      4.920
REMARK INTER + INTRA:         -15.450
REMARK INTER:                  -9.729
REMARK INTRA:                  -5.721
REMARK UNBOUND:                -6.083
REMARK SMILES CCCCCCCCCCCCCCCCCCCCCCCCCCCC(=O)[O-]
REMARK SMILES IDX 15 1 16 2 17 3 18 4 19 5 20 6 21 7 22 8 23 9 24 10 25 11
REMARK SMILES IDX 26 12 27 13 28 14 29 15 30 16 14 17 13 18 12 19 11 20 10 21
REMARK SMILES IDX 9 22 8 23 7 24 6 25 5 26 4 27 3 28 2 29 1 30
REMARK H PARENT
REMARK Flexibility Score: inf
ROOT
ATOM      1  C   UNL     1     -11.081 -10.900  27.868  1.00  0.00     0.000 C 
ENDROOT
BRANCH   1   2
ATOM      2  C   UNL     1     -11.624  -9.767  28.752  1.00  0.00     0.000 C 
BRANCH   2   3
ATOM      3  C   UNL     1     -11.665  -8.440  27.983  1.00  0.00     0.000 C 
BRANCH   3   4
ATOM      4  C   UNL     1     -11.240  -8.639  26.523  1.00  0.00     0.000 C 
BRANCH   4   5
ATOM      5  C   UNL     1     -12.306  -8.098  25.558  1.00  0.00     0.000 C 
BRANCH   5   6
ATOM      6  C   UNL     1     -13.706  -8.052  26.191  1.00  0.00     0.000 C 
BRANCH   6   7
ATOM      7  C   UNL     1     -14.733  -7.335  25.296  1.00  0.00     0.000 C 
BRANCH   7   8
ATOM      8  C   UNL     1     -14.201  -6.008  24.731  1.00  0.00     0.000 C 
BRANCH   8   9
ATOM      9  C   UNL     1     -14.739  -5.699  23.325  1.00  0.00     0.000 C 
BRANCH   9  10
ATOM     10  C   UNL     1     -14.793  -6.970  22.469  1.00  0.00     0.000 C 
BRANCH  10  11
ATOM     11  C   UNL     1     -13.400  -7.336  21.936  1.00  0.00     0.000 C 
BRANCH  11  12
ATOM     12  C   UNL     1     -13.091  -8.841  22.041  1.00  0.00     0.006 C 
BRANCH  12  13
ATOM     13  C   UNL     1     -13.863  -9.710  21.033  1.00  0.00     0.053 C 
BRANCH  13  14
ATOM     14  C   UNL     1     -13.088  -9.970  19.778  1.00  0.00     0.041 C 
ATOM     15  O   UNL     1     -12.760 -11.145  19.463  1.00  0.00    -0.550 OA
ATOM     16  O   UNL     1     -12.700  -8.910  18.968  1.00  0.00    -0.550 OA
ENDBRANCH  13  14
ENDBRANCH  12  13
ENDBRANCH  11  12
ENDBRANCH  10  11
ENDBRANCH   9  10
ENDBRANCH   8   9
ENDBRANCH   7   8
ENDBRANCH   6   7
ENDBRANCH   5   6
ENDBRANCH   4   5
ENDBRANCH   3   4
ENDBRANCH   2   3
ENDBRANCH   1   2
BRANCH   1  17
ATOM     17  C   UNL     1     -12.046 -12.096  27.765  1.00  0.00     0.000 C 
BRANCH  17  18
ATOM     18  C   UNL     1     -13.538 -11.723  27.669  1.00  0.00     0.000 C 
BRANCH  18  19
ATOM     19  C   UNL     1     -14.251 -12.403  26.490  1.00  0.00     0.000 C 
BRANCH  19  20
ATOM     20  C   UNL     1     -14.176 -11.531  25.228  1.00  0.00     0.000 C 
BRANCH  20  21
ATOM     21  C   UNL     1     -14.059 -12.359  23.935  1.00  0.00     0.000 C 
BRANCH  21  22
ATOM     22  C   UNL     1     -12.658 -12.369  23.295  1.00  0.00    -0.000 C 
BRANCH  22  23
ATOM     23  C   UNL     1     -11.647 -11.501  24.059  1.00  0.00    -0.000 C 
BRANCH  23  24
ATOM     24  C   UNL     1     -10.390 -12.309  24.413  1.00  0.00    -0.000 C 
BRANCH  24  25
ATOM     25  C   UNL     1     -10.599 -13.829  24.305  1.00  0.00    -0.000 C 
BRANCH  25  26
ATOM     26  C   UNL     1     -10.207 -14.645  25.556  1.00  0.00    -0.000 C 
BRANCH  26  27
ATOM     27  C   UNL     1     -11.356 -15.445  26.205  1.00  0.00    -0.000 C 
BRANCH  27  28
ATOM     28  C   UNL     1     -12.634 -15.516  25.338  1.00  0.00    -0.000 C 
BRANCH  28  29
ATOM     29  C   UNL     1     -13.826 -16.167  26.057  1.00  0.00    -0.003 C 
ATOM     30  C   UNL     1     -15.156 -15.907  25.352  1.00  0.00     0.004 C 
ENDBRANCH  28  29
ENDBRANCH  27  28
ENDBRANCH  26  27
ENDBRANCH  25  26
ENDBRANCH  24  25
ENDBRANCH  23  24
ENDBRANCH  22  23
ENDBRANCH  21  22
ENDBRANCH  20  21
ENDBRANCH  19  20
ENDBRANCH  18  19
ENDBRANCH  17  18
ENDBRANCH   1  17
TORSDOF 26
ENDMDL
MODEL 3
REMARK VINA RESULT:    -3.670      1.998      6.941
REMARK INTER + INTRA:         -15.333
REMARK INTER:                  -9.636
REMARK INTRA:                  -5.696
REMARK UNBOUND:                -6.083
REMARK SMILES CCCCCCCCCCCCCCCCCCCCCCCCCCCC(=O)[O-]
REMARK SMILES IDX 15 1 16 2 17 3 18 4 19 5 20 6 21 7 22 8 23 9 24 10 25 11
REMARK SMILES IDX 26 12 27 13 28 14 29 15 30 16 14 17 13 18 12 19 11 20 10 21
REMARK SMILES IDX 9 22 8 23 7 24 6 25 5 26 4 27 3 28 2 29 1 30
REMARK H PARENT
REMARK Flexibility Score: inf
ROOT
ATOM      1  C   UNL     1     -12.853 -13.012  27.546  1.00  0.00     0.000 C 
ENDROOT
BRANCH   1   2
ATOM      2  C   UNL     1     -13.832 -12.031  28.208  1.00  0.00     0.000 C 
BRANCH   2   3
ATOM      3  C   UNL     1     -13.554 -11.906  29.711  1.00  0.00     0.000 C 
BRANCH   3   4
ATOM      4  C   UNL     1     -13.009 -10.515  30.053  1.00  0.00     0.000 C 
BRANCH   4   5
ATOM      5  C   UNL     1     -11.472 -10.502  30.028  1.00  0.00     0.000 C 
BRANCH   5   6
ATOM      6  C   UNL     1     -10.860 -11.738  30.705  1.00  0.00     0.000 C 
BRANCH   6   7
ATOM      7  C   UNL     1      -9.444 -12.053  30.188  1.00  0.00     0.000 C 
BRANCH   7   8
ATOM      8  C   UNL     1      -9.360 -13.420  29.491  1.00  0.00     0.000 C 
BRANCH   8   9
ATOM      9  C   UNL     1     -10.592 -14.300  29.750  1.00  0.00     0.000 C 
BRANCH   9  10
ATOM     10  C   UNL     1     -10.422 -15.682  29.108  1.00  0.00     0.000 C 
BRANCH  10  11
ATOM     11  C   UNL     1     -10.060 -15.558  27.621  1.00  0.00     0.000 C 
BRANCH  11  12
ATOM     12  C   UNL     1     -10.600 -16.723  26.770  1.00  0.00     0.006 C 
BRANCH  12  13
ATOM     13  C   UNL     1     -10.673 -16.416  25.264  1.00  0.00     0.053 C 
BRANCH  13  14
ATOM     14  C   UNL     1     -11.949 -15.738  24.871  1.00  0.00     0.041 C 
ATOM     15  O   UNL     1     -13.003 -15.931  25.535  1.00  0.00    -0.550 OA
ATOM     16  O   UNL     1     -11.985 -14.914  23.754  1.00  0.00    -0.550 OA
ENDBRANCH  13  14
ENDBRANCH  12  13
ENDBRANCH  11  12
ENDBRANCH  10  11
ENDBRANCH   9  10
ENDBRANCH   8   9
ENDBRANCH   7   8
ENDBRANCH   6   7
ENDBRANCH   5   6
ENDBRANCH   4   5
ENDBRANCH   3   4
ENDBRANCH   2   3
ENDBRANCH   1   2
BRANCH   1  17
ATOM     17  C   UNL     1     -12.155 -12.421  26.307  1.00  0.00     0.000 C 
BRANCH  17  18
ATOM     18  C   UNL     1     -10.690 -11.998  26.525  1.00  0.00     0.000 C 
BRANCH  18  19
ATOM     19  C   UNL     1     -10.512 -10.474  26.607  1.00  0.00     0.000 C 
BRANCH  19  20
ATOM     20  C   UNL     1     -11.726  -9.748  26.011  1.00  0.00     0.000 C 
BRANCH  20  21
ATOM     21  C   UNL     1     -12.142  -8.508  26.825  1.00  0.00     0.000 C 
BRANCH  21  22
ATOM     22  C   UNL     1     -13.658  -8.362  27.055  1.00  0.00    -0.000 C 
BRANCH  22  23
ATOM     23  C   UNL     1     -14.481  -9.410  26.290  1.00  0.00    -0.000 C 
BRANCH  23  24
ATOM     24  C   UNL     1     -15.790  -8.801  25.766  1.00  0.00    -0.000 C 
BRANCH  24  25
ATOM     25  C   UNL     1     -15.982  -7.333  26.183  1.00  0.00    -0.000 C 
BRANCH  25  26
ATOM     26  C   UNL     1     -16.060  -6.316  25.023  1.00  0.00    -0.000 C 
BRANCH  26  27
ATOM     27  C   UNL     1     -14.739  -5.587  24.700  1.00  0.00    -0.000 C 
BRANCH  27  28
ATOM     28  C   UNL     1     -14.092  -6.031  23.367  1.00  0.00    -0.000 C 
BRANCH  28  29
ATOM     29  C   UNL     1     -12.988  -7.086  23.543  1.00  0.00    -0.003 C 
ATOM     30  C   UNL     1     -13.338  -8.422  22.892  1.00  0.00     0.004 C 
ENDBRANCH  28  29
ENDBRANCH  27  28
ENDBRANCH  26  27
ENDBRANCH  25  26
ENDBRANCH  24  25
ENDBRANCH  23  24
ENDBRANCH  22  23
ENDBRANCH  21  22
ENDBRANCH  20  21
ENDBRANCH  19  20
ENDBRANCH  18  19
ENDBRANCH  17  18
ENDBRANCH   1  17
TORSDOF 26
ENDMDL
MODEL 4
REMARK VINA RESULT:    -3.627      1.982      5.778
REMARK INTER + INTRA:         -15.223
REMARK INTER:                  -9.564
REMARK INTRA:                  -5.659
REMARK UNBOUND:                -6.083
REMARK SMILES CCCCCCCCCCCCCCCCCCCCCCCCCCCC(=O)[O-]
REMARK SMILES IDX 15 1 16 2 17 3 18 4 19 5 20 6 21 7 22 8 23 9 24 10 25 11
REMARK SMILES IDX 26 12 27 13 28 14 29 15 30 16 14 17 13 18 12 19 11 20 10 21
REMARK SMILES IDX 9 22 8 23 7 24 6 25 5 26 4 27 3 28 2 29 1 30
REMARK H PARENT
REMARK Flexibility Score: inf
ROOT
ATOM      1  C   UNL     1     -11.063 -16.732  25.785  1.00  0.00     0.000 C 
ENDROOT
BRANCH   1   2
ATOM      2  C   UNL     1     -11.625 -16.504  27.196  1.00  0.00     0.000 C 
BRANCH   2   3
ATOM      3  C   UNL     1     -13.142 -16.285  27.156  1.00  0.00     0.000 C 
BRANCH   3   4
ATOM      4  C   UNL     1     -13.671 -16.371  25.719  1.00  0.00     0.000 C 
BRANCH   4   5
ATOM      5  C   UNL     1     -15.199 -16.535  25.702  1.00  0.00     0.000 C 
BRANCH   5   6
ATOM      6  C   UNL     1     -15.916 -15.328  25.077  1.00  0.00     0.000 C 
BRANCH   6   7
ATOM      7  C   UNL     1     -14.939 -14.210  24.669  1.00  0.00     0.000 C 
BRANCH   7   8
ATOM      8  C   UNL     1     -14.933 -13.038  25.664  1.00  0.00     0.000 C 
BRANCH   8   9
ATOM      9  C   UNL     1     -14.946 -11.667  24.971  1.00  0.00     0.000 C 
BRANCH   9  10
ATOM     10  C   UNL     1     -15.474 -11.784  23.536  1.00  0.00     0.000 C 
BRANCH  10  11
ATOM     11  C   UNL     1     -14.726 -10.831  22.593  1.00  0.00     0.000 C 
BRANCH  11  12
ATOM     12  C   UNL     1     -13.217 -11.128  22.509  1.00  0.00     0.006 C 
BRANCH  12  13
ATOM     13  C   UNL     1     -12.745 -11.582  21.117  1.00  0.00     0.053 C 
BRANCH  13  14
ATOM     14  C   UNL     1     -13.151 -12.987  20.796  1.00  0.00     0.041 C 
ATOM     15  O   UNL     1     -13.630 -13.268  19.665  1.00  0.00    -0.550 OA
ATOM     16  O   UNL     1     -13.029 -13.983  21.755  1.00  0.00    -0.550 OA
ENDBRANCH  13  14
ENDBRANCH  12  13
ENDBRANCH  11  12
ENDBRANCH  10  11
ENDBRANCH   9  10
ENDBRANCH   8   9
ENDBRANCH   7   8
ENDBRANCH   6   7
ENDBRANCH   5   6
ENDBRANCH   4   5
ENDBRANCH   3   4
ENDBRANCH   2   3
ENDBRANCH   1   2
BRANCH   1  17
ATOM     17  C   UNL     1     -10.056 -15.649  25.356  1.00  0.00     0.000 C 
BRANCH  17  18
ATOM     18  C   UNL     1     -10.553 -14.701  24.248  1.00  0.00     0.000 C 
BRANCH  18  19
ATOM     19  C   UNL     1     -11.266 -13.457  24.798  1.00  0.00     0.000 C 
BRANCH  19  20
ATOM     20  C   UNL     1     -10.444 -12.189  24.525  1.00  0.00     0.000 C 
BRANCH  20  21
ATOM     21  C   UNL     1     -10.415 -11.223  25.725  1.00  0.00     0.000 C 
BRANCH  21  22
ATOM     22  C   UNL     1     -11.628 -10.281  25.828  1.00  0.00    -0.000 C 
BRANCH  22  23
ATOM     23  C   UNL     1     -11.335  -9.020  26.654  1.00  0.00    -0.000 C 
BRANCH  23  24
ATOM     24  C   UNL     1     -12.145  -9.020  27.959  1.00  0.00    -0.000 C 
BRANCH  24  25
ATOM     25  C   UNL     1     -13.314 -10.020  27.944  1.00  0.00    -0.000 C 
BRANCH  25  26
ATOM     26  C   UNL     1     -13.502 -10.843  29.237  1.00  0.00    -0.000 C 
BRANCH  26  27
ATOM     27  C   UNL     1     -13.563 -12.371  29.039  1.00  0.00    -0.000 C 
BRANCH  27  28
ATOM     28  C   UNL     1     -12.328 -12.957  28.317  1.00  0.00    -0.000 C 
BRANCH  28  29
ATOM     29  C   UNL     1     -11.017 -12.774  29.100  1.00  0.00    -0.003 C 
ATOM     30  C   UNL     1      -9.842 -13.516  28.467  1.00  0.00     0.004 C 
ENDBRANCH  28  29
ENDBRANCH  27  28
ENDBRANCH  26  27
ENDBRANCH  25  26
ENDBRANCH  24  25
ENDBRANCH  23  24
ENDBRANCH  22  23
ENDBRANCH  21  22
ENDBRANCH  20  21
ENDBRANCH  19  20
ENDBRANCH  18  19
ENDBRANCH  17  18
ENDBRANCH   1  17
TORSDOF 26
ENDMDL
MODEL 5
REMARK VINA RESULT:    -3.603      2.957      5.461
REMARK INTER + INTRA:         -15.163
REMARK INTER:                  -9.551
REMARK INTRA:                  -5.612
REMARK UNBOUND:                -6.083
REMARK SMILES CCCCCCCCCCCCCCCCCCCCCCCCCCCC(=O)[O-]
REMARK SMILES IDX 15 1 16 2 17 3 18 4 19 5 20 6 21 7 22 8 23 9 24 10 25 11
REMARK SMILES IDX 26 12 27 13 28 14 29 15 30 16 14 17 13 18 12 19 11 20 10 21
REMARK SMILES IDX 9 22 8 23 7 24 6 25 5 26 4 27 3 28 2 29 1 30
REMARK H PARENT
REMARK Flexibility Score: inf
ROOT
ATOM      1  C   UNL     1     -11.015 -10.855  25.906  1.00  0.00     0.000 C 
ENDROOT
BRANCH   1   2
ATOM      2  C   UNL     1     -10.204 -11.819  25.026  1.00  0.00     0.000 C 
BRANCH   2   3
ATOM      3  C   UNL     1     -10.364 -13.267  25.503  1.00  0.00     0.000 C 
BRANCH   3   4
ATOM      4  C   UNL     1     -10.994 -13.318  26.900  1.00  0.00     0.000 C 
BRANCH   4   5
ATOM      5  C   UNL     1     -10.104 -14.101  27.879  1.00  0.00     0.000 C 
BRANCH   5   6
ATOM      6  C   UNL     1     -10.815 -14.406  29.208  1.00  0.00     0.000 C 
BRANCH   6   7
ATOM      7  C   UNL     1     -12.345 -14.282  29.098  1.00  0.00     0.000 C 
BRANCH   7   8
ATOM      8  C   UNL     1     -13.000 -13.860  30.423  1.00  0.00     0.000 C 
BRANCH   8   9
ATOM      9  C   UNL     1     -13.764 -12.531  30.315  1.00  0.00     0.000 C 
BRANCH   9  10
ATOM     10  C   UNL     1     -13.741 -12.002  28.876  1.00  0.00     0.000 C 
BRANCH  10  11
ATOM     11  C   UNL     1     -13.318 -10.527  28.836  1.00  0.00     0.000 C 
BRANCH  11  12
ATOM     12  C   UNL     1     -12.282 -10.167  29.917  1.00  0.00     0.006 C 
BRANCH  12  13
ATOM     13  C   UNL     1     -10.866 -10.697  29.628  1.00  0.00     0.053 C 
BRANCH  13  14
ATOM     14  C   UNL     1     -10.205 -11.277  30.840  1.00  0.00     0.041 C 
ATOM     15  O   UNL     1     -10.790 -11.256  31.956  1.00  0.00    -0.550 OA
ATOM     16  O   UNL     1      -8.928 -11.816  30.745  1.00  0.00    -0.550 OA
ENDBRANCH  13  14
ENDBRANCH  12  13
ENDBRANCH  11  12
ENDBRANCH  10  11
ENDBRANCH   9  10
ENDBRANCH   8   9
ENDBRANCH   7   8
ENDBRANCH   6   7
ENDBRANCH   5   6
ENDBRANCH   4   5
ENDBRANCH   3   4
ENDBRANCH   2   3
ENDBRANCH   1   2
BRANCH   1  17
ATOM     17  C   UNL     1     -12.271 -10.310  25.201  1.00  0.00     0.000 C 
BRANCH  17  18
ATOM     18  C   UNL     1     -12.494 -10.835  23.770  1.00  0.00     0.000 C 
BRANCH  18  19
ATOM     19  C   UNL     1     -13.604 -11.894  23.685  1.00  0.00     0.000 C 
BRANCH  19  20
ATOM     20  C   UNL     1     -14.494 -11.854  24.936  1.00  0.00     0.000 C 
BRANCH  20  21
ATOM     21  C   UNL     1     -14.509 -13.190  25.703  1.00  0.00     0.000 C 
BRANCH  21  22
ATOM     22  C   UNL     1     -15.418 -14.275  25.098  1.00  0.00    -0.000 C 
BRANCH  22  23
ATOM     23  C   UNL     1     -14.860 -15.693  25.285  1.00  0.00    -0.000 C 
BRANCH  23  24
ATOM     24  C   UNL     1     -13.328 -15.669  25.397  1.00  0.00    -0.000 C 
BRANCH  24  25
ATOM     25  C   UNL     1     -12.792 -16.562  26.529  1.00  0.00    -0.000 C 
BRANCH  25  26
ATOM     26  C   UNL     1     -11.547 -17.406  26.178  1.00  0.00    -0.000 C 
BRANCH  26  27
ATOM     27  C   UNL     1     -10.598 -17.698  27.358  1.00  0.00    -0.000 C 
BRANCH  27  28
ATOM     28  C   UNL     1     -10.758 -19.116  27.952  1.00  0.00    -0.000 C 
BRANCH  28  29
ATOM     29  C   UNL     1     -11.270 -19.119  29.401  1.00  0.00    -0.003 C 
ATOM     30  C   UNL     1     -10.799 -17.904  30.197  1.00  0.00     0.004 C 
ENDBRANCH  28  29
ENDBRANCH  27  28
ENDBRANCH  26  27
ENDBRANCH  25  26
ENDBRANCH  24  25
ENDBRANCH  23  24
ENDBRANCH  22  23
ENDBRANCH  21  22
ENDBRANCH  20  21
ENDBRANCH  19  20
ENDBRANCH  18  19
ENDBRANCH  17  18
ENDBRANCH   1  17
TORSDOF 26
ENDMDL
MODEL 6
REMARK VINA RESULT:    -3.603      3.158      5.187
REMARK INTER + INTRA:         -15.163
REMARK INTER:                  -9.532
REMARK INTRA:                  -5.631
REMARK UNBOUND:                -6.083
REMARK SMILES CCCCCCCCCCCCCCCCCCCCCCCCCCCC(=O)[O-]
REMARK SMILES IDX 15 1 16 2 17 3 18 4 19 5 20 6 21 7 22 8 23 9 24 10 25 11
REMARK SMILES IDX 26 12 27 13 28 14 29 15 30 16 14 17 13 18 12 19 11 20 10 21
REMARK SMILES IDX 9 22 8 23 7 24 6 25 5 26 4 27 3 28 2 29 1 30
REMARK H PARENT
REMARK Flexibility Score: inf
ROOT
ATOM      1  C   UNL     1     -10.761 -12.297  25.243  1.00  0.00     0.000 C 
ENDROOT
BRANCH   1   2
ATOM      2  C   UNL     1     -10.173 -10.996  25.810  1.00  0.00     0.000 C 
BRANCH   2   3
ATOM      3  C   UNL     1     -10.942 -10.540  27.055  1.00  0.00     0.000 C 
BRANCH   3   4
ATOM      4  C   UNL     1     -11.239  -9.037  26.997  1.00  0.00     0.000 C 
BRANCH   4   5
ATOM      5  C   UNL     1     -12.637  -8.727  27.557  1.00  0.00     0.000 C 
BRANCH   5   6
ATOM      6  C   UNL     1     -13.464  -9.997  27.815  1.00  0.00     0.000 C 
BRANCH   6   7
ATOM      7  C   UNL     1     -14.658 -10.127  26.853  1.00  0.00     0.000 C 
BRANCH   7   8
ATOM      8  C   UNL     1     -14.254 -10.690  25.481  1.00  0.00     0.000 C 
BRANCH   8   9
ATOM      9  C   UNL     1     -15.184 -10.229  24.348  1.00  0.00     0.000 C 
BRANCH   9  10
ATOM     10  C   UNL     1     -14.374  -9.699  23.158  1.00  0.00     0.000 C 
BRANCH  10  11
ATOM     11  C   UNL     1     -13.045  -9.087  23.623  1.00  0.00     0.000 C 
BRANCH  11  12
ATOM     12  C   UNL     1     -13.006  -7.553  23.484  1.00  0.00     0.006 C 
BRANCH  12  13
ATOM     13  C   UNL     1     -13.356  -6.798  24.778  1.00  0.00     0.053 C 
BRANCH  13  14
ATOM     14  C   UNL     1     -14.796  -6.393  24.842  1.00  0.00     0.041 C 
ATOM     15  O   UNL     1     -15.240  -5.496  24.076  1.00  0.00    -0.550 OA
ATOM     16  O   UNL     1     -15.645  -6.985  25.769  1.00  0.00    -0.550 OA
ENDBRANCH  13  14
ENDBRANCH  12  13
ENDBRANCH  11  12
ENDBRANCH  10  11
ENDBRANCH   9  10
ENDBRANCH   8   9
ENDBRANCH   7   8
ENDBRANCH   6   7
ENDBRANCH   5   6
ENDBRANCH   4   5
ENDBRANCH   3   4
ENDBRANCH   2   3
ENDBRANCH   1   2
BRANCH   1  17
ATOM     17  C   UNL     1     -10.503 -12.466  23.734  1.00  0.00     0.000 C 
BRANCH  17  18
ATOM     18  C   UNL     1     -11.769 -12.520  22.859  1.00  0.00     0.000 C 
BRANCH  18  19
ATOM     19  C   UNL     1     -11.921 -13.850  22.105  1.00  0.00     0.000 C 
BRANCH  19  20
ATOM     20  C   UNL     1     -13.402 -14.212  21.925  1.00  0.00     0.000 C 
BRANCH  20  21
ATOM     21  C   UNL     1     -14.332 -13.414  22.858  1.00  0.00     0.000 C 
BRANCH  21  22
ATOM     22  C   UNL     1     -15.359 -14.262  23.631  1.00  0.00    -0.000 C 
BRANCH  22  23
ATOM     23  C   UNL     1     -15.259 -14.080  25.152  1.00  0.00    -0.000 C 
BRANCH  23  24
ATOM     24  C   UNL     1     -13.869 -14.486  25.663  1.00  0.00    -0.000 C 
BRANCH  24  25
ATOM     25  C   UNL     1     -13.838 -15.898  26.274  1.00  0.00    -0.000 C 
BRANCH  25  26
ATOM     26  C   UNL     1     -12.740 -16.836  25.728  1.00  0.00    -0.000 C 
BRANCH  26  27
ATOM     27  C   UNL     1     -11.509 -16.126  25.128  1.00  0.00    -0.000 C 
BRANCH  27  28
ATOM     28  C   UNL     1     -10.340 -15.955  26.126  1.00  0.00    -0.000 C 
BRANCH  28  29
ATOM     29  C   UNL     1      -8.959 -15.917  25.451  1.00  0.00    -0.003 C 
ATOM     30  C   UNL     1      -9.021 -16.238  23.960  1.00  0.00     0.004 C 
ENDBRANCH  28  29
ENDBRANCH  27  28
ENDBRANCH  26  27
ENDBRANCH  25  26
ENDBRANCH  24  25
ENDBRANCH  23  24
ENDBRANCH  22  23
ENDBRANCH  21  22
ENDBRANCH  20  21
ENDBRANCH  19  20
ENDBRANCH  18  19
ENDBRANCH  17  18
ENDBRANCH   1  17
TORSDOF 26
ENDMDL
MODEL 7
REMARK VINA RESULT:    -3.594      2.430      6.325
REMARK INTER + INTRA:         -15.140
REMARK INTER:                  -9.594
REMARK INTRA:                  -5.546
REMARK UNBOUND:                -6.083
REMARK SMILES CCCCCCCCCCCCCCCCCCCCCCCCCCCC(=O)[O-]
REMARK SMILES IDX 15 1 16 2 17 3 18 4 19 5 20 6 21 7 22 8 23 9 24 10 25 11
REMARK SMILES IDX 26 12 27 13 28 14 29 15 30 16 14 17 13 18 12 19 11 20 10 21
REMARK SMILES IDX 9 22 8 23 7 24 6 25 5 26 4 27 3 28 2 29 1 30
REMARK H PARENT
REMARK Flexibility Score: inf
ROOT
ATOM      1  C   UNL     1     -13.492 -12.173  28.312  1.00  0.00     0.000 C 
ENDROOT
BRANCH   1   2
ATOM      2  C   UNL     1     -12.580 -12.046  27.082  1.00  0.00     0.000 C 
BRANCH   2   3
ATOM      3  C   UNL     1     -11.250 -12.776  27.303  1.00  0.00     0.000 C 
BRANCH   3   4
ATOM      4  C   UNL     1     -10.212 -12.353  26.257  1.00  0.00     0.000 C 
BRANCH   4   5
ATOM      5  C   UNL     1     -10.883 -11.653  25.064  1.00  0.00     0.000 C 
BRANCH   5   6
ATOM      6  C   UNL     1     -10.697 -12.423  23.747  1.00  0.00     0.000 C 
BRANCH   6   7
ATOM      7  C   UNL     1     -11.218 -13.869  23.833  1.00  0.00     0.000 C 
BRANCH   7   8
ATOM      8  C   UNL     1     -12.305 -14.168  22.788  1.00  0.00     0.000 C 
BRANCH   8   9
ATOM      9  C   UNL     1     -13.724 -14.145  23.379  1.00  0.00     0.000 C 
BRANCH   9  10
ATOM     10  C   UNL     1     -13.680 -14.229  24.910  1.00  0.00     0.000 C 
BRANCH  10  11
ATOM     11  C   UNL     1     -13.945 -15.662  25.392  1.00  0.00     0.000 C 
BRANCH  11  12
ATOM     12  C   UNL     1     -13.012 -16.096  26.537  1.00  0.00     0.006 C 
BRANCH  12  13
ATOM     13  C   UNL     1     -12.027 -17.214  26.153  1.00  0.00     0.053 C 
BRANCH  13  14
ATOM     14  C   UNL     1     -11.017 -17.492  27.223  1.00  0.00     0.041 C 
ATOM     15  O   UNL     1     -10.440 -16.540  27.815  1.00  0.00    -0.550 OA
ATOM     16  O   UNL     1     -10.689 -18.801  27.549  1.00  0.00    -0.550 OA
ENDBRANCH  13  14
ENDBRANCH  12  13
ENDBRANCH  11  12
ENDBRANCH  10  11
ENDBRANCH   9  10
ENDBRANCH   8   9
ENDBRANCH   7   8
ENDBRANCH   6   7
ENDBRANCH   5   6
ENDBRANCH   4   5
ENDBRANCH   3   4
ENDBRANCH   2   3
ENDBRANCH   1   2
BRANCH   1  17
ATOM     17  C   UNL     1     -13.585 -10.871  29.128  1.00  0.00     0.000 C 
BRANCH  17  18
ATOM     18  C   UNL     1     -12.450 -10.659  30.148  1.00  0.00     0.000 C 
BRANCH  18  19
ATOM     19  C   UNL     1     -11.285  -9.831  29.585  1.00  0.00     0.000 C 
BRANCH  19  20
ATOM     20  C   UNL     1     -11.804  -8.643  28.762  1.00  0.00     0.000 C 
BRANCH  20  21
ATOM     21  C   UNL     1     -11.221  -8.601  27.337  1.00  0.00     0.000 C 
BRANCH  21  22
ATOM     22  C   UNL     1     -12.263  -8.438  26.215  1.00  0.00    -0.000 C 
BRANCH  22  23
ATOM     23  C   UNL     1     -13.681  -8.190  26.749  1.00  0.00    -0.000 C 
BRANCH  23  24
ATOM     24  C   UNL     1     -14.533  -7.442  25.713  1.00  0.00    -0.000 C 
BRANCH  24  25
ATOM     25  C   UNL     1     -15.557  -8.347  25.006  1.00  0.00    -0.000 C 
BRANCH  25  26
ATOM     26  C   UNL     1     -15.709  -9.766  25.595  1.00  0.00    -0.000 C 
BRANCH  26  27
ATOM     27  C   UNL     1     -15.212 -10.911  24.687  1.00  0.00    -0.000 C 
BRANCH  27  28
ATOM     28  C   UNL     1     -14.089 -10.490  23.712  1.00  0.00    -0.000 C 
BRANCH  28  29
ATOM     29  C   UNL     1     -14.407 -10.801  22.240  1.00  0.00    -0.003 C 
ATOM     30  C   UNL     1     -15.125  -9.652  21.535  1.00  0.00     0.004 C 
ENDBRANCH  28  29
ENDBRANCH  27  28
ENDBRANCH  26  27
ENDBRANCH  25  26
ENDBRANCH  24  25
ENDBRANCH  23  24
ENDBRANCH  22  23
ENDBRANCH  21  22
ENDBRANCH  20  21
ENDBRANCH  19  20
ENDBRANCH  18  19
ENDBRANCH  17  18
ENDBRANCH   1  17
TORSDOF 26
ENDMDL
MODEL 8
REMARK VINA RESULT:    -3.588      2.830      7.217
REMARK INTER + INTRA:         -15.124
REMARK INTER:                 -10.333
REMARK INTRA:                  -4.791
REMARK UNBOUND:                -6.083
REMARK SMILES CCCCCCCCCCCCCCCCCCCCCCCCCCCC(=O)[O-]
REMARK SMILES IDX 15 1 16 2 17 3 18 4 19 5 20 6 21 7 22 8 23 9 24 10 25 11
REMARK SMILES IDX 26 12 27 13 28 14 29 15 30 16 14 17 13 18 12 19 11 20 10 21
REMARK SMILES IDX 9 22 8 23 7 24 6 25 5 26 4 27 3 28 2 29 1 30
REMARK H PARENT
REMARK Flexibility Score: inf
ROOT
ATOM      1  C   UNL     1     -10.973 -10.732  28.246  1.00  0.00     0.000 C 
ENDROOT
BRANCH   1   2
ATOM      2  C   UNL     1     -12.162 -10.224  29.075  1.00  0.00     0.000 C 
BRANCH   2   3
ATOM      3  C   UNL     1     -13.450 -10.968  28.704  1.00  0.00     0.000 C 
BRANCH   3   4
ATOM      4  C   UNL     1     -13.163 -12.443  28.397  1.00  0.00     0.000 C 
BRANCH   4   5
ATOM      5  C   UNL     1     -13.618 -12.810  26.976  1.00  0.00     0.000 C 
BRANCH   5   6
ATOM      6  C   UNL     1     -14.228 -11.617  26.224  1.00  0.00     0.000 C 
BRANCH   6   7
ATOM      7  C   UNL     1     -14.236 -11.823  24.698  1.00  0.00     0.000 C 
BRANCH   7   8
ATOM      8  C   UNL     1     -12.963 -11.289  24.023  1.00  0.00     0.000 C 
BRANCH   8   9
ATOM      9  C   UNL     1     -12.121 -12.397  23.373  1.00  0.00     0.000 C 
BRANCH   9  10
ATOM     10  C   UNL     1     -10.670 -12.343  23.867  1.00  0.00     0.000 C 
BRANCH  10  11
ATOM     11  C   UNL     1     -10.472 -13.241  25.097  1.00  0.00     0.000 C 
BRANCH  11  12
ATOM     12  C   UNL     1     -11.186 -14.600  24.973  1.00  0.00     0.006 C 
BRANCH  12  13
ATOM     13  C   UNL     1     -10.662 -15.673  25.943  1.00  0.00     0.053 C 
BRANCH  13  14
ATOM     14  C   UNL     1     -11.614 -16.817  26.111  1.00  0.00     0.041 C 
ATOM     15  O   UNL     1     -12.842 -16.664  25.872  1.00  0.00    -0.550 OA
ATOM     16  O   UNL     1     -11.152 -18.047  26.562  1.00  0.00    -0.550 OA
ENDBRANCH  13  14
ENDBRANCH  12  13
ENDBRANCH  11  12
ENDBRANCH  10  11
ENDBRANCH   9  10
ENDBRANCH   8   9
ENDBRANCH   7   8
ENDBRANCH   6   7
ENDBRANCH   5   6
ENDBRANCH   4   5
ENDBRANCH   3   4
ENDBRANCH   2   3
ENDBRANCH   1   2
BRANCH   1  17
ATOM     17  C   UNL     1     -10.854 -10.037  26.877  1.00  0.00     0.000 C 
BRANCH  17  18
ATOM     18  C   UNL     1     -11.286  -8.559  26.857  1.00  0.00     0.000 C 
BRANCH  18  19
ATOM     19  C   UNL     1     -12.366  -8.264  25.806  1.00  0.00     0.000 C 
BRANCH  19  20
ATOM     20  C   UNL     1     -13.708  -7.936  26.476  1.00  0.00     0.000 C 
BRANCH  20  21
ATOM     21  C   UNL     1     -14.904  -8.061  25.514  1.00  0.00     0.000 C 
BRANCH  21  22
ATOM     22  C   UNL     1     -15.836  -6.835  25.476  1.00  0.00    -0.000 C 
BRANCH  22  23
ATOM     23  C   UNL     1     -15.251  -5.665  24.671  1.00  0.00    -0.000 C 
BRANCH  23  24
ATOM     24  C   UNL     1     -15.535  -5.836  23.172  1.00  0.00    -0.000 C 
BRANCH  24  25
ATOM     25  C   UNL     1     -14.282  -5.665  22.296  1.00  0.00    -0.000 C 
BRANCH  25  26
ATOM     26  C   UNL     1     -13.130  -6.653  22.583  1.00  0.00    -0.000 C 
BRANCH  26  27
ATOM     27  C   UNL     1     -13.341  -8.082  22.039  1.00  0.00    -0.000 C 
BRANCH  27  28
ATOM     28  C   UNL     1     -13.890  -8.125  20.595  1.00  0.00    -0.000 C 
BRANCH  28  29
ATOM     29  C   UNL     1     -12.792  -8.264  19.527  1.00  0.00    -0.003 C 
ATOM     30  C   UNL     1     -12.759  -9.651  18.890  1.00  0.00     0.004 C 
ENDBRANCH  28  29
ENDBRANCH  27  28
ENDBRANCH  26  27
ENDBRANCH  25  26
ENDBRANCH  24  25
ENDBRANCH  23  24
ENDBRANCH  22  23
ENDBRANCH  21  22
ENDBRANCH  20  21
ENDBRANCH  19  20
ENDBRANCH  18  19
ENDBRANCH  17  18
ENDBRANCH   1  17
TORSDOF 26
ENDMDL
MODEL 9
REMARK VINA RESULT:    -3.558      2.246      6.333
REMARK INTER + INTRA:         -15.050
REMARK INTER:                  -9.341
REMARK INTRA:                  -5.708
REMARK UNBOUND:                -6.083
REMARK SMILES CCCCCCCCCCCCCCCCCCCCCCCCCCCC(=O)[O-]
REMARK SMILES IDX 15 1 16 2 17 3 18 4 19 5 20 6 21 7 22 8 23 9 24 10 25 11
REMARK SMILES IDX 26 12 27 13 28 14 29 15 30 16 14 17 13 18 12 19 11 20 10 21
REMARK SMILES IDX 9 22 8 23 7 24 6 25 5 26 4 27 3 28 2 29 1 30
REMARK H PARENT
REMARK Flexibility Score: inf
ROOT
ATOM      1  C   UNL     1     -15.212 -16.516  25.703  1.00  0.00     0.000 C 
ENDROOT
BRANCH   1   2
ATOM      2  C   UNL     1     -13.694 -16.286  25.742  1.00  0.00     0.000 C 
BRANCH   2   3
ATOM      3  C   UNL     1     -13.203 -16.087  27.181  1.00  0.00     0.000 C 
BRANCH   3   4
ATOM      4  C   UNL     1     -11.919 -16.883  27.438  1.00  0.00     0.000 C 
BRANCH   4   5
ATOM      5  C   UNL     1     -11.234 -17.269  26.116  1.00  0.00     0.000 C 
BRANCH   5   6
ATOM      6  C   UNL     1      -9.845 -16.629  25.963  1.00  0.00     0.000 C 
BRANCH   6   7
ATOM      7  C   UNL     1      -9.823 -15.521  24.895  1.00  0.00     0.000 C 
BRANCH   7   8
ATOM      8  C   UNL     1     -10.322 -14.171  25.434  1.00  0.00     0.000 C 
BRANCH   8   9
ATOM      9  C   UNL     1     -11.308 -13.475  24.482  1.00  0.00     0.000 C 
BRANCH   9  10
ATOM     10  C   UNL     1     -11.569 -14.337  23.240  1.00  0.00     0.000 C 
BRANCH  10  11
ATOM     11  C   UNL     1     -12.265 -13.522  22.140  1.00  0.00     0.000 C 
BRANCH  11  12
ATOM     12  C   UNL     1     -12.354 -12.020  22.467  1.00  0.00     0.006 C 
BRANCH  12  13
ATOM     13  C   UNL     1     -13.715 -11.385  22.129  1.00  0.00     0.053 C 
BRANCH  13  14
ATOM     14  C   UNL     1     -13.625  -9.908  21.901  1.00  0.00     0.041 C 
ATOM     15  O   UNL     1     -14.346  -9.116  22.565  1.00  0.00    -0.550 OA
ATOM     16  O   UNL     1     -12.767  -9.404  20.932  1.00  0.00    -0.550 OA
ENDBRANCH  13  14
ENDBRANCH  12  13
ENDBRANCH  11  12
ENDBRANCH  10  11
ENDBRANCH   9  10
ENDBRANCH   8   9
ENDBRANCH   7   8
ENDBRANCH   6   7
ENDBRANCH   5   6
ENDBRANCH   4   5
ENDBRANCH   3   4
ENDBRANCH   2   3
ENDBRANCH   1   2
BRANCH   1  17
ATOM     17  C   UNL     1     -15.974 -15.383  24.991  1.00  0.00     0.000 C 
BRANCH  17  18
ATOM     18  C   UNL     1     -15.088 -14.252  24.436  1.00  0.00     0.000 C 
BRANCH  18  19
ATOM     19  C   UNL     1     -15.345 -12.899  25.118  1.00  0.00     0.000 C 
BRANCH  19  20
ATOM     20  C   UNL     1     -14.244 -12.583  26.141  1.00  0.00     0.000 C 
BRANCH  20  21
ATOM     21  C   UNL     1     -14.123 -11.079  26.446  1.00  0.00     0.000 C 
BRANCH  21  22
ATOM     22  C   UNL     1     -13.021 -10.344  25.660  1.00  0.00    -0.000 C 
BRANCH  22  23
ATOM     23  C   UNL     1     -12.069  -9.552  26.567  1.00  0.00    -0.000 C 
BRANCH  23  24
ATOM     24  C   UNL     1     -10.857 -10.405  26.967  1.00  0.00    -0.000 C 
BRANCH  24  25
ATOM     25  C   UNL     1     -10.906 -10.875  28.431  1.00  0.00    -0.000 C 
BRANCH  25  26
ATOM     26  C   UNL     1     -10.491 -12.343  28.674  1.00  0.00    -0.000 C 
BRANCH  26  27
ATOM     27  C   UNL     1     -11.658 -13.326  28.900  1.00  0.00    -0.000 C 
BRANCH  27  28
ATOM     28  C   UNL     1     -12.905 -12.677  29.544  1.00  0.00    -0.000 C 
BRANCH  28  29
ATOM     29  C   UNL     1     -13.283 -13.292  30.901  1.00  0.00    -0.003 C 
ATOM     30  C   UNL     1     -13.205 -14.817  30.902  1.00  0.00     0.004 C 
ENDBRANCH  28  29
ENDBRANCH  27  28
ENDBRANCH  26  27
ENDBRANCH  25  26
ENDBRANCH  24  25
ENDBRANCH  23  24
ENDBRANCH  22  23
ENDBRANCH  21  22
ENDBRANCH  20  21
ENDBRANCH  19  20
ENDBRANCH  18  19
ENDBRANCH  17  18
ENDBRANCH   1  17
TORSDOF 26
ENDMDL
