MODEL 1
REMARK VINA RESULT:    -2.686      0.000      0.000
REMARK INTER + INTRA:         -13.623
REMARK INTER:                  -7.083
REMARK INTRA:                  -6.539
REMARK UNBOUND:                -6.539
REMARK SMILES CCCCCCCCCCCCCCCCCCCCCCCCCCCCCC(=O)[O-]
REMARK SMILES IDX 16 1 17 2 18 3 19 4 20 5 21 6 22 7 23 8 24 9 25 10 26 11
REMARK SMILES IDX 27 12 28 13 29 14 30 15 31 16 32 17 15 18 14 19 13 20 12 21
REMARK SMILES IDX 11 22 10 23 9 24 8 25 7 26 6 27 5 28 4 29 3 30 2 31 1 32
REMARK H PARENT
REMARK Flexibility Score: inf
ROOT
ATOM      1  C   UNL     1      61.235  32.008  58.884  1.00  0.00     0.000 C 
ENDROOT
BRANCH   1   2
ATOM      2  C   UNL     1      60.807  32.789  60.140  1.00  0.00     0.000 C 
BRANCH   2   3
ATOM      3  C   UNL     1      61.952  33.641  60.717  1.00  0.00     0.000 C 
BRANCH   3   4
ATOM      4  C   UNL     1      61.615  35.136  60.923  1.00  0.00     0.000 C 
BRANCH   4   5
ATOM      5  C   UNL     1      62.811  36.044  61.282  1.00  0.00     0.000 C 
BRANCH   5   6
ATOM      6  C   UNL     1      64.134  35.290  61.511  1.00  0.00     0.000 C 
BRANCH   6   7
ATOM      7  C   UNL     1      65.185  35.610  60.434  1.00  0.00     0.000 C 
BRANCH   7   8
ATOM      8  C   UNL     1      64.608  36.431  59.266  1.00  0.00     0.000 C 
BRANCH   8   9
ATOM      9  C   UNL     1      64.372  35.627  57.967  1.00  0.00     0.000 C 
BRANCH   9  10
ATOM     10  C   UNL     1      63.341  36.229  56.992  1.00  0.00     0.000 C 
BRANCH  10  11
ATOM     11  C   UNL     1      61.967  36.469  57.643  1.00  0.00     0.000 C 
BRANCH  11  12
ATOM     12  C   UNL     1      60.862  35.568  57.059  1.00  0.00     0.000 C 
BRANCH  12  13
ATOM     13  C   UNL     1      59.557  35.509  57.877  1.00  0.00     0.006 C 
BRANCH  13  14
ATOM     14  C   UNL     1      58.644  34.322  57.518  1.00  0.00     0.053 C 
BRANCH  14  15
ATOM     15  C   UNL     1      57.866  34.559  56.258  1.00  0.00     0.041 C 
ATOM     16  O   UNL     1      57.614  33.604  55.476  1.00  0.00    -0.550 OA
ATOM     17  O   UNL     1      57.384  35.831  55.966  1.00  0.00    -0.550 OA
ENDBRANCH  14  15
ENDBRANCH  13  14
ENDBRANCH  12  13
ENDBRANCH  11  12
ENDBRANCH  10  11
ENDBRANCH   9  10
ENDBRANCH   8   9
ENDBRANCH   7   8
ENDBRANCH   6   7
ENDBRANCH   5   6
ENDBRANCH   4   5
ENDBRANCH   3   4
ENDBRANCH   2   3
ENDBRANCH   1   2
BRANCH   1  18
ATOM     18  C   UNL     1      62.458  32.626  58.190  1.00  0.00     0.000 C 
BRANCH  18  19
ATOM     19  C   UNL     1      63.633  31.637  58.091  1.00  0.00     0.000 C 
BRANCH  19  20
ATOM     20  C   UNL     1      64.883  32.106  58.854  1.00  0.00     0.000 C 
BRANCH  20  21
ATOM     21  C   UNL     1      65.300  31.123  59.965  1.00  0.00     0.000 C 
BRANCH  21  22
ATOM     22  C   UNL     1      64.422  31.241  61.223  1.00  0.00     0.000 C 
BRANCH  22  23
ATOM     23  C   UNL     1      63.783  29.901  61.613  1.00  0.00     0.000 C 
BRANCH  23  24
ATOM     24  C   UNL     1      62.313  30.080  62.011  1.00  0.00    -0.000 C 
BRANCH  24  25
ATOM     25  C   UNL     1      61.521  28.784  61.775  1.00  0.00    -0.000 C 
BRANCH  25  26
ATOM     26  C   UNL     1      60.574  28.880  60.569  1.00  0.00    -0.000 C 
BRANCH  26  27
ATOM     27  C   UNL     1      60.946  27.900  59.442  1.00  0.00    -0.000 C 
BRANCH  27  28
ATOM     28  C   UNL     1      62.025  28.465  58.502  1.00  0.00    -0.000 C 
BRANCH  28  29
ATOM     29  C   UNL     1      63.425  27.845  58.680  1.00  0.00    -0.000 C 
BRANCH  29  30
ATOM     30  C   UNL     1      63.402  26.399  59.224  1.00  0.00    -0.000 C 
BRANCH  30  31
ATOM     31  C   UNL     1      64.066  26.247  60.605  1.00  0.00    -0.003 C 
ATOM     32  C   UNL     1      63.167  25.541  61.621  1.00  0.00     0.004 C 
ENDBRANCH  30  31
ENDBRANCH  29  30
ENDBRANCH  28  29
ENDBRANCH  27  28
ENDBRANCH  26  27
ENDBRANCH  25  26
ENDBRANCH  24  25
ENDBRANCH  23  24
ENDBRANCH  22  23
ENDBRANCH  21  22
ENDBRANCH  20  21
ENDBRANCH  19  20
ENDBRANCH  18  19
ENDBRANCH   1  18
TORSDOF 28
ENDMDL
MODEL 2
REMARK VINA RESULT:    -2.660      3.239      7.905
REMARK INTER + INTRA:         -13.554
REMARK INTER:                  -7.304
REMARK INTRA:                  -6.250
REMARK UNBOUND:                -6.539
REMARK SMILES CCCCCCCCCCCCCCCCCCCCCCCCCCCCCC(=O)[O-]
REMARK SMILES IDX 16 1 17 2 18 3 19 4 20 5 21 6 22 7 23 8 24 9 25 10 26 11
REMARK SMILES IDX 27 12 28 13 29 14 30 15 31 16 32 17 15 18 14 19 13 20 12 21
REMARK SMILES IDX 11 22 10 23 9 24 8 25 7 26 6 27 5 28 4 29 3 30 2 31 1 32
REMARK H PARENT
REMARK Flexibility Score: inf
ROOT
ATOM      1  C   UNL     1      61.802  29.013  61.394  1.00  0.00     0.000 C 
ENDROOT
BRANCH   1   2
ATOM      2  C   UNL     1      63.134  28.242  61.416  1.00  0.00     0.000 C 
BRANCH   2   3
ATOM      3  C   UNL     1      62.933  26.732  61.637  1.00  0.00     0.000 C 
BRANCH   3   4
ATOM      4  C   UNL     1      61.829  26.363  62.655  1.00  0.00     0.000 C 
BRANCH   4   5
ATOM      5  C   UNL     1      60.646  25.547  62.088  1.00  0.00     0.000 C 
BRANCH   5   6
ATOM      6  C   UNL     1      59.278  26.243  62.213  1.00  0.00     0.000 C 
BRANCH   6   7
ATOM      7  C   UNL     1      58.554  26.361  60.861  1.00  0.00     0.000 C 
BRANCH   7   8
ATOM      8  C   UNL     1      58.710  27.754  60.223  1.00  0.00     0.000 C 
BRANCH   8   9
ATOM      9  C   UNL     1      59.403  27.758  58.841  1.00  0.00     0.000 C 
BRANCH   9  10
ATOM     10  C   UNL     1      60.556  26.750  58.674  1.00  0.00     0.000 C 
BRANCH  10  11
ATOM     11  C   UNL     1      61.593  27.191  57.625  1.00  0.00     0.000 C 
BRANCH  11  12
ATOM     12  C   UNL     1      62.105  28.625  57.855  1.00  0.00     0.000 C 
BRANCH  12  13
ATOM     13  C   UNL     1      63.490  28.937  57.253  1.00  0.00     0.006 C 
BRANCH  13  14
ATOM     14  C   UNL     1      64.658  28.756  58.241  1.00  0.00     0.053 C 
BRANCH  14  15
ATOM     15  C   UNL     1      65.895  28.236  57.573  1.00  0.00     0.041 C 
ATOM     16  O   UNL     1      66.428  27.164  57.965  1.00  0.00    -0.550 OA
ATOM     17  O   UNL     1      66.439  28.916  56.488  1.00  0.00    -0.550 OA
ENDBRANCH  14  15
ENDBRANCH  13  14
ENDBRANCH  12  13
ENDBRANCH  11  12
ENDBRANCH  10  11
ENDBRANCH   9  10
ENDBRANCH   8   9
ENDBRANCH   7   8
ENDBRANCH   6   7
ENDBRANCH   5   6
ENDBRANCH   4   5
ENDBRANCH   3   4
ENDBRANCH   2   3
ENDBRANCH   1   2
BRANCH   1  18
ATOM     18  C   UNL     1      61.879  30.351  62.145  1.00  0.00     0.000 C 
BRANCH  18  19
ATOM     19  C   UNL     1      60.878  31.383  61.597  1.00  0.00     0.000 C 
BRANCH  19  20
ATOM     20  C   UNL     1      60.452  31.102  60.147  1.00  0.00     0.000 C 
BRANCH  20  21
ATOM     21  C   UNL     1      60.519  32.358  59.257  1.00  0.00     0.000 C 
BRANCH  21  22
ATOM     22  C   UNL     1      60.828  33.636  60.056  1.00  0.00     0.000 C 
BRANCH  22  23
ATOM     23  C   UNL     1      61.090  34.843  59.143  1.00  0.00     0.000 C 
BRANCH  23  24
ATOM     24  C   UNL     1      61.936  35.905  59.854  1.00  0.00    -0.000 C 
BRANCH  24  25
ATOM     25  C   UNL     1      62.398  35.402  61.232  1.00  0.00    -0.000 C 
BRANCH  25  26
ATOM     26  C   UNL     1      63.912  35.560  61.443  1.00  0.00    -0.000 C 
BRANCH  26  27
ATOM     27  C   UNL     1      64.728  34.467  60.730  1.00  0.00    -0.000 C 
BRANCH  27  28
ATOM     28  C   UNL     1      64.243  33.049  61.075  1.00  0.00    -0.000 C 
BRANCH  28  29
ATOM     29  C   UNL     1      64.261  32.056  59.896  1.00  0.00    -0.000 C 
BRANCH  29  30
ATOM     30  C   UNL     1      64.086  32.725  58.514  1.00  0.00    -0.000 C 
BRANCH  30  31
ATOM     31  C   UNL     1      65.201  32.376  57.511  1.00  0.00    -0.003 C 
ATOM     32  C   UNL     1      66.522  32.017  58.195  1.00  0.00     0.004 C 
ENDBRANCH  30  31
ENDBRANCH  29  30
ENDBRANCH  28  29
ENDBRANCH  27  28
ENDBRANCH  26  27
ENDBRANCH  25  26
ENDBRANCH  24  25
ENDBRANCH  23  24
ENDBRANCH  22  23
ENDBRANCH  21  22
ENDBRANCH  20  21
ENDBRANCH  19  20
ENDBRANCH  18  19
ENDBRANCH   1  18
TORSDOF 28
ENDMDL
MODEL 3
REMARK VINA RESULT:    -2.631      8.408     11.583
REMARK INTER + INTRA:         -13.477
REMARK INTER:                  -6.772
REMARK INTRA:                  -6.705
REMARK UNBOUND:                -6.539
REMARK SMILES CCCCCCCCCCCCCCCCCCCCCCCCCCCCCC(=O)[O-]
REMARK SMILES IDX 16 1 17 2 18 3 19 4 20 5 21 6 22 7 23 8 24 9 25 10 26 11
REMARK SMILES IDX 27 12 28 13 29 14 30 15 31 16 32 17 15 18 14 19 13 20 12 21
REMARK SMILES IDX 11 22 10 23 9 24 8 25 7 26 6 27 5 28 4 29 3 30 2 31 1 32
REMARK H PARENT
REMARK Flexibility Score: inf
ROOT
ATOM      1  C   UNL     1      54.314  28.145  50.233  1.00  0.00     0.000 C 
ENDROOT
BRANCH   1   2
ATOM      2  C   UNL     1      54.802  29.237  51.202  1.00  0.00     0.000 C 
BRANCH   2   3
ATOM      3  C   UNL     1      54.220  29.066  52.616  1.00  0.00     0.000 C 
BRANCH   3   4
ATOM      4  C   UNL     1      54.978  29.823  53.731  1.00  0.00     0.000 C 
BRANCH   4   5
ATOM      5  C   UNL     1      56.034  30.840  53.245  1.00  0.00     0.000 C 
BRANCH   5   6
ATOM      6  C   UNL     1      57.484  30.471  53.611  1.00  0.00     0.000 C 
BRANCH   6   7
ATOM      7  C   UNL     1      58.504  31.034  52.606  1.00  0.00     0.000 C 
BRANCH   7   8
ATOM      8  C   UNL     1      59.240  29.930  51.825  1.00  0.00     0.000 C 
BRANCH   8   9
ATOM      9  C   UNL     1      58.372  29.187  50.783  1.00  0.00     0.000 C 
BRANCH   9  10
ATOM     10  C   UNL     1      58.938  29.152  49.351  1.00  0.00     0.000 C 
BRANCH  10  11
ATOM     11  C   UNL     1      59.676  27.840  49.028  1.00  0.00     0.000 C 
BRANCH  11  12
ATOM     12  C   UNL     1      59.051  26.615  49.721  1.00  0.00     0.000 C 
BRANCH  12  13
ATOM     13  C   UNL     1      59.993  25.834  50.659  1.00  0.00     0.006 C 
BRANCH  13  14
ATOM     14  C   UNL     1      59.899  24.304  50.512  1.00  0.00     0.053 C 
BRANCH  14  15
ATOM     15  C   UNL     1      59.975  23.596  51.832  1.00  0.00     0.041 C 
ATOM     16  O   UNL     1      60.635  24.093  52.784  1.00  0.00    -0.550 OA
ATOM     17  O   UNL     1      59.283  22.406  52.024  1.00  0.00    -0.550 OA
ENDBRANCH  14  15
ENDBRANCH  13  14
ENDBRANCH  12  13
ENDBRANCH  11  12
ENDBRANCH  10  11
ENDBRANCH   9  10
ENDBRANCH   8   9
ENDBRANCH   7   8
ENDBRANCH   6   7
ENDBRANCH   5   6
ENDBRANCH   4   5
ENDBRANCH   3   4
ENDBRANCH   2   3
ENDBRANCH   1   2
BRANCH   1  18
ATOM     18  C   UNL     1      55.379  27.070  49.964  1.00  0.00     0.000 C 
BRANCH  18  19
ATOM     19  C   UNL     1      54.758  25.733  49.526  1.00  0.00     0.000 C 
BRANCH  19  20
ATOM     20  C   UNL     1      53.374  25.476  50.147  1.00  0.00     0.000 C 
BRANCH  20  21
ATOM     21  C   UNL     1      53.455  24.672  51.458  1.00  0.00     0.000 C 
BRANCH  21  22
ATOM     22  C   UNL     1      53.321  25.558  52.708  1.00  0.00     0.000 C 
BRANCH  22  23
ATOM     23  C   UNL     1      54.555  25.471  53.618  1.00  0.00     0.000 C 
BRANCH  23  24
ATOM     24  C   UNL     1      55.618  24.539  53.026  1.00  0.00    -0.000 C 
BRANCH  24  25
ATOM     25  C   UNL     1      56.858  25.333  52.586  1.00  0.00    -0.000 C 
BRANCH  25  26
ATOM     26  C   UNL     1      56.996  26.674  53.323  1.00  0.00    -0.000 C 
BRANCH  26  27
ATOM     27  C   UNL     1      58.431  26.940  53.810  1.00  0.00    -0.000 C 
BRANCH  27  28
ATOM     28  C   UNL     1      58.543  26.940  55.344  1.00  0.00    -0.000 C 
BRANCH  28  29
ATOM     29  C   UNL     1      57.199  27.053  56.089  1.00  0.00    -0.000 C 
BRANCH  29  30
ATOM     30  C   UNL     1      56.946  28.443  56.713  1.00  0.00    -0.000 C 
BRANCH  30  31
ATOM     31  C   UNL     1      55.475  28.691  57.098  1.00  0.00    -0.003 C 
ATOM     32  C   UNL     1      54.548  27.558  56.655  1.00  0.00     0.004 C 
ENDBRANCH  30  31
ENDBRANCH  29  30
ENDBRANCH  28  29
ENDBRANCH  27  28
ENDBRANCH  26  27
ENDBRANCH  25  26
ENDBRANCH  24  25
ENDBRANCH  23  24
ENDBRANCH  22  23
ENDBRANCH  21  22
ENDBRANCH  20  21
ENDBRANCH  19  20
ENDBRANCH  18  19
ENDBRANCH   1  18
TORSDOF 28
ENDMDL
MODEL 4
REMARK VINA RESULT:    -2.617      3.058      7.028
REMARK INTER + INTRA:         -13.441
REMARK INTER:                  -7.121
REMARK INTRA:                  -6.320
REMARK UNBOUND:                -6.539
REMARK SMILES CCCCCCCCCCCCCCCCCCCCCCCCCCCCCC(=O)[O-]
REMARK SMILES IDX 16 1 17 2 18 3 19 4 20 5 21 6 22 7 23 8 24 9 25 10 26 11
REMARK SMILES IDX 27 12 28 13 29 14 30 15 31 16 32 17 15 18 14 19 13 20 12 21
REMARK SMILES IDX 11 22 10 23 9 24 8 25 7 26 6 27 5 28 4 29 3 30 2 31 1 32
REMARK H PARENT
REMARK Flexibility Score: inf
ROOT
ATOM      1  C   UNL     1      61.690  32.718  60.486  1.00  0.00     0.000 C 
ENDROOT
BRANCH   1   2
ATOM      2  C   UNL     1      60.754  31.890  61.385  1.00  0.00     0.000 C 
BRANCH   2   3
ATOM      3  C   UNL     1      61.484  30.719  62.067  1.00  0.00     0.000 C 
BRANCH   3   4
ATOM      4  C   UNL     1      62.951  30.516  61.623  1.00  0.00     0.000 C 
BRANCH   4   5
ATOM      5  C   UNL     1      63.385  29.050  61.408  1.00  0.00     0.000 C 
BRANCH   5   6
ATOM      6  C   UNL     1      63.759  28.706  59.954  1.00  0.00     0.000 C 
BRANCH   6   7
ATOM      7  C   UNL     1      63.426  29.847  58.977  1.00  0.00     0.000 C 
BRANCH   7   8
ATOM      8  C   UNL     1      62.427  29.422  57.884  1.00  0.00     0.000 C 
BRANCH   8   9
ATOM      9  C   UNL     1      61.069  30.158  57.928  1.00  0.00     0.000 C 
BRANCH   9  10
ATOM     10  C   UNL     1      59.995  29.515  58.826  1.00  0.00     0.000 C 
BRANCH  10  11
ATOM     11  C   UNL     1      60.173  27.994  58.983  1.00  0.00     0.000 C 
BRANCH  11  12
ATOM     12  C   UNL     1      60.096  27.530  60.450  1.00  0.00     0.000 C 
BRANCH  12  13
ATOM     13  C   UNL     1      58.928  28.117  61.268  1.00  0.00     0.006 C 
BRANCH  13  14
ATOM     14  C   UNL     1      57.549  27.544  60.892  1.00  0.00     0.053 C 
BRANCH  14  15
ATOM     15  C   UNL     1      56.633  27.436  62.074  1.00  0.00     0.041 C 
ATOM     16  O   UNL     1      56.221  28.474  62.659  1.00  0.00    -0.550 OA
ATOM     17  O   UNL     1      56.199  26.187  62.506  1.00  0.00    -0.550 OA
ENDBRANCH  14  15
ENDBRANCH  13  14
ENDBRANCH  12  13
ENDBRANCH  11  12
ENDBRANCH  10  11
ENDBRANCH   9  10
ENDBRANCH   8   9
ENDBRANCH   7   8
ENDBRANCH   6   7
ENDBRANCH   5   6
ENDBRANCH   4   5
ENDBRANCH   3   4
ENDBRANCH   2   3
ENDBRANCH   1   2
BRANCH   1  18
ATOM     18  C   UNL     1      61.481  34.232  60.648  1.00  0.00     0.000 C 
BRANCH  18  19
ATOM     19  C   UNL     1      62.737  34.937  61.190  1.00  0.00     0.000 C 
BRANCH  19  20
ATOM     20  C   UNL     1      64.006  34.075  61.086  1.00  0.00     0.000 C 
BRANCH  20  21
ATOM     21  C   UNL     1      64.872  34.443  59.865  1.00  0.00     0.000 C 
BRANCH  21  22
ATOM     22  C   UNL     1      64.978  33.298  58.845  1.00  0.00     0.000 C 
BRANCH  22  23
ATOM     23  C   UNL     1      63.900  33.388  57.754  1.00  0.00     0.000 C 
BRANCH  23  24
ATOM     24  C   UNL     1      63.486  34.842  57.501  1.00  0.00    -0.000 C 
BRANCH  24  25
ATOM     25  C   UNL     1      62.057  34.914  56.939  1.00  0.00    -0.000 C 
BRANCH  25  26
ATOM     26  C   UNL     1      61.418  33.528  56.766  1.00  0.00    -0.000 C 
BRANCH  26  27
ATOM     27  C   UNL     1      59.891  33.595  56.593  1.00  0.00    -0.000 C 
BRANCH  27  28
ATOM     28  C   UNL     1      59.138  33.434  57.924  1.00  0.00    -0.000 C 
BRANCH  28  29
ATOM     29  C   UNL     1      57.938  32.467  57.873  1.00  0.00    -0.000 C 
BRANCH  29  30
ATOM     30  C   UNL     1      57.876  31.616  56.585  1.00  0.00    -0.000 C 
BRANCH  30  31
ATOM     31  C   UNL     1      56.688  31.964  55.669  1.00  0.00    -0.003 C 
ATOM     32  C   UNL     1      57.079  32.030  54.192  1.00  0.00     0.004 C 
ENDBRANCH  30  31
ENDBRANCH  29  30
ENDBRANCH  28  29
ENDBRANCH  27  28
ENDBRANCH  26  27
ENDBRANCH  25  26
ENDBRANCH  24  25
ENDBRANCH  23  24
ENDBRANCH  22  23
ENDBRANCH  21  22
ENDBRANCH  20  21
ENDBRANCH  19  20
ENDBRANCH  18  19
ENDBRANCH   1  18
TORSDOF 28
ENDMDL
MODEL 5
REMARK VINA RESULT:    -2.611      3.133      6.160
REMARK INTER + INTRA:         -13.423
REMARK INTER:                  -6.711
REMARK INTRA:                  -6.712
REMARK UNBOUND:                -6.539
REMARK SMILES CCCCCCCCCCCCCCCCCCCCCCCCCCCCCC(=O)[O-]
REMARK SMILES IDX 16 1 17 2 18 3 19 4 20 5 21 6 22 7 23 8 24 9 25 10 26 11
REMARK SMILES IDX 27 12 28 13 29 14 30 15 31 16 32 17 15 18 14 19 13 20 12 21
REMARK SMILES IDX 11 22 10 23 9 24 8 25 7 26 6 27 5 28 4 29 3 30 2 31 1 32
REMARK H PARENT
REMARK Flexibility Score: inf
ROOT
ATOM      1  C   UNL     1      64.020  33.418  61.281  1.00  0.00     0.000 C 
ENDROOT
BRANCH   1   2
ATOM      2  C   UNL     1      64.472  34.889  61.346  1.00  0.00     0.000 C 
BRANCH   2   3
ATOM      3  C   UNL     1      63.282  35.864  61.408  1.00  0.00     0.000 C 
BRANCH   3   4
ATOM      4  C   UNL     1      61.916  35.254  61.016  1.00  0.00     0.000 C 
BRANCH   4   5
ATOM      5  C   UNL     1      60.807  36.272  60.673  1.00  0.00     0.000 C 
BRANCH   5   6
ATOM      6  C   UNL     1      59.981  35.911  59.424  1.00  0.00     0.000 C 
BRANCH   6   7
ATOM      7  C   UNL     1      60.848  35.798  58.159  1.00  0.00     0.000 C 
BRANCH   7   8
ATOM      8  C   UNL     1      61.630  37.091  57.857  1.00  0.00     0.000 C 
BRANCH   8   9
ATOM      9  C   UNL     1      63.165  36.920  57.806  1.00  0.00     0.000 C 
BRANCH   9  10
ATOM     10  C   UNL     1      63.671  35.466  57.762  1.00  0.00     0.000 C 
BRANCH  10  11
ATOM     11  C   UNL     1      65.189  35.363  57.531  1.00  0.00     0.000 C 
BRANCH  11  12
ATOM     12  C   UNL     1      65.584  34.144  56.676  1.00  0.00     0.000 C 
BRANCH  12  13
ATOM     13  C   UNL     1      67.059  33.708  56.788  1.00  0.00     0.006 C 
BRANCH  13  14
ATOM     14  C   UNL     1      67.272  32.419  57.604  1.00  0.00     0.053 C 
BRANCH  14  15
ATOM     15  C   UNL     1      66.935  31.185  56.821  1.00  0.00     0.041 C 
ATOM     16  O   UNL     1      67.798  30.647  56.077  1.00  0.00    -0.550 OA
ATOM     17  O   UNL     1      65.678  30.603  56.945  1.00  0.00    -0.550 OA
ENDBRANCH  14  15
ENDBRANCH  13  14
ENDBRANCH  12  13
ENDBRANCH  11  12
ENDBRANCH  10  11
ENDBRANCH   9  10
ENDBRANCH   8   9
ENDBRANCH   7   8
ENDBRANCH   6   7
ENDBRANCH   5   6
ENDBRANCH   4   5
ENDBRANCH   3   4
ENDBRANCH   2   3
ENDBRANCH   1   2
BRANCH   1  18
ATOM     18  C   UNL     1      64.591  32.675  60.064  1.00  0.00     0.000 C 
BRANCH  18  19
ATOM     19  C   UNL     1      64.620  31.151  60.274  1.00  0.00     0.000 C 
BRANCH  19  20
ATOM     20  C   UNL     1      63.934  30.708  61.577  1.00  0.00     0.000 C 
BRANCH  20  21
ATOM     21  C   UNL     1      62.630  29.928  61.321  1.00  0.00     0.000 C 
BRANCH  21  22
ATOM     22  C   UNL     1      61.418  30.544  62.041  1.00  0.00     0.000 C 
BRANCH  22  23
ATOM     23  C   UNL     1      60.878  31.784  61.312  1.00  0.00     0.000 C 
BRANCH  23  24
ATOM     24  C   UNL     1      60.399  31.433  59.898  1.00  0.00    -0.000 C 
BRANCH  24  25
ATOM     25  C   UNL     1      61.156  32.259  58.844  1.00  0.00    -0.000 C 
BRANCH  25  26
ATOM     26  C   UNL     1      61.879  31.381  57.812  1.00  0.00    -0.000 C 
BRANCH  26  27
ATOM     27  C   UNL     1      62.510  32.201  56.673  1.00  0.00    -0.000 C 
BRANCH  27  28
ATOM     28  C   UNL     1      61.478  32.639  55.620  1.00  0.00    -0.000 C 
BRANCH  28  29
ATOM     29  C   UNL     1      62.047  33.511  54.483  1.00  0.00    -0.000 C 
BRANCH  29  30
ATOM     30  C   UNL     1      61.878  35.029  54.716  1.00  0.00    -0.000 C 
BRANCH  30  31
ATOM     31  C   UNL     1      62.573  35.899  53.652  1.00  0.00    -0.003 C 
ATOM     32  C   UNL     1      63.882  36.514  54.152  1.00  0.00     0.004 C 
ENDBRANCH  30  31
ENDBRANCH  29  30
ENDBRANCH  28  29
ENDBRANCH  27  28
ENDBRANCH  26  27
ENDBRANCH  25  26
ENDBRANCH  24  25
ENDBRANCH  23  24
ENDBRANCH  22  23
ENDBRANCH  21  22
ENDBRANCH  20  21
ENDBRANCH  19  20
ENDBRANCH  18  19
ENDBRANCH   1  18
TORSDOF 28
ENDMDL
MODEL 6
REMARK VINA RESULT:    -2.569      2.756      5.083
REMARK INTER + INTRA:         -13.314
REMARK INTER:                  -7.882
REMARK INTRA:                  -5.432
REMARK UNBOUND:                -6.539
REMARK SMILES CCCCCCCCCCCCCCCCCCCCCCCCCCCCCC(=O)[O-]
REMARK SMILES IDX 16 1 17 2 18 3 19 4 20 5 21 6 22 7 23 8 24 9 25 10 26 11
REMARK SMILES IDX 27 12 28 13 29 14 30 15 31 16 32 17 15 18 14 19 13 20 12 21
REMARK SMILES IDX 11 22 10 23 9 24 8 25 7 26 6 27 5 28 4 29 3 30 2 31 1 32
REMARK H PARENT
REMARK Flexibility Score: inf
ROOT
ATOM      1  C   UNL     1      61.397  30.853  59.776  1.00  0.00     0.000 C 
ENDROOT
BRANCH   1   2
ATOM      2  C   UNL     1      60.982  32.136  59.033  1.00  0.00     0.000 C 
BRANCH   2   3
ATOM      3  C   UNL     1      60.971  33.369  59.956  1.00  0.00     0.000 C 
BRANCH   3   4
ATOM      4  C   UNL     1      60.734  34.719  59.240  1.00  0.00     0.000 C 
BRANCH   4   5
ATOM      5  C   UNL     1      61.306  35.962  59.956  1.00  0.00     0.000 C 
BRANCH   5   6
ATOM      6  C   UNL     1      62.094  35.646  61.241  1.00  0.00     0.000 C 
BRANCH   6   7
ATOM      7  C   UNL     1      63.607  35.864  61.069  1.00  0.00     0.000 C 
BRANCH   7   8
ATOM      8  C   UNL     1      64.446  34.750  61.724  1.00  0.00     0.000 C 
BRANCH   8   9
ATOM      9  C   UNL     1      64.401  33.391  60.989  1.00  0.00     0.000 C 
BRANCH   9  10
ATOM     10  C   UNL     1      64.502  33.463  59.453  1.00  0.00     0.000 C 
BRANCH  10  11
ATOM     11  C   UNL     1      65.369  32.340  58.854  1.00  0.00     0.000 C 
BRANCH  11  12
ATOM     12  C   UNL     1      65.214  31.001  59.600  1.00  0.00     0.000 C 
BRANCH  12  13
ATOM     13  C   UNL     1      64.860  29.790  58.714  1.00  0.00     0.006 C 
BRANCH  13  14
ATOM     14  C   UNL     1      64.207  30.164  57.370  1.00  0.00     0.053 C 
BRANCH  14  15
ATOM     15  C   UNL     1      63.120  29.209  56.977  1.00  0.00     0.041 C 
ATOM     16  O   UNL     1      62.544  29.324  55.862  1.00  0.00    -0.550 OA
ATOM     17  O   UNL     1      62.770  28.165  57.826  1.00  0.00    -0.550 OA
ENDBRANCH  14  15
ENDBRANCH  13  14
ENDBRANCH  12  13
ENDBRANCH  11  12
ENDBRANCH  10  11
ENDBRANCH   9  10
ENDBRANCH   8   9
ENDBRANCH   7   8
ENDBRANCH   6   7
ENDBRANCH   5   6
ENDBRANCH   4   5
ENDBRANCH   3   4
ENDBRANCH   2   3
ENDBRANCH   1   2
BRANCH   1  18
ATOM     18  C   UNL     1      61.514  31.059  61.294  1.00  0.00     0.000 C 
BRANCH  18  19
ATOM     19  C   UNL     1      62.599  30.166  61.920  1.00  0.00     0.000 C 
BRANCH  19  20
ATOM     20  C   UNL     1      62.191  28.686  62.002  1.00  0.00     0.000 C 
BRANCH  20  21
ATOM     21  C   UNL     1      63.190  27.756  61.287  1.00  0.00     0.000 C 
BRANCH  21  22
ATOM     22  C   UNL     1      62.976  26.274  61.635  1.00  0.00     0.000 C 
BRANCH  22  23
ATOM     23  C   UNL     1      61.866  26.076  62.678  1.00  0.00     0.000 C 
BRANCH  23  24
ATOM     24  C   UNL     1      61.015  24.842  62.357  1.00  0.00    -0.000 C 
BRANCH  24  25
ATOM     25  C   UNL     1      60.861  24.664  60.837  1.00  0.00    -0.000 C 
BRANCH  25  26
ATOM     26  C   UNL     1      59.619  25.375  60.280  1.00  0.00    -0.000 C 
BRANCH  26  27
ATOM     27  C   UNL     1      59.972  26.601  59.420  1.00  0.00    -0.000 C 
BRANCH  27  28
ATOM     28  C   UNL     1      59.223  27.869  59.864  1.00  0.00    -0.000 C 
BRANCH  28  29
ATOM     29  C   UNL     1      58.866  27.916  61.362  1.00  0.00    -0.000 C 
BRANCH  29  30
ATOM     30  C   UNL     1      57.352  28.053  61.639  1.00  0.00    -0.000 C 
BRANCH  30  31
ATOM     31  C   UNL     1      56.682  26.739  62.082  1.00  0.00    -0.003 C 
ATOM     32  C   UNL     1      55.400  26.969  62.885  1.00  0.00     0.004 C 
ENDBRANCH  30  31
ENDBRANCH  29  30
ENDBRANCH  28  29
ENDBRANCH  27  28
ENDBRANCH  26  27
ENDBRANCH  25  26
ENDBRANCH  24  25
ENDBRANCH  23  24
ENDBRANCH  22  23
ENDBRANCH  21  22
ENDBRANCH  20  21
ENDBRANCH  19  20
ENDBRANCH  18  19
ENDBRANCH   1  18
TORSDOF 28
ENDMDL
MODEL 7
REMARK VINA RESULT:    -2.553      3.965      8.506
REMARK INTER + INTRA:         -13.271
REMARK INTER:                  -7.861
REMARK INTRA:                  -5.410
REMARK UNBOUND:                -6.539
REMARK SMILES CCCCCCCCCCCCCCCCCCCCCCCCCCCCCC(=O)[O-]
REMARK SMILES IDX 16 1 17 2 18 3 19 4 20 5 21 6 22 7 23 8 24 9 25 10 26 11
REMARK SMILES IDX 27 12 28 13 29 14 30 15 31 16 32 17 15 18 14 19 13 20 12 21
REMARK SMILES IDX 11 22 10 23 9 24 8 25 7 26 6 27 5 28 4 29 3 30 2 31 1 32
REMARK H PARENT
REMARK Flexibility Score: inf
ROOT
ATOM      1  C   UNL     1      58.501  30.421  57.868  1.00  0.00     0.000 C 
ENDROOT
BRANCH   1   2
ATOM      2  C   UNL     1      57.385  29.687  58.634  1.00  0.00     0.000 C 
BRANCH   2   3
ATOM      3  C   UNL     1      57.838  28.309  59.148  1.00  0.00     0.000 C 
BRANCH   3   4
ATOM      4  C   UNL     1      58.476  28.314  60.556  1.00  0.00     0.000 C 
BRANCH   4   5
ATOM      5  C   UNL     1      59.870  27.658  60.659  1.00  0.00     0.000 C 
BRANCH   5   6
ATOM      6  C   UNL     1      60.465  27.220  59.307  1.00  0.00     0.000 C 
BRANCH   6   7
ATOM      7  C   UNL     1      61.743  27.998  58.950  1.00  0.00     0.000 C 
BRANCH   7   8
ATOM      8  C   UNL     1      62.962  27.078  58.750  1.00  0.00     0.000 C 
BRANCH   8   9
ATOM      9  C   UNL     1      63.886  26.953  59.983  1.00  0.00     0.000 C 
BRANCH   9  10
ATOM     10  C   UNL     1      63.650  25.713  60.866  1.00  0.00     0.000 C 
BRANCH  10  11
ATOM     11  C   UNL     1      62.747  26.001  62.079  1.00  0.00     0.000 C 
BRANCH  11  12
ATOM     12  C   UNL     1      62.090  24.731  62.652  1.00  0.00     0.000 C 
BRANCH  12  13
ATOM     13  C   UNL     1      60.612  24.522  62.268  1.00  0.00     0.006 C 
BRANCH  13  14
ATOM     14  C   UNL     1      59.641  24.561  63.463  1.00  0.00     0.053 C 
BRANCH  14  15
ATOM     15  C   UNL     1      58.726  23.374  63.496  1.00  0.00     0.041 C 
ATOM     16  O   UNL     1      58.859  22.443  62.656  1.00  0.00    -0.550 OA
ATOM     17  O   UNL     1      57.750  23.274  64.481  1.00  0.00    -0.550 OA
ENDBRANCH  14  15
ENDBRANCH  13  14
ENDBRANCH  12  13
ENDBRANCH  11  12
ENDBRANCH  10  11
ENDBRANCH   9  10
ENDBRANCH   8   9
ENDBRANCH   7   8
ENDBRANCH   6   7
ENDBRANCH   5   6
ENDBRANCH   4   5
ENDBRANCH   3   4
ENDBRANCH   2   3
ENDBRANCH   1   2
BRANCH   1  18
ATOM     18  C   UNL     1      58.540  31.926  58.176  1.00  0.00     0.000 C 
BRANCH  18  19
ATOM     19  C   UNL     1      59.893  32.363  58.766  1.00  0.00     0.000 C 
BRANCH  19  20
ATOM     20  C   UNL     1      60.535  31.292  59.663  1.00  0.00     0.000 C 
BRANCH  20  21
ATOM     21  C   UNL     1      61.020  31.862  61.010  1.00  0.00     0.000 C 
BRANCH  21  22
ATOM     22  C   UNL     1      61.172  30.781  62.093  1.00  0.00     0.000 C 
BRANCH  22  23
ATOM     23  C   UNL     1      62.479  29.987  61.942  1.00  0.00     0.000 C 
BRANCH  23  24
ATOM     24  C   UNL     1      63.663  30.915  61.650  1.00  0.00    -0.000 C 
BRANCH  24  25
ATOM     25  C   UNL     1      64.506  30.376  60.483  1.00  0.00    -0.000 C 
BRANCH  25  26
ATOM     26  C   UNL     1      65.042  31.491  59.573  1.00  0.00    -0.000 C 
BRANCH  26  27
ATOM     27  C   UNL     1      63.922  32.245  58.834  1.00  0.00    -0.000 C 
BRANCH  27  28
ATOM     28  C   UNL     1      63.957  33.760  59.096  1.00  0.00    -0.000 C 
BRANCH  28  29
ATOM     29  C   UNL     1      64.425  34.160  60.509  1.00  0.00    -0.000 C 
BRANCH  29  30
ATOM     30  C   UNL     1      63.353  34.904  61.335  1.00  0.00    -0.000 C 
BRANCH  30  31
ATOM     31  C   UNL     1      62.409  35.775  60.484  1.00  0.00    -0.003 C 
ATOM     32  C   UNL     1      60.933  35.445  60.710  1.00  0.00     0.004 C 
ENDBRANCH  30  31
ENDBRANCH  29  30
ENDBRANCH  28  29
ENDBRANCH  27  28
ENDBRANCH  26  27
ENDBRANCH  25  26
ENDBRANCH  24  25
ENDBRANCH  23  24
ENDBRANCH  22  23
ENDBRANCH  21  22
ENDBRANCH  20  21
ENDBRANCH  19  20
ENDBRANCH  18  19
ENDBRANCH   1  18
TORSDOF 28
ENDMDL
MODEL 8
REMARK VINA RESULT:    -2.552      2.234      5.774
REMARK INTER + INTRA:         -13.269
REMARK INTER:                  -6.701
REMARK INTRA:                  -6.568
REMARK UNBOUND:                -6.539
REMARK SMILES CCCCCCCCCCCCCCCCCCCCCCCCCCCCCC(=O)[O-]
REMARK SMILES IDX 16 1 17 2 18 3 19 4 20 5 21 6 22 7 23 8 24 9 25 10 26 11
REMARK SMILES IDX 27 12 28 13 29 14 30 15 31 16 32 17 15 18 14 19 13 20 12 21
REMARK SMILES IDX 11 22 10 23 9 24 8 25 7 26 6 27 5 28 4 29 3 30 2 31 1 32
REMARK H PARENT
REMARK Flexibility Score: inf
ROOT
ATOM      1  C   UNL     1      60.759  32.046  60.910  1.00  0.00     0.000 C 
ENDROOT
BRANCH   1   2
ATOM      2  C   UNL     1      61.328  31.123  62.002  1.00  0.00     0.000 C 
BRANCH   2   3
ATOM      3  C   UNL     1      61.639  29.711  61.471  1.00  0.00     0.000 C 
BRANCH   3   4
ATOM      4  C   UNL     1      63.144  29.374  61.357  1.00  0.00     0.000 C 
BRANCH   4   5
ATOM      5  C   UNL     1      64.112  30.540  61.653  1.00  0.00     0.000 C 
BRANCH   5   6
ATOM      6  C   UNL     1      64.838  31.091  60.411  1.00  0.00     0.000 C 
BRANCH   6   7
ATOM      7  C   UNL     1      64.413  30.376  59.117  1.00  0.00     0.000 C 
BRANCH   7   8
ATOM      8  C   UNL     1      63.759  31.329  58.099  1.00  0.00     0.000 C 
BRANCH   8   9
ATOM      9  C   UNL     1      62.373  30.875  57.586  1.00  0.00     0.000 C 
BRANCH   9  10
ATOM     10  C   UNL     1      62.034  31.283  56.140  1.00  0.00     0.000 C 
BRANCH  10  11
ATOM     11  C   UNL     1      63.274  31.696  55.325  1.00  0.00     0.000 C 
BRANCH  11  12
ATOM     12  C   UNL     1      62.962  32.762  54.258  1.00  0.00     0.000 C 
BRANCH  12  13
ATOM     13  C   UNL     1      61.925  32.348  53.195  1.00  0.00     0.006 C 
BRANCH  13  14
ATOM     14  C   UNL     1      61.396  33.518  52.345  1.00  0.00     0.053 C 
BRANCH  14  15
ATOM     15  C   UNL     1      59.943  33.795  52.594  1.00  0.00     0.041 C 
ATOM     16  O   UNL     1      59.171  32.868  52.956  1.00  0.00    -0.550 OA
ATOM     17  O   UNL     1      59.449  35.089  52.465  1.00  0.00    -0.550 OA
ENDBRANCH  14  15
ENDBRANCH  13  14
ENDBRANCH  12  13
ENDBRANCH  11  12
ENDBRANCH  10  11
ENDBRANCH   9  10
ENDBRANCH   8   9
ENDBRANCH   7   8
ENDBRANCH   6   7
ENDBRANCH   5   6
ENDBRANCH   4   5
ENDBRANCH   3   4
ENDBRANCH   2   3
ENDBRANCH   1   2
BRANCH   1  18
ATOM     18  C   UNL     1      61.773  33.098  60.435  1.00  0.00     0.000 C 
BRANCH  18  19
ATOM     19  C   UNL     1      61.348  34.528  60.812  1.00  0.00     0.000 C 
BRANCH  19  20
ATOM     20  C   UNL     1      62.536  35.441  61.157  1.00  0.00     0.000 C 
BRANCH  20  21
ATOM     21  C   UNL     1      63.837  34.651  61.402  1.00  0.00     0.000 C 
BRANCH  21  22
ATOM     22  C   UNL     1      65.013  35.167  60.557  1.00  0.00     0.000 C 
BRANCH  22  23
ATOM     23  C   UNL     1      64.886  34.770  59.079  1.00  0.00     0.000 C 
BRANCH  23  24
ATOM     24  C   UNL     1      64.909  36.003  58.168  1.00  0.00    -0.000 C 
BRANCH  24  25
ATOM     25  C   UNL     1      63.825  35.901  57.083  1.00  0.00    -0.000 C 
BRANCH  25  26
ATOM     26  C   UNL     1      62.807  34.787  57.366  1.00  0.00    -0.000 C 
BRANCH  26  27
ATOM     27  C   UNL     1      61.352  35.286  57.326  1.00  0.00    -0.000 C 
BRANCH  27  28
ATOM     28  C   UNL     1      60.608  34.839  56.056  1.00  0.00    -0.000 C 
BRANCH  28  29
ATOM     29  C   UNL     1      59.417  33.893  56.306  1.00  0.00    -0.000 C 
BRANCH  29  30
ATOM     30  C   UNL     1      59.271  33.449  57.778  1.00  0.00    -0.000 C 
BRANCH  30  31
ATOM     31  C   UNL     1      58.150  32.417  58.005  1.00  0.00    -0.003 C 
ATOM     32  C   UNL     1      58.680  30.992  58.170  1.00  0.00     0.004 C 
ENDBRANCH  30  31
ENDBRANCH  29  30
ENDBRANCH  28  29
ENDBRANCH  27  28
ENDBRANCH  26  27
ENDBRANCH  25  26
ENDBRANCH  24  25
ENDBRANCH  23  24
ENDBRANCH  22  23
ENDBRANCH  21  22
ENDBRANCH  20  21
ENDBRANCH  19  20
ENDBRANCH  18  19
ENDBRANCH   1  18
TORSDOF 28
ENDMDL
MODEL 9
REMARK VINA RESULT:    -2.536      8.104     10.944
REMARK INTER + INTRA:         -13.226
REMARK INTER:                  -7.697
REMARK INTRA:                  -5.529
REMARK UNBOUND:                -6.539
REMARK SMILES CCCCCCCCCCCCCCCCCCCCCCCCCCCCCC(=O)[O-]
REMARK SMILES IDX 16 1 17 2 18 3 19 4 20 5 21 6 22 7 23 8 24 9 25 10 26 11
REMARK SMILES IDX 27 12 28 13 29 14 30 15 31 16 32 17 15 18 14 19 13 20 12 21
REMARK SMILES IDX 11 22 10 23 9 24 8 25 7 26 6 27 5 28 4 29 3 30 2 31 1 32
REMARK H PARENT
REMARK Flexibility Score: inf
ROOT
ATOM      1  C   UNL     1      57.809  28.819  52.811  1.00  0.00     0.000 C 
ENDROOT
BRANCH   1   2
ATOM      2  C   UNL     1      58.989  28.744  51.825  1.00  0.00     0.000 C 
BRANCH   2   3
ATOM      3  C   UNL     1      58.603  29.224  50.414  1.00  0.00     0.000 C 
BRANCH   3   4
ATOM      4  C   UNL     1      59.305  28.479  49.255  1.00  0.00     0.000 C 
BRANCH   4   5
ATOM      5  C   UNL     1      59.295  26.938  49.352  1.00  0.00     0.000 C 
BRANCH   5   6
ATOM      6  C   UNL     1      60.675  26.311  49.626  1.00  0.00     0.000 C 
BRANCH   6   7
ATOM      7  C   UNL     1      61.818  27.335  49.510  1.00  0.00     0.000 C 
BRANCH   7   8
ATOM      8  C   UNL     1      62.448  27.679  50.873  1.00  0.00     0.000 C 
BRANCH   8   9
ATOM      9  C   UNL     1      63.127  29.066  50.939  1.00  0.00     0.000 C 
BRANCH   9  10
ATOM     10  C   UNL     1      62.876  29.986  49.729  1.00  0.00     0.000 C 
BRANCH  10  11
ATOM     11  C   UNL     1      61.943  31.167  50.054  1.00  0.00     0.000 C 
BRANCH  11  12
ATOM     12  C   UNL     1      62.224  31.791  51.434  1.00  0.00     0.000 C 
BRANCH  12  13
ATOM     13  C   UNL     1      61.527  33.139  51.704  1.00  0.00     0.006 C 
BRANCH  13  14
ATOM     14  C   UNL     1      62.310  34.364  51.196  1.00  0.00     0.053 C 
BRANCH  14  15
ATOM     15  C   UNL     1      61.655  35.011  50.012  1.00  0.00     0.041 C 
ATOM     16  O   UNL     1      60.847  35.965  50.174  1.00  0.00    -0.550 OA
ATOM     17  O   UNL     1      61.968  34.587  48.725  1.00  0.00    -0.550 OA
ENDBRANCH  14  15
ENDBRANCH  13  14
ENDBRANCH  12  13
ENDBRANCH  11  12
ENDBRANCH  10  11
ENDBRANCH   9  10
ENDBRANCH   8   9
ENDBRANCH   7   8
ENDBRANCH   6   7
ENDBRANCH   5   6
ENDBRANCH   4   5
ENDBRANCH   3   4
ENDBRANCH   2   3
ENDBRANCH   1   2
BRANCH   1  18
ATOM     18  C   UNL     1      56.717  29.799  52.355  1.00  0.00     0.000 C 
BRANCH  18  19
ATOM     19  C   UNL     1      55.309  29.332  52.766  1.00  0.00     0.000 C 
BRANCH  19  20
ATOM     20  C   UNL     1      54.213  29.781  51.786  1.00  0.00     0.000 C 
BRANCH  20  21
ATOM     21  C   UNL     1      54.433  29.233  50.362  1.00  0.00     0.000 C 
BRANCH  21  22
ATOM     22  C   UNL     1      53.430  28.129  49.989  1.00  0.00     0.000 C 
BRANCH  22  23
ATOM     23  C   UNL     1      54.091  26.745  49.907  1.00  0.00     0.000 C 
BRANCH  23  24
ATOM     24  C   UNL     1      55.619  26.854  49.984  1.00  0.00    -0.000 C 
BRANCH  24  25
ATOM     25  C   UNL     1      56.173  25.973  51.115  1.00  0.00    -0.000 C 
BRANCH  25  26
ATOM     26  C   UNL     1      55.125  25.665  52.194  1.00  0.00    -0.000 C 
BRANCH  26  27
ATOM     27  C   UNL     1      55.747  25.473  53.589  1.00  0.00    -0.000 C 
BRANCH  27  28
ATOM     28  C   UNL     1      56.341  24.067  53.782  1.00  0.00    -0.000 C 
BRANCH  28  29
ATOM     29  C   UNL     1      57.761  24.044  54.381  1.00  0.00    -0.000 C 
BRANCH  29  30
ATOM     30  C   UNL     1      58.873  23.779  53.341  1.00  0.00    -0.000 C 
BRANCH  30  31
ATOM     31  C   UNL     1      59.398  25.055  52.657  1.00  0.00    -0.003 C 
ATOM     32  C   UNL     1      60.437  25.795  53.501  1.00  0.00     0.004 C 
ENDBRANCH  30  31
ENDBRANCH  29  30
ENDBRANCH  28  29
ENDBRANCH  27  28
ENDBRANCH  26  27
ENDBRANCH  25  26
ENDBRANCH  24  25
ENDBRANCH  23  24
ENDBRANCH  22  23
ENDBRANCH  21  22
ENDBRANCH  20  21
ENDBRANCH  19  20
ENDBRANCH  18  19
ENDBRANCH   1  18
TORSDOF 28
ENDMDL
