MODEL 1
REMARK VINA RESULT:    -5.611      0.000      0.000
REMARK INTER + INTRA:          -6.164
REMARK INTER:                  -6.103
REMARK INTRA:                  -0.061
REMARK UNBOUND:                -0.061
REMARK SMILES COc1cc2ccc(=O)oc2cc1O
REMARK SMILES IDX 3 1 13 2 12 3 11 4 5 5 4 6 6 7 7 8 8 9 9 10 10 11 2 12 1 13
REMARK SMILES IDX 14 14
REMARK H PARENT 14 15
REMARK Flexibility Score: inf
ROOT
ATOM      1  C   UNL     1     -35.947  -7.323 -14.372  1.00  0.00     0.161 A 
ATOM      2  C   UNL     1     -36.196  -7.758 -15.684  1.00  0.00     0.161 A 
ATOM      3  C   UNL     1     -36.375  -6.826 -16.716  1.00  0.00     0.098 A 
ATOM      4  C   UNL     1     -36.307  -5.457 -16.448  1.00  0.00     0.142 A 
ATOM      5  C   UNL     1     -36.057  -5.012 -15.134  1.00  0.00     0.022 A 
ATOM      6  C   UNL     1     -35.877  -5.942 -14.101  1.00  0.00     0.062 A 
ATOM      7  C   UNL     1     -35.994  -3.634 -14.897  1.00  0.00     0.019 A 
ATOM      8  C   UNL     1     -36.180  -2.748 -15.958  1.00  0.00     0.094 A 
ATOM      9  C   UNL     1     -36.424  -3.263 -17.235  1.00  0.00     0.336 A 
ATOM     10  O   UNL     1     -36.594  -2.479 -18.206  1.00  0.00    -0.246 OA
ATOM     11  O   UNL     1     -36.479  -4.577 -17.433  1.00  0.00    -0.423 OA
ENDROOT
BRANCH   1  12
ATOM     12  O   UNL     1     -35.773  -8.292 -13.371  1.00  0.00    -0.493 OA
ATOM     13  C   UNL     1     -34.583  -8.458 -12.607  1.00  0.00     0.278 C 
ENDBRANCH   1  12
BRANCH   2  14
ATOM     14  O   UNL     1     -36.264  -9.124 -15.953  1.00  0.00    -0.504 OA
ATOM     15  H   UNL     1     -36.837  -9.488 -16.705  1.00  0.00     0.293 HD
ENDBRANCH   2  14
TORSDOF 2
ENDMDL
MODEL 2
REMARK VINA RESULT:    -5.571      3.407      5.457
REMARK INTER + INTRA:          -6.120
REMARK INTER:                  -6.065
REMARK INTRA:                  -0.056
REMARK UNBOUND:                -0.061
REMARK SMILES COc1cc2ccc(=O)oc2cc1O
REMARK SMILES IDX 3 1 13 2 12 3 11 4 5 5 4 6 6 7 7 8 8 9 9 10 10 11 2 12 1 13
REMARK SMILES IDX 14 14
REMARK H PARENT 14 15
REMARK Flexibility Score: inf
ROOT
ATOM      1  C   UNL     1     -33.111  -3.502 -19.361  1.00  0.00     0.161 A 
ATOM      2  C   UNL     1     -33.748  -4.350 -20.281  1.00  0.00     0.161 A 
ATOM      3  C   UNL     1     -34.866  -5.103 -19.893  1.00  0.00     0.098 A 
ATOM      4  C   UNL     1     -35.355  -5.016 -18.587  1.00  0.00     0.142 A 
ATOM      5  C   UNL     1     -34.722  -4.166 -17.657  1.00  0.00     0.022 A 
ATOM      6  C   UNL     1     -33.605  -3.412 -18.044  1.00  0.00     0.062 A 
ATOM      7  C   UNL     1     -35.235  -4.099 -16.357  1.00  0.00     0.019 A 
ATOM      8  C   UNL     1     -36.348  -4.869 -16.021  1.00  0.00     0.094 A 
ATOM      9  C   UNL     1     -36.924  -5.689 -16.996  1.00  0.00     0.336 A 
ATOM     10  O   UNL     1     -37.930  -6.391 -16.712  1.00  0.00    -0.246 OA
ATOM     11  O   UNL     1     -36.416  -5.734 -18.224  1.00  0.00    -0.423 OA
ENDROOT
BRANCH   1  12
ATOM     12  O   UNL     1     -31.997  -2.767 -19.794  1.00  0.00    -0.493 OA
ATOM     13  C   UNL     1     -30.739  -2.741 -19.125  1.00  0.00     0.278 C 
ENDBRANCH   1  12
BRANCH   2  14
ATOM     14  O   UNL     1     -33.262  -4.439 -21.584  1.00  0.00    -0.504 OA
ATOM     15  H   UNL     1     -32.323  -4.140 -21.821  1.00  0.00     0.293 HD
ENDBRANCH   2  14
TORSDOF 2
ENDMDL
MODEL 3
REMARK VINA RESULT:    -5.513      1.767      2.008
REMARK INTER + INTRA:          -6.057
REMARK INTER:                  -5.997
REMARK INTRA:                  -0.060
REMARK UNBOUND:                -0.061
REMARK SMILES COc1cc2ccc(=O)oc2cc1O
REMARK SMILES IDX 3 1 13 2 12 3 11 4 5 5 4 6 6 7 7 8 8 9 9 10 10 11 2 12 1 13
REMARK SMILES IDX 14 14
REMARK H PARENT 14 15
REMARK Flexibility Score: inf
ROOT
ATOM      1  C   UNL     1     -37.634  -7.672 -14.599  1.00  0.00     0.161 A 
ATOM      2  C   UNL     1     -36.670  -7.839 -15.607  1.00  0.00     0.161 A 
ATOM      3  C   UNL     1     -36.078  -6.721 -16.212  1.00  0.00     0.098 A 
ATOM      4  C   UNL     1     -36.442  -5.431 -15.818  1.00  0.00     0.142 A 
ATOM      5  C   UNL     1     -37.408  -5.254 -14.806  1.00  0.00     0.022 A 
ATOM      6  C   UNL     1     -38.001  -6.370 -14.200  1.00  0.00     0.062 A 
ATOM      7  C   UNL     1     -37.752  -3.951 -14.433  1.00  0.00     0.019 A 
ATOM      8  C   UNL     1     -37.134  -2.872 -15.066  1.00  0.00     0.094 A 
ATOM      9  C   UNL     1     -36.184  -3.125 -16.061  1.00  0.00     0.336 A 
ATOM     10  O   UNL     1     -35.615  -2.165 -16.643  1.00  0.00    -0.246 OA
ATOM     11  O   UNL     1     -35.876  -4.374 -16.397  1.00  0.00    -0.423 OA
ENDROOT
BRANCH   1  12
ATOM     12  O   UNL     1     -38.200  -8.819 -14.021  1.00  0.00    -0.493 OA
ATOM     13  C   UNL     1     -39.591  -9.125 -14.032  1.00  0.00     0.278 C 
ENDBRANCH   1  12
BRANCH   2  14
ATOM     14  O   UNL     1     -36.306  -9.125 -16.001  1.00  0.00    -0.504 OA
ATOM     15  H   UNL     1     -35.352  -9.457 -15.910  1.00  0.00     0.293 HD
ENDBRANCH   2  14
TORSDOF 2
ENDMDL
MODEL 4
REMARK VINA RESULT:    -5.462      3.916      4.784
REMARK INTER + INTRA:          -6.002
REMARK INTER:                  -5.946
REMARK INTRA:                  -0.056
REMARK UNBOUND:                -0.061
REMARK SMILES COc1cc2ccc(=O)oc2cc1O
REMARK SMILES IDX 3 1 13 2 12 3 11 4 5 5 4 6 6 7 7 8 8 9 9 10 10 11 2 12 1 13
REMARK SMILES IDX 14 14
REMARK H PARENT 14 15
REMARK Flexibility Score: inf
ROOT
ATOM      1  C   UNL     1     -38.311  -7.571 -14.704  1.00  0.00     0.161 A 
ATOM      2  C   UNL     1     -39.548  -7.958 -14.164  1.00  0.00     0.161 A 
ATOM      3  C   UNL     1     -40.164  -7.178 -13.175  1.00  0.00     0.098 A 
ATOM      4  C   UNL     1     -39.553  -6.008 -12.718  1.00  0.00     0.142 A 
ATOM      5  C   UNL     1     -38.311  -5.611 -13.255  1.00  0.00     0.022 A 
ATOM      6  C   UNL     1     -37.693  -6.390 -14.244  1.00  0.00     0.062 A 
ATOM      7  C   UNL     1     -37.723  -4.435 -12.778  1.00  0.00     0.019 A 
ATOM      8  C   UNL     1     -38.376  -3.695 -11.793  1.00  0.00     0.094 A 
ATOM      9  C   UNL     1     -39.607  -4.150 -11.308  1.00  0.00     0.336 A 
ATOM     10  O   UNL     1     -40.212  -3.495 -10.420  1.00  0.00    -0.246 OA
ATOM     11  O   UNL     1     -40.143  -5.271 -11.779  1.00  0.00    -0.423 OA
ENDROOT
BRANCH   1  12
ATOM     12  O   UNL     1     -37.732  -8.382 -15.691  1.00  0.00    -0.493 OA
ATOM     13  C   UNL     1     -36.397  -8.878 -15.647  1.00  0.00     0.278 C 
ENDBRANCH   1  12
BRANCH   2  14
ATOM     14  O   UNL     1     -40.160  -9.125 -14.619  1.00  0.00    -0.504 OA
ATOM     15  H   UNL     1     -39.787 -10.041 -14.397  1.00  0.00     0.293 HD
ENDBRANCH   2  14
TORSDOF 2
ENDMDL
MODEL 5
REMARK VINA RESULT:    -5.423      2.478      4.819
REMARK INTER + INTRA:          -5.960
REMARK INTER:                  -5.894
REMARK INTRA:                  -0.065
REMARK UNBOUND:                -0.061
REMARK SMILES COc1cc2ccc(=O)oc2cc1O
REMARK SMILES IDX 3 1 13 2 12 3 11 4 5 5 4 6 6 7 7 8 8 9 9 10 10 11 2 12 1 13
REMARK SMILES IDX 14 14
REMARK H PARENT 14 15
REMARK Flexibility Score: inf
ROOT
ATOM      1  C   UNL     1     -36.320  -4.612 -15.802  1.00  0.00     0.161 A 
ATOM      2  C   UNL     1     -36.199  -5.783 -16.567  1.00  0.00     0.161 A 
ATOM      3  C   UNL     1     -36.977  -6.909 -16.265  1.00  0.00     0.098 A 
ATOM      4  C   UNL     1     -37.880  -6.876 -15.199  1.00  0.00     0.142 A 
ATOM      5  C   UNL     1     -38.008  -5.704 -14.426  1.00  0.00     0.022 A 
ATOM      6  C   UNL     1     -37.231  -4.577 -14.727  1.00  0.00     0.062 A 
ATOM      7  C   UNL     1     -38.921  -5.701 -13.365  1.00  0.00     0.019 A 
ATOM      8  C   UNL     1     -39.671  -6.848 -13.105  1.00  0.00     0.094 A 
ATOM      9  C   UNL     1     -39.491  -7.974 -13.916  1.00  0.00     0.336 A 
ATOM     10  O   UNL     1     -40.159  -9.018 -13.697  1.00  0.00    -0.246 OA
ATOM     11  O   UNL     1     -38.616  -7.949 -14.917  1.00  0.00    -0.423 OA
ENDROOT
BRANCH   1  12
ATOM     12  O   UNL     1     -35.521  -3.509 -16.141  1.00  0.00    -0.493 OA
ATOM     13  C   UNL     1     -35.982  -2.371 -16.863  1.00  0.00     0.278 C 
ENDBRANCH   1  12
BRANCH   2  14
ATOM     14  O   UNL     1     -35.299  -5.818 -17.631  1.00  0.00    -0.504 OA
ATOM     15  H   UNL     1     -34.363  -6.192 -17.522  1.00  0.00     0.293 HD
ENDBRANCH   2  14
TORSDOF 2
ENDMDL
MODEL 6
REMARK VINA RESULT:    -5.391      2.307      5.234
REMARK INTER + INTRA:          -5.925
REMARK INTER:                  -5.865
REMARK INTRA:                  -0.060
REMARK UNBOUND:                -0.061
REMARK SMILES COc1cc2ccc(=O)oc2cc1O
REMARK SMILES IDX 3 1 13 2 12 3 11 4 5 5 4 6 6 7 7 8 8 9 9 10 10 11 2 12 1 13
REMARK SMILES IDX 14 14
REMARK H PARENT 14 15
REMARK Flexibility Score: inf
ROOT
ATOM      1  C   UNL     1     -36.587  -5.108 -17.720  1.00  0.00     0.161 A 
ATOM      2  C   UNL     1     -37.945  -4.819 -17.508  1.00  0.00     0.161 A 
ATOM      3  C   UNL     1     -38.706  -5.603 -16.630  1.00  0.00     0.098 A 
ATOM      4  C   UNL     1     -38.121  -6.679 -15.958  1.00  0.00     0.142 A 
ATOM      5  C   UNL     1     -36.758  -6.975 -16.165  1.00  0.00     0.022 A 
ATOM      6  C   UNL     1     -35.995  -6.193 -17.042  1.00  0.00     0.062 A 
ATOM      7  C   UNL     1     -36.200  -8.059 -15.478  1.00  0.00     0.019 A 
ATOM      8  C   UNL     1     -37.000  -8.808 -14.616  1.00  0.00     0.094 A 
ATOM      9  C   UNL     1     -38.344  -8.454 -14.460  1.00  0.00     0.336 A 
ATOM     10  O   UNL     1     -39.082  -9.118 -13.686  1.00  0.00    -0.246 OA
ATOM     11  O   UNL     1     -38.849  -7.420 -15.125  1.00  0.00    -0.423 OA
ENDROOT
BRANCH   1  12
ATOM     12  O   UNL     1     -35.864  -4.296 -18.608  1.00  0.00    -0.493 OA
ATOM     13  C   UNL     1     -34.726  -3.519 -18.246  1.00  0.00     0.278 C 
ENDBRANCH   1  12
BRANCH   2  14
ATOM     14  O   UNL     1     -38.531  -3.745 -18.177  1.00  0.00    -0.504 OA
ATOM     15  H   UNL     1     -38.057  -3.272 -18.938  1.00  0.00     0.293 HD
ENDBRANCH   2  14
TORSDOF 2
ENDMDL
MODEL 7
REMARK VINA RESULT:    -5.360      1.205      4.999
REMARK INTER + INTRA:          -5.891
REMARK INTER:                  -5.832
REMARK INTRA:                  -0.060
REMARK UNBOUND:                -0.061
REMARK SMILES COc1cc2ccc(=O)oc2cc1O
REMARK SMILES IDX 3 1 13 2 12 3 11 4 5 5 4 6 6 7 7 8 8 9 9 10 10 11 2 12 1 13
REMARK SMILES IDX 14 14
REMARK H PARENT 14 15
REMARK Flexibility Score: inf
ROOT
ATOM      1  C   UNL     1     -36.007  -3.067 -16.600  1.00  0.00     0.161 A 
ATOM      2  C   UNL     1     -35.966  -3.841 -17.771  1.00  0.00     0.161 A 
ATOM      3  C   UNL     1     -35.970  -5.241 -17.694  1.00  0.00     0.098 A 
ATOM      4  C   UNL     1     -36.015  -5.878 -16.451  1.00  0.00     0.142 A 
ATOM      5  C   UNL     1     -36.057  -5.108 -15.271  1.00  0.00     0.022 A 
ATOM      6  C   UNL     1     -36.053  -3.708 -15.345  1.00  0.00     0.062 A 
ATOM      7  C   UNL     1     -36.101  -5.774 -14.041  1.00  0.00     0.019 A 
ATOM      8  C   UNL     1     -36.103  -7.169 -14.018  1.00  0.00     0.094 A 
ATOM      9  C   UNL     1     -36.060  -7.866 -15.230  1.00  0.00     0.336 A 
ATOM     10  O   UNL     1     -36.062  -9.125 -15.230  1.00  0.00    -0.246 OA
ATOM     11  O   UNL     1     -36.018  -7.208 -16.384  1.00  0.00    -0.423 OA
ENDROOT
BRANCH   1  12
ATOM     12  O   UNL     1     -36.001  -1.668 -16.725  1.00  0.00    -0.493 OA
ATOM     13  C   UNL     1     -37.168  -0.852 -16.702  1.00  0.00     0.278 C 
ENDBRANCH   1  12
BRANCH   2  14
ATOM     14  O   UNL     1     -35.922  -3.207 -19.011  1.00  0.00    -0.504 OA
ATOM     15  H   UNL     1     -35.088  -3.228 -19.588  1.00  0.00     0.293 HD
ENDBRANCH   2  14
TORSDOF 2
ENDMDL
MODEL 8
REMARK VINA RESULT:    -5.285      2.340      5.127
REMARK INTER + INTRA:          -5.810
REMARK INTER:                  -5.758
REMARK INTRA:                  -0.052
REMARK UNBOUND:                -0.061
REMARK SMILES COc1cc2ccc(=O)oc2cc1O
REMARK SMILES IDX 3 1 13 2 12 3 11 4 5 5 4 6 6 7 7 8 8 9 9 10 10 11 2 12 1 13
REMARK SMILES IDX 14 14
REMARK H PARENT 14 15
REMARK Flexibility Score: inf
ROOT
ATOM      1  C   UNL     1     -35.574  -4.738 -16.969  1.00  0.00     0.161 A 
ATOM      2  C   UNL     1     -36.016  -3.913 -15.922  1.00  0.00     0.161 A 
ATOM      3  C   UNL     1     -36.931  -4.398 -14.977  1.00  0.00     0.098 A 
ATOM      4  C   UNL     1     -37.411  -5.707 -15.069  1.00  0.00     0.142 A 
ATOM      5  C   UNL     1     -36.972  -6.543 -16.116  1.00  0.00     0.022 A 
ATOM      6  C   UNL     1     -36.057  -6.060 -17.062  1.00  0.00     0.062 A 
ATOM      7  C   UNL     1     -37.470  -7.848 -16.181  1.00  0.00     0.019 A 
ATOM      8  C   UNL     1     -38.380  -8.283 -15.217  1.00  0.00     0.094 A 
ATOM      9  C   UNL     1     -38.770  -7.398 -14.206  1.00  0.00     0.336 A 
ATOM     10  O   UNL     1     -39.589  -7.772 -13.326  1.00  0.00    -0.246 OA
ATOM     11  O   UNL     1     -38.281  -6.162 -14.168  1.00  0.00    -0.423 OA
ENDROOT
BRANCH   1  12
ATOM     12  O   UNL     1     -34.657  -4.211 -17.891  1.00  0.00    -0.493 OA
ATOM     13  C   UNL     1     -35.018  -3.599 -19.126  1.00  0.00     0.278 C 
ENDBRANCH   1  12
BRANCH   2  14
ATOM     14  O   UNL     1     -35.538  -2.607 -15.829  1.00  0.00    -0.504 OA
ATOM     15  H   UNL     1     -34.661  -2.395 -15.366  1.00  0.00     0.293 HD
ENDBRANCH   2  14
TORSDOF 2
ENDMDL
MODEL 9
REMARK VINA RESULT:    -5.200      1.935      5.402
REMARK INTER + INTRA:          -5.717
REMARK INTER:                  -5.652
REMARK INTRA:                  -0.065
REMARK UNBOUND:                -0.061
REMARK SMILES COc1cc2ccc(=O)oc2cc1O
REMARK SMILES IDX 3 1 13 2 12 3 11 4 5 5 4 6 6 7 7 8 8 9 9 10 10 11 2 12 1 13
REMARK SMILES IDX 14 14
REMARK H PARENT 14 15
REMARK Flexibility Score: inf
ROOT
ATOM      1  C   UNL     1     -38.388  -4.749 -16.416  1.00  0.00     0.161 A 
ATOM      2  C   UNL     1     -37.647  -3.981 -15.503  1.00  0.00     0.161 A 
ATOM      3  C   UNL     1     -36.762  -4.602 -14.610  1.00  0.00     0.098 A 
ATOM      4  C   UNL     1     -36.610  -5.990 -14.621  1.00  0.00     0.142 A 
ATOM      5  C   UNL     1     -37.349  -6.769 -15.534  1.00  0.00     0.022 A 
ATOM      6  C   UNL     1     -38.234  -6.150 -16.428  1.00  0.00     0.062 A 
ATOM      7  C   UNL     1     -37.176  -8.157 -15.522  1.00  0.00     0.019 A 
ATOM      8  C   UNL     1     -36.283  -8.726 -14.613  1.00  0.00     0.094 A 
ATOM      9  C   UNL     1     -35.583  -7.891 -13.737  1.00  0.00     0.336 A 
ATOM     10  O   UNL     1     -34.773  -8.385 -12.911  1.00  0.00    -0.246 OA
ATOM     11  O   UNL     1     -35.768  -6.574 -13.771  1.00  0.00    -0.423 OA
ENDROOT
BRANCH   1  12
ATOM     12  O   UNL     1     -39.262  -4.084 -17.291  1.00  0.00    -0.493 OA
ATOM     13  C   UNL     1     -39.020  -3.894 -18.682  1.00  0.00     0.278 C 
ENDBRANCH   1  12
BRANCH   2  14
ATOM     14  O   UNL     1     -37.797  -2.595 -15.491  1.00  0.00    -0.504 OA
ATOM     15  H   UNL     1     -38.280  -2.107 -16.237  1.00  0.00     0.293 HD
ENDBRANCH   2  14
TORSDOF 2
ENDMDL
