MODEL 1
REMARK VINA RESULT:    -6.364      0.000      0.000
REMARK INTER + INTRA:          -7.926
REMARK INTER:                  -7.667
REMARK INTRA:                  -0.260
REMARK UNBOUND:                -0.260
REMARK SMILES O=c1c(O)c(-c2ccc(O)c(O)c2)oc2cc(O)cc(O)c12
REMARK SMILES IDX 5 1 3 2 2 3 1 4 22 5 20 6 19 7 17 8 16 9 15 10 14 11 6 12
REMARK SMILES IDX 7 13 8 14 9 15 13 16 11 17 10 18 12 20 4 22 21 24 18 26
REMARK H PARENT 10 19 12 21 4 23 21 25 18 27
REMARK Flexibility Score: inf
ROOT
ATOM      1  C   UNL     1       1.691  16.196  26.156  1.00  0.00     0.180 A 
ATOM      2  C   UNL     1       1.209  16.842  25.001  1.00  0.00     0.208 A 
ATOM      3  C   UNL     1       0.444  18.010  25.146  1.00  0.00     0.238 A 
ATOM      4  O   UNL     1       0.016  18.603  24.119  1.00  0.00    -0.285 OA
ATOM      5  C   UNL     1       0.158  18.500  26.437  1.00  0.00     0.111 A 
ATOM      6  C   UNL     1      -0.608  19.667  26.669  1.00  0.00     0.134 A 
ATOM      7  C   UNL     1      -0.858  20.086  27.985  1.00  0.00     0.093 A 
ATOM      8  C   UNL     1      -0.356  19.358  29.071  1.00  0.00     0.123 A 
ATOM      9  C   UNL     1       0.400  18.208  28.846  1.00  0.00     0.094 A 
ATOM     10  C   UNL     1       0.661  17.775  27.542  1.00  0.00     0.146 A 
ATOM     11  O   UNL     1       1.388  16.679  27.358  1.00  0.00    -0.452 OA
ENDROOT
BRANCH   1  12
ATOM     12  C   UNL     1       2.520  14.972  26.084  1.00  0.00     0.025 A 
ATOM     13  C   UNL     1       1.983  13.749  26.516  1.00  0.00     0.016 A 
ATOM     14  C   UNL     1       2.754  12.584  26.478  1.00  0.00     0.051 A 
ATOM     15  C   UNL     1       4.075  12.625  26.022  1.00  0.00     0.157 A 
ATOM     16  C   UNL     1       3.855  15.015  25.647  1.00  0.00     0.062 A 
ATOM     17  C   UNL     1       4.631  13.847  25.609  1.00  0.00     0.158 A 
BRANCH  15  18
ATOM     18  O   UNL     1       4.819  11.446  25.993  1.00  0.00    -0.504 OA
ATOM     19  H   UNL     1       5.818  11.445  25.827  1.00  0.00     0.293 HD
ENDBRANCH  15  18
BRANCH  17  20
ATOM     20  O   UNL     1       5.953  13.898  25.168  1.00  0.00    -0.504 OA
ATOM     21  H   UNL     1       6.185  14.155  24.215  1.00  0.00     0.293 HD
ENDBRANCH  17  20
ENDBRANCH   1  12
BRANCH   2  22
ATOM     22  O   UNL     1       1.466  16.308  23.735  1.00  0.00    -0.502 OA
ATOM     23  H   UNL     1       1.002  16.646  22.900  1.00  0.00     0.293 HD
ENDBRANCH   2  22
BRANCH   6  24
ATOM     24  O   UNL     1      -1.124  20.413  25.607  1.00  0.00    -0.507 OA
ATOM     25  H   UNL     1      -2.019  20.193  25.186  1.00  0.00     0.293 HD
ENDBRANCH   6  24
BRANCH   8  26
ATOM     26  O   UNL     1      -0.604  19.773  30.377  1.00  0.00    -0.508 OA
ATOM     27  H   UNL     1      -1.506  20.144  30.653  1.00  0.00     0.293 HD
ENDBRANCH   8  26
TORSDOF 6
ENDMDL
MODEL 2
REMARK VINA RESULT:    -5.775      0.638      1.484
REMARK INTER + INTRA:          -7.217
REMARK INTER:                  -7.092
REMARK INTRA:                  -0.125
REMARK UNBOUND:                -0.260
REMARK SMILES O=c1c(O)c(-c2ccc(O)c(O)c2)oc2cc(O)cc(O)c12
REMARK SMILES IDX 5 1 3 2 2 3 1 4 22 5 20 6 19 7 17 8 16 9 15 10 14 11 6 12
REMARK SMILES IDX 7 13 8 14 9 15 13 16 11 17 10 18 12 20 4 22 21 24 18 26
REMARK H PARENT 10 19 12 21 4 23 21 25 18 27
REMARK Flexibility Score: inf
ROOT
ATOM      1  C   UNL     1       1.647  16.081  26.269  1.00  0.00     0.180 A 
ATOM      2  C   UNL     1       1.205  16.700  25.084  1.00  0.00     0.208 A 
ATOM      3  C   UNL     1       0.443  17.876  25.177  1.00  0.00     0.238 A 
ATOM      4  O   UNL     1       0.050  18.445  24.123  1.00  0.00    -0.285 OA
ATOM      5  C   UNL     1       0.119  18.399  26.447  1.00  0.00     0.111 A 
ATOM      6  C   UNL     1      -0.647  19.575  26.626  1.00  0.00     0.134 A 
ATOM      7  C   UNL     1      -0.935  20.027  27.923  1.00  0.00     0.093 A 
ATOM      8  C   UNL     1      -0.470  19.324  29.041  1.00  0.00     0.123 A 
ATOM      9  C   UNL     1       0.286  18.164  28.868  1.00  0.00     0.094 A 
ATOM     10  C   UNL     1       0.584  17.699  27.584  1.00  0.00     0.146 A 
ATOM     11  O   UNL     1       1.311  16.595  27.449  1.00  0.00    -0.452 OA
ENDROOT
BRANCH   1  12
ATOM     12  C   UNL     1       2.471  14.851  26.253  1.00  0.00     0.025 A 
ATOM     13  C   UNL     1       3.728  14.870  25.628  1.00  0.00     0.016 A 
ATOM     14  C   UNL     1       4.514  13.716  25.583  1.00  0.00     0.051 A 
ATOM     15  C   UNL     1       4.051  12.523  26.146  1.00  0.00     0.157 A 
ATOM     16  C   UNL     1       1.998  13.646  26.800  1.00  0.00     0.062 A 
ATOM     17  C   UNL     1       2.785  12.485  26.754  1.00  0.00     0.158 A 
BRANCH  15  18
ATOM     18  O   UNL     1       4.859  11.388  26.088  1.00  0.00    -0.504 OA
ATOM     19  H   UNL     1       5.091  10.851  26.915  1.00  0.00     0.293 HD
ENDBRANCH  15  18
BRANCH  17  20
ATOM     20  O   UNL     1       2.312  11.295  27.305  1.00  0.00    -0.504 OA
ATOM     21  H   UNL     1       2.069  10.500  26.724  1.00  0.00     0.293 HD
ENDBRANCH  17  20
ENDBRANCH   1  12
BRANCH   2  22
ATOM     22  O   UNL     1       1.497  16.135  23.841  1.00  0.00    -0.502 OA
ATOM     23  H   UNL     1       0.957  16.344  23.010  1.00  0.00     0.293 HD
ENDBRANCH   2  22
BRANCH   6  24
ATOM     24  O   UNL     1      -1.125  20.296  25.531  1.00  0.00    -0.507 OA
ATOM     25  H   UNL     1      -0.524  20.910  24.993  1.00  0.00     0.293 HD
ENDBRANCH   6  24
BRANCH   8  26
ATOM     26  O   UNL     1      -0.757  19.771  30.329  1.00  0.00    -0.508 OA
ATOM     27  H   UNL     1      -1.564  20.353  30.521  1.00  0.00     0.293 HD
ENDBRANCH   8  26
TORSDOF 6
ENDMDL
MODEL 3
REMARK VINA RESULT:    -5.409      1.638      6.998
REMARK INTER + INTRA:          -6.775
REMARK INTER:                  -6.487
REMARK INTRA:                  -0.289
REMARK UNBOUND:                -0.260
REMARK SMILES O=c1c(O)c(-c2ccc(O)c(O)c2)oc2cc(O)cc(O)c12
REMARK SMILES IDX 5 1 3 2 2 3 1 4 22 5 20 6 19 7 17 8 16 9 15 10 14 11 6 12
REMARK SMILES IDX 7 13 8 14 9 15 13 16 11 17 10 18 12 20 4 22 21 24 18 26
REMARK H PARENT 10 19 12 21 4 23 21 25 18 27
REMARK Flexibility Score: inf
ROOT
ATOM      1  C   UNL     1       1.049  16.928  26.170  1.00  0.00     0.180 A 
ATOM      2  C   UNL     1       0.270  15.793  26.465  1.00  0.00     0.208 A 
ATOM      3  C   UNL     1       0.885  14.531  26.472  1.00  0.00     0.238 A 
ATOM      4  O   UNL     1       0.200  13.508  26.745  1.00  0.00    -0.285 OA
ATOM      5  C   UNL     1       2.258  14.423  26.167  1.00  0.00     0.111 A 
ATOM      6  C   UNL     1       2.952  13.189  26.150  1.00  0.00     0.134 A 
ATOM      7  C   UNL     1       4.316  13.163  25.827  1.00  0.00     0.093 A 
ATOM      8  C   UNL     1       4.999  14.347  25.523  1.00  0.00     0.123 A 
ATOM      9  C   UNL     1       4.319  15.565  25.539  1.00  0.00     0.094 A 
ATOM     10  C   UNL     1       2.959  15.612  25.859  1.00  0.00     0.146 A 
ATOM     11  O   UNL     1       2.338  16.786  25.873  1.00  0.00    -0.452 OA
ENDROOT
BRANCH   1  12
ATOM     12  C   UNL     1       0.478  18.294  26.161  1.00  0.00     0.025 A 
ATOM     13  C   UNL     1      -0.249  18.731  25.042  1.00  0.00     0.016 A 
ATOM     14  C   UNL     1      -0.779  20.022  25.003  1.00  0.00     0.051 A 
ATOM     15  C   UNL     1      -0.581  20.901  26.072  1.00  0.00     0.157 A 
ATOM     16  C   UNL     1       0.695  19.185  27.226  1.00  0.00     0.062 A 
ATOM     17  C   UNL     1       0.164  20.484  27.187  1.00  0.00     0.158 A 
BRANCH  15  18
ATOM     18  O   UNL     1      -1.125  22.183  26.005  1.00  0.00    -0.504 OA
ATOM     19  H   UNL     1      -1.810  22.441  25.305  1.00  0.00     0.293 HD
ENDBRANCH  15  18
BRANCH  17  20
ATOM     20  O   UNL     1       0.379  21.360  28.250  1.00  0.00    -0.504 OA
ATOM     21  H   UNL     1      -0.296  22.079  28.490  1.00  0.00     0.293 HD
ENDBRANCH  17  20
ENDBRANCH   1  12
BRANCH   2  22
ATOM     22  O   UNL     1      -1.099  15.922  26.715  1.00  0.00    -0.502 OA
ATOM     23  H   UNL     1      -1.745  15.149  26.606  1.00  0.00     0.293 HD
ENDBRANCH   2  22
BRANCH   6  24
ATOM     24  O   UNL     1       2.298  11.992  26.448  1.00  0.00    -0.507 OA
ATOM     25  H   UNL     1       2.641  11.099  26.113  1.00  0.00     0.293 HD
ENDBRANCH   6  24
BRANCH   8  26
ATOM     26  O   UNL     1       6.354  14.321  25.201  1.00  0.00    -0.508 OA
ATOM     27  H   UNL     1       7.051  14.004  25.865  1.00  0.00     0.293 HD
ENDBRANCH   8  26
TORSDOF 6
ENDMDL
MODEL 4
REMARK VINA RESULT:    -5.322      1.293      1.974
REMARK INTER + INTRA:          -6.671
REMARK INTER:                  -6.627
REMARK INTRA:                  -0.044
REMARK UNBOUND:                -0.260
REMARK SMILES O=c1c(O)c(-c2ccc(O)c(O)c2)oc2cc(O)cc(O)c12
REMARK SMILES IDX 5 1 3 2 2 3 1 4 22 5 20 6 19 7 17 8 16 9 15 10 14 11 6 12
REMARK SMILES IDX 7 13 8 14 9 15 13 16 11 17 10 18 12 20 4 22 21 24 18 26
REMARK H PARENT 10 19 12 21 4 23 21 25 18 27
REMARK Flexibility Score: inf
ROOT
ATOM      1  C   UNL     1       1.269  16.910  26.951  1.00  0.00     0.180 A 
ATOM      2  C   UNL     1       0.870  17.794  25.930  1.00  0.00     0.208 A 
ATOM      3  C   UNL     1       0.217  18.986  26.281  1.00  0.00     0.238 A 
ATOM      4  O   UNL     1      -0.136  19.790  25.376  1.00  0.00    -0.285 OA
ATOM      5  C   UNL     1      -0.044  19.264  27.639  1.00  0.00     0.111 A 
ATOM      6  C   UNL     1      -0.700  20.440  28.076  1.00  0.00     0.134 A 
ATOM      7  C   UNL     1      -0.932  20.639  29.445  1.00  0.00     0.093 A 
ATOM      8  C   UNL     1      -0.519  19.686  30.384  1.00  0.00     0.123 A 
ATOM      9  C   UNL     1       0.129  18.526  29.957  1.00  0.00     0.094 A 
ATOM     10  C   UNL     1       0.370  18.310  28.597  1.00  0.00     0.146 A 
ATOM     11  O   UNL     1       0.993  17.199  28.220  1.00  0.00    -0.452 OA
ENDROOT
BRANCH   1  12
ATOM     12  C   UNL     1       1.980  15.644  26.661  1.00  0.00     0.025 A 
ATOM     13  C   UNL     1       3.157  15.673  25.897  1.00  0.00     0.016 A 
ATOM     14  C   UNL     1       3.833  14.488  25.594  1.00  0.00     0.051 A 
ATOM     15  C   UNL     1       3.337  13.258  26.036  1.00  0.00     0.157 A 
ATOM     16  C   UNL     1       1.471  14.405  27.087  1.00  0.00     0.062 A 
ATOM     17  C   UNL     1       2.147  13.214  26.782  1.00  0.00     0.158 A 
BRANCH  15  18
ATOM     18  O   UNL     1       4.035  12.093  25.721  1.00  0.00    -0.504 OA
ATOM     19  H   UNL     1       4.581  11.591  26.410  1.00  0.00     0.293 HD
ENDBRANCH  15  18
BRANCH  17  20
ATOM     20  O   UNL     1       1.640  11.990  27.213  1.00  0.00    -0.504 OA
ATOM     21  H   UNL     1       0.643  11.804  27.228  1.00  0.00     0.293 HD
ENDBRANCH  17  20
ENDBRANCH   1  12
BRANCH   2  22
ATOM     22  O   UNL     1       1.096  17.472  24.589  1.00  0.00    -0.502 OA
ATOM     23  H   UNL     1       1.629  16.656  24.310  1.00  0.00     0.293 HD
ENDBRANCH   2  22
BRANCH   6  24
ATOM     24  O   UNL     1      -1.125  21.407  27.165  1.00  0.00    -0.507 OA
ATOM     25  H   UNL     1      -1.251  21.196  26.181  1.00  0.00     0.293 HD
ENDBRANCH   6  24
BRANCH   8  26
ATOM     26  O   UNL     1      -0.749  19.883  31.743  1.00  0.00    -0.508 OA
ATOM     27  H   UNL     1      -0.625  20.791  32.176  1.00  0.00     0.293 HD
ENDBRANCH   8  26
TORSDOF 6
ENDMDL
MODEL 5
REMARK VINA RESULT:    -5.157      2.438      7.298
REMARK INTER + INTRA:          -6.472
REMARK INTER:                  -6.175
REMARK INTRA:                  -0.297
REMARK UNBOUND:                -0.260
REMARK SMILES O=c1c(O)c(-c2ccc(O)c(O)c2)oc2cc(O)cc(O)c12
REMARK SMILES IDX 5 1 3 2 2 3 1 4 22 5 20 6 19 7 17 8 16 9 15 10 14 11 6 12
REMARK SMILES IDX 7 13 8 14 9 15 13 16 11 17 10 18 12 20 4 22 21 24 18 26
REMARK H PARENT 10 19 12 21 4 23 21 25 18 27
REMARK Flexibility Score: inf
ROOT
ATOM      1  C   UNL     1       2.868  13.737  26.352  1.00  0.00     0.180 A 
ATOM      2  C   UNL     1       3.905  13.282  25.514  1.00  0.00     0.208 A 
ATOM      3  C   UNL     1       4.667  12.174  25.919  1.00  0.00     0.238 A 
ATOM      4  O   UNL     1       5.591  11.751  25.172  1.00  0.00    -0.285 OA
ATOM      5  C   UNL     1       4.395  11.554  27.156  1.00  0.00     0.111 A 
ATOM      6  C   UNL     1       5.118  10.437  27.638  1.00  0.00     0.134 A 
ATOM      7  C   UNL     1       4.792   9.882  28.884  1.00  0.00     0.093 A 
ATOM      8  C   UNL     1       3.758  10.425  29.657  1.00  0.00     0.123 A 
ATOM      9  C   UNL     1       3.043  11.526  29.185  1.00  0.00     0.094 A 
ATOM     10  C   UNL     1       3.351  12.092  27.945  1.00  0.00     0.146 A 
ATOM     11  O   UNL     1       2.650  13.136  27.519  1.00  0.00    -0.452 OA
ENDROOT
BRANCH   1  12
ATOM     12  C   UNL     1       2.009  14.885  25.986  1.00  0.00     0.025 A 
ATOM     13  C   UNL     1       0.759  14.651  25.394  1.00  0.00     0.016 A 
ATOM     14  C   UNL     1      -0.060  15.720  25.021  1.00  0.00     0.051 A 
ATOM     15  C   UNL     1       0.362  17.037  25.221  1.00  0.00     0.157 A 
ATOM     16  C   UNL     1       2.442  16.210  26.166  1.00  0.00     0.062 A 
ATOM     17  C   UNL     1       1.622  17.286  25.792  1.00  0.00     0.158 A 
BRANCH  15  18
ATOM     18  O   UNL     1      -0.477  18.084  24.842  1.00  0.00    -0.504 OA
ATOM     19  H   UNL     1      -1.224  17.957  24.170  1.00  0.00     0.293 HD
ENDBRANCH  15  18
BRANCH  17  20
ATOM     20  O   UNL     1       2.056  18.597  25.980  1.00  0.00    -0.504 OA
ATOM     21  H   UNL     1       1.404  19.372  26.016  1.00  0.00     0.293 HD
ENDBRANCH  17  20
ENDBRANCH   1  12
BRANCH   2  22
ATOM     22  O   UNL     1       4.187  13.944  24.317  1.00  0.00    -0.502 OA
ATOM     23  H   UNL     1       3.892  14.897  24.142  1.00  0.00     0.293 HD
ENDBRANCH   2  22
BRANCH   6  24
ATOM     24  O   UNL     1       6.155   9.875  26.891  1.00  0.00    -0.507 OA
ATOM     25  H   UNL     1       7.097  10.247  26.923  1.00  0.00     0.293 HD
ENDBRANCH   6  24
BRANCH   8  26
ATOM     26  O   UNL     1       3.435   9.875  30.896  1.00  0.00    -0.508 OA
ATOM     27  H   UNL     1       3.967   9.108  31.290  1.00  0.00     0.293 HD
ENDBRANCH   8  26
TORSDOF 6
ENDMDL
MODEL 6
REMARK VINA RESULT:    -5.115      1.811      1.988
REMARK INTER + INTRA:          -6.421
REMARK INTER:                  -6.173
REMARK INTRA:                  -0.249
REMARK UNBOUND:                -0.260
REMARK SMILES O=c1c(O)c(-c2ccc(O)c(O)c2)oc2cc(O)cc(O)c12
REMARK SMILES IDX 5 1 3 2 2 3 1 4 22 5 20 6 19 7 17 8 16 9 15 10 14 11 6 12
REMARK SMILES IDX 7 13 8 14 9 15 13 16 11 17 10 18 12 20 4 22 21 24 18 26
REMARK H PARENT 10 19 12 21 4 23 21 25 18 27
REMARK Flexibility Score: inf
ROOT
ATOM      1  C   UNL     1       1.904  15.111  26.270  1.00  0.00     0.180 A 
ATOM      2  C   UNL     1       0.628  15.228  25.686  1.00  0.00     0.208 A 
ATOM      3  C   UNL     1       0.014  16.490  25.642  1.00  0.00     0.238 A 
ATOM      4  O   UNL     1      -1.124  16.608  25.113  1.00  0.00    -0.285 OA
ATOM      5  C   UNL     1       0.674  17.606  26.197  1.00  0.00     0.111 A 
ATOM      6  C   UNL     1       0.124  18.910  26.197  1.00  0.00     0.134 A 
ATOM      7  C   UNL     1       0.839  19.967  26.778  1.00  0.00     0.093 A 
ATOM      8  C   UNL     1       2.094  19.744  27.358  1.00  0.00     0.123 A 
ATOM      9  C   UNL     1       2.640  18.461  27.360  1.00  0.00     0.094 A 
ATOM     10  C   UNL     1       1.943  17.394  26.785  1.00  0.00     0.146 A 
ATOM     11  O   UNL     1       2.490  16.183  26.797  1.00  0.00    -0.452 OA
ENDROOT
BRANCH   1  12
ATOM     12  C   UNL     1       2.623  13.819  26.337  1.00  0.00     0.025 A 
ATOM     13  C   UNL     1       2.218  12.851  27.269  1.00  0.00     0.016 A 
ATOM     14  C   UNL     1       2.895  11.633  27.364  1.00  0.00     0.051 A 
ATOM     15  C   UNL     1       3.995  11.369  26.542  1.00  0.00     0.157 A 
ATOM     16  C   UNL     1       3.742  13.561  25.526  1.00  0.00     0.062 A 
ATOM     17  C   UNL     1       4.425  12.339  25.622  1.00  0.00     0.158 A 
BRANCH  15  18
ATOM     18  O   UNL     1       4.649  10.143  26.658  1.00  0.00    -0.504 OA
ATOM     19  H   UNL     1       4.236   9.357  27.145  1.00  0.00     0.293 HD
ENDBRANCH  15  18
BRANCH  17  20
ATOM     20  O   UNL     1       5.530  12.088  24.810  1.00  0.00    -0.504 OA
ATOM     21  H   UNL     1       6.011  11.196  24.828  1.00  0.00     0.293 HD
ENDBRANCH  17  20
ENDBRANCH   1  12
BRANCH   2  22
ATOM     22  O   UNL     1      -0.026  14.098  25.188  1.00  0.00    -0.502 OA
ATOM     23  H   UNL     1      -0.676  14.146  24.412  1.00  0.00     0.293 HD
ENDBRANCH   2  22
BRANCH   6  24
ATOM     24  O   UNL     1      -1.125  19.163  25.627  1.00  0.00    -0.507 OA
ATOM     25  H   UNL     1      -1.558  20.078  25.675  1.00  0.00     0.293 HD
ENDBRANCH   6  24
BRANCH   8  26
ATOM     26  O   UNL     1       2.804  20.794  27.937  1.00  0.00    -0.508 OA
ATOM     27  H   UNL     1       2.429  21.321  28.717  1.00  0.00     0.293 HD
ENDBRANCH   8  26
TORSDOF 6
ENDMDL
MODEL 7
REMARK VINA RESULT:    -4.963      1.628      6.803
REMARK INTER + INTRA:          -6.239
REMARK INTER:                  -5.915
REMARK INTRA:                  -0.324
REMARK UNBOUND:                -0.260
REMARK SMILES O=c1c(O)c(-c2ccc(O)c(O)c2)oc2cc(O)cc(O)c12
REMARK SMILES IDX 5 1 3 2 2 3 1 4 22 5 20 6 19 7 17 8 16 9 15 10 14 11 6 12
REMARK SMILES IDX 7 13 8 14 9 15 13 16 11 17 10 18 12 20 4 22 21 24 18 26
REMARK H PARENT 10 19 12 21 4 23 21 25 18 27
REMARK Flexibility Score: inf
ROOT
ATOM      1  C   UNL     1       1.805  16.210  26.216  1.00  0.00     0.180 A 
ATOM      2  C   UNL     1       3.113  16.103  25.705  1.00  0.00     0.208 A 
ATOM      3  C   UNL     1       3.773  14.866  25.782  1.00  0.00     0.238 A 
ATOM      4  O   UNL     1       4.940  14.755  25.319  1.00  0.00    -0.285 OA
ATOM      5  C   UNL     1       3.125  13.766  26.383  1.00  0.00     0.111 A 
ATOM      6  C   UNL     1       3.720  12.488  26.504  1.00  0.00     0.134 A 
ATOM      7  C   UNL     1       3.014  11.447  27.123  1.00  0.00     0.093 A 
ATOM      8  C   UNL     1       1.724  11.661  27.624  1.00  0.00     0.123 A 
ATOM      9  C   UNL     1       1.133  12.919  27.507  1.00  0.00     0.094 A 
ATOM     10  C   UNL     1       1.821  13.969  26.892  1.00  0.00     0.146 A 
ATOM     11  O   UNL     1       1.232  15.155  26.789  1.00  0.00    -0.452 OA
ENDROOT
BRANCH   1  12
ATOM     12  C   UNL     1       1.038  17.474  26.155  1.00  0.00     0.025 A 
ATOM     13  C   UNL     1       0.234  17.740  25.035  1.00  0.00     0.016 A 
ATOM     14  C   UNL     1      -0.483  18.936  24.945  1.00  0.00     0.051 A 
ATOM     15  C   UNL     1      -0.396  19.890  25.963  1.00  0.00     0.157 A 
ATOM     16  C   UNL     1       1.141  18.444  27.167  1.00  0.00     0.062 A 
ATOM     17  C   UNL     1       0.424  19.646  27.078  1.00  0.00     0.158 A 
BRANCH  15  18
ATOM     18  O   UNL     1      -1.125  21.073  25.848  1.00  0.00    -0.504 OA
ATOM     19  H   UNL     1      -1.205  21.571  24.970  1.00  0.00     0.293 HD
ENDBRANCH  15  18
BRANCH  17  20
ATOM     20  O   UNL     1       0.527  20.600  28.090  1.00  0.00    -0.504 OA
ATOM     21  H   UNL     1       0.934  20.377  28.991  1.00  0.00     0.293 HD
ENDBRANCH  17  20
ENDBRANCH   1  12
BRANCH   2  22
ATOM     22  O   UNL     1       3.751  17.220  25.160  1.00  0.00    -0.502 OA
ATOM     23  H   UNL     1       4.654  17.543  25.488  1.00  0.00     0.293 HD
ENDBRANCH   2  22
BRANCH   6  24
ATOM     24  O   UNL     1       5.005  12.245  26.015  1.00  0.00    -0.507 OA
ATOM     25  H   UNL     1       5.209  12.250  25.023  1.00  0.00     0.293 HD
ENDBRANCH   6  24
BRANCH   8  26
ATOM     26  O   UNL     1       1.023  10.627  28.241  1.00  0.00    -0.508 OA
ATOM     27  H   UNL     1       0.688  10.708  29.194  1.00  0.00     0.293 HD
ENDBRANCH   8  26
TORSDOF 6
ENDMDL
MODEL 8
REMARK VINA RESULT:    -4.578      2.071      7.362
REMARK INTER + INTRA:          -5.774
REMARK INTER:                  -5.570
REMARK INTRA:                  -0.204
REMARK UNBOUND:                -0.260
REMARK SMILES O=c1c(O)c(-c2ccc(O)c(O)c2)oc2cc(O)cc(O)c12
REMARK SMILES IDX 5 1 3 2 2 3 1 4 22 5 20 6 19 7 17 8 16 9 15 10 14 11 6 12
REMARK SMILES IDX 7 13 8 14 9 15 13 16 11 17 10 18 12 20 4 22 21 24 18 26
REMARK H PARENT 10 19 12 21 4 23 21 25 18 27
REMARK Flexibility Score: inf
ROOT
ATOM      1  C   UNL     1       1.739  14.666  26.172  1.00  0.00     0.180 A 
ATOM      2  C   UNL     1       1.098  13.673  26.937  1.00  0.00     0.208 A 
ATOM      3  C   UNL     1       1.743  12.440  27.127  1.00  0.00     0.238 A 
ATOM      4  O   UNL     1       1.183  11.548  27.819  1.00  0.00    -0.285 OA
ATOM      5  C   UNL     1       3.002  12.214  26.534  1.00  0.00     0.111 A 
ATOM      6  C   UNL     1       3.716  10.999  26.673  1.00  0.00     0.134 A 
ATOM      7  C   UNL     1       4.960  10.848  26.044  1.00  0.00     0.093 A 
ATOM      8  C   UNL     1       5.504  11.888  25.280  1.00  0.00     0.123 A 
ATOM      9  C   UNL     1       4.804  13.086  25.141  1.00  0.00     0.094 A 
ATOM     10  C   UNL     1       3.563  13.257  25.761  1.00  0.00     0.146 A 
ATOM     11  O   UNL     1       2.921  14.411  25.616  1.00  0.00    -0.452 OA
ENDROOT
BRANCH   1  12
ATOM     12  C   UNL     1       1.133  15.997  25.943  1.00  0.00     0.025 A 
ATOM     13  C   UNL     1       0.010  16.109  25.109  1.00  0.00     0.016 A 
ATOM     14  C   UNL     1      -0.567  17.358  24.862  1.00  0.00     0.051 A 
ATOM     15  C   UNL     1      -0.022  18.513  25.431  1.00  0.00     0.157 A 
ATOM     16  C   UNL     1       1.692  17.161  26.497  1.00  0.00     0.062 A 
ATOM     17  C   UNL     1       1.116  18.416  26.249  1.00  0.00     0.158 A 
BRANCH  15  18
ATOM     18  O   UNL     1      -0.621  19.745  25.169  1.00  0.00    -0.504 OA
ATOM     19  H   UNL     1      -0.261  20.610  25.554  1.00  0.00     0.293 HD
ENDBRANCH  15  18
BRANCH  17  20
ATOM     20  O   UNL     1       1.673  19.566  26.808  1.00  0.00    -0.504 OA
ATOM     21  H   UNL     1       2.196  19.535  27.676  1.00  0.00     0.293 HD
ENDBRANCH  17  20
ENDBRANCH   1  12
BRANCH   2  22
ATOM     22  O   UNL     1      -0.172  13.905  27.472  1.00  0.00    -0.502 OA
ATOM     23  H   UNL     1      -0.409  13.667  28.428  1.00  0.00     0.293 HD
ENDBRANCH   2  22
BRANCH   6  24
ATOM     24  O   UNL     1       3.200   9.945  27.427  1.00  0.00    -0.507 OA
ATOM     25  H   UNL     1       2.701  10.103  28.296  1.00  0.00     0.293 HD
ENDBRANCH   6  24
BRANCH   8  26
ATOM     26  O   UNL     1       6.739  11.737  24.654  1.00  0.00    -0.508 OA
ATOM     27  H   UNL     1       7.035  10.846  24.273  1.00  0.00     0.293 HD
ENDBRANCH   8  26
TORSDOF 6
ENDMDL
MODEL 9
REMARK VINA RESULT:    -4.392      1.652      6.700
REMARK INTER + INTRA:          -5.550
REMARK INTER:                  -6.032
REMARK INTRA:                   0.482
REMARK UNBOUND:                -0.260
REMARK SMILES O=c1c(O)c(-c2ccc(O)c(O)c2)oc2cc(O)cc(O)c12
REMARK SMILES IDX 5 1 3 2 2 3 1 4 22 5 20 6 19 7 17 8 16 9 15 10 14 11 6 12
REMARK SMILES IDX 7 13 8 14 9 15 13 16 11 17 10 18 12 20 4 22 21 24 18 26
REMARK H PARENT 10 19 12 21 4 23 21 25 18 27
REMARK Flexibility Score: inf
ROOT
ATOM      1  C   UNL     1       0.388  17.960  27.708  1.00  0.00     0.180 A 
ATOM      2  C   UNL     1       0.331  18.436  26.384  1.00  0.00     0.208 A 
ATOM      3  C   UNL     1       0.706  17.579  25.337  1.00  0.00     0.238 A 
ATOM      4  O   UNL     1       0.649  17.991  24.147  1.00  0.00    -0.285 OA
ATOM      5  C   UNL     1       1.149  16.272  25.631  1.00  0.00     0.111 A 
ATOM      6  C   UNL     1       1.548  15.348  24.636  1.00  0.00     0.134 A 
ATOM      7  C   UNL     1       1.986  14.069  25.010  1.00  0.00     0.093 A 
ATOM      8  C   UNL     1       2.032  13.698  26.359  1.00  0.00     0.123 A 
ATOM      9  C   UNL     1       1.639  14.606  27.343  1.00  0.00     0.094 A 
ATOM     10  C   UNL     1       1.199  15.885  26.991  1.00  0.00     0.146 A 
ATOM     11  O   UNL     1       0.825  16.727  27.948  1.00  0.00    -0.452 OA
ENDROOT
BRANCH   1  12
ATOM     12  C   UNL     1      -0.009  18.797  28.862  1.00  0.00     0.025 A 
ATOM     13  C   UNL     1      -0.730  19.981  28.641  1.00  0.00     0.016 A 
ATOM     14  C   UNL     1      -1.098  20.797  29.714  1.00  0.00     0.051 A 
ATOM     15  C   UNL     1      -0.739  20.452  31.020  1.00  0.00     0.157 A 
ATOM     16  C   UNL     1       0.369  18.462  30.174  1.00  0.00     0.062 A 
ATOM     17  C   UNL     1       0.003  19.281  31.253  1.00  0.00     0.158 A 
BRANCH  15  18
ATOM     18  O   UNL     1      -1.123  21.284  32.071  1.00  0.00    -0.504 OA
ATOM     19  H   UNL     1      -1.280  22.276  31.941  1.00  0.00     0.293 HD
ENDBRANCH  15  18
BRANCH  17  20
ATOM     20  O   UNL     1       0.377  18.940  32.551  1.00  0.00    -0.504 OA
ATOM     21  H   UNL     1       1.249  19.263  32.956  1.00  0.00     0.293 HD
ENDBRANCH  17  20
ENDBRANCH   1  12
BRANCH   2  22
ATOM     22  O   UNL     1      -0.065  19.751  26.123  1.00  0.00    -0.502 OA
ATOM     23  H   UNL     1      -0.189  20.103  25.181  1.00  0.00     0.293 HD
ENDBRANCH   2  22
BRANCH   6  24
ATOM     24  O   UNL     1       1.515  15.690  23.283  1.00  0.00    -0.507 OA
ATOM     25  H   UNL     1       2.308  15.530  22.673  1.00  0.00     0.293 HD
ENDBRANCH   6  24
BRANCH   8  26
ATOM     26  O   UNL     1       2.468  12.428  26.731  1.00  0.00    -0.508 OA
ATOM     27  H   UNL     1       2.589  11.688  26.049  1.00  0.00     0.293 HD
ENDBRANCH   8  26
TORSDOF 6
ENDMDL
