MODEL 1
REMARK VINA RESULT:    -5.464      0.000      0.000
REMARK INTER + INTRA:         -15.869
REMARK INTER:                 -13.769
REMARK INTRA:                  -2.100
REMARK UNBOUND:                -2.100
REMARK SMILES CCCCCCCCCCCCCCCCCCCCCCCCCCCC(=O)[O-]
REMARK SMILES IDX 15 1 16 2 17 3 18 4 19 5 20 6 21 7 22 8 23 9 24 10 25 11
REMARK SMILES IDX 26 12 27 13 28 14 29 15 30 16 14 17 13 18 12 19 11 20 10 21
REMARK SMILES IDX 9 22 8 23 7 24 6 25 5 26 4 27 3 28 2 29 1 30
REMARK H PARENT
REMARK Flexibility Score: inf
ROOT
ATOM      1  C   UNL     1     -17.527  39.713  18.047  1.00  0.00     0.000 C 
ENDROOT
BRANCH   1   2
ATOM      2  C   UNL     1     -17.385  38.507  18.990  1.00  0.00     0.000 C 
BRANCH   2   3
ATOM      3  C   UNL     1     -16.679  37.314  18.325  1.00  0.00     0.000 C 
BRANCH   3   4
ATOM      4  C   UNL     1     -16.606  37.442  16.793  1.00  0.00     0.000 C 
BRANCH   4   5
ATOM      5  C   UNL     1     -15.720  36.374  16.119  1.00  0.00     0.000 C 
BRANCH   5   6
ATOM      6  C   UNL     1     -16.541  35.365  15.294  1.00  0.00     0.000 C 
BRANCH   6   7
ATOM      7  C   UNL     1     -17.658  36.055  14.481  1.00  0.00     0.000 C 
BRANCH   7   8
ATOM      8  C   UNL     1     -18.016  35.318  13.179  1.00  0.00     0.000 C 
BRANCH   8   9
ATOM      9  C   UNL     1     -16.774  34.861  12.398  1.00  0.00     0.000 C 
BRANCH   9  10
ATOM     10  C   UNL     1     -16.082  36.016  11.650  1.00  0.00     0.000 C 
BRANCH  10  11
ATOM     11  C   UNL     1     -14.999  36.764  12.454  1.00  0.00     0.000 C 
BRANCH  11  12
ATOM     12  C   UNL     1     -15.385  38.184  12.911  1.00  0.00     0.006 C 
BRANCH  12  13
ATOM     13  C   UNL     1     -16.202  38.946  11.860  1.00  0.00     0.053 C 
BRANCH  13  14
ATOM     14  C   UNL     1     -17.305  39.718  12.511  1.00  0.00     0.041 C 
ATOM     15  O   UNL     1     -18.092  39.147  13.312  1.00  0.00    -0.550 OA
ATOM     16  O   UNL     1     -17.483  41.064  12.211  1.00  0.00    -0.550 OA
ENDBRANCH  13  14
ENDBRANCH  12  13
ENDBRANCH  11  12
ENDBRANCH  10  11
ENDBRANCH   9  10
ENDBRANCH   8   9
ENDBRANCH   7   8
ENDBRANCH   6   7
ENDBRANCH   5   6
ENDBRANCH   4   5
ENDBRANCH   3   4
ENDBRANCH   2   3
ENDBRANCH   1   2
BRANCH   1  17
ATOM     17  C   UNL     1     -17.471  41.057  18.788  1.00  0.00     0.000 C 
BRANCH  17  18
ATOM     18  C   UNL     1     -18.761  41.297  19.586  1.00  0.00     0.000 C 
BRANCH  18  19
ATOM     19  C   UNL     1     -18.510  41.446  21.094  1.00  0.00     0.000 C 
BRANCH  19  20
ATOM     20  C   UNL     1     -17.190  42.174  21.410  1.00  0.00     0.000 C 
BRANCH  20  21
ATOM     21  C   UNL     1     -17.348  43.709  21.447  1.00  0.00     0.000 C 
BRANCH  21  22
ATOM     22  C   UNL     1     -16.219  44.436  22.206  1.00  0.00    -0.000 C 
BRANCH  22  23
ATOM     23  C   UNL     1     -16.686  45.383  23.327  1.00  0.00    -0.000 C 
BRANCH  23  24
ATOM     24  C   UNL     1     -16.601  46.886  22.986  1.00  0.00    -0.000 C 
BRANCH  24  25
ATOM     25  C   UNL     1     -15.907  47.211  21.648  1.00  0.00    -0.000 C 
BRANCH  25  26
ATOM     26  C   UNL     1     -16.745  48.057  20.667  1.00  0.00    -0.000 C 
BRANCH  26  27
ATOM     27  C   UNL     1     -16.702  47.583  19.203  1.00  0.00    -0.000 C 
BRANCH  27  28
ATOM     28  C   UNL     1     -17.513  48.488  18.263  1.00  0.00    -0.000 C 
BRANCH  28  29
ATOM     29  C   UNL     1     -16.918  48.486  16.850  1.00  0.00    -0.003 C 
ATOM     30  C   UNL     1     -17.893  47.883  15.842  1.00  0.00     0.004 C 
ENDBRANCH  28  29
ENDBRANCH  27  28
ENDBRANCH  26  27
ENDBRANCH  25  26
ENDBRANCH  24  25
ENDBRANCH  23  24
ENDBRANCH  22  23
ENDBRANCH  21  22
ENDBRANCH  20  21
ENDBRANCH  19  20
ENDBRANCH  18  19
ENDBRANCH  17  18
ENDBRANCH   1  17
TORSDOF 26
ENDMDL
MODEL 2
REMARK VINA RESULT:    -5.377      4.252      9.971
REMARK INTER + INTRA:         -15.649
REMARK INTER:                 -13.712
REMARK INTRA:                  -1.938
REMARK UNBOUND:                -2.100
REMARK SMILES CCCCCCCCCCCCCCCCCCCCCCCCCCCC(=O)[O-]
REMARK SMILES IDX 15 1 16 2 17 3 18 4 19 5 20 6 21 7 22 8 23 9 24 10 25 11
REMARK SMILES IDX 26 12 27 13 28 14 29 15 30 16 14 17 13 18 12 19 11 20 10 21
REMARK SMILES IDX 9 22 8 23 7 24 6 25 5 26 4 27 3 28 2 29 1 30
REMARK H PARENT
REMARK Flexibility Score: inf
ROOT
ATOM      1  C   UNL     1     -16.648  35.312  14.974  1.00  0.00     0.000 C 
ENDROOT
BRANCH   1   2
ATOM      2  C   UNL     1     -15.822  36.031  16.053  1.00  0.00     0.000 C 
BRANCH   2   3
ATOM      3  C   UNL     1     -16.455  37.359  16.497  1.00  0.00     0.000 C 
BRANCH   3   4
ATOM      4  C   UNL     1     -16.674  37.438  18.018  1.00  0.00     0.000 C 
BRANCH   4   5
ATOM      5  C   UNL     1     -17.124  38.828  18.513  1.00  0.00     0.000 C 
BRANCH   5   6
ATOM      6  C   UNL     1     -18.467  38.778  19.263  1.00  0.00     0.000 C 
BRANCH   6   7
ATOM      7  C   UNL     1     -18.743  40.082  20.043  1.00  0.00     0.000 C 
BRANCH   7   8
ATOM      8  C   UNL     1     -18.030  41.313  19.455  1.00  0.00     0.000 C 
BRANCH   8   9
ATOM      9  C   UNL     1     -17.891  42.457  20.473  1.00  0.00     0.000 C 
BRANCH   9  10
ATOM     10  C   UNL     1     -16.821  42.174  21.544  1.00  0.00     0.000 C 
BRANCH  10  11
ATOM     11  C   UNL     1     -15.920  43.373  21.906  1.00  0.00     0.000 C 
BRANCH  11  12
ATOM     12  C   UNL     1     -16.612  44.749  21.864  1.00  0.00     0.006 C 
BRANCH  12  13
ATOM     13  C   UNL     1     -16.872  45.327  23.260  1.00  0.00     0.053 C 
BRANCH  13  14
ATOM     14  C   UNL     1     -16.249  46.681  23.391  1.00  0.00     0.041 C 
ATOM     15  O   UNL     1     -16.230  47.266  24.507  1.00  0.00    -0.550 OA
ATOM     16  O   UNL     1     -15.714  47.312  22.273  1.00  0.00    -0.550 OA
ENDBRANCH  13  14
ENDBRANCH  12  13
ENDBRANCH  11  12
ENDBRANCH  10  11
ENDBRANCH   9  10
ENDBRANCH   8   9
ENDBRANCH   7   8
ENDBRANCH   6   7
ENDBRANCH   5   6
ENDBRANCH   4   5
ENDBRANCH   3   4
ENDBRANCH   2   3
ENDBRANCH   1   2
BRANCH   1  17
ATOM     17  C   UNL     1     -17.484  36.278  14.121  1.00  0.00     0.000 C 
BRANCH  17  18
ATOM     18  C   UNL     1     -17.031  36.245  12.654  1.00  0.00     0.000 C 
BRANCH  18  19
ATOM     19  C   UNL     1     -15.698  36.974  12.425  1.00  0.00     0.000 C 
BRANCH  19  20
ATOM     20  C   UNL     1     -15.653  38.360  13.094  1.00  0.00     0.000 C 
BRANCH  20  21
ATOM     21  C   UNL     1     -15.955  39.509  12.108  1.00  0.00     0.000 C 
BRANCH  21  22
ATOM     22  C   UNL     1     -17.301  40.216  12.365  1.00  0.00    -0.000 C 
BRANCH  22  23
ATOM     23  C   UNL     1     -17.525  41.512  11.563  1.00  0.00    -0.000 C 
BRANCH  23  24
ATOM     24  C   UNL     1     -17.111  41.438  10.077  1.00  0.00    -0.000 C 
BRANCH  24  25
ATOM     25  C   UNL     1     -17.848  42.421   9.147  1.00  0.00    -0.000 C 
BRANCH  25  26
ATOM     26  C   UNL     1     -16.944  43.447   8.434  1.00  0.00    -0.000 C 
BRANCH  26  27
ATOM     27  C   UNL     1     -15.433  43.211   8.609  1.00  0.00    -0.000 C 
BRANCH  27  28
ATOM     28  C   UNL     1     -14.719  44.401   9.266  1.00  0.00    -0.000 C 
BRANCH  28  29
ATOM     29  C   UNL     1     -15.161  44.570  10.725  1.00  0.00    -0.003 C 
ATOM     30  C   UNL     1     -14.841  45.972  11.239  1.00  0.00     0.004 C 
ENDBRANCH  28  29
ENDBRANCH  27  28
ENDBRANCH  26  27
ENDBRANCH  25  26
ENDBRANCH  24  25
ENDBRANCH  23  24
ENDBRANCH  22  23
ENDBRANCH  21  22
ENDBRANCH  20  21
ENDBRANCH  19  20
ENDBRANCH  18  19
ENDBRANCH  17  18
ENDBRANCH   1  17
TORSDOF 26
ENDMDL
MODEL 3
REMARK VINA RESULT:    -5.376      2.714     11.019
REMARK INTER + INTRA:         -15.648
REMARK INTER:                 -13.836
REMARK INTRA:                  -1.812
REMARK UNBOUND:                -2.100
REMARK SMILES CCCCCCCCCCCCCCCCCCCCCCCCCCCC(=O)[O-]
REMARK SMILES IDX 15 1 16 2 17 3 18 4 19 5 20 6 21 7 22 8 23 9 24 10 25 11
REMARK SMILES IDX 26 12 27 13 28 14 29 15 30 16 14 17 13 18 12 19 11 20 10 21
REMARK SMILES IDX 9 22 8 23 7 24 6 25 5 26 4 27 3 28 2 29 1 30
REMARK H PARENT
REMARK Flexibility Score: inf
ROOT
ATOM      1  C   UNL     1     -18.714  41.155  20.918  1.00  0.00     0.000 C 
ENDROOT
BRANCH   1   2
ATOM      2  C   UNL     1     -17.513  40.408  21.521  1.00  0.00     0.000 C 
BRANCH   2   3
ATOM      3  C   UNL     1     -16.534  41.345  22.246  1.00  0.00     0.000 C 
BRANCH   3   4
ATOM      4  C   UNL     1     -16.201  42.607  21.430  1.00  0.00     0.000 C 
BRANCH   4   5
ATOM      5  C   UNL     1     -16.908  43.881  21.934  1.00  0.00     0.000 C 
BRANCH   5   6
ATOM      6  C   UNL     1     -16.118  44.590  23.049  1.00  0.00     0.000 C 
BRANCH   6   7
ATOM      7  C   UNL     1     -16.679  45.997  23.352  1.00  0.00     0.000 C 
BRANCH   7   8
ATOM      8  C   UNL     1     -15.803  47.139  22.808  1.00  0.00     0.000 C 
BRANCH   8   9
ATOM      9  C   UNL     1     -16.486  47.919  21.674  1.00  0.00     0.000 C 
BRANCH   9  10
ATOM     10  C   UNL     1     -16.593  47.105  20.370  1.00  0.00     0.000 C 
BRANCH  10  11
ATOM     11  C   UNL     1     -16.652  47.942  19.076  1.00  0.00     0.000 C 
BRANCH  11  12
ATOM     12  C   UNL     1     -17.748  47.526  18.076  1.00  0.00     0.006 C 
BRANCH  12  13
ATOM     13  C   UNL     1     -17.518  48.096  16.671  1.00  0.00     0.053 C 
BRANCH  13  14
ATOM     14  C   UNL     1     -18.588  49.081  16.323  1.00  0.00     0.041 C 
ATOM     15  O   UNL     1     -18.805  49.384  15.119  1.00  0.00    -0.550 OA
ATOM     16  O   UNL     1     -19.327  49.689  17.331  1.00  0.00    -0.550 OA
ENDBRANCH  13  14
ENDBRANCH  12  13
ENDBRANCH  11  12
ENDBRANCH  10  11
ENDBRANCH   9  10
ENDBRANCH   8   9
ENDBRANCH   7   8
ENDBRANCH   6   7
ENDBRANCH   5   6
ENDBRANCH   4   5
ENDBRANCH   3   4
ENDBRANCH   2   3
ENDBRANCH   1   2
BRANCH   1  17
ATOM     17  C   UNL     1     -19.010  40.736  19.471  1.00  0.00     0.000 C 
BRANCH  17  18
ATOM     18  C   UNL     1     -17.722  40.706  18.635  1.00  0.00     0.000 C 
BRANCH  18  19
ATOM     19  C   UNL     1     -17.538  39.387  17.869  1.00  0.00     0.000 C 
BRANCH  19  20
ATOM     20  C   UNL     1     -16.934  38.271  18.741  1.00  0.00     0.000 C 
BRANCH  20  21
ATOM     21  C   UNL     1     -16.598  36.998  17.935  1.00  0.00     0.000 C 
BRANCH  21  22
ATOM     22  C   UNL     1     -16.513  37.227  16.412  1.00  0.00    -0.000 C 
BRANCH  22  23
ATOM     23  C   UNL     1     -15.487  36.347  15.673  1.00  0.00    -0.000 C 
BRANCH  23  24
ATOM     24  C   UNL     1     -14.540  37.111  14.723  1.00  0.00    -0.000 C 
BRANCH  24  25
ATOM     25  C   UNL     1     -14.560  36.627  13.259  1.00  0.00    -0.000 C 
BRANCH  25  26
ATOM     26  C   UNL     1     -15.851  36.953  12.481  1.00  0.00    -0.000 C 
BRANCH  26  27
ATOM     27  C   UNL     1     -16.296  35.871  11.481  1.00  0.00    -0.000 C 
BRANCH  27  28
ATOM     28  C   UNL     1     -16.599  34.526  12.158  1.00  0.00    -0.000 C 
BRANCH  28  29
ATOM     29  C   UNL     1     -17.499  34.719  13.384  1.00  0.00    -0.003 C 
ATOM     30  C   UNL     1     -18.359  33.483  13.636  1.00  0.00     0.004 C 
ENDBRANCH  28  29
ENDBRANCH  27  28
ENDBRANCH  26  27
ENDBRANCH  25  26
ENDBRANCH  24  25
ENDBRANCH  23  24
ENDBRANCH  22  23
ENDBRANCH  21  22
ENDBRANCH  20  21
ENDBRANCH  19  20
ENDBRANCH  18  19
ENDBRANCH  17  18
ENDBRANCH   1  17
TORSDOF 26
ENDMDL
MODEL 4
REMARK VINA RESULT:    -5.367      4.052      9.278
REMARK INTER + INTRA:         -15.626
REMARK INTER:                 -13.326
REMARK INTRA:                  -2.300
REMARK UNBOUND:                -2.100
REMARK SMILES CCCCCCCCCCCCCCCCCCCCCCCCCCCC(=O)[O-]
REMARK SMILES IDX 15 1 16 2 17 3 18 4 19 5 20 6 21 7 22 8 23 9 24 10 25 11
REMARK SMILES IDX 26 12 27 13 28 14 29 15 30 16 14 17 13 18 12 19 11 20 10 21
REMARK SMILES IDX 9 22 8 23 7 24 6 25 5 26 4 27 3 28 2 29 1 30
REMARK H PARENT
REMARK Flexibility Score: inf
ROOT
ATOM      1  C   UNL     1     -15.572  36.519  12.500  1.00  0.00     0.000 C 
ENDROOT
BRANCH   1   2
ATOM      2  C   UNL     1     -16.764  37.260  13.129  1.00  0.00     0.000 C 
BRANCH   2   3
ATOM      3  C   UNL     1     -17.508  36.408  14.170  1.00  0.00     0.000 C 
BRANCH   3   4
ATOM      4  C   UNL     1     -16.575  35.464  14.947  1.00  0.00     0.000 C 
BRANCH   4   5
ATOM      5  C   UNL     1     -15.840  36.140  16.123  1.00  0.00     0.000 C 
BRANCH   5   6
ATOM      6  C   UNL     1     -16.640  37.313  16.719  1.00  0.00     0.000 C 
BRANCH   6   7
ATOM      7  C   UNL     1     -16.670  37.268  18.262  1.00  0.00     0.000 C 
BRANCH   7   8
ATOM      8  C   UNL     1     -17.648  38.277  18.888  1.00  0.00     0.000 C 
BRANCH   8   9
ATOM      9  C   UNL     1     -17.096  39.712  18.889  1.00  0.00     0.000 C 
BRANCH   9  10
ATOM     10  C   UNL     1     -18.150  40.756  18.472  1.00  0.00     0.000 C 
BRANCH  10  11
ATOM     11  C   UNL     1     -19.087  41.230  19.602  1.00  0.00     0.000 C 
BRANCH  11  12
ATOM     12  C   UNL     1     -18.442  41.315  20.998  1.00  0.00     0.006 C 
BRANCH  12  13
ATOM     13  C   UNL     1     -17.472  42.495  21.135  1.00  0.00     0.053 C 
BRANCH  13  14
ATOM     14  C   UNL     1     -16.299  42.115  21.980  1.00  0.00     0.041 C 
ATOM     15  O   UNL     1     -16.206  40.949  22.450  1.00  0.00    -0.550 OA
ATOM     16  O   UNL     1     -15.320  43.057  22.276  1.00  0.00    -0.550 OA
ENDBRANCH  13  14
ENDBRANCH  12  13
ENDBRANCH  11  12
ENDBRANCH  10  11
ENDBRANCH   9  10
ENDBRANCH   8   9
ENDBRANCH   7   8
ENDBRANCH   6   7
ENDBRANCH   5   6
ENDBRANCH   4   5
ENDBRANCH   3   4
ENDBRANCH   2   3
ENDBRANCH   1   2
BRANCH   1  17
ATOM     17  C   UNL     1     -14.218  37.122  12.903  1.00  0.00     0.000 C 
BRANCH  17  18
ATOM     18  C   UNL     1     -14.409  38.459  13.634  1.00  0.00     0.000 C 
BRANCH  18  19
ATOM     19  C   UNL     1     -14.147  39.675  12.732  1.00  0.00     0.000 C 
BRANCH  19  20
ATOM     20  C   UNL     1     -15.442  40.282  12.160  1.00  0.00     0.000 C 
BRANCH  20  21
ATOM     21  C   UNL     1     -15.187  41.186  10.935  1.00  0.00     0.000 C 
BRANCH  21  22
ATOM     22  C   UNL     1     -16.396  41.308   9.985  1.00  0.00    -0.000 C 
BRANCH  22  23
ATOM     23  C   UNL     1     -16.068  41.170   8.486  1.00  0.00    -0.000 C 
BRANCH  23  24
ATOM     24  C   UNL     1     -16.609  42.308   7.594  1.00  0.00    -0.000 C 
BRANCH  24  25
ATOM     25  C   UNL     1     -16.860  43.642   8.324  1.00  0.00    -0.000 C 
BRANCH  25  26
ATOM     26  C   UNL     1     -15.811  44.740   8.054  1.00  0.00    -0.000 C 
BRANCH  26  27
ATOM     27  C   UNL     1     -15.431  45.590   9.280  1.00  0.00    -0.000 C 
BRANCH  27  28
ATOM     28  C   UNL     1     -14.533  44.834  10.271  1.00  0.00    -0.000 C 
BRANCH  28  29
ATOM     29  C   UNL     1     -15.181  44.769  11.659  1.00  0.00    -0.003 C 
ATOM     30  C   UNL     1     -15.153  46.132  12.345  1.00  0.00     0.004 C 
ENDBRANCH  28  29
ENDBRANCH  27  28
ENDBRANCH  26  27
ENDBRANCH  25  26
ENDBRANCH  24  25
ENDBRANCH  23  24
ENDBRANCH  22  23
ENDBRANCH  21  22
ENDBRANCH  20  21
ENDBRANCH  19  20
ENDBRANCH  18  19
ENDBRANCH  17  18
ENDBRANCH   1  17
TORSDOF 26
ENDMDL
MODEL 5
REMARK VINA RESULT:    -5.327      5.542     12.232
REMARK INTER + INTRA:         -15.525
REMARK INTER:                 -12.671
REMARK INTRA:                  -2.854
REMARK UNBOUND:                -2.100
REMARK SMILES CCCCCCCCCCCCCCCCCCCCCCCCCCCC(=O)[O-]
REMARK SMILES IDX 15 1 16 2 17 3 18 4 19 5 20 6 21 7 22 8 23 9 24 10 25 11
REMARK SMILES IDX 26 12 27 13 28 14 29 15 30 16 14 17 13 18 12 19 11 20 10 21
REMARK SMILES IDX 9 22 8 23 7 24 6 25 5 26 4 27 3 28 2 29 1 30
REMARK H PARENT
REMARK Flexibility Score: inf
ROOT
ATOM      1  C   UNL     1     -17.945  32.885  13.275  1.00  0.00     0.000 C 
ENDROOT
BRANCH   1   2
ATOM      2  C   UNL     1     -17.452  34.183  13.936  1.00  0.00     0.000 C 
BRANCH   2   3
ATOM      3  C   UNL     1     -18.449  35.342  13.783  1.00  0.00     0.000 C 
BRANCH   3   4
ATOM      4  C   UNL     1     -17.792  36.631  13.261  1.00  0.00     0.000 C 
BRANCH   4   5
ATOM      5  C   UNL     1     -16.599  36.385  12.315  1.00  0.00     0.000 C 
BRANCH   5   6
ATOM      6  C   UNL     1     -15.259  36.828  12.931  1.00  0.00     0.000 C 
BRANCH   6   7
ATOM      7  C   UNL     1     -15.433  37.372  14.365  1.00  0.00     0.000 C 
BRANCH   7   8
ATOM      8  C   UNL     1     -14.943  36.403  15.455  1.00  0.00     0.000 C 
BRANCH   8   9
ATOM      9  C   UNL     1     -15.937  36.274  16.621  1.00  0.00     0.000 C 
BRANCH   9  10
ATOM     10  C   UNL     1     -16.758  37.556  16.849  1.00  0.00     0.000 C 
BRANCH  10  11
ATOM     11  C   UNL     1     -16.977  37.943  18.327  1.00  0.00     0.000 C 
BRANCH  11  12
ATOM     12  C   UNL     1     -17.199  39.445  18.586  1.00  0.00     0.006 C 
BRANCH  12  13
ATOM     13  C   UNL     1     -18.389  39.718  19.514  1.00  0.00     0.053 C 
BRANCH  13  14
ATOM     14  C   UNL     1     -17.955  40.522  20.699  1.00  0.00     0.041 C 
ATOM     15  O   UNL     1     -18.253  41.743  20.781  1.00  0.00    -0.550 OA
ATOM     16  O   UNL     1     -17.193  39.930  21.700  1.00  0.00    -0.550 OA
ENDBRANCH  13  14
ENDBRANCH  12  13
ENDBRANCH  11  12
ENDBRANCH  10  11
ENDBRANCH   9  10
ENDBRANCH   8   9
ENDBRANCH   7   8
ENDBRANCH   6   7
ENDBRANCH   5   6
ENDBRANCH   4   5
ENDBRANCH   3   4
ENDBRANCH   2   3
ENDBRANCH   1   2
BRANCH   1  17
ATOM     17  C   UNL     1     -19.196  32.309  13.957  1.00  0.00     0.000 C 
BRANCH  17  18
ATOM     18  C   UNL     1     -18.948  30.867  14.426  1.00  0.00     0.000 C 
BRANCH  18  19
ATOM     19  C   UNL     1     -20.243  30.135  14.811  1.00  0.00     0.000 C 
BRANCH  19  20
ATOM     20  C   UNL     1     -21.467  31.068  14.846  1.00  0.00     0.000 C 
BRANCH  20  21
ATOM     21  C   UNL     1     -22.573  30.640  13.857  1.00  0.00     0.000 C 
BRANCH  21  22
ATOM     22  C   UNL     1     -23.589  31.755  13.534  1.00  0.00    -0.000 C 
BRANCH  22  23
ATOM     23  C   UNL     1     -25.015  31.269  13.214  1.00  0.00    -0.000 C 
BRANCH  23  24
ATOM     24  C   UNL     1     -26.001  32.379  12.791  1.00  0.00    -0.000 C 
BRANCH  24  25
ATOM     25  C   UNL     1     -26.003  33.627  13.697  1.00  0.00    -0.000 C 
BRANCH  25  26
ATOM     26  C   UNL     1     -26.442  33.374  15.154  1.00  0.00    -0.000 C 
BRANCH  26  27
ATOM     27  C   UNL     1     -25.412  33.787  16.221  1.00  0.00    -0.000 C 
BRANCH  27  28
ATOM     28  C   UNL     1     -25.362  32.809  17.405  1.00  0.00    -0.000 C 
BRANCH  28  29
ATOM     29  C   UNL     1     -24.230  31.790  17.228  1.00  0.00    -0.003 C 
ATOM     30  C   UNL     1     -24.781  30.405  16.904  1.00  0.00     0.004 C 
ENDBRANCH  28  29
ENDBRANCH  27  28
ENDBRANCH  26  27
ENDBRANCH  25  26
ENDBRANCH  24  25
ENDBRANCH  23  24
ENDBRANCH  22  23
ENDBRANCH  21  22
ENDBRANCH  20  21
ENDBRANCH  19  20
ENDBRANCH  18  19
ENDBRANCH  17  18
ENDBRANCH   1  17
TORSDOF 26
ENDMDL
MODEL 6
REMARK VINA RESULT:    -5.322      5.486      9.427
REMARK INTER + INTRA:         -15.510
REMARK INTER:                 -13.305
REMARK INTRA:                  -2.205
REMARK UNBOUND:                -2.100
REMARK SMILES CCCCCCCCCCCCCCCCCCCCCCCCCCCC(=O)[O-]
REMARK SMILES IDX 15 1 16 2 17 3 18 4 19 5 20 6 21 7 22 8 23 9 24 10 25 11
REMARK SMILES IDX 26 12 27 13 28 14 29 15 30 16 14 17 13 18 12 19 11 20 10 21
REMARK SMILES IDX 9 22 8 23 7 24 6 25 5 26 4 27 3 28 2 29 1 30
REMARK H PARENT
REMARK Flexibility Score: inf
ROOT
ATOM      1  C   UNL     1     -18.490  35.439  13.829  1.00  0.00     0.000 C 
ENDROOT
BRANCH   1   2
ATOM      2  C   UNL     1     -17.749  34.125  13.529  1.00  0.00     0.000 C 
BRANCH   2   3
ATOM      3  C   UNL     1     -18.540  32.885  13.975  1.00  0.00     0.000 C 
BRANCH   3   4
ATOM      4  C   UNL     1     -18.032  31.586  13.323  1.00  0.00     0.000 C 
BRANCH   4   5
ATOM      5  C   UNL     1     -18.961  30.375  13.540  1.00  0.00     0.000 C 
BRANCH   5   6
ATOM      6  C   UNL     1     -20.071  30.661  14.568  1.00  0.00     0.000 C 
BRANCH   6   7
ATOM      7  C   UNL     1     -21.472  30.678  13.918  1.00  0.00     0.000 C 
BRANCH   7   8
ATOM      8  C   UNL     1     -22.114  32.076  13.876  1.00  0.00     0.000 C 
BRANCH   8   9
ATOM      9  C   UNL     1     -23.389  32.166  14.730  1.00  0.00     0.000 C 
BRANCH   9  10
ATOM     10  C   UNL     1     -23.123  31.911  16.226  1.00  0.00     0.000 C 
BRANCH  10  11
ATOM     11  C   UNL     1     -23.992  30.811  16.870  1.00  0.00     0.000 C 
BRANCH  11  12
ATOM     12  C   UNL     1     -25.427  31.237  17.233  1.00  0.00     0.006 C 
BRANCH  12  13
ATOM     13  C   UNL     1     -25.502  32.666  17.785  1.00  0.00     0.053 C 
BRANCH  13  14
ATOM     14  C   UNL     1     -26.392  32.718  18.985  1.00  0.00     0.041 C 
ATOM     15  O   UNL     1     -27.513  32.143  18.970  1.00  0.00    -0.550 OA
ATOM     16  O   UNL     1     -25.997  33.428  20.114  1.00  0.00    -0.550 OA
ENDBRANCH  13  14
ENDBRANCH  12  13
ENDBRANCH  11  12
ENDBRANCH  10  11
ENDBRANCH   9  10
ENDBRANCH   8   9
ENDBRANCH   7   8
ENDBRANCH   6   7
ENDBRANCH   5   6
ENDBRANCH   4   5
ENDBRANCH   3   4
ENDBRANCH   2   3
ENDBRANCH   1   2
BRANCH   1  17
ATOM     17  C   UNL     1     -17.798  36.665  13.215  1.00  0.00     0.000 C 
BRANCH  17  18
ATOM     18  C   UNL     1     -16.495  36.262  12.507  1.00  0.00     0.000 C 
BRANCH  18  19
ATOM     19  C   UNL     1     -15.336  37.227  12.797  1.00  0.00     0.000 C 
BRANCH  19  20
ATOM     20  C   UNL     1     -15.097  37.435  14.304  1.00  0.00     0.000 C 
BRANCH  20  21
ATOM     21  C   UNL     1     -14.919  36.106  15.070  1.00  0.00     0.000 C 
BRANCH  21  22
ATOM     22  C   UNL     1     -15.728  36.028  16.382  1.00  0.00    -0.000 C 
BRANCH  22  23
ATOM     23  C   UNL     1     -16.602  37.259  16.688  1.00  0.00    -0.000 C 
BRANCH  23  24
ATOM     24  C   UNL     1     -16.848  37.525  18.188  1.00  0.00    -0.000 C 
BRANCH  24  25
ATOM     25  C   UNL     1     -16.960  39.013  18.575  1.00  0.00    -0.000 C 
BRANCH  25  26
ATOM     26  C   UNL     1     -18.250  39.396  19.329  1.00  0.00    -0.000 C 
BRANCH  26  27
ATOM     27  C   UNL     1     -18.463  40.909  19.522  1.00  0.00    -0.000 C 
BRANCH  27  28
ATOM     28  C   UNL     1     -18.291  41.351  20.982  1.00  0.00    -0.000 C 
BRANCH  28  29
ATOM     29  C   UNL     1     -17.536  40.290  21.792  1.00  0.00    -0.003 C 
ATOM     30  C   UNL     1     -16.209  40.837  22.314  1.00  0.00     0.004 C 
ENDBRANCH  28  29
ENDBRANCH  27  28
ENDBRANCH  26  27
ENDBRANCH  25  26
ENDBRANCH  24  25
ENDBRANCH  23  24
ENDBRANCH  22  23
ENDBRANCH  21  22
ENDBRANCH  20  21
ENDBRANCH  19  20
ENDBRANCH  18  19
ENDBRANCH  17  18
ENDBRANCH   1  17
TORSDOF 26
ENDMDL
MODEL 7
REMARK VINA RESULT:    -5.309      7.412      9.947
REMARK INTER + INTRA:         -15.478
REMARK INTER:                 -13.171
REMARK INTRA:                  -2.306
REMARK UNBOUND:                -2.100
REMARK SMILES CCCCCCCCCCCCCCCCCCCCCCCCCCCC(=O)[O-]
REMARK SMILES IDX 15 1 16 2 17 3 18 4 19 5 20 6 21 7 22 8 23 9 24 10 25 11
REMARK SMILES IDX 26 12 27 13 28 14 29 15 30 16 14 17 13 18 12 19 11 20 10 21
REMARK SMILES IDX 9 22 8 23 7 24 6 25 5 26 4 27 3 28 2 29 1 30
REMARK H PARENT
REMARK Flexibility Score: inf
ROOT
ATOM      1  C   UNL     1     -16.705  34.807  11.863  1.00  0.00     0.000 C 
ENDROOT
BRANCH   1   2
ATOM      2  C   UNL     1     -17.030  34.596  13.351  1.00  0.00     0.000 C 
BRANCH   2   3
ATOM      3  C   UNL     1     -18.219  33.647  13.568  1.00  0.00     0.000 C 
BRANCH   3   4
ATOM      4  C   UNL     1     -17.892  32.187  13.212  1.00  0.00     0.000 C 
BRANCH   4   5
ATOM      5  C   UNL     1     -18.315  31.170  14.292  1.00  0.00     0.000 C 
BRANCH   5   6
ATOM      6  C   UNL     1     -19.602  30.414  13.915  1.00  0.00     0.000 C 
BRANCH   6   7
ATOM      7  C   UNL     1     -20.831  30.942  14.687  1.00  0.00     0.000 C 
BRANCH   7   8
ATOM      8  C   UNL     1     -21.662  31.965  13.894  1.00  0.00     0.000 C 
BRANCH   8   9
ATOM      9  C   UNL     1     -23.111  32.066  14.398  1.00  0.00     0.000 C 
BRANCH   9  10
ATOM     10  C   UNL     1     -23.592  30.778  15.090  1.00  0.00     0.000 C 
BRANCH  10  11
ATOM     11  C   UNL     1     -24.170  30.970  16.507  1.00  0.00     0.000 C 
BRANCH  11  12
ATOM     12  C   UNL     1     -24.056  32.398  17.074  1.00  0.00     0.006 C 
BRANCH  12  13
ATOM     13  C   UNL     1     -25.295  32.822  17.872  1.00  0.00     0.053 C 
BRANCH  13  14
ATOM     14  C   UNL     1     -26.250  33.573  16.998  1.00  0.00     0.041 C 
ATOM     15  O   UNL     1     -25.896  33.949  15.849  1.00  0.00    -0.550 OA
ATOM     16  O   UNL     1     -27.522  33.884  17.465  1.00  0.00    -0.550 OA
ENDBRANCH  13  14
ENDBRANCH  12  13
ENDBRANCH  11  12
ENDBRANCH  10  11
ENDBRANCH   9  10
ENDBRANCH   8   9
ENDBRANCH   7   8
ENDBRANCH   6   7
ENDBRANCH   5   6
ENDBRANCH   4   5
ENDBRANCH   3   4
ENDBRANCH   2   3
ENDBRANCH   1   2
BRANCH   1  17
ATOM     17  C   UNL     1     -15.945  36.116  11.599  1.00  0.00     0.000 C 
BRANCH  17  18
ATOM     18  C   UNL     1     -15.174  36.563  12.851  1.00  0.00     0.000 C 
BRANCH  18  19
ATOM     19  C   UNL     1     -15.560  37.976  13.315  1.00  0.00     0.000 C 
BRANCH  19  20
ATOM     20  C   UNL     1     -17.063  38.114  13.618  1.00  0.00     0.000 C 
BRANCH  20  21
ATOM     21  C   UNL     1     -17.733  39.248  12.812  1.00  0.00     0.000 C 
BRANCH  21  22
ATOM     22  C   UNL     1     -16.885  39.760  11.629  1.00  0.00    -0.000 C 
BRANCH  22  23
ATOM     23  C   UNL     1     -16.351  41.197  11.778  1.00  0.00    -0.000 C 
BRANCH  23  24
ATOM     24  C   UNL     1     -15.477  41.691  10.606  1.00  0.00    -0.000 C 
BRANCH  24  25
ATOM     25  C   UNL     1     -15.696  40.949   9.273  1.00  0.00    -0.000 C 
BRANCH  25  26
ATOM     26  C   UNL     1     -16.494  41.734   8.213  1.00  0.00    -0.000 C 
BRANCH  26  27
ATOM     27  C   UNL     1     -17.413  42.834   8.776  1.00  0.00    -0.000 C 
BRANCH  27  28
ATOM     28  C   UNL     1     -17.258  44.172   8.038  1.00  0.00    -0.000 C 
BRANCH  28  29
ATOM     29  C   UNL     1     -15.808  44.666   8.096  1.00  0.00    -0.003 C 
ATOM     30  C   UNL     1     -15.496  45.301   9.448  1.00  0.00     0.004 C 
ENDBRANCH  28  29
ENDBRANCH  27  28
ENDBRANCH  26  27
ENDBRANCH  25  26
ENDBRANCH  24  25
ENDBRANCH  23  24
ENDBRANCH  22  23
ENDBRANCH  21  22
ENDBRANCH  20  21
ENDBRANCH  19  20
ENDBRANCH  18  19
ENDBRANCH  17  18
ENDBRANCH   1  17
TORSDOF 26
ENDMDL
MODEL 8
REMARK VINA RESULT:    -5.306      5.100     12.709
REMARK INTER + INTRA:         -15.472
REMARK INTER:                 -13.656
REMARK INTRA:                  -1.815
REMARK UNBOUND:                -2.100
REMARK SMILES CCCCCCCCCCCCCCCCCCCCCCCCCCCC(=O)[O-]
REMARK SMILES IDX 15 1 16 2 17 3 18 4 19 5 20 6 21 7 22 8 23 9 24 10 25 11
REMARK SMILES IDX 26 12 27 13 28 14 29 15 30 16 14 17 13 18 12 19 11 20 10 21
REMARK SMILES IDX 9 22 8 23 7 24 6 25 5 26 4 27 3 28 2 29 1 30
REMARK H PARENT
REMARK Flexibility Score: inf
ROOT
ATOM      1  C   UNL     1     -17.004  36.572  14.365  1.00  0.00     0.000 C 
ENDROOT
BRANCH   1   2
ATOM      2  C   UNL     1     -15.919  35.792  15.126  1.00  0.00     0.000 C 
BRANCH   2   3
ATOM      3  C   UNL     1     -15.902  36.114  16.629  1.00  0.00     0.000 C 
BRANCH   3   4
ATOM      4  C   UNL     1     -16.645  37.418  16.969  1.00  0.00     0.000 C 
BRANCH   4   5
ATOM      5  C   UNL     1     -17.036  37.544  18.456  1.00  0.00     0.000 C 
BRANCH   5   6
ATOM      6  C   UNL     1     -16.913  38.988  18.975  1.00  0.00     0.000 C 
BRANCH   6   7
ATOM      7  C   UNL     1     -18.293  39.623  19.252  1.00  0.00     0.000 C 
BRANCH   7   8
ATOM      8  C   UNL     1     -18.317  41.150  19.061  1.00  0.00     0.000 C 
BRANCH   8   9
ATOM      9  C   UNL     1     -18.600  41.904  20.370  1.00  0.00     0.000 C 
BRANCH   9  10
ATOM     10  C   UNL     1     -17.476  41.735  21.410  1.00  0.00     0.000 C 
BRANCH  10  11
ATOM     11  C   UNL     1     -16.481  42.911  21.500  1.00  0.00     0.000 C 
BRANCH  11  12
ATOM     12  C   UNL     1     -17.098  44.263  21.906  1.00  0.00     0.006 C 
BRANCH  12  13
ATOM     13  C   UNL     1     -16.311  44.964  23.020  1.00  0.00     0.053 C 
BRANCH  13  14
ATOM     14  C   UNL     1     -16.322  46.446  22.816  1.00  0.00     0.041 C 
ATOM     15  O   UNL     1     -16.669  47.213  23.753  1.00  0.00    -0.550 OA
ATOM     16  O   UNL     1     -15.977  46.980  21.579  1.00  0.00    -0.550 OA
ENDBRANCH  13  14
ENDBRANCH  12  13
ENDBRANCH  11  12
ENDBRANCH  10  11
ENDBRANCH   9  10
ENDBRANCH   8   9
ENDBRANCH   7   8
ENDBRANCH   6   7
ENDBRANCH   5   6
ENDBRANCH   4   5
ENDBRANCH   3   4
ENDBRANCH   2   3
ENDBRANCH   1   2
BRANCH   1  17
ATOM     17  C   UNL     1     -17.605  35.772  13.200  1.00  0.00     0.000 C 
BRANCH  17  18
ATOM     18  C   UNL     1     -17.848  34.311  13.607  1.00  0.00     0.000 C 
BRANCH  18  19
ATOM     19  C   UNL     1     -17.363  33.308  12.548  1.00  0.00     0.000 C 
BRANCH  19  20
ATOM     20  C   UNL     1     -17.732  31.853  12.892  1.00  0.00     0.000 C 
BRANCH  20  21
ATOM     21  C   UNL     1     -18.400  31.717  14.277  1.00  0.00     0.000 C 
BRANCH  21  22
ATOM     22  C   UNL     1     -19.793  31.055  14.237  1.00  0.00    -0.000 C 
BRANCH  22  23
ATOM     23  C   UNL     1     -20.979  32.031  14.122  1.00  0.00    -0.000 C 
BRANCH  23  24
ATOM     24  C   UNL     1     -22.319  31.381  13.715  1.00  0.00    -0.000 C 
BRANCH  24  25
ATOM     25  C   UNL     1     -22.861  30.333  14.708  1.00  0.00    -0.000 C 
BRANCH  25  26
ATOM     26  C   UNL     1     -24.324  30.547  15.147  1.00  0.00    -0.000 C 
BRANCH  26  27
ATOM     27  C   UNL     1     -24.528  30.713  16.664  1.00  0.00    -0.000 C 
BRANCH  27  28
ATOM     28  C   UNL     1     -24.905  32.149  17.057  1.00  0.00    -0.000 C 
BRANCH  28  29
ATOM     29  C   UNL     1     -23.889  32.733  18.046  1.00  0.00    -0.003 C 
ATOM     30  C   UNL     1     -22.579  33.086  17.345  1.00  0.00     0.004 C 
ENDBRANCH  28  29
ENDBRANCH  27  28
ENDBRANCH  26  27
ENDBRANCH  25  26
ENDBRANCH  24  25
ENDBRANCH  23  24
ENDBRANCH  22  23
ENDBRANCH  21  22
ENDBRANCH  20  21
ENDBRANCH  19  20
ENDBRANCH  18  19
ENDBRANCH  17  18
ENDBRANCH   1  17
TORSDOF 26
ENDMDL
MODEL 9
REMARK VINA RESULT:    -5.305      7.255      9.444
REMARK INTER + INTRA:         -15.468
REMARK INTER:                 -13.320
REMARK INTRA:                  -2.148
REMARK UNBOUND:                -2.100
REMARK SMILES CCCCCCCCCCCCCCCCCCCCCCCCCCCC(=O)[O-]
REMARK SMILES IDX 15 1 16 2 17 3 18 4 19 5 20 6 21 7 22 8 23 9 24 10 25 11
REMARK SMILES IDX 26 12 27 13 28 14 29 15 30 16 14 17 13 18 12 19 11 20 10 21
REMARK SMILES IDX 9 22 8 23 7 24 6 25 5 26 4 27 3 28 2 29 1 30
REMARK H PARENT
REMARK Flexibility Score: inf
ROOT
ATOM      1  C   UNL     1     -17.371  36.546  14.754  1.00  0.00     0.000 C 
ENDROOT
BRANCH   1   2
ATOM      2  C   UNL     1     -18.025  35.956  13.493  1.00  0.00     0.000 C 
BRANCH   2   3
ATOM      3  C   UNL     1     -17.015  35.238  12.583  1.00  0.00     0.000 C 
BRANCH   3   4
ATOM      4  C   UNL     1     -17.286  33.728  12.465  1.00  0.00     0.000 C 
BRANCH   4   5
ATOM      5  C   UNL     1     -18.144  33.156  13.612  1.00  0.00     0.000 C 
BRANCH   5   6
ATOM      6  C   UNL     1     -18.193  31.617  13.597  1.00  0.00     0.000 C 
BRANCH   6   7
ATOM      7  C   UNL     1     -19.491  31.074  14.234  1.00  0.00     0.000 C 
BRANCH   7   8
ATOM      8  C   UNL     1     -20.716  31.975  13.998  1.00  0.00     0.000 C 
BRANCH   8   9
ATOM      9  C   UNL     1     -22.030  31.181  13.937  1.00  0.00     0.000 C 
BRANCH   9  10
ATOM     10  C   UNL     1     -23.236  31.981  14.466  1.00  0.00     0.000 C 
BRANCH  10  11
ATOM     11  C   UNL     1     -24.460  32.020  13.529  1.00  0.00     0.000 C 
BRANCH  11  12
ATOM     12  C   UNL     1     -25.435  33.188  13.771  1.00  0.00     0.006 C 
BRANCH  12  13
ATOM     13  C   UNL     1     -26.470  32.883  14.860  1.00  0.00     0.053 C 
BRANCH  13  14
ATOM     14  C   UNL     1     -26.148  33.632  16.114  1.00  0.00     0.041 C 
ATOM     15  O   UNL     1     -24.964  33.992  16.352  1.00  0.00    -0.550 OA
ATOM     16  O   UNL     1     -27.151  33.906  17.038  1.00  0.00    -0.550 OA
ENDBRANCH  13  14
ENDBRANCH  12  13
ENDBRANCH  11  12
ENDBRANCH  10  11
ENDBRANCH   9  10
ENDBRANCH   8   9
ENDBRANCH   7   8
ENDBRANCH   6   7
ENDBRANCH   5   6
ENDBRANCH   4   5
ENDBRANCH   3   4
ENDBRANCH   2   3
ENDBRANCH   1   2
BRANCH   1  17
ATOM     17  C   UNL     1     -16.260  35.651  15.322  1.00  0.00     0.000 C 
BRANCH  17  18
ATOM     18  C   UNL     1     -15.082  36.496  15.830  1.00  0.00     0.000 C 
BRANCH  18  19
ATOM     19  C   UNL     1     -13.762  36.167  15.116  1.00  0.00     0.000 C 
BRANCH  19  20
ATOM     20  C   UNL     1     -13.200  37.361  14.323  1.00  0.00     0.000 C 
BRANCH  20  21
ATOM     21  C   UNL     1     -13.977  37.629  13.016  1.00  0.00     0.000 C 
BRANCH  21  22
ATOM     22  C   UNL     1     -14.994  38.784  13.119  1.00  0.00    -0.000 C 
BRANCH  22  23
ATOM     23  C   UNL     1     -16.119  38.764  12.067  1.00  0.00    -0.000 C 
BRANCH  23  24
ATOM     24  C   UNL     1     -17.299  39.714  12.357  1.00  0.00    -0.000 C 
BRANCH  24  25
ATOM     25  C   UNL     1     -17.180  41.113  11.719  1.00  0.00    -0.000 C 
BRANCH  25  26
ATOM     26  C   UNL     1     -17.619  41.197  10.243  1.00  0.00    -0.000 C 
BRANCH  26  27
ATOM     27  C   UNL     1     -17.310  42.536   9.550  1.00  0.00    -0.000 C 
BRANCH  27  28
ATOM     28  C   UNL     1     -16.792  42.355   8.115  1.00  0.00    -0.000 C 
BRANCH  28  29
ATOM     29  C   UNL     1     -16.106  43.631   7.614  1.00  0.00    -0.003 C 
ATOM     30  C   UNL     1     -15.909  44.633   8.749  1.00  0.00     0.004 C 
ENDBRANCH  28  29
ENDBRANCH  27  28
ENDBRANCH  26  27
ENDBRANCH  25  26
ENDBRANCH  24  25
ENDBRANCH  23  24
ENDBRANCH  22  23
ENDBRANCH  21  22
ENDBRANCH  20  21
ENDBRANCH  19  20
ENDBRANCH  18  19
ENDBRANCH  17  18
ENDBRANCH   1  17
TORSDOF 26
ENDMDL
