MODEL 1
REMARK VINA RESULT:    -5.395      0.000      0.000
REMARK INTER + INTRA:         -11.728
REMARK INTER:                  -9.810
REMARK INTRA:                  -1.918
REMARK UNBOUND:                -1.918
REMARK SMILES CCCCCCCCCCCCCCCC(=O)[O-]
REMARK SMILES IDX 9 1 10 2 11 3 12 4 13 5 14 6 15 7 16 8 17 9 18 10 8 11 7 12
REMARK SMILES IDX 6 13 5 14 4 15 3 16 2 17 1 18
REMARK H PARENT
REMARK Flexibility Score: inf
ROOT
ATOM      1  C   UNL     1    -100.090 -62.187 -67.039  1.00  0.00     0.000 C 
ENDROOT
BRANCH   1   2
ATOM      2  C   UNL     1     -99.330 -62.544 -68.328  1.00  0.00     0.000 C 
BRANCH   2   3
ATOM      3  C   UNL     1     -98.140 -61.608 -68.587  1.00  0.00     0.000 C 
BRANCH   3   4
ATOM      4  C   UNL     1     -97.284 -62.059 -69.784  1.00  0.00     0.000 C 
BRANCH   4   5
ATOM      5  C   UNL     1     -95.850 -61.509 -69.724  1.00  0.00     0.000 C 
BRANCH   5   6
ATOM      6  C   UNL     1     -95.221 -61.650 -68.327  1.00  0.00     0.006 C 
BRANCH   6   7
ATOM      7  C   UNL     1     -93.817 -62.264 -68.383  1.00  0.00     0.053 C 
BRANCH   7   8
ATOM      8  C   UNL     1     -93.457 -62.946 -67.098  1.00  0.00     0.041 C 
ATOM      9  O   UNL     1     -93.302 -64.195 -67.067  1.00  0.00    -0.550 OA
ATOM     10  O   UNL     1     -93.258 -62.198 -65.945  1.00  0.00    -0.550 OA
ENDBRANCH   7   8
ENDBRANCH   6   7
ENDBRANCH   5   6
ENDBRANCH   4   5
ENDBRANCH   3   4
ENDBRANCH   2   3
ENDBRANCH   1   2
BRANCH   1  11
ATOM     11  C   UNL     1    -100.881 -60.873 -67.159  1.00  0.00     0.000 C 
BRANCH  11  12
ATOM     12  C   UNL     1    -100.284 -59.685 -66.378  1.00  0.00    -0.000 C 
BRANCH  12  13
ATOM     13  C   UNL     1     -99.377 -58.748 -67.201  1.00  0.00    -0.000 C 
BRANCH  13  14
ATOM     14  C   UNL     1     -98.176 -58.167 -66.432  1.00  0.00    -0.000 C 
BRANCH  14  15
ATOM     15  C   UNL     1     -96.970 -59.118 -66.402  1.00  0.00    -0.000 C 
BRANCH  15  16
ATOM     16  C   UNL     1     -96.821 -59.770 -65.019  1.00  0.00    -0.000 C 
BRANCH  16  17
ATOM     17  C   UNL     1     -97.051 -61.289 -65.055  1.00  0.00    -0.003 C 
ATOM     18  C   UNL     1     -98.096 -61.753 -64.041  1.00  0.00     0.004 C 
ENDBRANCH  16  17
ENDBRANCH  15  16
ENDBRANCH  14  15
ENDBRANCH  13  14
ENDBRANCH  12  13
ENDBRANCH  11  12
ENDBRANCH   1  11
TORSDOF 14
ENDMDL
MODEL 2
REMARK VINA RESULT:    -5.360      2.221      4.029
REMARK INTER + INTRA:         -11.665
REMARK INTER:                  -9.826
REMARK INTRA:                  -1.839
REMARK UNBOUND:                -1.918
REMARK SMILES CCCCCCCCCCCCCCCC(=O)[O-]
REMARK SMILES IDX 9 1 10 2 11 3 12 4 13 5 14 6 15 7 16 8 17 9 18 10 8 11 7 12
REMARK SMILES IDX 6 13 5 14 4 15 3 16 2 17 1 18
REMARK H PARENT
REMARK Flexibility Score: inf
ROOT
ATOM      1  C   UNL     1     -96.571 -62.042 -64.651  1.00  0.00     0.000 C 
ENDROOT
BRANCH   1   2
ATOM      2  C   UNL     1     -95.599 -61.340 -65.615  1.00  0.00     0.000 C 
BRANCH   2   3
ATOM      3  C   UNL     1     -94.421 -62.240 -66.020  1.00  0.00     0.000 C 
BRANCH   3   4
ATOM      4  C   UNL     1     -93.868 -61.895 -67.414  1.00  0.00     0.000 C 
BRANCH   4   5
ATOM      5  C   UNL     1     -93.356 -63.133 -68.168  1.00  0.00     0.000 C 
BRANCH   5   6
ATOM      6  C   UNL     1     -93.544 -63.016 -69.691  1.00  0.00     0.006 C 
BRANCH   6   7
ATOM      7  C   UNL     1     -94.518 -61.893 -70.070  1.00  0.00     0.053 C 
BRANCH   7   8
ATOM      8  C   UNL     1     -95.688 -62.412 -70.848  1.00  0.00     0.041 C 
ATOM      9  O   UNL     1     -95.639 -63.552 -71.381  1.00  0.00    -0.550 OA
ATOM     10  O   UNL     1     -96.846 -61.652 -70.954  1.00  0.00    -0.550 OA
ENDBRANCH   7   8
ENDBRANCH   6   7
ENDBRANCH   5   6
ENDBRANCH   4   5
ENDBRANCH   3   4
ENDBRANCH   2   3
ENDBRANCH   1   2
BRANCH   1  11
ATOM     11  C   UNL     1     -97.735 -61.134 -64.213  1.00  0.00     0.000 C 
BRANCH  11  12
ATOM     12  C   UNL     1     -99.120 -61.813 -64.215  1.00  0.00    -0.000 C 
BRANCH  12  13
ATOM     13  C   UNL     1     -99.576 -62.370 -65.578  1.00  0.00    -0.000 C 
BRANCH  13  14
ATOM     14  C   UNL     1     -99.726 -61.317 -66.691  1.00  0.00    -0.000 C 
BRANCH  14  15
ATOM     15  C   UNL     1     -98.618 -61.408 -67.752  1.00  0.00    -0.000 C 
BRANCH  15  16
ATOM     16  C   UNL     1     -97.896 -60.061 -67.907  1.00  0.00    -0.000 C 
BRANCH  16  17
ATOM     17  C   UNL     1     -98.633 -58.913 -67.200  1.00  0.00    -0.003 C 
ATOM     18  C   UNL     1     -97.687 -57.971 -66.455  1.00  0.00     0.004 C 
ENDBRANCH  16  17
ENDBRANCH  15  16
ENDBRANCH  14  15
ENDBRANCH  13  14
ENDBRANCH  12  13
ENDBRANCH  11  12
ENDBRANCH   1  11
TORSDOF 14
ENDMDL
MODEL 3
REMARK VINA RESULT:    -5.126      2.573      4.921
REMARK INTER + INTRA:         -11.239
REMARK INTER:                  -9.514
REMARK INTRA:                  -1.725
REMARK UNBOUND:                -1.918
REMARK SMILES CCCCCCCCCCCCCCCC(=O)[O-]
REMARK SMILES IDX 9 1 10 2 11 3 12 4 13 5 14 6 15 7 16 8 17 9 18 10 8 11 7 12
REMARK SMILES IDX 6 13 5 14 4 15 3 16 2 17 1 18
REMARK H PARENT
REMARK Flexibility Score: inf
ROOT
ATOM      1  C   UNL     1     -99.987 -62.124 -67.883  1.00  0.00     0.000 C 
ENDROOT
BRANCH   1   2
ATOM      2  C   UNL     1     -99.630 -62.644 -66.479  1.00  0.00     0.000 C 
BRANCH   2   3
ATOM      3  C   UNL     1    -100.086 -61.689 -65.365  1.00  0.00     0.000 C 
BRANCH   3   4
ATOM      4  C   UNL     1     -99.059 -61.581 -64.224  1.00  0.00     0.000 C 
BRANCH   4   5
ATOM      5  C   UNL     1     -97.609 -61.615 -64.731  1.00  0.00     0.000 C 
BRANCH   5   6
ATOM      6  C   UNL     1     -97.011 -60.208 -64.906  1.00  0.00     0.006 C 
BRANCH   6   7
ATOM      7  C   UNL     1     -96.966 -59.777 -66.377  1.00  0.00     0.053 C 
BRANCH   7   8
ATOM      8  C   UNL     1     -97.921 -58.656 -66.657  1.00  0.00     0.041 C 
ATOM      9  O   UNL     1     -98.976 -58.871 -67.308  1.00  0.00    -0.550 OA
ATOM     10  O   UNL     1     -97.661 -57.381 -66.169  1.00  0.00    -0.550 OA
ENDBRANCH   7   8
ENDBRANCH   6   7
ENDBRANCH   5   6
ENDBRANCH   4   5
ENDBRANCH   3   4
ENDBRANCH   2   3
ENDBRANCH   1   2
BRANCH   1  11
ATOM     11  C   UNL     1     -98.968 -62.554 -68.954  1.00  0.00     0.000 C 
BRANCH  11  12
ATOM     12  C   UNL     1     -97.644 -61.763 -68.941  1.00  0.00    -0.000 C 
BRANCH  12  13
ATOM     13  C   UNL     1     -96.859 -61.778 -70.268  1.00  0.00    -0.000 C 
BRANCH  13  14
ATOM     14  C   UNL     1     -95.327 -61.745 -70.115  1.00  0.00    -0.000 C 
BRANCH  14  15
ATOM     15  C   UNL     1     -94.871 -61.845 -68.651  1.00  0.00    -0.000 C 
BRANCH  15  16
ATOM     16  C   UNL     1     -93.665 -62.787 -68.517  1.00  0.00    -0.000 C 
BRANCH  16  17
ATOM     17  C   UNL     1     -93.357 -63.146 -67.055  1.00  0.00    -0.003 C 
ATOM     18  C   UNL     1     -94.145 -62.297 -66.058  1.00  0.00     0.004 C 
ENDBRANCH  16  17
ENDBRANCH  15  16
ENDBRANCH  14  15
ENDBRANCH  13  14
ENDBRANCH  12  13
ENDBRANCH  11  12
ENDBRANCH   1  11
TORSDOF 14
ENDMDL
MODEL 4
REMARK VINA RESULT:    -5.086      1.570      3.575
REMARK INTER + INTRA:         -11.167
REMARK INTER:                  -9.069
REMARK INTRA:                  -2.098
REMARK UNBOUND:                -1.918
REMARK SMILES CCCCCCCCCCCCCCCC(=O)[O-]
REMARK SMILES IDX 9 1 10 2 11 3 12 4 13 5 14 6 15 7 16 8 17 9 18 10 8 11 7 12
REMARK SMILES IDX 6 13 5 14 4 15 3 16 2 17 1 18
REMARK H PARENT
REMARK Flexibility Score: inf
ROOT
ATOM      1  C   UNL     1     -95.445 -61.201 -65.681  1.00  0.00     0.000 C 
ENDROOT
BRANCH   1   2
ATOM      2  C   UNL     1     -95.533 -61.708 -67.131  1.00  0.00     0.000 C 
BRANCH   2   3
ATOM      3  C   UNL     1     -96.281 -60.730 -68.050  1.00  0.00     0.000 C 
BRANCH   3   4
ATOM      4  C   UNL     1     -97.271 -61.442 -68.987  1.00  0.00     0.000 C 
BRANCH   4   5
ATOM      5  C   UNL     1     -96.574 -62.123 -70.176  1.00  0.00     0.000 C 
BRANCH   5   6
ATOM      6  C   UNL     1     -95.378 -61.311 -70.702  1.00  0.00     0.006 C 
BRANCH   6   7
ATOM      7  C   UNL     1     -94.309 -62.204 -71.344  1.00  0.00     0.053 C 
BRANCH   7   8
ATOM      8  C   UNL     1     -93.642 -63.088 -70.334  1.00  0.00     0.041 C 
ATOM      9  O   UNL     1     -93.688 -64.339 -70.459  1.00  0.00    -0.550 OA
ATOM     10  O   UNL     1     -92.942 -62.526 -69.273  1.00  0.00    -0.550 OA
ENDBRANCH   7   8
ENDBRANCH   6   7
ENDBRANCH   5   6
ENDBRANCH   4   5
ENDBRANCH   3   4
ENDBRANCH   2   3
ENDBRANCH   1   2
BRANCH   1  11
ATOM     11  C   UNL     1     -96.794 -60.689 -65.146  1.00  0.00     0.000 C 
BRANCH  11  12
ATOM     12  C   UNL     1     -97.661 -61.756 -64.448  1.00  0.00    -0.000 C 
BRANCH  12  13
ATOM     13  C   UNL     1     -99.167 -61.693 -64.774  1.00  0.00    -0.000 C 
BRANCH  13  14
ATOM     14  C   UNL     1     -99.536 -62.085 -66.215  1.00  0.00    -0.000 C 
BRANCH  14  15
ATOM     15  C   UNL     1    -100.411 -61.033 -66.915  1.00  0.00    -0.000 C 
BRANCH  15  16
ATOM     16  C   UNL     1    -100.125 -59.628 -66.362  1.00  0.00    -0.000 C 
BRANCH  16  17
ATOM     17  C   UNL     1     -99.339 -58.754 -67.351  1.00  0.00    -0.003 C 
ATOM     18  C   UNL     1     -98.204 -57.979 -66.682  1.00  0.00     0.004 C 
ENDBRANCH  16  17
ENDBRANCH  15  16
ENDBRANCH  14  15
ENDBRANCH  13  14
ENDBRANCH  12  13
ENDBRANCH  11  12
ENDBRANCH   1  11
TORSDOF 14
ENDMDL
MODEL 5
REMARK VINA RESULT:    -5.033      2.461      6.218
REMARK INTER + INTRA:         -11.071
REMARK INTER:                  -9.786
REMARK INTRA:                  -1.284
REMARK UNBOUND:                -1.918
REMARK SMILES CCCCCCCCCCCCCCCC(=O)[O-]
REMARK SMILES IDX 9 1 10 2 11 3 12 4 13 5 14 6 15 7 16 8 17 9 18 10 8 11 7 12
REMARK SMILES IDX 6 13 5 14 4 15 3 16 2 17 1 18
REMARK H PARENT
REMARK Flexibility Score: inf
ROOT
ATOM      1  C   UNL     1     -96.285 -61.128 -65.784  1.00  0.00     0.000 C 
ENDROOT
BRANCH   1   2
ATOM      2  C   UNL     1     -97.004 -60.732 -64.483  1.00  0.00     0.000 C 
BRANCH   2   3
ATOM      3  C   UNL     1     -98.070 -61.757 -64.065  1.00  0.00     0.000 C 
BRANCH   3   4
ATOM      4  C   UNL     1     -98.993 -62.157 -65.229  1.00  0.00     0.000 C 
BRANCH   4   5
ATOM      5  C   UNL     1    -100.223 -61.243 -65.347  1.00  0.00     0.000 C 
BRANCH   5   6
ATOM      6  C   UNL     1    -100.375 -60.637 -66.754  1.00  0.00     0.006 C 
BRANCH   6   7
ATOM      7  C   UNL     1    -100.124 -59.124 -66.763  1.00  0.00     0.053 C 
BRANCH   7   8
ATOM      8  C   UNL     1     -98.703 -58.798 -67.109  1.00  0.00     0.041 C 
ATOM      9  O   UNL     1     -98.078 -59.502 -67.944  1.00  0.00    -0.550 OA
ATOM     10  O   UNL     1     -98.082 -57.695 -66.535  1.00  0.00    -0.550 OA
ENDBRANCH   7   8
ENDBRANCH   6   7
ENDBRANCH   5   6
ENDBRANCH   4   5
ENDBRANCH   3   4
ENDBRANCH   2   3
ENDBRANCH   1   2
BRANCH   1  11
ATOM     11  C   UNL     1     -95.119 -62.105 -65.546  1.00  0.00     0.000 C 
BRANCH  11  12
ATOM     12  C   UNL     1     -93.984 -62.023 -66.587  1.00  0.00    -0.000 C 
BRANCH  12  13
ATOM     13  C   UNL     1     -93.364 -63.376 -66.990  1.00  0.00    -0.000 C 
BRANCH  13  14
ATOM     14  C   UNL     1     -93.164 -63.574 -68.503  1.00  0.00    -0.000 C 
BRANCH  14  15
ATOM     15  C   UNL     1     -93.932 -62.544 -69.345  1.00  0.00    -0.000 C 
BRANCH  15  16
ATOM     16  C   UNL     1     -94.471 -63.183 -70.635  1.00  0.00    -0.000 C 
BRANCH  16  17
ATOM     17  C   UNL     1     -95.753 -62.502 -71.139  1.00  0.00    -0.003 C 
ATOM     18  C   UNL     1     -96.453 -61.682 -70.057  1.00  0.00     0.004 C 
ENDBRANCH  16  17
ENDBRANCH  15  16
ENDBRANCH  14  15
ENDBRANCH  13  14
ENDBRANCH  12  13
ENDBRANCH  11  12
ENDBRANCH   1  11
TORSDOF 14
ENDMDL
MODEL 6
REMARK VINA RESULT:    -4.890      1.686      4.312
REMARK INTER + INTRA:         -10.810
REMARK INTER:                  -9.131
REMARK INTRA:                  -1.679
REMARK UNBOUND:                -1.918
REMARK SMILES CCCCCCCCCCCCCCCC(=O)[O-]
REMARK SMILES IDX 9 1 10 2 11 3 12 4 13 5 14 6 15 7 16 8 17 9 18 10 8 11 7 12
REMARK SMILES IDX 6 13 5 14 4 15 3 16 2 17 1 18
REMARK H PARENT
REMARK Flexibility Score: inf
ROOT
ATOM      1  C   UNL     1     -95.391 -61.440 -70.560  1.00  0.00     0.000 C 
ENDROOT
BRANCH   1   2
ATOM      2  C   UNL     1     -94.854 -62.881 -70.575  1.00  0.00     0.000 C 
BRANCH   2   3
ATOM      3  C   UNL     1     -93.612 -63.055 -69.687  1.00  0.00     0.000 C 
BRANCH   3   4
ATOM      4  C   UNL     1     -93.646 -62.151 -68.443  1.00  0.00     0.000 C 
BRANCH   4   5
ATOM      5  C   UNL     1     -93.906 -62.937 -67.148  1.00  0.00     0.000 C 
BRANCH   5   6
ATOM      6  C   UNL     1     -94.180 -62.018 -65.944  1.00  0.00     0.006 C 
BRANCH   6   7
ATOM      7  C   UNL     1     -95.472 -61.209 -66.115  1.00  0.00     0.053 C 
BRANCH   7   8
ATOM      8  C   UNL     1     -96.357 -61.313 -64.910  1.00  0.00     0.041 C 
ATOM      9  O   UNL     1     -97.123 -60.362 -64.604  1.00  0.00    -0.550 OA
ATOM     10  O   UNL     1     -96.360 -62.473 -64.147  1.00  0.00    -0.550 OA
ENDBRANCH   7   8
ENDBRANCH   6   7
ENDBRANCH   5   6
ENDBRANCH   4   5
ENDBRANCH   3   4
ENDBRANCH   2   3
ENDBRANCH   1   2
BRANCH   1  11
ATOM     11  C   UNL     1     -96.921 -61.376 -70.407  1.00  0.00     0.000 C 
BRANCH  11  12
ATOM     12  C   UNL     1     -97.425 -61.337 -68.950  1.00  0.00    -0.000 C 
BRANCH  12  13
ATOM     13  C   UNL     1     -98.680 -62.186 -68.666  1.00  0.00    -0.000 C 
BRANCH  13  14
ATOM     14  C   UNL     1     -99.206 -62.104 -67.222  1.00  0.00    -0.000 C 
BRANCH  14  15
ATOM     15  C   UNL     1    -100.429 -61.184 -67.083  1.00  0.00    -0.000 C 
BRANCH  15  16
ATOM     16  C   UNL     1    -100.062 -59.897 -66.328  1.00  0.00    -0.000 C 
BRANCH  16  17
ATOM     17  C   UNL     1     -99.616 -58.768 -67.269  1.00  0.00    -0.003 C 
ATOM     18  C   UNL     1     -98.200 -58.275 -66.974  1.00  0.00     0.004 C 
ENDBRANCH  16  17
ENDBRANCH  15  16
ENDBRANCH  14  15
ENDBRANCH  13  14
ENDBRANCH  12  13
ENDBRANCH  11  12
ENDBRANCH   1  11
TORSDOF 14
ENDMDL
MODEL 7
REMARK VINA RESULT:    -4.727      2.187      4.125
REMARK INTER + INTRA:         -10.513
REMARK INTER:                  -9.233
REMARK INTRA:                  -1.280
REMARK UNBOUND:                -1.918
REMARK SMILES CCCCCCCCCCCCCCCC(=O)[O-]
REMARK SMILES IDX 9 1 10 2 11 3 12 4 13 5 14 6 15 7 16 8 17 9 18 10 8 11 7 12
REMARK SMILES IDX 6 13 5 14 4 15 3 16 2 17 1 18
REMARK H PARENT
REMARK Flexibility Score: inf
ROOT
ATOM      1  C   UNL     1     -95.049 -61.036 -66.245  1.00  0.00     0.000 C 
ENDROOT
BRANCH   1   2
ATOM      2  C   UNL     1     -93.992 -62.143 -66.403  1.00  0.00     0.000 C 
BRANCH   2   3
ATOM      3  C   UNL     1     -93.372 -62.168 -67.808  1.00  0.00     0.000 C 
BRANCH   3   4
ATOM      4  C   UNL     1     -93.043 -63.594 -68.282  1.00  0.00     0.000 C 
BRANCH   4   5
ATOM      5  C   UNL     1     -93.580 -63.887 -69.692  1.00  0.00     0.000 C 
BRANCH   5   6
ATOM      6  C   UNL     1     -93.958 -62.607 -70.457  1.00  0.00     0.006 C 
BRANCH   6   7
ATOM      7  C   UNL     1     -95.387 -62.663 -71.010  1.00  0.00     0.053 C 
BRANCH   7   8
ATOM      8  C   UNL     1     -96.286 -61.676 -70.328  1.00  0.00     0.041 C 
ATOM      9  O   UNL     1     -96.756 -61.930 -69.188  1.00  0.00    -0.550 OA
ATOM     10  O   UNL     1     -96.575 -60.461 -70.937  1.00  0.00    -0.550 OA
ENDBRANCH   7   8
ENDBRANCH   6   7
ENDBRANCH   5   6
ENDBRANCH   4   5
ENDBRANCH   3   4
ENDBRANCH   2   3
ENDBRANCH   1   2
BRANCH   1  11
ATOM     11  C   UNL     1     -96.236 -61.468 -65.366  1.00  0.00     0.000 C 
BRANCH  11  12
ATOM     12  C   UNL     1     -97.298 -60.374 -65.131  1.00  0.00    -0.000 C 
BRANCH  12  13
ATOM     13  C   UNL     1     -97.214 -59.163 -66.081  1.00  0.00    -0.000 C 
BRANCH  13  14
ATOM     14  C   UNL     1     -98.069 -59.278 -67.356  1.00  0.00    -0.000 C 
BRANCH  14  15
ATOM     15  C   UNL     1     -99.511 -58.786 -67.154  1.00  0.00    -0.000 C 
BRANCH  15  16
ATOM     16  C   UNL     1    -100.363 -59.859 -66.458  1.00  0.00    -0.000 C 
BRANCH  16  17
ATOM     17  C   UNL     1    -100.448 -61.161 -67.268  1.00  0.00    -0.003 C 
ATOM     18  C   UNL     1     -99.970 -62.381 -66.480  1.00  0.00     0.004 C 
ENDBRANCH  16  17
ENDBRANCH  15  16
ENDBRANCH  14  15
ENDBRANCH  13  14
ENDBRANCH  12  13
ENDBRANCH  11  12
ENDBRANCH   1  11
TORSDOF 14
ENDMDL
MODEL 8
REMARK VINA RESULT:    -4.631      1.977      3.405
REMARK INTER + INTRA:         -10.339
REMARK INTER:                  -8.497
REMARK INTRA:                  -1.842
REMARK UNBOUND:                -1.918
REMARK SMILES CCCCCCCCCCCCCCCC(=O)[O-]
REMARK SMILES IDX 9 1 10 2 11 3 12 4 13 5 14 6 15 7 16 8 17 9 18 10 8 11 7 12
REMARK SMILES IDX 6 13 5 14 4 15 3 16 2 17 1 18
REMARK H PARENT
REMARK Flexibility Score: inf
ROOT
ATOM      1  C   UNL     1     -96.595 -59.162 -66.728  1.00  0.00     0.000 C 
ENDROOT
BRANCH   1   2
ATOM      2  C   UNL     1     -96.586 -60.525 -67.442  1.00  0.00     0.000 C 
BRANCH   2   3
ATOM      3  C   UNL     1     -95.733 -61.569 -66.705  1.00  0.00     0.000 C 
BRANCH   3   4
ATOM      4  C   UNL     1     -94.263 -61.138 -66.568  1.00  0.00     0.000 C 
BRANCH   4   5
ATOM      5  C   UNL     1     -93.331 -62.316 -66.242  1.00  0.00     0.000 C 
BRANCH   5   6
ATOM      6  C   UNL     1     -93.222 -63.321 -67.402  1.00  0.00     0.006 C 
BRANCH   6   7
ATOM      7  C   UNL     1     -92.886 -62.636 -68.733  1.00  0.00     0.053 C 
BRANCH   7   8
ATOM      8  C   UNL     1     -93.860 -63.007 -69.810  1.00  0.00     0.041 C 
ATOM      9  O   UNL     1     -94.677 -62.155 -70.246  1.00  0.00    -0.550 OA
ATOM     10  O   UNL     1     -93.840 -64.285 -70.356  1.00  0.00    -0.550 OA
ENDBRANCH   7   8
ENDBRANCH   6   7
ENDBRANCH   5   6
ENDBRANCH   4   5
ENDBRANCH   3   4
ENDBRANCH   2   3
ENDBRANCH   1   2
BRANCH   1  11
ATOM     11  C   UNL     1     -97.984 -58.786 -66.180  1.00  0.00     0.000 C 
BRANCH  11  12
ATOM     12  C   UNL     1     -99.105 -58.738 -67.238  1.00  0.00    -0.000 C 
BRANCH  12  13
ATOM     13  C   UNL     1    -100.439 -59.383 -66.810  1.00  0.00    -0.000 C 
BRANCH  13  14
ATOM     14  C   UNL     1    -100.571 -60.880 -67.142  1.00  0.00    -0.000 C 
BRANCH  14  15
ATOM     15  C   UNL     1    -100.622 -61.767 -65.888  1.00  0.00    -0.000 C 
BRANCH  15  16
ATOM     16  C   UNL     1     -99.214 -62.240 -65.494  1.00  0.00    -0.000 C 
BRANCH  16  17
ATOM     17  C   UNL     1     -98.766 -61.689 -64.132  1.00  0.00    -0.003 C 
ATOM     18  C   UNL     1     -97.344 -62.108 -63.763  1.00  0.00     0.004 C 
ENDBRANCH  16  17
ENDBRANCH  15  16
ENDBRANCH  14  15
ENDBRANCH  13  14
ENDBRANCH  12  13
ENDBRANCH  11  12
ENDBRANCH   1  11
TORSDOF 14
ENDMDL
MODEL 9
REMARK VINA RESULT:    -4.588      2.810      6.113
REMARK INTER + INTRA:         -10.261
REMARK INTER:                  -8.593
REMARK INTRA:                  -1.668
REMARK UNBOUND:                -1.918
REMARK SMILES CCCCCCCCCCCCCCCC(=O)[O-]
REMARK SMILES IDX 9 1 10 2 11 3 12 4 13 5 14 6 15 7 16 8 17 9 18 10 8 11 7 12
REMARK SMILES IDX 6 13 5 14 4 15 3 16 2 17 1 18
REMARK H PARENT
REMARK Flexibility Score: inf
ROOT
ATOM      1  C   UNL     1     -96.508 -60.352 -66.393  1.00  0.00     0.000 C 
ENDROOT
BRANCH   1   2
ATOM      2  C   UNL     1     -96.976 -60.040 -64.961  1.00  0.00     0.000 C 
BRANCH   2   3
ATOM      3  C   UNL     1     -97.451 -61.295 -64.212  1.00  0.00     0.000 C 
BRANCH   3   4
ATOM      4  C   UNL     1     -98.557 -62.050 -64.969  1.00  0.00     0.000 C 
BRANCH   4   5
ATOM      5  C   UNL     1     -99.872 -61.258 -65.037  1.00  0.00     0.000 C 
BRANCH   5   6
ATOM      6  C   UNL     1    -100.338 -61.012 -66.483  1.00  0.00     0.006 C 
BRANCH   6   7
ATOM      7  C   UNL     1     -99.455 -61.735 -67.508  1.00  0.00     0.053 C 
BRANCH   7   8
ATOM      8  C   UNL     1    -100.248 -62.688 -68.350  1.00  0.00     0.041 C 
ATOM      9  O   UNL     1    -101.477 -62.491 -68.542  1.00  0.00    -0.550 OA
ATOM     10  O   UNL     1     -99.622 -63.773 -68.951  1.00  0.00    -0.550 OA
ENDBRANCH   7   8
ENDBRANCH   6   7
ENDBRANCH   5   6
ENDBRANCH   4   5
ENDBRANCH   3   4
ENDBRANCH   2   3
ENDBRANCH   1   2
BRANCH   1  11
ATOM     11  C   UNL     1     -95.433 -61.452 -66.442  1.00  0.00     0.000 C 
BRANCH  11  12
ATOM     12  C   UNL     1     -93.980 -60.940 -66.386  1.00  0.00    -0.000 C 
BRANCH  12  13
ATOM     13  C   UNL     1     -92.899 -61.997 -66.689  1.00  0.00    -0.000 C 
BRANCH  13  14
ATOM     14  C   UNL     1     -93.321 -63.087 -67.691  1.00  0.00    -0.000 C 
BRANCH  14  15
ATOM     15  C   UNL     1     -93.202 -62.632 -69.154  1.00  0.00    -0.000 C 
BRANCH  15  16
ATOM     16  C   UNL     1     -94.527 -62.844 -69.903  1.00  0.00    -0.000 C 
BRANCH  16  17
ATOM     17  C   UNL     1     -95.166 -61.522 -70.356  1.00  0.00    -0.003 C 
ATOM     18  C   UNL     1     -96.641 -61.414 -69.968  1.00  0.00     0.004 C 
ENDBRANCH  16  17
ENDBRANCH  15  16
ENDBRANCH  14  15
ENDBRANCH  13  14
ENDBRANCH  12  13
ENDBRANCH  11  12
ENDBRANCH   1  11
TORSDOF 14
ENDMDL
