MODEL 1
REMARK VINA RESULT:    -6.117      0.000      0.000
REMARK INTER + INTRA:         -16.930
REMARK INTER:                 -13.985
REMARK INTRA:                  -2.944
REMARK UNBOUND:                -2.944
REMARK SMILES CCCCCCCCCCCCCCCCCCCCCCCC(=O)[O-]
REMARK SMILES IDX 13 1 14 2 15 3 16 4 17 5 18 6 19 7 20 8 21 9 22 10 23 11
REMARK SMILES IDX 24 12 25 13 26 14 12 15 11 16 10 17 9 18 8 19 7 20 6 21 5 22
REMARK SMILES IDX 4 23 3 24 2 25 1 26
REMARK H PARENT
REMARK Flexibility Score: inf
ROOT
ATOM      1  C   UNL     1      13.629   3.393  17.025  1.00  0.00     0.000 C 
ENDROOT
BRANCH   1   2
ATOM      2  C   UNL     1      13.225   3.168  18.494  1.00  0.00     0.000 C 
BRANCH   2   3
ATOM      3  C   UNL     1      14.090   2.107  19.196  1.00  0.00     0.000 C 
BRANCH   3   4
ATOM      4  C   UNL     1      13.671   0.672  18.834  1.00  0.00     0.000 C 
BRANCH   4   5
ATOM      5  C   UNL     1      14.591  -0.386  19.463  1.00  0.00     0.000 C 
BRANCH   5   6
ATOM      6  C   UNL     1      15.516  -1.008  18.411  1.00  0.00     0.000 C 
BRANCH   6   7
ATOM      7  C   UNL     1      16.910  -1.273  18.992  1.00  0.00     0.000 C 
BRANCH   7   8
ATOM      8  C   UNL     1      17.727   0.025  19.077  1.00  0.00     0.000 C 
BRANCH   8   9
ATOM      9  C   UNL     1      17.461   0.971  17.895  1.00  0.00     0.000 C 
BRANCH   9  10
ATOM     10  C   UNL     1      18.481   0.797  16.757  1.00  0.00     0.006 C 
BRANCH  10  11
ATOM     11  C   UNL     1      17.964  -0.136  15.654  1.00  0.00     0.053 C 
BRANCH  11  12
ATOM     12  C   UNL     1      19.043  -1.036  15.135  1.00  0.00     0.041 C 
ATOM     13  O   UNL     1      19.923  -1.486  15.914  1.00  0.00    -0.550 OA
ATOM     14  O   UNL     1      19.094  -1.352  13.783  1.00  0.00    -0.550 OA
ENDBRANCH  11  12
ENDBRANCH  10  11
ENDBRANCH   9  10
ENDBRANCH   8   9
ENDBRANCH   7   8
ENDBRANCH   6   7
ENDBRANCH   5   6
ENDBRANCH   4   5
ENDBRANCH   3   4
ENDBRANCH   2   3
ENDBRANCH   1   2
BRANCH   1  15
ATOM     15  C   UNL     1      15.143   3.328  16.751  1.00  0.00     0.000 C 
BRANCH  15  16
ATOM     16  C   UNL     1      15.477   2.868  15.325  1.00  0.00     0.000 C 
BRANCH  16  17
ATOM     17  C   UNL     1      14.688   1.607  14.954  1.00  0.00     0.000 C 
BRANCH  17  18
ATOM     18  C   UNL     1      14.704   1.374  13.436  1.00  0.00    -0.000 C 
BRANCH  18  19
ATOM     19  C   UNL     1      15.295   2.561  12.654  1.00  0.00    -0.000 C 
BRANCH  19  20
ATOM     20  C   UNL     1      16.371   2.186  11.618  1.00  0.00    -0.000 C 
BRANCH  20  21
ATOM     21  C   UNL     1      17.170   0.933  12.011  1.00  0.00    -0.000 C 
BRANCH  21  22
ATOM     22  C   UNL     1      17.554   0.117  10.768  1.00  0.00    -0.000 C 
BRANCH  22  23
ATOM     23  C   UNL     1      17.730   0.990   9.515  1.00  0.00    -0.000 C 
BRANCH  23  24
ATOM     24  C   UNL     1      18.206   0.188   8.296  1.00  0.00    -0.000 C 
BRANCH  24  25
ATOM     25  C   UNL     1      18.988   1.079   7.324  1.00  0.00    -0.003 C 
ATOM     26  C   UNL     1      20.346   0.471   6.988  1.00  0.00     0.004 C 
ENDBRANCH  24  25
ENDBRANCH  23  24
ENDBRANCH  22  23
ENDBRANCH  21  22
ENDBRANCH  20  21
ENDBRANCH  19  20
ENDBRANCH  18  19
ENDBRANCH  17  18
ENDBRANCH  16  17
ENDBRANCH  15  16
ENDBRANCH   1  15
TORSDOF 22
ENDMDL
MODEL 2
REMARK VINA RESULT:    -5.989      2.025      7.417
REMARK INTER + INTRA:         -16.635
REMARK INTER:                 -13.063
REMARK INTRA:                  -3.573
REMARK UNBOUND:                -2.944
REMARK SMILES CCCCCCCCCCCCCCCCCCCCCCCC(=O)[O-]
REMARK SMILES IDX 13 1 14 2 15 3 16 4 17 5 18 6 19 7 20 8 21 9 22 10 23 11
REMARK SMILES IDX 24 12 25 13 26 14 12 15 11 16 10 17 9 18 8 19 7 20 6 21 5 22
REMARK SMILES IDX 4 23 3 24 2 25 1 26
REMARK H PARENT
REMARK Flexibility Score: inf
ROOT
ATOM      1  C   UNL     1      19.348   0.362  16.184  1.00  0.00     0.000 C 
ENDROOT
BRANCH   1   2
ATOM      2  C   UNL     1      19.556  -1.009  15.514  1.00  0.00     0.000 C 
BRANCH   2   3
ATOM      3  C   UNL     1      18.995  -1.066  14.083  1.00  0.00     0.000 C 
BRANCH   3   4
ATOM      4  C   UNL     1      17.869  -0.046  13.850  1.00  0.00     0.000 C 
BRANCH   4   5
ATOM      5  C   UNL     1      16.472  -0.656  14.048  1.00  0.00     0.000 C 
BRANCH   5   6
ATOM      6  C   UNL     1      15.525   0.344  14.720  1.00  0.00     0.000 C 
BRANCH   6   7
ATOM      7  C   UNL     1      16.017   1.783  14.525  1.00  0.00     0.000 C 
BRANCH   7   8
ATOM      8  C   UNL     1      14.981   2.621  13.761  1.00  0.00     0.000 C 
BRANCH   8   9
ATOM      9  C   UNL     1      15.483   3.068  12.378  1.00  0.00     0.000 C 
BRANCH   9  10
ATOM     10  C   UNL     1      15.737   1.884  11.429  1.00  0.00     0.006 C 
BRANCH  10  11
ATOM     11  C   UNL     1      17.154   1.909  10.840  1.00  0.00     0.053 C 
BRANCH  11  12
ATOM     12  C   UNL     1      17.463   0.656  10.080  1.00  0.00     0.041 C 
ATOM     13  O   UNL     1      17.258  -0.470  10.603  1.00  0.00    -0.550 OA
ATOM     14  O   UNL     1      18.007   0.733   8.804  1.00  0.00    -0.550 OA
ENDBRANCH  11  12
ENDBRANCH  10  11
ENDBRANCH   9  10
ENDBRANCH   8   9
ENDBRANCH   7   8
ENDBRANCH   6   7
ENDBRANCH   5   6
ENDBRANCH   4   5
ENDBRANCH   3   4
ENDBRANCH   2   3
ENDBRANCH   1   2
BRANCH   1  15
ATOM     15  C   UNL     1      18.227   0.406  17.238  1.00  0.00     0.000 C 
BRANCH  15  16
ATOM     16  C   UNL     1      17.597  -0.969  17.504  1.00  0.00     0.000 C 
BRANCH  16  17
ATOM     17  C   UNL     1      17.107  -1.079  18.953  1.00  0.00     0.000 C 
BRANCH  17  18
ATOM     18  C   UNL     1      17.120   0.292  19.644  1.00  0.00    -0.000 C 
BRANCH  18  19
ATOM     19  C   UNL     1      15.810   0.599  20.391  1.00  0.00    -0.000 C 
BRANCH  19  20
ATOM     20  C   UNL     1      14.771  -0.538  20.377  1.00  0.00    -0.000 C 
BRANCH  20  21
ATOM     21  C   UNL     1      13.603  -0.271  19.415  1.00  0.00    -0.000 C 
BRANCH  21  22
ATOM     22  C   UNL     1      13.499   1.224  19.080  1.00  0.00    -0.000 C 
BRANCH  22  23
ATOM     23  C   UNL     1      13.609   1.504  17.573  1.00  0.00    -0.000 C 
BRANCH  23  24
ATOM     24  C   UNL     1      13.094   2.899  17.190  1.00  0.00    -0.000 C 
BRANCH  24  25
ATOM     25  C   UNL     1      14.118   3.981  17.555  1.00  0.00    -0.003 C 
ATOM     26  C   UNL     1      15.545   3.459  17.415  1.00  0.00     0.004 C 
ENDBRANCH  24  25
ENDBRANCH  23  24
ENDBRANCH  22  23
ENDBRANCH  21  22
ENDBRANCH  20  21
ENDBRANCH  19  20
ENDBRANCH  18  19
ENDBRANCH  17  18
ENDBRANCH  16  17
ENDBRANCH  15  16
ENDBRANCH   1  15
TORSDOF 22
ENDMDL
MODEL 3
REMARK VINA RESULT:    -5.832      2.572      7.297
REMARK INTER + INTRA:         -16.277
REMARK INTER:                 -13.705
REMARK INTRA:                  -2.572
REMARK UNBOUND:                -2.944
REMARK SMILES CCCCCCCCCCCCCCCCCCCCCCCC(=O)[O-]
REMARK SMILES IDX 13 1 14 2 15 3 16 4 17 5 18 6 19 7 20 8 21 9 22 10 23 11
REMARK SMILES IDX 24 12 25 13 26 14 12 15 11 16 10 17 9 18 8 19 7 20 6 21 5 22
REMARK SMILES IDX 4 23 3 24 2 25 1 26
REMARK H PARENT
REMARK Flexibility Score: inf
ROOT
ATOM      1  C   UNL     1      16.310  -1.853  16.610  1.00  0.00     0.000 C 
ENDROOT
BRANCH   1   2
ATOM      2  C   UNL     1      17.765  -2.288  16.861  1.00  0.00     0.000 C 
BRANCH   2   3
ATOM      3  C   UNL     1      18.789  -1.213  16.457  1.00  0.00     0.000 C 
BRANCH   3   4
ATOM      4  C   UNL     1      19.663  -1.649  15.270  1.00  0.00     0.000 C 
BRANCH   4   5
ATOM      5  C   UNL     1      18.949  -1.476  13.920  1.00  0.00     0.000 C 
BRANCH   5   6
ATOM      6  C   UNL     1      18.494  -0.025  13.720  1.00  0.00     0.000 C 
BRANCH   6   7
ATOM      7  C   UNL     1      17.250   0.041  12.826  1.00  0.00     0.000 C 
BRANCH   7   8
ATOM      8  C   UNL     1      17.475   0.988  11.638  1.00  0.00     0.000 C 
BRANCH   8   9
ATOM      9  C   UNL     1      17.401   0.267  10.283  1.00  0.00     0.000 C 
BRANCH   9  10
ATOM     10  C   UNL     1      18.108   1.045   9.160  1.00  0.00     0.006 C 
BRANCH  10  11
ATOM     11  C   UNL     1      18.519   0.135   7.994  1.00  0.00     0.053 C 
BRANCH  11  12
ATOM     12  C   UNL     1      19.583   0.761   7.147  1.00  0.00     0.041 C 
ATOM     13  O   UNL     1      20.567   0.078   6.757  1.00  0.00    -0.550 OA
ATOM     14  O   UNL     1      19.505   2.106   6.813  1.00  0.00    -0.550 OA
ENDBRANCH  11  12
ENDBRANCH  10  11
ENDBRANCH   9  10
ENDBRANCH   8   9
ENDBRANCH   7   8
ENDBRANCH   6   7
ENDBRANCH   5   6
ENDBRANCH   4   5
ENDBRANCH   3   4
ENDBRANCH   2   3
ENDBRANCH   1   2
BRANCH   1  15
ATOM     15  C   UNL     1      15.490  -1.564  17.881  1.00  0.00     0.000 C 
BRANCH  15  16
ATOM     16  C   UNL     1      16.352  -1.497  19.150  1.00  0.00     0.000 C 
BRANCH  16  17
ATOM     17  C   UNL     1      15.766  -0.507  20.163  1.00  0.00     0.000 C 
BRANCH  17  18
ATOM     18  C   UNL     1      15.807   0.928  19.617  1.00  0.00    -0.000 C 
BRANCH  18  19
ATOM     19  C   UNL     1      14.563   1.751  19.999  1.00  0.00    -0.000 C 
BRANCH  19  20
ATOM     20  C   UNL     1      13.544   1.953  18.862  1.00  0.00    -0.000 C 
BRANCH  20  21
ATOM     21  C   UNL     1      13.563   3.377  18.286  1.00  0.00    -0.000 C 
BRANCH  21  22
ATOM     22  C   UNL     1      13.903   3.357  16.789  1.00  0.00    -0.000 C 
BRANCH  22  23
ATOM     23  C   UNL     1      15.356   2.939  16.515  1.00  0.00    -0.000 C 
BRANCH  23  24
ATOM     24  C   UNL     1      15.458   1.739  15.562  1.00  0.00    -0.000 C 
BRANCH  24  25
ATOM     25  C   UNL     1      14.559   1.934  14.336  1.00  0.00    -0.003 C 
ATOM     26  C   UNL     1      15.085   3.051  13.439  1.00  0.00     0.004 C 
ENDBRANCH  24  25
ENDBRANCH  23  24
ENDBRANCH  22  23
ENDBRANCH  21  22
ENDBRANCH  20  21
ENDBRANCH  19  20
ENDBRANCH  18  19
ENDBRANCH  17  18
ENDBRANCH  16  17
ENDBRANCH  15  16
ENDBRANCH   1  15
TORSDOF 22
ENDMDL
MODEL 4
REMARK VINA RESULT:    -5.821      2.605      5.382
REMARK INTER + INTRA:         -16.252
REMARK INTER:                 -13.539
REMARK INTRA:                  -2.712
REMARK UNBOUND:                -2.944
REMARK SMILES CCCCCCCCCCCCCCCCCCCCCCCC(=O)[O-]
REMARK SMILES IDX 13 1 14 2 15 3 16 4 17 5 18 6 19 7 20 8 21 9 22 10 23 11
REMARK SMILES IDX 24 12 25 13 26 14 12 15 11 16 10 17 9 18 8 19 7 20 6 21 5 22
REMARK SMILES IDX 4 23 3 24 2 25 1 26
REMARK H PARENT
REMARK Flexibility Score: inf
ROOT
ATOM      1  C   UNL     1      17.403  -1.760  18.631  1.00  0.00     0.000 C 
ENDROOT
BRANCH   1   2
ATOM      2  C   UNL     1      16.961  -2.252  17.241  1.00  0.00     0.000 C 
BRANCH   2   3
ATOM      3  C   UNL     1      15.888  -1.352  16.602  1.00  0.00     0.000 C 
BRANCH   3   4
ATOM      4  C   UNL     1      16.355  -0.730  15.276  1.00  0.00     0.000 C 
BRANCH   4   5
ATOM      5  C   UNL     1      17.538   0.233  15.462  1.00  0.00     0.000 C 
BRANCH   5   6
ATOM      6  C   UNL     1      18.780  -0.272  14.719  1.00  0.00     0.000 C 
BRANCH   6   7
ATOM      7  C   UNL     1      19.844  -0.770  15.704  1.00  0.00     0.000 C 
BRANCH   7   8
ATOM      8  C   UNL     1      20.373  -2.152  15.293  1.00  0.00     0.000 C 
BRANCH   8   9
ATOM      9  C   UNL     1      21.768  -2.448  15.865  1.00  0.00     0.000 C 
BRANCH   9  10
ATOM     10  C   UNL     1      22.549  -1.169  16.212  1.00  0.00     0.006 C 
BRANCH  10  11
ATOM     11  C   UNL     1      24.029  -1.454  16.499  1.00  0.00     0.053 C 
BRANCH  11  12
ATOM     12  C   UNL     1      24.885  -1.223  15.291  1.00  0.00     0.041 C 
ATOM     13  O   UNL     1      25.470  -2.189  14.734  1.00  0.00    -0.550 OA
ATOM     14  O   UNL     1      25.061   0.064  14.799  1.00  0.00    -0.550 OA
ENDBRANCH  11  12
ENDBRANCH  10  11
ENDBRANCH   9  10
ENDBRANCH   8   9
ENDBRANCH   7   8
ENDBRANCH   6   7
ENDBRANCH   5   6
ENDBRANCH   4   5
ENDBRANCH   3   4
ENDBRANCH   2   3
ENDBRANCH   1   2
BRANCH   1  15
ATOM     15  C   UNL     1      16.302  -1.067  19.455  1.00  0.00     0.000 C 
BRANCH  15  16
ATOM     16  C   UNL     1      16.386   0.465  19.399  1.00  0.00     0.000 C 
BRANCH  16  17
ATOM     17  C   UNL     1      15.157   1.109  20.053  1.00  0.00     0.000 C 
BRANCH  17  18
ATOM     18  C   UNL     1      14.472   2.090  19.090  1.00  0.00    -0.000 C 
BRANCH  18  19
ATOM     19  C   UNL     1      13.769   1.385  17.916  1.00  0.00    -0.000 C 
BRANCH  19  20
ATOM     20  C   UNL     1      13.396   2.303  16.736  1.00  0.00    -0.000 C 
BRANCH  20  21
ATOM     21  C   UNL     1      14.610   2.706  15.885  1.00  0.00    -0.000 C 
BRANCH  21  22
ATOM     22  C   UNL     1      14.385   2.350  14.408  1.00  0.00    -0.000 C 
BRANCH  22  23
ATOM     23  C   UNL     1      15.641   2.566  13.548  1.00  0.00    -0.000 C 
BRANCH  23  24
ATOM     24  C   UNL     1      15.478   2.033  12.117  1.00  0.00    -0.000 C 
BRANCH  24  25
ATOM     25  C   UNL     1      16.795   2.139  11.339  1.00  0.00    -0.003 C 
ATOM     26  C   UNL     1      17.372   0.759  11.042  1.00  0.00     0.004 C 
ENDBRANCH  24  25
ENDBRANCH  23  24
ENDBRANCH  22  23
ENDBRANCH  21  22
ENDBRANCH  20  21
ENDBRANCH  19  20
ENDBRANCH  18  19
ENDBRANCH  17  18
ENDBRANCH  16  17
ENDBRANCH  15  16
ENDBRANCH   1  15
TORSDOF 22
ENDMDL
MODEL 5
REMARK VINA RESULT:    -5.735      2.424      6.675
REMARK INTER + INTRA:         -16.054
REMARK INTER:                 -13.386
REMARK INTRA:                  -2.668
REMARK UNBOUND:                -2.944
REMARK SMILES CCCCCCCCCCCCCCCCCCCCCCCC(=O)[O-]
REMARK SMILES IDX 13 1 14 2 15 3 16 4 17 5 18 6 19 7 20 8 21 9 22 10 23 11
REMARK SMILES IDX 24 12 25 13 26 14 12 15 11 16 10 17 9 18 8 19 7 20 6 21 5 22
REMARK SMILES IDX 4 23 3 24 2 25 1 26
REMARK H PARENT
REMARK Flexibility Score: inf
ROOT
ATOM      1  C   UNL     1      18.115   0.510  12.520  1.00  0.00     0.000 C 
ENDROOT
BRANCH   1   2
ATOM      2  C   UNL     1      17.341  -0.377  13.512  1.00  0.00     0.000 C 
BRANCH   2   3
ATOM      3  C   UNL     1      17.354   0.178  14.947  1.00  0.00     0.000 C 
BRANCH   3   4
ATOM      4  C   UNL     1      16.179  -0.343  15.791  1.00  0.00     0.000 C 
BRANCH   4   5
ATOM      5  C   UNL     1      16.628  -1.345  16.867  1.00  0.00     0.000 C 
BRANCH   5   6
ATOM      6  C   UNL     1      18.149  -1.309  17.052  1.00  0.00     0.000 C 
BRANCH   6   7
ATOM      7  C   UNL     1      18.790  -2.621  16.582  1.00  0.00     0.000 C 
BRANCH   7   8
ATOM      8  C   UNL     1      19.771  -2.371  15.426  1.00  0.00     0.000 C 
BRANCH   8   9
ATOM      9  C   UNL     1      20.992  -1.541  15.854  1.00  0.00     0.000 C 
BRANCH   9  10
ATOM     10  C   UNL     1      22.297  -2.356  15.835  1.00  0.00     0.006 C 
BRANCH  10  11
ATOM     11  C   UNL     1      23.331  -1.816  16.833  1.00  0.00     0.053 C 
BRANCH  11  12
ATOM     12  C   UNL     1      24.129  -0.689  16.253  1.00  0.00     0.041 C 
ATOM     13  O   UNL     1      24.251   0.392  16.886  1.00  0.00    -0.550 OA
ATOM     14  O   UNL     1      24.712  -0.823  15.000  1.00  0.00    -0.550 OA
ENDBRANCH  11  12
ENDBRANCH  10  11
ENDBRANCH   9  10
ENDBRANCH   8   9
ENDBRANCH   7   8
ENDBRANCH   6   7
ENDBRANCH   5   6
ENDBRANCH   4   5
ENDBRANCH   3   4
ENDBRANCH   2   3
ENDBRANCH   1   2
BRANCH   1  15
ATOM     15  C   UNL     1      17.421   0.725  11.163  1.00  0.00     0.000 C 
BRANCH  15  16
ATOM     16  C   UNL     1      16.632   2.040  11.092  1.00  0.00     0.000 C 
BRANCH  16  17
ATOM     17  C   UNL     1      15.417   2.006  12.026  1.00  0.00     0.000 C 
BRANCH  17  18
ATOM     18  C   UNL     1      15.360   3.266  12.902  1.00  0.00    -0.000 C 
BRANCH  18  19
ATOM     19  C   UNL     1      15.154   2.951  14.394  1.00  0.00    -0.000 C 
BRANCH  19  20
ATOM     20  C   UNL     1      13.829   2.243  14.733  1.00  0.00    -0.000 C 
BRANCH  20  21
ATOM     21  C   UNL     1      13.203   2.738  16.045  1.00  0.00    -0.000 C 
BRANCH  21  22
ATOM     22  C   UNL     1      14.282   3.266  17.002  1.00  0.00    -0.000 C 
BRANCH  22  23
ATOM     23  C   UNL     1      14.000   2.909  18.470  1.00  0.00    -0.000 C 
BRANCH  23  24
ATOM     24  C   UNL     1      14.207   1.417  18.767  1.00  0.00    -0.000 C 
BRANCH  24  25
ATOM     25  C   UNL     1      15.256   1.217  19.867  1.00  0.00    -0.003 C 
ATOM     26  C   UNL     1      15.437  -0.262  20.194  1.00  0.00     0.004 C 
ENDBRANCH  24  25
ENDBRANCH  23  24
ENDBRANCH  22  23
ENDBRANCH  21  22
ENDBRANCH  20  21
ENDBRANCH  19  20
ENDBRANCH  18  19
ENDBRANCH  17  18
ENDBRANCH  16  17
ENDBRANCH  15  16
ENDBRANCH   1  15
TORSDOF 22
ENDMDL
MODEL 6
REMARK VINA RESULT:    -5.666      2.287      5.577
REMARK INTER + INTRA:         -15.898
REMARK INTER:                 -13.030
REMARK INTRA:                  -2.868
REMARK UNBOUND:                -2.944
REMARK SMILES CCCCCCCCCCCCCCCCCCCCCCCC(=O)[O-]
REMARK SMILES IDX 13 1 14 2 15 3 16 4 17 5 18 6 19 7 20 8 21 9 22 10 23 11
REMARK SMILES IDX 24 12 25 13 26 14 12 15 11 16 10 17 9 18 8 19 7 20 6 21 5 22
REMARK SMILES IDX 4 23 3 24 2 25 1 26
REMARK H PARENT
REMARK Flexibility Score: inf
ROOT
ATOM      1  C   UNL     1      16.159   0.753  19.517  1.00  0.00     0.000 C 
ENDROOT
BRANCH   1   2
ATOM      2  C   UNL     1      15.051   0.100  20.363  1.00  0.00     0.000 C 
BRANCH   2   3
ATOM      3  C   UNL     1      13.659   0.215  19.717  1.00  0.00     0.000 C 
BRANCH   3   4
ATOM      4  C   UNL     1      13.693   0.969  18.377  1.00  0.00     0.000 C 
BRANCH   4   5
ATOM      5  C   UNL     1      13.298   2.446  18.523  1.00  0.00     0.000 C 
BRANCH   5   6
ATOM      6  C   UNL     1      13.547   3.213  17.219  1.00  0.00     0.000 C 
BRANCH   6   7
ATOM      7  C   UNL     1      15.048   3.413  16.978  1.00  0.00     0.000 C 
BRANCH   7   8
ATOM      8  C   UNL     1      15.537   2.550  15.805  1.00  0.00     0.000 C 
BRANCH   8   9
ATOM      9  C   UNL     1      14.636   2.667  14.566  1.00  0.00     0.000 C 
BRANCH   9  10
ATOM     10  C   UNL     1      15.439   2.850  13.266  1.00  0.00     0.006 C 
BRANCH  10  11
ATOM     11  C   UNL     1      15.561   1.541  12.473  1.00  0.00     0.053 C 
BRANCH  11  12
ATOM     12  C   UNL     1      16.877   1.441  11.764  1.00  0.00     0.041 C 
ATOM     13  O   UNL     1      17.609   0.429  11.926  1.00  0.00    -0.550 OA
ATOM     14  O   UNL     1      17.308   2.479  10.948  1.00  0.00    -0.550 OA
ENDBRANCH  11  12
ENDBRANCH  10  11
ENDBRANCH   9  10
ENDBRANCH   8   9
ENDBRANCH   7   8
ENDBRANCH   6   7
ENDBRANCH   5   6
ENDBRANCH   4   5
ENDBRANCH   3   4
ENDBRANCH   2   3
ENDBRANCH   1   2
BRANCH   1  15
ATOM     15  C   UNL     1      17.188  -0.229  18.927  1.00  0.00     0.000 C 
BRANCH  15  16
ATOM     16  C   UNL     1      16.667  -1.670  18.847  1.00  0.00     0.000 C 
BRANCH  16  17
ATOM     17  C   UNL     1      16.582  -2.146  17.392  1.00  0.00     0.000 C 
BRANCH  17  18
ATOM     18  C   UNL     1      16.227  -0.983  16.453  1.00  0.00    -0.000 C 
BRANCH  18  19
ATOM     19  C   UNL     1      17.229  -0.819  15.296  1.00  0.00    -0.000 C 
BRANCH  19  20
ATOM     20  C   UNL     1      18.170   0.394  15.417  1.00  0.00    -0.000 C 
BRANCH  20  21
ATOM     21  C   UNL     1      19.618  -0.000  15.743  1.00  0.00    -0.000 C 
BRANCH  21  22
ATOM     22  C   UNL     1      19.710  -1.487  16.117  1.00  0.00    -0.000 C 
BRANCH  22  23
ATOM     23  C   UNL     1      20.589  -2.290  15.145  1.00  0.00    -0.000 C 
BRANCH  23  24
ATOM     24  C   UNL     1      21.938  -2.691  15.759  1.00  0.00    -0.000 C 
BRANCH  24  25
ATOM     25  C   UNL     1      22.701  -1.458  16.260  1.00  0.00    -0.003 C 
ATOM     26  C   UNL     1      23.958  -1.860  17.025  1.00  0.00     0.004 C 
ENDBRANCH  24  25
ENDBRANCH  23  24
ENDBRANCH  22  23
ENDBRANCH  21  22
ENDBRANCH  20  21
ENDBRANCH  19  20
ENDBRANCH  18  19
ENDBRANCH  17  18
ENDBRANCH  16  17
ENDBRANCH  15  16
ENDBRANCH   1  15
TORSDOF 22
ENDMDL
MODEL 7
REMARK VINA RESULT:    -5.577      2.755      5.569
REMARK INTER + INTRA:         -15.694
REMARK INTER:                 -13.093
REMARK INTRA:                  -2.601
REMARK UNBOUND:                -2.944
REMARK SMILES CCCCCCCCCCCCCCCCCCCCCCCC(=O)[O-]
REMARK SMILES IDX 13 1 14 2 15 3 16 4 17 5 18 6 19 7 20 8 21 9 22 10 23 11
REMARK SMILES IDX 24 12 25 13 26 14 12 15 11 16 10 17 9 18 8 19 7 20 6 21 5 22
REMARK SMILES IDX 4 23 3 24 2 25 1 26
REMARK H PARENT
REMARK Flexibility Score: inf
ROOT
ATOM      1  C   UNL     1      17.288  -0.892  18.430  1.00  0.00     0.000 C 
ENDROOT
BRANCH   1   2
ATOM      2  C   UNL     1      17.906   0.493  18.163  1.00  0.00     0.000 C 
BRANCH   2   3
ATOM      3  C   UNL     1      17.590   1.027  16.755  1.00  0.00     0.000 C 
BRANCH   3   4
ATOM      4  C   UNL     1      17.271  -0.098  15.756  1.00  0.00     0.000 C 
BRANCH   4   5
ATOM      5  C   UNL     1      18.386  -0.296  14.718  1.00  0.00     0.000 C 
BRANCH   5   6
ATOM      6  C   UNL     1      19.331  -1.429  15.135  1.00  0.00     0.000 C 
BRANCH   6   7
ATOM      7  C   UNL     1      20.564  -0.878  15.861  1.00  0.00     0.000 C 
BRANCH   7   8
ATOM      8  C   UNL     1      21.754  -1.840  15.734  1.00  0.00     0.000 C 
BRANCH   8   9
ATOM      9  C   UNL     1      22.983  -1.371  16.529  1.00  0.00     0.000 C 
BRANCH   9  10
ATOM     10  C   UNL     1      23.877  -0.411  15.725  1.00  0.00     0.006 C 
BRANCH  10  11
ATOM     11  C   UNL     1      24.583   0.612  16.625  1.00  0.00     0.053 C 
BRANCH  11  12
ATOM     12  C   UNL     1      23.823   1.900  16.707  1.00  0.00     0.041 C 
ATOM     13  O   UNL     1      24.366   2.927  17.192  1.00  0.00    -0.550 OA
ATOM     14  O   UNL     1      22.504   1.958  16.278  1.00  0.00    -0.550 OA
ENDBRANCH  11  12
ENDBRANCH  10  11
ENDBRANCH   9  10
ENDBRANCH   8   9
ENDBRANCH   7   8
ENDBRANCH   6   7
ENDBRANCH   5   6
ENDBRANCH   4   5
ENDBRANCH   3   4
ENDBRANCH   2   3
ENDBRANCH   1   2
BRANCH   1  15
ATOM     15  C   UNL     1      16.177  -0.912  19.495  1.00  0.00     0.000 C 
BRANCH  15  16
ATOM     16  C   UNL     1      15.935   0.462  20.138  1.00  0.00     0.000 C 
BRANCH  16  17
ATOM     17  C   UNL     1      14.463   0.875  20.019  1.00  0.00     0.000 C 
BRANCH  17  18
ATOM     18  C   UNL     1      14.319   2.163  19.195  1.00  0.00    -0.000 C 
BRANCH  18  19
ATOM     19  C   UNL     1      13.985   1.895  17.717  1.00  0.00    -0.000 C 
BRANCH  19  20
ATOM     20  C   UNL     1      12.982   2.880  17.088  1.00  0.00    -0.000 C 
BRANCH  20  21
ATOM     21  C   UNL     1      13.190   3.064  15.577  1.00  0.00    -0.000 C 
BRANCH  21  22
ATOM     22  C   UNL     1      14.259   2.095  15.049  1.00  0.00    -0.000 C 
BRANCH  22  23
ATOM     23  C   UNL     1      15.093   2.696  13.906  1.00  0.00    -0.000 C 
BRANCH  23  24
ATOM     24  C   UNL     1      15.513   1.649  12.865  1.00  0.00    -0.000 C 
BRANCH  24  25
ATOM     25  C   UNL     1      16.187   2.314  11.659  1.00  0.00    -0.003 C 
ATOM     26  C   UNL     1      16.974   1.297  10.837  1.00  0.00     0.004 C 
ENDBRANCH  24  25
ENDBRANCH  23  24
ENDBRANCH  22  23
ENDBRANCH  21  22
ENDBRANCH  20  21
ENDBRANCH  19  20
ENDBRANCH  18  19
ENDBRANCH  17  18
ENDBRANCH  16  17
ENDBRANCH  15  16
ENDBRANCH   1  15
TORSDOF 22
ENDMDL
MODEL 8
REMARK VINA RESULT:    -5.577      2.416      8.018
REMARK INTER + INTRA:         -15.694
REMARK INTER:                 -13.217
REMARK INTRA:                  -2.477
REMARK UNBOUND:                -2.944
REMARK SMILES CCCCCCCCCCCCCCCCCCCCCCCC(=O)[O-]
REMARK SMILES IDX 13 1 14 2 15 3 16 4 17 5 18 6 19 7 20 8 21 9 22 10 23 11
REMARK SMILES IDX 24 12 25 13 26 14 12 15 11 16 10 17 9 18 8 19 7 20 6 21 5 22
REMARK SMILES IDX 4 23 3 24 2 25 1 26
REMARK H PARENT
REMARK Flexibility Score: inf
ROOT
ATOM      1  C   UNL     1      18.454  -0.311  16.072  1.00  0.00     0.000 C 
ENDROOT
BRANCH   1   2
ATOM      2  C   UNL     1      18.825  -0.683  14.625  1.00  0.00     0.000 C 
BRANCH   2   3
ATOM      3  C   UNL     1      17.831  -0.127  13.591  1.00  0.00     0.000 C 
BRANCH   3   4
ATOM      4  C   UNL     1      16.367  -0.310  14.024  1.00  0.00     0.000 C 
BRANCH   4   5
ATOM      5  C   UNL     1      15.498   0.915  13.693  1.00  0.00     0.000 C 
BRANCH   5   6
ATOM      6  C   UNL     1      16.278   1.931  12.850  1.00  0.00     0.000 C 
BRANCH   6   7
ATOM      7  C   UNL     1      15.878   1.839  11.373  1.00  0.00     0.000 C 
BRANCH   7   8
ATOM      8  C   UNL     1      17.117   1.699  10.475  1.00  0.00     0.000 C 
BRANCH   8   9
ATOM      9  C   UNL     1      17.466   0.233  10.171  1.00  0.00     0.000 C 
BRANCH   9  10
ATOM     10  C   UNL     1      17.854   0.011   8.699  1.00  0.00     0.006 C 
BRANCH  10  11
ATOM     11  C   UNL     1      18.282   1.314   8.010  1.00  0.00     0.053 C 
BRANCH  11  12
ATOM     12  C   UNL     1      19.489   1.116   7.145  1.00  0.00     0.041 C 
ATOM     13  O   UNL     1      20.060  -0.006   7.101  1.00  0.00    -0.550 OA
ATOM     14  O   UNL     1      20.002   2.179   6.413  1.00  0.00    -0.550 OA
ENDBRANCH  11  12
ENDBRANCH  10  11
ENDBRANCH   9  10
ENDBRANCH   8   9
ENDBRANCH   7   8
ENDBRANCH   6   7
ENDBRANCH   5   6
ENDBRANCH   4   5
ENDBRANCH   3   4
ENDBRANCH   2   3
ENDBRANCH   1   2
BRANCH   1  15
ATOM     15  C   UNL     1      18.326  -1.504  17.037  1.00  0.00     0.000 C 
BRANCH  15  16
ATOM     16  C   UNL     1      16.963  -2.205  16.948  1.00  0.00     0.000 C 
BRANCH  16  17
ATOM     17  C   UNL     1      16.009  -1.694  18.034  1.00  0.00     0.000 C 
BRANCH  17  18
ATOM     18  C   UNL     1      16.788  -1.081  19.207  1.00  0.00    -0.000 C 
BRANCH  18  19
ATOM     19  C   UNL     1      15.969  -0.041  19.993  1.00  0.00    -0.000 C 
BRANCH  19  20
ATOM     20  C   UNL     1      14.450  -0.298  20.024  1.00  0.00    -0.000 C 
BRANCH  20  21
ATOM     21  C   UNL     1      13.635   0.863  19.434  1.00  0.00    -0.000 C 
BRANCH  21  22
ATOM     22  C   UNL     1      14.356   2.203  19.646  1.00  0.00    -0.000 C 
BRANCH  22  23
ATOM     23  C   UNL     1      13.906   3.283  18.648  1.00  0.00    -0.000 C 
BRANCH  23  24
ATOM     24  C   UNL     1      13.777   2.748  17.215  1.00  0.00    -0.000 C 
BRANCH  24  25
ATOM     25  C   UNL     1      15.056   3.015  16.412  1.00  0.00    -0.003 C 
ATOM     26  C   UNL     1      16.272   2.391  17.090  1.00  0.00     0.004 C 
ENDBRANCH  24  25
ENDBRANCH  23  24
ENDBRANCH  22  23
ENDBRANCH  21  22
ENDBRANCH  20  21
ENDBRANCH  19  20
ENDBRANCH  18  19
ENDBRANCH  17  18
ENDBRANCH  16  17
ENDBRANCH  15  16
ENDBRANCH   1  15
TORSDOF 22
ENDMDL
MODEL 9
REMARK VINA RESULT:    -5.577      3.061      5.959
REMARK INTER + INTRA:         -15.693
REMARK INTER:                 -12.570
REMARK INTRA:                  -3.123
REMARK UNBOUND:                -2.944
REMARK SMILES CCCCCCCCCCCCCCCCCCCCCCCC(=O)[O-]
REMARK SMILES IDX 13 1 14 2 15 3 16 4 17 5 18 6 19 7 20 8 21 9 22 10 23 11
REMARK SMILES IDX 24 12 25 13 26 14 12 15 11 16 10 17 9 18 8 19 7 20 6 21 5 22
REMARK SMILES IDX 4 23 3 24 2 25 1 26
REMARK H PARENT
REMARK Flexibility Score: inf
ROOT
ATOM      1  C   UNL     1      18.033   0.769  18.122  1.00  0.00     0.000 C 
ENDROOT
BRANCH   1   2
ATOM      2  C   UNL     1      17.282   1.055  16.809  1.00  0.00     0.000 C 
BRANCH   2   3
ATOM      3  C   UNL     1      16.827  -0.226  16.090  1.00  0.00     0.000 C 
BRANCH   3   4
ATOM      4  C   UNL     1      17.430  -0.358  14.682  1.00  0.00     0.000 C 
BRANCH   4   5
ATOM      5  C   UNL     1      18.951  -0.139  14.671  1.00  0.00     0.000 C 
BRANCH   5   6
ATOM      6  C   UNL     1      19.672  -1.248  15.447  1.00  0.00     0.000 C 
BRANCH   6   7
ATOM      7  C   UNL     1      21.086  -0.808  15.846  1.00  0.00     0.000 C 
BRANCH   7   8
ATOM      8  C   UNL     1      21.120   0.690  16.188  1.00  0.00     0.000 C 
BRANCH   8   9
ATOM      9  C   UNL     1      22.545   1.265  16.186  1.00  0.00     0.000 C 
BRANCH   9  10
ATOM     10  C   UNL     1      23.616   0.196  16.467  1.00  0.00     0.006 C 
BRANCH  10  11
ATOM     11  C   UNL     1      24.581   0.019  15.287  1.00  0.00     0.053 C 
BRANCH  11  12
ATOM     12  C   UNL     1      25.948  -0.388  15.742  1.00  0.00     0.041 C 
ATOM     13  O   UNL     1      26.280  -1.603  15.743  1.00  0.00    -0.550 OA
ATOM     14  O   UNL     1      26.845   0.570  16.195  1.00  0.00    -0.550 OA
ENDBRANCH  11  12
ENDBRANCH  10  11
ENDBRANCH   9  10
ENDBRANCH   8   9
ENDBRANCH   7   8
ENDBRANCH   6   7
ENDBRANCH   5   6
ENDBRANCH   4   5
ENDBRANCH   3   4
ENDBRANCH   2   3
ENDBRANCH   1   2
BRANCH   1  15
ATOM     15  C   UNL     1      17.359  -0.263  19.045  1.00  0.00     0.000 C 
BRANCH  15  16
ATOM     16  C   UNL     1      16.238   0.340  19.903  1.00  0.00     0.000 C 
BRANCH  16  17
ATOM     17  C   UNL     1      14.884  -0.296  19.568  1.00  0.00     0.000 C 
BRANCH  17  18
ATOM     18  C   UNL     1      13.802   0.779  19.383  1.00  0.00    -0.000 C 
BRANCH  18  19
ATOM     19  C   UNL     1      14.386   2.190  19.192  1.00  0.00    -0.000 C 
BRANCH  19  20
ATOM     20  C   UNL     1      14.011   2.875  17.865  1.00  0.00    -0.000 C 
BRANCH  20  21
ATOM     21  C   UNL     1      13.630   1.875  16.762  1.00  0.00    -0.000 C 
BRANCH  21  22
ATOM     22  C   UNL     1      13.654   2.547  15.381  1.00  0.00    -0.000 C 
BRANCH  22  23
ATOM     23  C   UNL     1      15.081   2.805  14.872  1.00  0.00    -0.000 C 
BRANCH  23  24
ATOM     24  C   UNL     1      15.132   3.072  13.360  1.00  0.00    -0.000 C 
BRANCH  24  25
ATOM     25  C   UNL     1      15.235   1.760  12.575  1.00  0.00    -0.003 C 
ATOM     26  C   UNL     1      16.181   1.902  11.386  1.00  0.00     0.004 C 
ENDBRANCH  24  25
ENDBRANCH  23  24
ENDBRANCH  22  23
ENDBRANCH  21  22
ENDBRANCH  20  21
ENDBRANCH  19  20
ENDBRANCH  18  19
ENDBRANCH  17  18
ENDBRANCH  16  17
ENDBRANCH  15  16
ENDBRANCH   1  15
TORSDOF 22
ENDMDL
