MODEL 1
REMARK VINA RESULT:    -3.510      0.000      0.000
REMARK INTER + INTRA:          -7.026
REMARK INTER:                  -5.562
REMARK INTRA:                  -1.464
REMARK UNBOUND:                -1.464
REMARK SMILES CCCCCCCCCCCC(=O)[O-]
REMARK SMILES IDX 7 1 8 2 9 3 10 4 11 5 12 6 13 7 14 8 6 9 5 10 4 11 3 12 2 13
REMARK SMILES IDX 1 14
REMARK H PARENT
REMARK Flexibility Score: inf
ROOT
ATOM      1  C   UNL     1      27.781 -19.782  24.848  1.00  0.00     0.000 C 
ENDROOT
BRANCH   1   2
ATOM      2  C   UNL     1      26.554 -18.933  25.230  1.00  0.00     0.000 C 
BRANCH   2   3
ATOM      3  C   UNL     1      26.504 -17.585  24.494  1.00  0.00     0.000 C 
BRANCH   3   4
ATOM      4  C   UNL     1      26.639 -16.416  25.477  1.00  0.00     0.006 C 
BRANCH   4   5
ATOM      5  C   UNL     1      25.691 -16.587  26.668  1.00  0.00     0.053 C 
BRANCH   5   6
ATOM      6  C   UNL     1      24.340 -16.033  26.346  1.00  0.00     0.041 C 
ATOM      7  O   UNL     1      24.139 -14.790  26.389  1.00  0.00    -0.550 OA
ATOM      8  O   UNL     1      23.316 -16.883  25.950  1.00  0.00    -0.550 OA
ENDBRANCH   5   6
ENDBRANCH   4   5
ENDBRANCH   3   4
ENDBRANCH   2   3
ENDBRANCH   1   2
BRANCH   1   9
ATOM      9  C   UNL     1      28.962 -18.994  24.254  1.00  0.00     0.000 C 
BRANCH   9  10
ATOM     10  C   UNL     1      30.008 -18.594  25.309  1.00  0.00    -0.000 C 
BRANCH  10  11
ATOM     11  C   UNL     1      30.342 -19.745  26.272  1.00  0.00    -0.000 C 
BRANCH  11  12
ATOM     12  C   UNL     1      30.155 -19.358  27.750  1.00  0.00    -0.000 C 
BRANCH  12  13
ATOM     13  C   UNL     1      29.082 -18.276  27.942  1.00  0.00    -0.003 C 
ATOM     14  C   UNL     1      27.882 -18.772  28.749  1.00  0.00     0.004 C 
ENDBRANCH  12  13
ENDBRANCH  11  12
ENDBRANCH  10  11
ENDBRANCH   9  10
ENDBRANCH   1   9
TORSDOF 10
ENDMDL
MODEL 2
REMARK VINA RESULT:    -3.501      1.381      2.082
REMARK INTER + INTRA:          -7.012
REMARK INTER:                  -5.814
REMARK INTRA:                  -1.198
REMARK UNBOUND:                -1.464
REMARK SMILES CCCCCCCCCCCC(=O)[O-]
REMARK SMILES IDX 7 1 8 2 9 3 10 4 11 5 12 6 13 7 14 8 6 9 5 10 4 11 3 12 2 13
REMARK SMILES IDX 1 14
REMARK H PARENT
REMARK Flexibility Score: inf
ROOT
ATOM      1  C   UNL     1      26.451 -17.822  24.817  1.00  0.00     0.000 C 
ENDROOT
BRANCH   1   2
ATOM      2  C   UNL     1      26.609 -16.352  25.248  1.00  0.00     0.000 C 
BRANCH   2   3
ATOM      3  C   UNL     1      25.510 -15.889  26.216  1.00  0.00     0.000 C 
BRANCH   3   4
ATOM      4  C   UNL     1      24.451 -16.982  26.408  1.00  0.00     0.006 C 
BRANCH   4   5
ATOM      5  C   UNL     1      23.045 -16.440  26.128  1.00  0.00     0.053 C 
BRANCH   5   6
ATOM      6  C   UNL     1      22.460 -15.838  27.366  1.00  0.00     0.041 C 
ATOM      7  O   UNL     1      22.490 -14.591  27.538  1.00  0.00    -0.550 OA
ATOM      8  O   UNL     1      21.838 -16.648  28.306  1.00  0.00    -0.550 OA
ENDBRANCH   5   6
ENDBRANCH   4   5
ENDBRANCH   3   4
ENDBRANCH   2   3
ENDBRANCH   1   2
BRANCH   1   9
ATOM      9  C   UNL     1      27.746 -18.506  24.340  1.00  0.00     0.000 C 
BRANCH   9  10
ATOM     10  C   UNL     1      28.439 -19.317  25.449  1.00  0.00    -0.000 C 
BRANCH  10  11
ATOM     11  C   UNL     1      29.552 -18.522  26.150  1.00  0.00    -0.000 C 
BRANCH  11  12
ATOM     12  C   UNL     1      29.388 -18.492  27.681  1.00  0.00    -0.000 C 
BRANCH  12  13
ATOM     13  C   UNL     1      27.917 -18.561  28.115  1.00  0.00    -0.003 C 
ATOM     14  C   UNL     1      27.502 -17.374  28.983  1.00  0.00     0.004 C 
ENDBRANCH  12  13
ENDBRANCH  11  12
ENDBRANCH  10  11
ENDBRANCH   9  10
ENDBRANCH   1   9
TORSDOF 10
ENDMDL
MODEL 3
REMARK VINA RESULT:    -3.466      1.097      2.326
REMARK INTER + INTRA:          -6.956
REMARK INTER:                  -5.886
REMARK INTRA:                  -1.070
REMARK UNBOUND:                -1.464
REMARK SMILES CCCCCCCCCCCC(=O)[O-]
REMARK SMILES IDX 7 1 8 2 9 3 10 4 11 5 12 6 13 7 14 8 6 9 5 10 4 11 3 12 2 13
REMARK SMILES IDX 1 14
REMARK H PARENT
REMARK Flexibility Score: inf
ROOT
ATOM      1  C   UNL     1      27.684 -18.347  24.541  1.00  0.00     0.000 C 
ENDROOT
BRANCH   1   2
ATOM      2  C   UNL     1      26.436 -17.449  24.461  1.00  0.00     0.000 C 
BRANCH   2   3
ATOM      3  C   UNL     1      26.584 -16.143  25.257  1.00  0.00     0.000 C 
BRANCH   3   4
ATOM      4  C   UNL     1      25.434 -15.976  26.257  1.00  0.00     0.006 C 
BRANCH   4   5
ATOM      5  C   UNL     1      24.454 -17.150  26.170  1.00  0.00     0.053 C 
BRANCH   5   6
ATOM      6  C   UNL     1      23.064 -16.655  25.924  1.00  0.00     0.041 C 
ATOM      7  O   UNL     1      22.152 -17.462  25.603  1.00  0.00    -0.550 OA
ATOM      8  O   UNL     1      22.765 -15.310  26.096  1.00  0.00    -0.550 OA
ENDBRANCH   5   6
ENDBRANCH   4   5
ENDBRANCH   3   4
ENDBRANCH   2   3
ENDBRANCH   1   2
BRANCH   1   9
ATOM      9  C   UNL     1      27.451 -19.736  25.165  1.00  0.00     0.000 C 
BRANCH   9  10
ATOM     10  C   UNL     1      27.812 -19.791  26.659  1.00  0.00    -0.000 C 
BRANCH  10  11
ATOM     11  C   UNL     1      28.707 -18.618  27.092  1.00  0.00    -0.000 C 
BRANCH  11  12
ATOM     12  C   UNL     1      30.128 -19.065  27.479  1.00  0.00    -0.000 C 
BRANCH  12  13
ATOM     13  C   UNL     1      30.995 -19.391  26.254  1.00  0.00    -0.003 C 
ATOM     14  C   UNL     1      31.125 -18.210  25.293  1.00  0.00     0.004 C 
ENDBRANCH  12  13
ENDBRANCH  11  12
ENDBRANCH  10  11
ENDBRANCH   9  10
ENDBRANCH   1   9
TORSDOF 10
ENDMDL
MODEL 4
REMARK VINA RESULT:    -3.426      1.324      2.634
REMARK INTER + INTRA:          -6.893
REMARK INTER:                  -5.703
REMARK INTRA:                  -1.190
REMARK UNBOUND:                -1.464
REMARK SMILES CCCCCCCCCCCC(=O)[O-]
REMARK SMILES IDX 7 1 8 2 9 3 10 4 11 5 12 6 13 7 14 8 6 9 5 10 4 11 3 12 2 13
REMARK SMILES IDX 1 14
REMARK H PARENT
REMARK Flexibility Score: inf
ROOT
ATOM      1  C   UNL     1      26.700 -16.398  25.255  1.00  0.00     0.000 C 
ENDROOT
BRANCH   1   2
ATOM      2  C   UNL     1      26.154 -16.796  26.639  1.00  0.00     0.000 C 
BRANCH   2   3
ATOM      3  C   UNL     1      24.993 -17.799  26.561  1.00  0.00     0.000 C 
BRANCH   3   4
ATOM      4  C   UNL     1      23.754 -17.262  27.288  1.00  0.00     0.006 C 
BRANCH   4   5
ATOM      5  C   UNL     1      22.895 -16.406  26.352  1.00  0.00     0.053 C 
BRANCH   5   6
ATOM      6  C   UNL     1      22.880 -14.983  26.811  1.00  0.00     0.041 C 
ATOM      7  O   UNL     1      23.716 -14.160  26.353  1.00  0.00    -0.550 OA
ATOM      8  O   UNL     1      21.911 -14.552  27.708  1.00  0.00    -0.550 OA
ENDBRANCH   5   6
ENDBRANCH   4   5
ENDBRANCH   3   4
ENDBRANCH   2   3
ENDBRANCH   1   2
BRANCH   1   9
ATOM      9  C   UNL     1      26.638 -17.504  24.185  1.00  0.00     0.000 C 
BRANCH   9  10
ATOM     10  C   UNL     1      27.913 -18.363  24.135  1.00  0.00    -0.000 C 
BRANCH  10  11
ATOM     11  C   UNL     1      27.724 -19.736  24.799  1.00  0.00    -0.000 C 
BRANCH  11  12
ATOM     12  C   UNL     1      28.567 -19.900  26.077  1.00  0.00    -0.000 C 
BRANCH  12  13
ATOM     13  C   UNL     1      29.486 -18.697  26.332  1.00  0.00    -0.003 C 
ATOM     14  C   UNL     1      29.939 -18.600  27.789  1.00  0.00     0.004 C 
ENDBRANCH  12  13
ENDBRANCH  11  12
ENDBRANCH  10  11
ENDBRANCH   9  10
ENDBRANCH   1   9
TORSDOF 10
ENDMDL
MODEL 5
REMARK VINA RESULT:    -3.388      3.333      6.211
REMARK INTER + INTRA:          -6.833
REMARK INTER:                  -5.946
REMARK INTRA:                  -0.887
REMARK UNBOUND:                -1.464
REMARK SMILES CCCCCCCCCCCC(=O)[O-]
REMARK SMILES IDX 7 1 8 2 9 3 10 4 11 5 12 6 13 7 14 8 6 9 5 10 4 11 3 12 2 13
REMARK SMILES IDX 1 14
REMARK H PARENT
REMARK Flexibility Score: inf
ROOT
ATOM      1  C   UNL     1      25.132 -17.621  25.797  1.00  0.00     0.000 C 
ENDROOT
BRANCH   1   2
ATOM      2  C   UNL     1      26.372 -16.776  25.451  1.00  0.00     0.000 C 
BRANCH   2   3
ATOM      3  C   UNL     1      27.573 -17.626  25.008  1.00  0.00     0.000 C 
BRANCH   3   4
ATOM      4  C   UNL     1      28.151 -18.418  26.187  1.00  0.00     0.006 C 
BRANCH   4   5
ATOM      5  C   UNL     1      29.256 -19.370  25.721  1.00  0.00     0.053 C 
BRANCH   5   6
ATOM      6  C   UNL     1      30.446 -18.599  25.243  1.00  0.00     0.041 C 
ATOM      7  O   UNL     1      31.112 -17.899  26.050  1.00  0.00    -0.550 OA
ATOM      8  O   UNL     1      30.847 -18.691  23.917  1.00  0.00    -0.550 OA
ENDBRANCH   5   6
ENDBRANCH   4   5
ENDBRANCH   3   4
ENDBRANCH   2   3
ENDBRANCH   1   2
BRANCH   1   9
ATOM      9  C   UNL     1      24.642 -17.497  27.251  1.00  0.00     0.000 C 
BRANCH   9  10
ATOM     10  C   UNL     1      23.219 -16.922  27.358  1.00  0.00    -0.000 C 
BRANCH  10  11
ATOM     11  C   UNL     1      22.709 -16.360  26.020  1.00  0.00    -0.000 C 
BRANCH  11  12
ATOM     12  C   UNL     1      22.537 -14.831  26.044  1.00  0.00    -0.000 C 
BRANCH  12  13
ATOM     13  C   UNL     1      23.420 -14.156  27.104  1.00  0.00    -0.003 C 
ATOM     14  C   UNL     1      24.724 -13.609  26.523  1.00  0.00     0.004 C 
ENDBRANCH  12  13
ENDBRANCH  11  12
ENDBRANCH  10  11
ENDBRANCH   9  10
ENDBRANCH   1   9
TORSDOF 10
ENDMDL
MODEL 6
REMARK VINA RESULT:    -3.227      2.868      5.845
REMARK INTER + INTRA:          -6.577
REMARK INTER:                  -5.765
REMARK INTRA:                  -0.812
REMARK UNBOUND:                -1.464
REMARK SMILES CCCCCCCCCCCC(=O)[O-]
REMARK SMILES IDX 7 1 8 2 9 3 10 4 11 5 12 6 13 7 14 8 6 9 5 10 4 11 3 12 2 13
REMARK SMILES IDX 1 14
REMARK H PARENT
REMARK Flexibility Score: inf
ROOT
ATOM      1  C   UNL     1      26.592 -16.420  25.300  1.00  0.00     0.000 C 
ENDROOT
BRANCH   1   2
ATOM      2  C   UNL     1      26.389 -17.877  24.845  1.00  0.00     0.000 C 
BRANCH   2   3
ATOM      3  C   UNL     1      27.669 -18.514  24.283  1.00  0.00     0.000 C 
BRANCH   3   4
ATOM      4  C   UNL     1      28.357 -19.389  25.338  1.00  0.00     0.006 C 
BRANCH   4   5
ATOM      5  C   UNL     1      29.589 -18.687  25.915  1.00  0.00     0.053 C 
BRANCH   5   6
ATOM      6  C   UNL     1      29.443 -18.501  27.393  1.00  0.00     0.041 C 
ATOM      7  O   UNL     1      28.297 -18.440  27.912  1.00  0.00    -0.550 OA
ATOM      8  O   UNL     1      30.570 -18.445  28.202  1.00  0.00    -0.550 OA
ENDBRANCH   5   6
ENDBRANCH   4   5
ENDBRANCH   3   4
ENDBRANCH   2   3
ENDBRANCH   1   2
BRANCH   1   9
ATOM      9  C   UNL     1      25.805 -16.012  26.559  1.00  0.00     0.000 C 
BRANCH   9  10
ATOM     10  C   UNL     1      25.066 -14.672  26.396  1.00  0.00    -0.000 C 
BRANCH  10  11
ATOM     11  C   UNL     1      23.636 -14.716  26.961  1.00  0.00    -0.000 C 
BRANCH  11  12
ATOM     12  C   UNL     1      22.656 -15.468  26.042  1.00  0.00    -0.000 C 
BRANCH  12  13
ATOM     13  C   UNL     1      22.474 -16.936  26.452  1.00  0.00    -0.003 C 
ATOM     14  C   UNL     1      22.156 -17.845  25.266  1.00  0.00     0.004 C 
ENDBRANCH  12  13
ENDBRANCH  11  12
ENDBRANCH  10  11
ENDBRANCH   9  10
ENDBRANCH   1   9
TORSDOF 10
ENDMDL
MODEL 7
REMARK VINA RESULT:    -3.217      0.965      2.260
REMARK INTER + INTRA:          -6.561
REMARK INTER:                  -5.041
REMARK INTRA:                  -1.520
REMARK UNBOUND:                -1.464
REMARK SMILES CCCCCCCCCCCC(=O)[O-]
REMARK SMILES IDX 7 1 8 2 9 3 10 4 11 5 12 6 13 7 14 8 6 9 5 10 4 11 3 12 2 13
REMARK SMILES IDX 1 14
REMARK H PARENT
REMARK Flexibility Score: inf
ROOT
ATOM      1  C   UNL     1      29.603 -18.775  25.445  1.00  0.00     0.000 C 
ENDROOT
BRANCH   1   2
ATOM      2  C   UNL     1      28.512 -18.988  24.379  1.00  0.00     0.000 C 
BRANCH   2   3
ATOM      3  C   UNL     1      27.089 -18.841  24.939  1.00  0.00     0.000 C 
BRANCH   3   4
ATOM      4  C   UNL     1      26.472 -17.499  24.529  1.00  0.00     0.006 C 
BRANCH   4   5
ATOM      5  C   UNL     1      26.605 -16.467  25.652  1.00  0.00     0.053 C 
BRANCH   5   6
ATOM      6  C   UNL     1      25.254 -16.030  26.125  1.00  0.00     0.041 C 
ATOM      7  O   UNL     1      24.257 -16.784  25.974  1.00  0.00    -0.550 OA
ATOM      8  O   UNL     1      25.105 -14.813  26.777  1.00  0.00    -0.550 OA
ENDBRANCH   5   6
ENDBRANCH   4   5
ENDBRANCH   3   4
ENDBRANCH   2   3
ENDBRANCH   1   2
BRANCH   1   9
ATOM      9  C   UNL     1      29.883 -19.991  26.346  1.00  0.00     0.000 C 
BRANCH   9  10
ATOM     10  C   UNL     1      29.463 -19.763  27.809  1.00  0.00    -0.000 C 
BRANCH  10  11
ATOM     11  C   UNL     1      29.071 -18.303  28.088  1.00  0.00    -0.000 C 
BRANCH  11  12
ATOM     12  C   UNL     1      27.711 -18.177  28.798  1.00  0.00    -0.000 C 
BRANCH  12  13
ATOM     13  C   UNL     1      26.842 -19.432  28.629  1.00  0.00    -0.003 C 
ATOM     14  C   UNL     1      25.378 -19.100  28.340  1.00  0.00     0.004 C 
ENDBRANCH  12  13
ENDBRANCH  11  12
ENDBRANCH  10  11
ENDBRANCH   9  10
ENDBRANCH   1   9
TORSDOF 10
ENDMDL
MODEL 8
REMARK VINA RESULT:    -3.213      2.043      4.745
REMARK INTER + INTRA:          -6.555
REMARK INTER:                  -5.393
REMARK INTRA:                  -1.162
REMARK UNBOUND:                -1.464
REMARK SMILES CCCCCCCCCCCC(=O)[O-]
REMARK SMILES IDX 7 1 8 2 9 3 10 4 11 5 12 6 13 7 14 8 6 9 5 10 4 11 3 12 2 13
REMARK SMILES IDX 1 14
REMARK H PARENT
REMARK Flexibility Score: inf
ROOT
ATOM      1  C   UNL     1      27.968 -19.009  24.474  1.00  0.00     0.000 C 
ENDROOT
BRANCH   1   2
ATOM      2  C   UNL     1      29.240 -18.605  25.243  1.00  0.00     0.000 C 
BRANCH   2   3
ATOM      3  C   UNL     1      29.830 -19.755  26.074  1.00  0.00     0.000 C 
BRANCH   3   4
ATOM      4  C   UNL     1      29.167 -19.832  27.454  1.00  0.00     0.006 C 
BRANCH   4   5
ATOM      5  C   UNL     1      28.947 -18.434  28.039  1.00  0.00     0.053 C 
BRANCH   5   6
ATOM      6  C   UNL     1      27.579 -18.324  28.634  1.00  0.00     0.041 C 
ATOM      7  O   UNL     1      26.652 -19.077  28.235  1.00  0.00    -0.550 OA
ATOM      8  O   UNL     1      27.340 -17.423  29.664  1.00  0.00    -0.550 OA
ENDBRANCH   5   6
ENDBRANCH   4   5
ENDBRANCH   3   4
ENDBRANCH   2   3
ENDBRANCH   1   2
BRANCH   1   9
ATOM      9  C   UNL     1      26.697 -18.231  24.858  1.00  0.00     0.000 C 
BRANCH   9  10
ATOM     10  C   UNL     1      26.985 -16.779  25.276  1.00  0.00    -0.000 C 
BRANCH  10  11
ATOM     11  C   UNL     1      25.825 -16.152  26.066  1.00  0.00    -0.000 C 
BRANCH  11  12
ATOM     12  C   UNL     1      24.569 -17.041  26.085  1.00  0.00    -0.000 C 
BRANCH  12  13
ATOM     13  C   UNL     1      23.289 -16.244  26.379  1.00  0.00    -0.003 C 
ATOM     14  C   UNL     1      23.539 -14.739  26.468  1.00  0.00     0.004 C 
ENDBRANCH  12  13
ENDBRANCH  11  12
ENDBRANCH  10  11
ENDBRANCH   9  10
ENDBRANCH   1   9
TORSDOF 10
ENDMDL
MODEL 9
REMARK VINA RESULT:    -3.205      2.771      4.174
REMARK INTER + INTRA:          -6.542
REMARK INTER:                  -5.129
REMARK INTRA:                  -1.413
REMARK UNBOUND:                -1.464
REMARK SMILES CCCCCCCCCCCC(=O)[O-]
REMARK SMILES IDX 7 1 8 2 9 3 10 4 11 5 12 6 13 7 14 8 6 9 5 10 4 11 3 12 2 13
REMARK SMILES IDX 1 14
REMARK H PARENT
REMARK Flexibility Score: inf
ROOT
ATOM      1  C   UNL     1      26.376 -16.382  25.635  1.00  0.00     0.000 C 
ENDROOT
BRANCH   1   2
ATOM      2  C   UNL     1      25.984 -16.386  27.124  1.00  0.00     0.000 C 
BRANCH   2   3
ATOM      3  C   UNL     1      25.538 -17.769  27.623  1.00  0.00     0.000 C 
BRANCH   3   4
ATOM      4  C   UNL     1      26.540 -18.337  28.636  1.00  0.00     0.006 C 
BRANCH   4   5
ATOM      5  C   UNL     1      27.572 -17.280  29.040  1.00  0.00     0.053 C 
BRANCH   5   6
ATOM      6  C   UNL     1      27.769 -17.280  30.523  1.00  0.00     0.041 C 
ATOM      7  O   UNL     1      26.994 -17.941  31.264  1.00  0.00    -0.550 OA
ATOM      8  O   UNL     1      28.836 -16.591  31.083  1.00  0.00    -0.550 OA
ENDBRANCH   5   6
ENDBRANCH   4   5
ENDBRANCH   3   4
ENDBRANCH   2   3
ENDBRANCH   1   2
BRANCH   1   9
ATOM      9  C   UNL     1      26.140 -17.709  24.892  1.00  0.00     0.000 C 
BRANCH   9  10
ATOM     10  C   UNL     1      27.446 -18.401  24.467  1.00  0.00    -0.000 C 
BRANCH  10  11
ATOM     11  C   UNL     1      27.695 -19.711  25.233  1.00  0.00    -0.000 C 
BRANCH  11  12
ATOM     12  C   UNL     1      29.045 -19.721  25.973  1.00  0.00    -0.000 C 
BRANCH  12  13
ATOM     13  C   UNL     1      29.707 -18.336  26.006  1.00  0.00    -0.003 C 
ATOM     14  C   UNL     1      31.125 -18.345  25.436  1.00  0.00     0.004 C 
ENDBRANCH  12  13
ENDBRANCH  11  12
ENDBRANCH  10  11
ENDBRANCH   9  10
ENDBRANCH   1   9
TORSDOF 10
ENDMDL
