MODEL 1
REMARK VINA RESULT:    -4.883      0.000      0.000
REMARK INTER + INTRA:         -11.135
REMARK INTER:                  -8.023
REMARK INTRA:                  -3.112
REMARK UNBOUND:                -3.112
REMARK SMILES C[C@@H]1O[C@H](OC[C@H]2O[C@@H](Oc3c(-c4ccc(O)c(O)c4)oc4cc(O)cc(O)c4c3=O)[C@H](O)[C@@H](O)[C@H]2O)[C@@H](O)[C@H](O)[C@@H]1O
REMARK SMILES IDX 7 1 36 2 34 3 32 4 9 5 8 6 6 7 5 8 4 9 1 10 2 11 42 12 3 13
REMARK SMILES IDX 40 14 38 15 43 16 41 18 39 20 37 22 35 24 10 26 11 27 12 28
REMARK SMILES IDX 30 29 21 30 29 31 31 32 22 33 27 34 23 35 26 36 24 37 13 38
REMARK SMILES IDX 20 39 14 40 18 41 15 42 16 43 19 44 17 46 28 48 25 50 33 52
REMARK H PARENT 43 17 41 19 39 21 37 23 35 25 19 45 17 47 28 49 25 51 33 53
REMARK Flexibility Score: inf
ROOT
ATOM      1  C   UNL     1     -30.502  46.581  39.776  1.00  0.00     0.180 C 
ATOM      2  C   UNL     1     -29.646  47.882  40.117  1.00  0.00     0.177 C 
ATOM      3  C   UNL     1     -29.777  49.056  39.099  1.00  0.00     0.180 C 
ATOM      4  C   UNL     1     -30.527  48.573  37.819  1.00  0.00     0.214 C 
ATOM      5  C   UNL     1     -29.977  47.164  37.498  1.00  0.00     0.339 C 
ATOM      6  O   UNL     1     -30.673  46.307  38.377  1.00  0.00    -0.332 OA
ENDROOT
BRANCH   1   7
ATOM      7  C   UNL     1     -31.881  46.429  40.497  1.00  0.00     0.198 C 
BRANCH   7   8
ATOM      8  O   UNL     1     -32.939  46.416  39.542  1.00  0.00    -0.347 OA
BRANCH   8   9
ATOM      9  C   UNL     1     -33.701  47.606  39.436  1.00  0.00     0.281 C 
ATOM     10  C   UNL     1     -33.377  51.098  40.591  1.00  0.00     0.041 C 
ATOM     11  C   UNL     1     -34.169  49.727  40.422  1.00  0.00     0.150 C 
ATOM     12  C   UNL     1     -35.282  49.817  39.283  1.00  0.00     0.174 C 
ATOM     13  O   UNL     1     -33.210  48.667  40.271  1.00  0.00    -0.344 OA
ATOM     14  C   UNL     1     -34.647  49.494  37.923  1.00  0.00     0.179 C 
ATOM     15  C   UNL     1     -33.996  48.095  37.971  1.00  0.00     0.202 C 
BRANCH  12  16
ATOM     16  O   UNL     1     -35.852  51.099  39.264  1.00  0.00    -0.388 OA
ATOM     17  H   UNL     1     -35.114  51.749  39.353  1.00  0.00     0.211 HD
ENDBRANCH  12  16
BRANCH  14  18
ATOM     18  O   UNL     1     -33.614  50.445  37.634  1.00  0.00    -0.387 OA
ATOM     19  H   UNL     1     -33.898  51.276  38.059  1.00  0.00     0.211 HD
ENDBRANCH  14  18
BRANCH  15  20
ATOM     20  O   UNL     1     -34.864  47.183  37.388  1.00  0.00    -0.385 OA
ATOM     21  H   UNL     1     -35.580  46.876  38.011  1.00  0.00     0.211 HD
ENDBRANCH  15  20
ENDBRANCH   8   9
ENDBRANCH   7   8
ENDBRANCH   1   7
BRANCH   2  22
ATOM     22  O   UNL     1     -29.865  48.302  41.436  1.00  0.00    -0.387 OA
ATOM     23  H   UNL     1     -30.663  47.824  41.792  1.00  0.00     0.211 HD
ENDBRANCH   2  22
BRANCH   3  24
ATOM     24  O   UNL     1     -30.447  50.174  39.561  1.00  0.00    -0.387 OA
ATOM     25  H   UNL     1     -30.572  50.837  38.835  1.00  0.00     0.211 HD
ENDBRANCH   3  24
BRANCH   5  26
ATOM     26  O   UNL     1     -30.142  46.676  36.172  1.00  0.00    -0.454 OA
BRANCH  26  27
ATOM     27  C   UNL     1     -29.322  45.669  35.626  1.00  0.00     0.214 A 
ATOM     28  C   UNL     1     -29.531  44.259  35.852  1.00  0.00     0.180 A 
ATOM     29  C   UNL     1     -28.241  46.039  34.818  1.00  0.00     0.239 A 
ATOM     30  O   UNL     1     -28.693  43.393  35.345  1.00  0.00    -0.452 OA
ATOM     31  C   UNL     1     -27.511  45.066  34.136  1.00  0.00     0.111 A 
ATOM     32  O   UNL     1     -28.035  47.253  34.660  1.00  0.00    -0.285 OA
ATOM     33  C   UNL     1     -27.765  43.706  34.465  1.00  0.00     0.146 A 
ATOM     34  C   UNL     1     -26.582  45.363  33.146  1.00  0.00     0.134 A 
ATOM     35  C   UNL     1     -27.063  42.676  33.819  1.00  0.00     0.094 A 
ATOM     36  C   UNL     1     -26.066  44.325  32.331  1.00  0.00     0.093 A 
ATOM     37  C   UNL     1     -26.349  42.978  32.660  1.00  0.00     0.123 A 
BRANCH  28  38
ATOM     38  C   UNL     1     -30.817  43.687  36.318  1.00  0.00     0.025 A 
ATOM     39  C   UNL     1     -31.099  43.202  37.640  1.00  0.00     0.062 A 
ATOM     40  C   UNL     1     -31.967  44.005  35.484  1.00  0.00     0.016 A 
ATOM     41  C   UNL     1     -32.465  43.295  38.079  1.00  0.00     0.158 A 
ATOM     42  C   UNL     1     -33.077  44.657  36.108  1.00  0.00     0.051 A 
ATOM     43  C   UNL     1     -33.382  44.046  37.328  1.00  0.00     0.157 A 
BRANCH  41  44
ATOM     44  O   UNL     1     -32.902  42.600  39.180  1.00  0.00    -0.504 OA
ATOM     45  H   UNL     1     -33.573  43.001  39.838  1.00  0.00     0.293 HD
ENDBRANCH  41  44
BRANCH  43  46
ATOM     46  O   UNL     1     -34.654  44.241  37.907  1.00  0.00    -0.504 OA
ATOM     47  H   UNL     1     -35.012  43.645  38.666  1.00  0.00     0.293 HD
ENDBRANCH  43  46
ENDBRANCH  28  38
BRANCH  34  48
ATOM     48  O   UNL     1     -26.219  46.718  32.872  1.00  0.00    -0.507 OA
ATOM     49  H   UNL     1     -26.782  47.546  33.196  1.00  0.00     0.293 HD
ENDBRANCH  34  48
BRANCH  37  50
ATOM     50  O   UNL     1     -26.067  41.960  31.716  1.00  0.00    -0.508 OA
ATOM     51  H   UNL     1     -25.145  41.911  31.268  1.00  0.00     0.293 HD
ENDBRANCH  37  50
ENDBRANCH  26  27
ENDBRANCH   5  26
BRANCH   4  52
ATOM     52  O   UNL     1     -30.525  49.494  36.735  1.00  0.00    -0.384 OA
ATOM     53  H   UNL     1     -31.291  50.143  36.869  1.00  0.00     0.211 HD
ENDBRANCH   4  52
TORSDOF 16
ENDMDL
MODEL 2
REMARK VINA RESULT:    -4.795      2.727      4.582
REMARK INTER + INTRA:         -10.991
REMARK INTER:                  -8.085
REMARK INTRA:                  -2.905
REMARK UNBOUND:                -3.112
REMARK SMILES C[C@@H]1O[C@H](OC[C@H]2O[C@@H](Oc3c(-c4ccc(O)c(O)c4)oc4cc(O)cc(O)c4c3=O)[C@H](O)[C@@H](O)[C@H]2O)[C@@H](O)[C@H](O)[C@@H]1O
REMARK SMILES IDX 7 1 36 2 34 3 32 4 9 5 8 6 6 7 5 8 4 9 1 10 2 11 42 12 3 13
REMARK SMILES IDX 40 14 38 15 43 16 41 18 39 20 37 22 35 24 10 26 11 27 12 28
REMARK SMILES IDX 30 29 21 30 29 31 31 32 22 33 27 34 23 35 26 36 24 37 13 38
REMARK SMILES IDX 20 39 14 40 18 41 15 42 16 43 19 44 17 46 28 48 25 50 33 52
REMARK H PARENT 43 17 41 19 39 21 37 23 35 25 19 45 17 47 28 49 25 51 33 53
REMARK Flexibility Score: inf
ROOT
ATOM      1  C   UNL     1     -33.389  49.749  37.621  1.00  0.00     0.180 C 
ATOM      2  C   UNL     1     -34.717  48.952  37.995  1.00  0.00     0.177 C 
ATOM      3  C   UNL     1     -34.688  48.204  39.362  1.00  0.00     0.180 C 
ATOM      4  C   UNL     1     -33.238  48.194  39.936  1.00  0.00     0.214 C 
ATOM      5  C   UNL     1     -32.299  47.915  38.740  1.00  0.00     0.339 C 
ATOM      6  O   UNL     1     -32.167  49.164  38.097  1.00  0.00    -0.332 OA
ENDROOT
BRANCH   1   7
ATOM      7  C   UNL     1     -33.371  51.283  37.925  1.00  0.00     0.198 C 
BRANCH   7   8
ATOM      8  O   UNL     1     -32.072  51.819  37.686  1.00  0.00    -0.347 OA
BRANCH   8   9
ATOM      9  C   UNL     1     -31.719  52.019  36.329  1.00  0.00     0.281 C 
ATOM     10  C   UNL     1     -31.179  54.918  34.107  1.00  0.00     0.041 C 
ATOM     11  C   UNL     1     -31.834  53.513  34.474  1.00  0.00     0.150 C 
ATOM     12  C   UNL     1     -31.147  52.310  33.683  1.00  0.00     0.174 C 
ATOM     13  O   UNL     1     -31.855  53.385  35.905  1.00  0.00    -0.344 OA
ATOM     14  C   UNL     1     -29.920  51.821  34.464  1.00  0.00     0.179 C 
ATOM     15  C   UNL     1     -30.343  51.396  35.888  1.00  0.00     0.202 C 
BRANCH  12  16
ATOM     16  O   UNL     1     -30.773  52.728  32.397  1.00  0.00    -0.388 OA
ATOM     17  H   UNL     1     -30.360  51.952  31.946  1.00  0.00     0.211 HD
ENDBRANCH  12  16
BRANCH  14  18
ATOM     18  O   UNL     1     -28.972  52.889  34.592  1.00  0.00    -0.387 OA
ATOM     19  H   UNL     1     -29.481  53.650  34.926  1.00  0.00     0.211 HD
ENDBRANCH  14  18
BRANCH  15  20
ATOM     20  O   UNL     1     -30.475  50.016  35.917  1.00  0.00    -0.385 OA
ATOM     21  H   UNL     1     -29.712  49.544  35.482  1.00  0.00     0.211 HD
ENDBRANCH  15  20
ENDBRANCH   8   9
ENDBRANCH   7   8
ENDBRANCH   1   7
BRANCH   2  22
ATOM     22  O   UNL     1     -35.851  49.766  37.864  1.00  0.00    -0.387 OA
ATOM     23  H   UNL     1     -36.444  49.373  37.165  1.00  0.00     0.211 HD
ENDBRANCH   2  22
BRANCH   3  24
ATOM     24  O   UNL     1     -35.507  48.728  40.346  1.00  0.00    -0.387 OA
ATOM     25  H   UNL     1     -35.281  48.348  41.234  1.00  0.00     0.211 HD
ENDBRANCH   3  24
BRANCH   5  26
ATOM     26  O   UNL     1     -30.996  47.417  39.023  1.00  0.00    -0.454 OA
BRANCH  26  27
ATOM     27  C   UNL     1     -30.212  46.751  38.061  1.00  0.00     0.214 A 
ATOM     28  C   UNL     1     -30.453  45.392  37.636  1.00  0.00     0.180 A 
ATOM     29  C   UNL     1     -29.138  47.429  37.474  1.00  0.00     0.239 A 
ATOM     30  O   UNL     1     -29.647  44.835  36.771  1.00  0.00    -0.452 OA
ATOM     31  C   UNL     1     -28.446  46.856  36.408  1.00  0.00     0.111 A 
ATOM     32  O   UNL     1     -28.905  48.582  37.872  1.00  0.00    -0.285 OA
ATOM     33  C   UNL     1     -28.728  45.496  36.099  1.00  0.00     0.146 A 
ATOM     34  C   UNL     1     -27.530  47.552  35.630  1.00  0.00     0.134 A 
ATOM     35  C   UNL     1     -28.065  44.857  35.040  1.00  0.00     0.094 A 
ATOM     36  C   UNL     1     -27.056  46.984  34.422  1.00  0.00     0.093 A 
ATOM     37  C   UNL     1     -27.366  45.637  34.120  1.00  0.00     0.123 A 
BRANCH  28  38
ATOM     38  C   UNL     1     -31.744  44.691  37.833  1.00  0.00     0.025 A 
ATOM     39  C   UNL     1     -32.315  44.304  39.093  1.00  0.00     0.062 A 
ATOM     40  C   UNL     1     -32.655  44.754  36.699  1.00  0.00     0.016 A 
ATOM     41  C   UNL     1     -33.750  44.243  39.154  1.00  0.00     0.158 A 
ATOM     42  C   UNL     1     -33.958  45.297  36.928  1.00  0.00     0.051 A 
ATOM     43  C   UNL     1     -34.509  44.774  38.101  1.00  0.00     0.157 A 
BRANCH  41  44
ATOM     44  O   UNL     1     -34.386  43.605  40.191  1.00  0.00    -0.504 OA
ATOM     45  H   UNL     1     -35.403  43.618  40.288  1.00  0.00     0.293 HD
ENDBRANCH  41  44
BRANCH  43  46
ATOM     46  O   UNL     1     -35.904  44.841  38.306  1.00  0.00    -0.504 OA
ATOM     47  H   UNL     1     -36.553  45.183  37.583  1.00  0.00     0.293 HD
ENDBRANCH  43  46
ENDBRANCH  28  38
BRANCH  34  48
ATOM     48  O   UNL     1     -27.137  48.881  35.983  1.00  0.00    -0.507 OA
ATOM     49  H   UNL     1     -26.317  49.377  35.549  1.00  0.00     0.293 HD
ENDBRANCH  34  48
BRANCH  37  50
ATOM     50  O   UNL     1     -27.128  45.148  32.812  1.00  0.00    -0.508 OA
ATOM     51  H   UNL     1     -27.891  45.112  32.126  1.00  0.00     0.293 HD
ENDBRANCH  37  50
ENDBRANCH  26  27
ENDBRANCH   5  26
BRANCH   4  52
ATOM     52  O   UNL     1     -33.044  47.365  41.074  1.00  0.00    -0.384 OA
ATOM     53  H   UNL     1     -33.925  47.293  41.569  1.00  0.00     0.211 HD
ENDBRANCH   4  52
TORSDOF 16
ENDMDL
MODEL 3
REMARK VINA RESULT:    -4.596      6.205     11.109
REMARK INTER + INTRA:         -10.664
REMARK INTER:                  -8.482
REMARK INTRA:                  -2.182
REMARK UNBOUND:                -3.112
REMARK SMILES C[C@@H]1O[C@H](OC[C@H]2O[C@@H](Oc3c(-c4ccc(O)c(O)c4)oc4cc(O)cc(O)c4c3=O)[C@H](O)[C@@H](O)[C@H]2O)[C@@H](O)[C@H](O)[C@@H]1O
REMARK SMILES IDX 7 1 36 2 34 3 32 4 9 5 8 6 6 7 5 8 4 9 1 10 2 11 42 12 3 13
REMARK SMILES IDX 40 14 38 15 43 16 41 18 39 20 37 22 35 24 10 26 11 27 12 28
REMARK SMILES IDX 30 29 21 30 29 31 31 32 22 33 27 34 23 35 26 36 24 37 13 38
REMARK SMILES IDX 20 39 14 40 18 41 15 42 16 43 19 44 17 46 28 48 25 50 33 52
REMARK H PARENT 43 17 41 19 39 21 37 23 35 25 19 45 17 47 28 49 25 51 33 53
REMARK Flexibility Score: inf
ROOT
ATOM      1  C   UNL     1     -25.713  52.108  30.179  1.00  0.00     0.180 C 
ATOM      2  C   UNL     1     -26.326  53.416  29.507  1.00  0.00     0.177 C 
ATOM      3  C   UNL     1     -26.108  54.742  30.298  1.00  0.00     0.180 C 
ATOM      4  C   UNL     1     -25.557  54.430  31.724  1.00  0.00     0.214 C 
ATOM      5  C   UNL     1     -26.342  53.199  32.233  1.00  0.00     0.339 C 
ATOM      6  O   UNL     1     -25.711  52.099  31.615  1.00  0.00    -0.332 OA
ENDROOT
BRANCH   1   7
ATOM      7  C   UNL     1     -24.315  51.633  29.664  1.00  0.00     0.198 C 
BRANCH   7   8
ATOM      8  O   UNL     1     -24.339  50.234  29.392  1.00  0.00    -0.347 OA
BRANCH   8   9
ATOM      9  C   UNL     1     -23.342  49.456  30.030  1.00  0.00     0.281 C 
ATOM     10  C   UNL     1     -19.652  49.351  30.071  1.00  0.00     0.041 C 
ATOM     11  C   UNL     1     -21.089  48.682  29.917  1.00  0.00     0.150 C 
ATOM     12  C   UNL     1     -21.495  47.840  31.209  1.00  0.00     0.174 C 
ATOM     13  O   UNL     1     -22.021  49.702  29.521  1.00  0.00    -0.344 OA
ATOM     14  C   UNL     1     -22.155  48.768  32.237  1.00  0.00     0.179 C 
ATOM     15  C   UNL     1     -23.381  49.461  31.603  1.00  0.00     0.202 C 
BRANCH  12  16
ATOM     16  O   UNL     1     -20.362  47.225  31.762  1.00  0.00    -0.388 OA
ATOM     17  H   UNL     1     -20.087  47.766  32.541  1.00  0.00     0.211 HD
ENDBRANCH  12  16
BRANCH  14  18
ATOM     18  O   UNL     1     -21.230  49.792  32.627  1.00  0.00    -0.387 OA
ATOM     19  H   UNL     1     -21.392  50.535  32.017  1.00  0.00     0.211 HD
ENDBRANCH  14  18
BRANCH  15  20
ATOM     20  O   UNL     1     -24.525  48.786  31.999  1.00  0.00    -0.385 OA
ATOM     21  H   UNL     1     -24.472  48.448  32.936  1.00  0.00     0.211 HD
ENDBRANCH  15  20
ENDBRANCH   8   9
ENDBRANCH   7   8
ENDBRANCH   1   7
BRANCH   2  22
ATOM     22  O   UNL     1     -25.930  53.532  28.167  1.00  0.00    -0.387 OA
ATOM     23  H   UNL     1     -26.705  53.296  27.587  1.00  0.00     0.211 HD
ENDBRANCH   2  22
BRANCH   3  24
ATOM     24  O   UNL     1     -25.235  55.646  29.718  1.00  0.00    -0.387 OA
ATOM     25  H   UNL     1     -24.441  55.791  30.295  1.00  0.00     0.211 HD
ENDBRANCH   3  24
BRANCH   5  26
ATOM     26  O   UNL     1     -26.371  52.968  33.637  1.00  0.00    -0.454 OA
BRANCH  26  27
ATOM     27  C   UNL     1     -27.115  51.922  34.218  1.00  0.00     0.214 A 
ATOM     28  C   UNL     1     -28.504  52.043  34.593  1.00  0.00     0.180 A 
ATOM     29  C   UNL     1     -26.489  50.693  34.451  1.00  0.00     0.239 A 
ATOM     30  O   UNL     1     -29.106  51.036  35.171  1.00  0.00    -0.452 OA
ATOM     31  C   UNL     1     -27.237  49.595  34.875  1.00  0.00     0.111 A 
ATOM     32  O   UNL     1     -25.283  50.604  34.170  1.00  0.00    -0.285 OA
ATOM     33  C   UNL     1     -28.585  49.830  35.263  1.00  0.00     0.146 A 
ATOM     34  C   UNL     1     -26.738  48.298  34.906  1.00  0.00     0.134 A 
ATOM     35  C   UNL     1     -29.393  48.770  35.701  1.00  0.00     0.094 A 
ATOM     36  C   UNL     1     -27.622  47.209  35.107  1.00  0.00     0.093 A 
ATOM     37  C   UNL     1     -28.966  47.462  35.469  1.00  0.00     0.123 A 
BRANCH  28  38
ATOM     38  C   UNL     1     -29.407  53.090  34.059  1.00  0.00     0.025 A 
ATOM     39  C   UNL     1     -29.601  53.417  32.674  1.00  0.00     0.062 A 
ATOM     40  C   UNL     1     -30.440  53.538  34.983  1.00  0.00     0.016 A 
ATOM     41  C   UNL     1     -30.888  53.944  32.315  1.00  0.00     0.158 A 
ATOM     42  C   UNL     1     -31.800  53.433  34.554  1.00  0.00     0.051 A 
ATOM     43  C   UNL     1     -31.939  53.895  33.242  1.00  0.00     0.157 A 
BRANCH  41  44
ATOM     44  O   UNL     1     -31.085  54.565  31.105  1.00  0.00    -0.504 OA
ATOM     45  H   UNL     1     -31.144  55.582  31.024  1.00  0.00     0.293 HD
ENDBRANCH  41  44
BRANCH  43  46
ATOM     46  O   UNL     1     -33.215  54.265  32.765  1.00  0.00    -0.504 OA
ATOM     47  H   UNL     1     -33.622  55.194  32.942  1.00  0.00     0.293 HD
ENDBRANCH  43  46
ENDBRANCH  28  38
BRANCH  34  48
ATOM     48  O   UNL     1     -25.358  48.042  34.635  1.00  0.00    -0.507 OA
ATOM     49  H   UNL     1     -24.895  47.115  34.815  1.00  0.00     0.293 HD
ENDBRANCH  34  48
BRANCH  37  50
ATOM     50  O   UNL     1     -29.910  46.409  35.411  1.00  0.00    -0.508 OA
ATOM     51  H   UNL     1     -30.824  46.556  34.967  1.00  0.00     0.293 HD
ENDBRANCH  37  50
ENDBRANCH  26  27
ENDBRANCH   5  26
BRANCH   4  52
ATOM     52  O   UNL     1     -25.513  55.539  32.611  1.00  0.00    -0.384 OA
ATOM     53  H   UNL     1     -26.455  55.889  32.731  1.00  0.00     0.211 HD
ENDBRANCH   4  52
TORSDOF 16
ENDMDL
MODEL 4
REMARK VINA RESULT:    -4.510      9.498     12.741
REMARK INTER + INTRA:         -10.522
REMARK INTER:                  -7.617
REMARK INTRA:                  -2.905
REMARK UNBOUND:                -3.112
REMARK SMILES C[C@@H]1O[C@H](OC[C@H]2O[C@@H](Oc3c(-c4ccc(O)c(O)c4)oc4cc(O)cc(O)c4c3=O)[C@H](O)[C@@H](O)[C@H]2O)[C@@H](O)[C@H](O)[C@@H]1O
REMARK SMILES IDX 7 1 36 2 34 3 32 4 9 5 8 6 6 7 5 8 4 9 1 10 2 11 42 12 3 13
REMARK SMILES IDX 40 14 38 15 43 16 41 18 39 20 37 22 35 24 10 26 11 27 12 28
REMARK SMILES IDX 30 29 21 30 29 31 31 32 22 33 27 34 23 35 26 36 24 37 13 38
REMARK SMILES IDX 20 39 14 40 18 41 15 42 16 43 19 44 17 46 28 48 25 50 33 52
REMARK H PARENT 43 17 41 19 39 21 37 23 35 25 19 45 17 47 28 49 25 51 33 53
REMARK Flexibility Score: inf
ROOT
ATOM      1  C   UNL     1     -24.369  51.884  31.831  1.00  0.00     0.180 C 
ATOM      2  C   UNL     1     -24.046  51.250  30.404  1.00  0.00     0.177 C 
ATOM      3  C   UNL     1     -23.843  49.705  30.388  1.00  0.00     0.180 C 
ATOM      4  C   UNL     1     -23.741  49.163  31.847  1.00  0.00     0.214 C 
ATOM      5  C   UNL     1     -22.870  50.175  32.626  1.00  0.00     0.339 C 
ATOM      6  O   UNL     1     -23.754  51.225  32.948  1.00  0.00    -0.332 OA
ENDROOT
BRANCH   1   7
ATOM      7  C   UNL     1     -25.873  52.156  32.163  1.00  0.00     0.198 C 
BRANCH   7   8
ATOM      8  O   UNL     1     -26.026  53.457  32.726  1.00  0.00    -0.347 OA
BRANCH   8   9
ATOM      9  C   UNL     1     -24.882  54.002  33.359  1.00  0.00     0.281 C 
ATOM     10  C   UNL     1     -23.187  57.281  33.455  1.00  0.00     0.041 C 
ATOM     11  C   UNL     1     -23.210  55.700  33.262  1.00  0.00     0.150 C 
ATOM     12  C   UNL     1     -22.606  54.936  34.524  1.00  0.00     0.174 C 
ATOM     13  O   UNL     1     -24.540  55.311  32.878  1.00  0.00    -0.344 OA
ATOM     14  C   UNL     1     -23.712  54.718  35.566  1.00  0.00     0.179 C 
ATOM     15  C   UNL     1     -24.878  53.930  34.931  1.00  0.00     0.202 C 
BRANCH  12  16
ATOM     16  O   UNL     1     -21.552  55.678  35.079  1.00  0.00    -0.388 OA
ATOM     17  H   UNL     1     -20.967  55.042  35.558  1.00  0.00     0.211 HD
ENDBRANCH  12  16
BRANCH  14  18
ATOM     18  O   UNL     1     -24.227  55.985  35.997  1.00  0.00    -0.387 OA
ATOM     19  H   UNL     1     -24.963  56.186  35.390  1.00  0.00     0.211 HD
ENDBRANCH  14  18
BRANCH  15  20
ATOM     20  O   UNL     1     -24.759  52.596  35.292  1.00  0.00    -0.385 OA
ATOM     21  H   UNL     1     -24.383  52.474  36.207  1.00  0.00     0.211 HD
ENDBRANCH  15  20
ENDBRANCH   8   9
ENDBRANCH   7   8
ENDBRANCH   1   7
BRANCH   2  22
ATOM     22  O   UNL     1     -24.975  51.669  29.441  1.00  0.00    -0.387 OA
ATOM     23  H   UNL     1     -25.449  52.475  29.788  1.00  0.00     0.211 HD
ENDBRANCH   2  22
BRANCH   3  24
ATOM     24  O   UNL     1     -24.838  48.979  29.757  1.00  0.00    -0.387 OA
ATOM     25  H   UNL     1     -25.302  48.383  30.400  1.00  0.00     0.211 HD
ENDBRANCH   3  24
BRANCH   5  26
ATOM     26  O   UNL     1     -22.249  49.727  33.826  1.00  0.00    -0.454 OA
BRANCH  26  27
ATOM     27  C   UNL     1     -20.979  50.177  34.238  1.00  0.00     0.214 A 
ATOM     28  C   UNL     1     -19.740  49.676  33.694  1.00  0.00     0.180 A 
ATOM     29  C   UNL     1     -20.897  51.164  35.226  1.00  0.00     0.239 A 
ATOM     30  O   UNL     1     -18.603  50.116  34.167  1.00  0.00    -0.452 OA
ATOM     31  C   UNL     1     -19.668  51.742  35.539  1.00  0.00     0.111 A 
ATOM     32  O   UNL     1     -21.963  51.562  35.725  1.00  0.00    -0.285 OA
ATOM     33  C   UNL     1     -18.503  51.144  34.984  1.00  0.00     0.146 A 
ATOM     34  C   UNL     1     -19.537  52.875  36.333  1.00  0.00     0.134 A 
ATOM     35  C   UNL     1     -17.233  51.674  35.260  1.00  0.00     0.094 A 
ATOM     36  C   UNL     1     -18.290  53.545  36.403  1.00  0.00     0.093 A 
ATOM     37  C   UNL     1     -17.147  52.947  35.824  1.00  0.00     0.123 A 
BRANCH  28  38
ATOM     38  C   UNL     1     -19.645  48.962  32.398  1.00  0.00     0.025 A 
ATOM     39  C   UNL     1     -19.503  49.568  31.104  1.00  0.00     0.062 A 
ATOM     40  C   UNL     1     -19.284  47.555  32.499  1.00  0.00     0.016 A 
ATOM     41  C   UNL     1     -18.811  48.798  30.108  1.00  0.00     0.158 A 
ATOM     42  C   UNL     1     -18.123  47.118  31.786  1.00  0.00     0.051 A 
ATOM     43  C   UNL     1     -18.120  47.638  30.489  1.00  0.00     0.157 A 
BRANCH  41  44
ATOM     44  O   UNL     1     -18.880  49.137  28.778  1.00  0.00    -0.504 OA
ATOM     45  H   UNL     1     -18.828  50.109  28.468  1.00  0.00     0.293 HD
ENDBRANCH  41  44
BRANCH  43  46
ATOM     46  O   UNL     1     -17.320  47.032  29.496  1.00  0.00    -0.504 OA
ATOM     47  H   UNL     1     -16.673  46.259  29.706  1.00  0.00     0.293 HD
ENDBRANCH  43  46
ENDBRANCH  28  38
BRANCH  34  48
ATOM     48  O   UNL     1     -20.672  53.431  37.000  1.00  0.00    -0.507 OA
ATOM     49  H   UNL     1     -21.613  53.547  36.543  1.00  0.00     0.293 HD
ENDBRANCH  34  48
BRANCH  37  50
ATOM     50  O   UNL     1     -15.971  53.718  35.655  1.00  0.00    -0.508 OA
ATOM     51  H   UNL     1     -15.065  53.358  35.977  1.00  0.00     0.293 HD
ENDBRANCH  37  50
ENDBRANCH  26  27
ENDBRANCH   5  26
BRANCH   4  52
ATOM     52  O   UNL     1     -23.349  47.801  31.959  1.00  0.00    -0.384 OA
ATOM     53  H   UNL     1     -22.406  47.711  31.601  1.00  0.00     0.211 HD
ENDBRANCH   4  52
TORSDOF 16
ENDMDL
MODEL 5
REMARK VINA RESULT:    -4.485      8.614     12.033
REMARK INTER + INTRA:         -10.481
REMARK INTER:                  -7.472
REMARK INTRA:                  -3.009
REMARK UNBOUND:                -3.112
REMARK SMILES C[C@@H]1O[C@H](OC[C@H]2O[C@@H](Oc3c(-c4ccc(O)c(O)c4)oc4cc(O)cc(O)c4c3=O)[C@H](O)[C@@H](O)[C@H]2O)[C@@H](O)[C@H](O)[C@@H]1O
REMARK SMILES IDX 7 1 36 2 34 3 32 4 9 5 8 6 6 7 5 8 4 9 1 10 2 11 42 12 3 13
REMARK SMILES IDX 40 14 38 15 43 16 41 18 39 20 37 22 35 24 10 26 11 27 12 28
REMARK SMILES IDX 30 29 21 30 29 31 31 32 22 33 27 34 23 35 26 36 24 37 13 38
REMARK SMILES IDX 20 39 14 40 18 41 15 42 16 43 19 44 17 46 28 48 25 50 33 52
REMARK H PARENT 43 17 41 19 39 21 37 23 35 25 19 45 17 47 28 49 25 51 33 53
REMARK Flexibility Score: inf
ROOT
ATOM      1  C   UNL     1     -23.924  54.577  33.372  1.00  0.00     0.180 C 
ATOM      2  C   UNL     1     -25.049  54.879  32.284  1.00  0.00     0.177 C 
ATOM      3  C   UNL     1     -26.517  54.830  32.807  1.00  0.00     0.180 C 
ATOM      4  C   UNL     1     -26.553  54.225  34.245  1.00  0.00     0.214 C 
ATOM      5  C   UNL     1     -25.561  53.039  34.242  1.00  0.00     0.339 C 
ATOM      6  O   UNL     1     -24.294  53.640  34.395  1.00  0.00    -0.332 OA
ENDROOT
BRANCH   1   7
ATOM      7  C   UNL     1     -23.229  55.810  34.036  1.00  0.00     0.198 C 
BRANCH   7   8
ATOM      8  O   UNL     1     -22.394  56.475  33.092  1.00  0.00    -0.347 OA
BRANCH   8   9
ATOM      9  C   UNL     1     -21.048  56.682  33.483  1.00  0.00     0.281 C 
ATOM     10  C   UNL     1     -19.111  59.400  35.061  1.00  0.00     0.041 C 
ATOM     11  C   UNL     1     -19.365  58.312  33.926  1.00  0.00     0.150 C 
ATOM     12  C   UNL     1     -18.421  57.038  34.099  1.00  0.00     0.174 C 
ATOM     13  O   UNL     1     -20.775  58.037  33.870  1.00  0.00    -0.344 OA
ATOM     14  C   UNL     1     -19.083  56.038  35.056  1.00  0.00     0.179 C 
ATOM     15  C   UNL     1     -20.476  55.643  34.517  1.00  0.00     0.202 C 
BRANCH  12  16
ATOM     16  O   UNL     1     -17.167  57.429  34.592  1.00  0.00    -0.388 OA
ATOM     17  H   UNL     1     -17.172  58.414  34.656  1.00  0.00     0.211 HD
ENDBRANCH  12  16
BRANCH  14  18
ATOM     18  O   UNL     1     -19.272  56.650  36.340  1.00  0.00    -0.387 OA
ATOM     19  H   UNL     1     -20.231  56.805  36.415  1.00  0.00     0.211 HD
ENDBRANCH  14  18
BRANCH  15  20
ATOM     20  O   UNL     1     -20.369  54.420  33.872  1.00  0.00    -0.385 OA
ATOM     21  H   UNL     1     -21.244  54.083  33.533  1.00  0.00     0.211 HD
ENDBRANCH  15  20
ENDBRANCH   8   9
ENDBRANCH   7   8
ENDBRANCH   1   7
BRANCH   2  22
ATOM     22  O   UNL     1     -24.777  56.065  31.588  1.00  0.00    -0.387 OA
ATOM     23  H   UNL     1     -24.554  56.776  32.250  1.00  0.00     0.211 HD
ENDBRANCH   2  22
BRANCH   3  24
ATOM     24  O   UNL     1     -27.169  56.049  32.866  1.00  0.00    -0.387 OA
ATOM     25  H   UNL     1     -27.150  56.503  31.985  1.00  0.00     0.211 HD
ENDBRANCH   3  24
BRANCH   5  26
ATOM     26  O   UNL     1     -25.712  52.048  35.252  1.00  0.00    -0.454 OA
BRANCH  26  27
ATOM     27  C   UNL     1     -25.986  50.698  34.957  1.00  0.00     0.214 A 
ATOM     28  C   UNL     1     -24.987  49.763  34.497  1.00  0.00     0.180 A 
ATOM     29  C   UNL     1     -27.292  50.221  35.114  1.00  0.00     0.239 A 
ATOM     30  O   UNL     1     -25.338  48.539  34.200  1.00  0.00    -0.452 OA
ATOM     31  C   UNL     1     -27.561  48.860  34.984  1.00  0.00     0.111 A 
ATOM     32  O   UNL     1     -28.159  51.037  35.467  1.00  0.00    -0.285 OA
ATOM     33  C   UNL     1     -26.520  48.031  34.480  1.00  0.00     0.146 A 
ATOM     34  C   UNL     1     -28.771  48.282  35.347  1.00  0.00     0.134 A 
ATOM     35  C   UNL     1     -26.724  46.651  34.323  1.00  0.00     0.094 A 
ATOM     36  C   UNL     1     -28.885  46.872  35.422  1.00  0.00     0.093 A 
ATOM     37  C   UNL     1     -27.830  46.064  34.937  1.00  0.00     0.123 A 
BRANCH  28  38
ATOM     38  C   UNL     1     -23.529  49.974  34.666  1.00  0.00     0.025 A 
ATOM     39  C   UNL     1     -22.636  50.537  33.693  1.00  0.00     0.062 A 
ATOM     40  C   UNL     1     -23.065  49.966  36.046  1.00  0.00     0.016 A 
ATOM     41  C   UNL     1     -21.488  51.234  34.204  1.00  0.00     0.158 A 
ATOM     42  C   UNL     1     -22.363  51.121  36.513  1.00  0.00     0.051 A 
ATOM     43  C   UNL     1     -21.415  51.534  35.573  1.00  0.00     0.157 A 
BRANCH  41  44
ATOM     44  O   UNL     1     -20.427  51.543  33.388  1.00  0.00    -0.504 OA
ATOM     45  H   UNL     1     -19.876  50.819  32.923  1.00  0.00     0.293 HD
ENDBRANCH  41  44
BRANCH  43  46
ATOM     46  O   UNL     1     -20.352  52.371  35.975  1.00  0.00    -0.504 OA
ATOM     47  H   UNL     1     -19.376  52.044  36.011  1.00  0.00     0.293 HD
ENDBRANCH  43  46
ENDBRANCH  28  38
BRANCH  34  48
ATOM     48  O   UNL     1     -29.876  49.098  35.746  1.00  0.00    -0.507 OA
ATOM     49  H   UNL     1     -30.018  50.085  35.411  1.00  0.00     0.293 HD
ENDBRANCH  34  48
BRANCH  37  50
ATOM     50  O   UNL     1     -27.817  44.682  35.247  1.00  0.00    -0.508 OA
ATOM     51  H   UNL     1     -28.136  43.994  34.555  1.00  0.00     0.293 HD
ENDBRANCH  37  50
ENDBRANCH  26  27
ENDBRANCH   5  26
BRANCH   4  52
ATOM     52  O   UNL     1     -27.851  53.938  34.746  1.00  0.00    -0.384 OA
ATOM     53  H   UNL     1     -28.475  53.809  33.959  1.00  0.00     0.211 HD
ENDBRANCH   4  52
TORSDOF 16
ENDMDL
MODEL 6
REMARK VINA RESULT:    -4.448      9.392     13.199
REMARK INTER + INTRA:         -10.421
REMARK INTER:                  -7.676
REMARK INTRA:                  -2.745
REMARK UNBOUND:                -3.112
REMARK SMILES C[C@@H]1O[C@H](OC[C@H]2O[C@@H](Oc3c(-c4ccc(O)c(O)c4)oc4cc(O)cc(O)c4c3=O)[C@H](O)[C@@H](O)[C@H]2O)[C@@H](O)[C@H](O)[C@@H]1O
REMARK SMILES IDX 7 1 36 2 34 3 32 4 9 5 8 6 6 7 5 8 4 9 1 10 2 11 42 12 3 13
REMARK SMILES IDX 40 14 38 15 43 16 41 18 39 20 37 22 35 24 10 26 11 27 12 28
REMARK SMILES IDX 30 29 21 30 29 31 31 32 22 33 27 34 23 35 26 36 24 37 13 38
REMARK SMILES IDX 20 39 14 40 18 41 15 42 16 43 19 44 17 46 28 48 25 50 33 52
REMARK H PARENT 43 17 41 19 39 21 37 23 35 25 19 45 17 47 28 49 25 51 33 53
REMARK Flexibility Score: inf
ROOT
ATOM      1  C   UNL     1     -20.165  51.988  37.355  1.00  0.00     0.180 C 
ATOM      2  C   UNL     1     -18.660  52.227  37.819  1.00  0.00     0.177 C 
ATOM      3  C   UNL     1     -17.566  51.668  36.858  1.00  0.00     0.180 C 
ATOM      4  C   UNL     1     -18.220  50.755  35.775  1.00  0.00     0.214 C 
ATOM      5  C   UNL     1     -19.288  49.911  36.507  1.00  0.00     0.339 C 
ATOM      6  O   UNL     1     -20.398  50.773  36.625  1.00  0.00    -0.332 OA
ENDROOT
BRANCH   1   7
ATOM      7  C   UNL     1     -20.878  53.169  36.619  1.00  0.00     0.198 C 
BRANCH   7   8
ATOM      8  O   UNL     1     -20.172  53.508  35.428  1.00  0.00    -0.347 OA
BRANCH   8   9
ATOM      9  C   UNL     1     -19.765  54.859  35.306  1.00  0.00     0.281 C 
ATOM     10  C   UNL     1     -16.609  56.743  35.656  1.00  0.00     0.041 C 
ATOM     11  C   UNL     1     -18.151  56.487  35.963  1.00  0.00     0.150 C 
ATOM     12  C   UNL     1     -19.094  57.494  35.163  1.00  0.00     0.174 C 
ATOM     13  O   UNL     1     -18.424  55.090  35.767  1.00  0.00    -0.344 OA
ATOM     14  C   UNL     1     -19.386  56.920  33.770  1.00  0.00     0.179 C 
ATOM     15  C   UNL     1     -20.033  55.524  33.906  1.00  0.00     0.202 C 
BRANCH  12  16
ATOM     16  O   UNL     1     -18.479  58.750  35.055  1.00  0.00    -0.388 OA
ATOM     17  H   UNL     1     -18.577  59.200  35.928  1.00  0.00     0.211 HD
ENDBRANCH  12  16
BRANCH  14  18
ATOM     18  O   UNL     1     -18.159  56.763  33.044  1.00  0.00    -0.387 OA
ATOM     19  H   UNL     1     -17.726  57.636  33.075  1.00  0.00     0.211 HD
ENDBRANCH  14  18
BRANCH  15  20
ATOM     20  O   UNL     1     -21.405  55.655  33.755  1.00  0.00    -0.385 OA
ATOM     21  H   UNL     1     -21.917  55.283  34.526  1.00  0.00     0.211 HD
ENDBRANCH  15  20
ENDBRANCH   8   9
ENDBRANCH   7   8
ENDBRANCH   1   7
BRANCH   2  22
ATOM     22  O   UNL     1     -18.436  53.572  38.145  1.00  0.00    -0.387 OA
ATOM     23  H   UNL     1     -19.191  53.889  38.713  1.00  0.00     0.211 HD
ENDBRANCH   2  22
BRANCH   3  24
ATOM     24  O   UNL     1     -16.820  52.620  36.185  1.00  0.00    -0.387 OA
ATOM     25  H   UNL     1     -16.880  53.501  36.638  1.00  0.00     0.211 HD
ENDBRANCH   3  24
BRANCH   5  26
ATOM     26  O   UNL     1     -19.721  48.707  35.884  1.00  0.00    -0.454 OA
BRANCH  26  27
ATOM     27  C   UNL     1     -20.979  48.584  35.261  1.00  0.00     0.214 A 
ATOM     28  C   UNL     1     -21.233  48.967  33.893  1.00  0.00     0.180 A 
ATOM     29  C   UNL     1     -22.050  48.063  35.995  1.00  0.00     0.239 A 
ATOM     30  O   UNL     1     -22.444  48.863  33.409  1.00  0.00    -0.452 OA
ATOM     31  C   UNL     1     -23.260  47.781  35.363  1.00  0.00     0.111 A 
ATOM     32  O   UNL     1     -21.841  47.774  37.185  1.00  0.00    -0.285 OA
ATOM     33  C   UNL     1     -23.425  48.241  34.027  1.00  0.00     0.146 A 
ATOM     34  C   UNL     1     -24.284  47.056  35.962  1.00  0.00     0.134 A 
ATOM     35  C   UNL     1     -24.620  47.992  33.334  1.00  0.00     0.094 A 
ATOM     36  C   UNL     1     -25.373  46.598  35.181  1.00  0.00     0.093 A 
ATOM     37  C   UNL     1     -25.508  47.048  33.846  1.00  0.00     0.123 A 
BRANCH  28  38
ATOM     38  C   UNL     1     -20.165  49.140  32.880  1.00  0.00     0.025 A 
ATOM     39  C   UNL     1     -19.161  48.174  32.535  1.00  0.00     0.062 A 
ATOM     40  C   UNL     1     -20.403  50.204  31.914  1.00  0.00     0.016 A 
ATOM     41  C   UNL     1     -18.661  48.223  31.188  1.00  0.00     0.158 A 
ATOM     42  C   UNL     1     -20.400  49.850  30.528  1.00  0.00     0.051 A 
ATOM     43  C   UNL     1     -19.317  49.017  30.236  1.00  0.00     0.157 A 
BRANCH  41  44
ATOM     44  O   UNL     1     -17.507  47.564  30.838  1.00  0.00    -0.504 OA
ATOM     45  H   UNL     1     -16.933  47.078  31.530  1.00  0.00     0.293 HD
ENDBRANCH  41  44
BRANCH  43  46
ATOM     46  O   UNL     1     -18.882  48.880  28.900  1.00  0.00    -0.504 OA
ATOM     47  H   UNL     1     -18.639  47.968  28.489  1.00  0.00     0.293 HD
ENDBRANCH  43  46
ENDBRANCH  28  38
BRANCH  34  48
ATOM     48  O   UNL     1     -24.199  46.679  37.339  1.00  0.00    -0.507 OA
ATOM     49  H   UNL     1     -24.929  46.100  37.827  1.00  0.00     0.293 HD
ENDBRANCH  34  48
BRANCH  37  50
ATOM     50  O   UNL     1     -26.426  46.399  32.986  1.00  0.00    -0.508 OA
ATOM     51  H   UNL     1     -26.088  45.812  32.214  1.00  0.00     0.293 HD
ENDBRANCH  37  50
ENDBRANCH  26  27
ENDBRANCH   5  26
BRANCH   4  52
ATOM     52  O   UNL     1     -17.306  50.024  34.970  1.00  0.00    -0.384 OA
ATOM     53  H   UNL     1     -17.204  50.507  34.085  1.00  0.00     0.211 HD
ENDBRANCH   4  52
TORSDOF 16
ENDMDL
MODEL 7
REMARK VINA RESULT:    -4.444      8.441     11.697
REMARK INTER + INTRA:         -10.414
REMARK INTER:                  -7.800
REMARK INTRA:                  -2.614
REMARK UNBOUND:                -3.112
REMARK SMILES C[C@@H]1O[C@H](OC[C@H]2O[C@@H](Oc3c(-c4ccc(O)c(O)c4)oc4cc(O)cc(O)c4c3=O)[C@H](O)[C@@H](O)[C@H]2O)[C@@H](O)[C@H](O)[C@@H]1O
REMARK SMILES IDX 7 1 36 2 34 3 32 4 9 5 8 6 6 7 5 8 4 9 1 10 2 11 42 12 3 13
REMARK SMILES IDX 40 14 38 15 43 16 41 18 39 20 37 22 35 24 10 26 11 27 12 28
REMARK SMILES IDX 30 29 21 30 29 31 31 32 22 33 27 34 23 35 26 36 24 37 13 38
REMARK SMILES IDX 20 39 14 40 18 41 15 42 16 43 19 44 17 46 28 48 25 50 33 52
REMARK H PARENT 43 17 41 19 39 21 37 23 35 25 19 45 17 47 28 49 25 51 33 53
REMARK Flexibility Score: inf
ROOT
ATOM      1  C   UNL     1     -21.910  52.372  36.202  1.00  0.00     0.180 C 
ATOM      2  C   UNL     1     -20.591  51.514  36.453  1.00  0.00     0.177 C 
ATOM      3  C   UNL     1     -19.734  51.215  35.185  1.00  0.00     0.180 C 
ATOM      4  C   UNL     1     -20.524  51.612  33.900  1.00  0.00     0.214 C 
ATOM      5  C   UNL     1     -21.982  51.151  34.127  1.00  0.00     0.339 C 
ATOM      6  O   UNL     1     -22.548  52.161  34.933  1.00  0.00    -0.332 OA
ENDROOT
BRANCH   1   7
ATOM      7  C   UNL     1     -21.822  53.909  36.478  1.00  0.00     0.198 C 
BRANCH   7   8
ATOM      8  O   UNL     1     -21.412  54.599  35.301  1.00  0.00    -0.347 OA
BRANCH   8   9
ATOM      9  C   UNL     1     -20.237  55.383  35.413  1.00  0.00     0.281 C 
ATOM     10  C   UNL     1     -16.608  54.744  35.646  1.00  0.00     0.041 C 
ATOM     11  C   UNL     1     -17.965  55.417  36.138  1.00  0.00     0.150 C 
ATOM     12  C   UNL     1     -18.043  56.960  35.743  1.00  0.00     0.174 C 
ATOM     13  O   UNL     1     -19.062  54.604  35.687  1.00  0.00    -0.344 OA
ATOM     14  C   UNL     1     -18.614  57.096  34.325  1.00  0.00     0.179 C 
ATOM     15  C   UNL     1     -20.002  56.423  34.256  1.00  0.00     0.202 C 
BRANCH  12  16
ATOM     16  O   UNL     1     -16.768  57.542  35.814  1.00  0.00    -0.388 OA
ATOM     17  H   UNL     1     -16.339  57.208  36.639  1.00  0.00     0.211 HD
ENDBRANCH  12  16
BRANCH  14  18
ATOM     18  O   UNL     1     -17.757  56.424  33.392  1.00  0.00    -0.387 OA
ATOM     19  H   UNL     1     -18.191  55.571  33.208  1.00  0.00     0.211 HD
ENDBRANCH  14  18
BRANCH  15  20
ATOM     20  O   UNL     1     -20.976  57.404  34.364  1.00  0.00    -0.385 OA
ATOM     21  H   UNL     1     -21.575  57.447  33.568  1.00  0.00     0.211 HD
ENDBRANCH  15  20
ENDBRANCH   8   9
ENDBRANCH   7   8
ENDBRANCH   1   7
BRANCH   2  22
ATOM     22  O   UNL     1     -19.822  52.056  37.492  1.00  0.00    -0.387 OA
ATOM     23  H   UNL     1     -19.917  53.049  37.470  1.00  0.00     0.211 HD
ENDBRANCH   2  22
BRANCH   3  24
ATOM     24  O   UNL     1     -18.514  51.864  35.124  1.00  0.00    -0.387 OA
ATOM     25  H   UNL     1     -18.484  52.622  35.764  1.00  0.00     0.211 HD
ENDBRANCH   3  24
BRANCH   5  26
ATOM     26  O   UNL     1     -22.808  50.979  32.980  1.00  0.00    -0.454 OA
BRANCH  26  27
ATOM     27  C   UNL     1     -23.103  49.711  32.441  1.00  0.00     0.214 A 
ATOM     28  C   UNL     1     -24.026  48.781  33.048  1.00  0.00     0.180 A 
ATOM     29  C   UNL     1     -22.478  49.317  31.253  1.00  0.00     0.239 A 
ATOM     30  O   UNL     1     -24.206  47.606  32.505  1.00  0.00    -0.452 OA
ATOM     31  C   UNL     1     -22.868  48.142  30.613  1.00  0.00     0.111 A 
ATOM     32  O   UNL     1     -21.652  50.099  30.756  1.00  0.00    -0.285 OA
ATOM     33  C   UNL     1     -23.747  47.273  31.316  1.00  0.00     0.146 A 
ATOM     34  C   UNL     1     -22.464  47.803  29.327  1.00  0.00     0.134 A 
ATOM     35  C   UNL     1     -24.178  46.072  30.731  1.00  0.00     0.094 A 
ATOM     36  C   UNL     1     -23.093  46.727  28.652  1.00  0.00     0.093 A 
ATOM     37  C   UNL     1     -23.983  45.887  29.362  1.00  0.00     0.123 A 
BRANCH  28  38
ATOM     38  C   UNL     1     -25.053  49.178  34.040  1.00  0.00     0.025 A 
ATOM     39  C   UNL     1     -25.835  50.382  34.014  1.00  0.00     0.062 A 
ATOM     40  C   UNL     1     -25.560  48.091  34.865  1.00  0.00     0.016 A 
ATOM     41  C   UNL     1     -27.139  50.312  34.615  1.00  0.00     0.158 A 
ATOM     42  C   UNL     1     -26.971  47.857  34.855  1.00  0.00     0.051 A 
ATOM     43  C   UNL     1     -27.670  49.063  34.969  1.00  0.00     0.157 A 
BRANCH  41  44
ATOM     44  O   UNL     1     -27.842  51.453  34.915  1.00  0.00    -0.504 OA
ATOM     45  H   UNL     1     -27.696  52.326  34.404  1.00  0.00     0.293 HD
ENDBRANCH  41  44
BRANCH  43  46
ATOM     46  O   UNL     1     -29.018  49.050  35.387  1.00  0.00    -0.504 OA
ATOM     47  H   UNL     1     -29.311  49.382  36.317  1.00  0.00     0.293 HD
ENDBRANCH  43  46
ENDBRANCH  28  38
BRANCH  34  48
ATOM     48  O   UNL     1     -21.492  48.592  28.637  1.00  0.00    -0.507 OA
ATOM     49  H   UNL     1     -21.437  48.657  27.589  1.00  0.00     0.293 HD
ENDBRANCH  34  48
BRANCH  37  50
ATOM     50  O   UNL     1     -24.809  44.988  28.645  1.00  0.00    -0.508 OA
ATOM     51  H   UNL     1     -24.428  44.101  28.295  1.00  0.00     0.293 HD
ENDBRANCH  37  50
ENDBRANCH  26  27
ENDBRANCH   5  26
BRANCH   4  52
ATOM     52  O   UNL     1     -19.933  51.197  32.675  1.00  0.00    -0.384 OA
ATOM     53  H   UNL     1     -19.591  52.019  32.193  1.00  0.00     0.211 HD
ENDBRANCH   4  52
TORSDOF 16
ENDMDL
MODEL 8
REMARK VINA RESULT:    -4.434      6.774     12.031
REMARK INTER + INTRA:         -10.397
REMARK INTER:                  -7.009
REMARK INTRA:                  -3.388
REMARK UNBOUND:                -3.112
REMARK SMILES C[C@@H]1O[C@H](OC[C@H]2O[C@@H](Oc3c(-c4ccc(O)c(O)c4)oc4cc(O)cc(O)c4c3=O)[C@H](O)[C@@H](O)[C@H]2O)[C@@H](O)[C@H](O)[C@@H]1O
REMARK SMILES IDX 7 1 36 2 34 3 32 4 9 5 8 6 6 7 5 8 4 9 1 10 2 11 42 12 3 13
REMARK SMILES IDX 40 14 38 15 43 16 41 18 39 20 37 22 35 24 10 26 11 27 12 28
REMARK SMILES IDX 30 29 21 30 29 31 31 32 22 33 27 34 23 35 26 36 24 37 13 38
REMARK SMILES IDX 20 39 14 40 18 41 15 42 16 43 19 44 17 46 28 48 25 50 33 52
REMARK H PARENT 43 17 41 19 39 21 37 23 35 25 19 45 17 47 28 49 25 51 33 53
REMARK Flexibility Score: inf
ROOT
ATOM      1  C   UNL     1     -23.657  49.983  30.808  1.00  0.00     0.180 C 
ATOM      2  C   UNL     1     -24.973  50.741  30.323  1.00  0.00     0.177 C 
ATOM      3  C   UNL     1     -25.350  52.016  31.138  1.00  0.00     0.180 C 
ATOM      4  C   UNL     1     -24.479  52.104  32.429  1.00  0.00     0.214 C 
ATOM      5  C   UNL     1     -24.396  50.668  32.996  1.00  0.00     0.339 C 
ATOM      6  O   UNL     1     -23.400  50.040  32.219  1.00  0.00    -0.332 OA
ENDROOT
BRANCH   1   7
ATOM      7  C   UNL     1     -22.333  50.294  30.035  1.00  0.00     0.198 C 
BRANCH   7   8
ATOM      8  O   UNL     1     -21.752  49.088  29.547  1.00  0.00    -0.347 OA
BRANCH   8   9
ATOM      9  C   UNL     1     -20.637  48.595  30.269  1.00  0.00     0.281 C 
ATOM     10  C   UNL     1     -19.957  45.756  32.529  1.00  0.00     0.041 C 
ATOM     11  C   UNL     1     -19.932  47.301  32.145  1.00  0.00     0.150 C 
ATOM     12  C   UNL     1     -18.475  47.785  31.713  1.00  0.00     0.174 C 
ATOM     13  O   UNL     1     -20.977  47.545  31.188  1.00  0.00    -0.344 OA
ATOM     14  C   UNL     1     -18.272  47.519  30.215  1.00  0.00     0.179 C 
ATOM     15  C   UNL     1     -19.372  48.238  29.404  1.00  0.00     0.202 C 
BRANCH  12  16
ATOM     16  O   UNL     1     -17.500  47.113  32.465  1.00  0.00    -0.388 OA
ATOM     17  H   UNL     1     -16.717  46.980  31.877  1.00  0.00     0.211 HD
ENDBRANCH  12  16
BRANCH  14  18
ATOM     18  O   UNL     1     -18.388  46.113  29.954  1.00  0.00    -0.387 OA
ATOM     19  H   UNL     1     -17.887  45.675  30.667  1.00  0.00     0.211 HD
ENDBRANCH  14  18
BRANCH  15  20
ATOM     20  O   UNL     1     -18.852  49.422  28.906  1.00  0.00    -0.385 OA
ATOM     21  H   UNL     1     -18.915  50.177  29.555  1.00  0.00     0.211 HD
ENDBRANCH  15  20
ENDBRANCH   8   9
ENDBRANCH   7   8
ENDBRANCH   1   7
BRANCH   2  22
ATOM     22  O   UNL     1     -24.938  50.989  28.944  1.00  0.00    -0.387 OA
ATOM     23  H   UNL     1     -24.453  51.846  28.790  1.00  0.00     0.211 HD
ENDBRANCH   2  22
BRANCH   3  24
ATOM     24  O   UNL     1     -25.201  53.217  30.468  1.00  0.00    -0.387 OA
ATOM     25  H   UNL     1     -25.621  53.176  29.570  1.00  0.00     0.211 HD
ENDBRANCH   3  24
BRANCH   5  26
ATOM     26  O   UNL     1     -24.054  50.518  34.369  1.00  0.00    -0.454 OA
BRANCH  26  27
ATOM     27  C   UNL     1     -22.842  49.937  34.791  1.00  0.00     0.214 A 
ATOM     28  C   UNL     1     -22.716  48.558  35.198  1.00  0.00     0.180 A 
ATOM     29  C   UNL     1     -21.687  50.726  34.821  1.00  0.00     0.239 A 
ATOM     30  O   UNL     1     -21.561  48.113  35.620  1.00  0.00    -0.452 OA
ATOM     31  C   UNL     1     -20.447  50.144  35.078  1.00  0.00     0.111 A 
ATOM     32  O   UNL     1     -21.805  51.924  34.513  1.00  0.00    -0.285 OA
ATOM     33  C   UNL     1     -20.437  48.790  35.516  1.00  0.00     0.146 A 
ATOM     34  C   UNL     1     -19.239  50.808  34.900  1.00  0.00     0.134 A 
ATOM     35  C   UNL     1     -19.223  48.143  35.794  1.00  0.00     0.094 A 
ATOM     36  C   UNL     1     -18.023  50.082  34.941  1.00  0.00     0.093 A 
ATOM     37  C   UNL     1     -18.036  48.729  35.356  1.00  0.00     0.123 A 
BRANCH  28  38
ATOM     38  C   UNL     1     -23.702  47.508  34.846  1.00  0.00     0.025 A 
ATOM     39  C   UNL     1     -25.054  47.422  35.322  1.00  0.00     0.062 A 
ATOM     40  C   UNL     1     -23.387  46.749  33.644  1.00  0.00     0.016 A 
ATOM     41  C   UNL     1     -26.002  46.789  34.447  1.00  0.00     0.158 A 
ATOM     42  C   UNL     1     -24.362  46.734  32.598  1.00  0.00     0.051 A 
ATOM     43  C   UNL     1     -25.639  46.510  33.121  1.00  0.00     0.157 A 
BRANCH  41  44
ATOM     44  O   UNL     1     -27.230  46.384  34.910  1.00  0.00    -0.504 OA
ATOM     45  H   UNL     1     -27.351  45.991  35.846  1.00  0.00     0.293 HD
ENDBRANCH  41  44
BRANCH  43  46
ATOM     46  O   UNL     1     -26.670  46.053  32.272  1.00  0.00    -0.504 OA
ATOM     47  H   UNL     1     -26.593  45.182  31.729  1.00  0.00     0.293 HD
ENDBRANCH  43  46
ENDBRANCH  28  38
BRANCH  34  48
ATOM     48  O   UNL     1     -19.216  52.200  34.574  1.00  0.00    -0.507 OA
ATOM     49  H   UNL     1     -18.375  52.815  34.721  1.00  0.00     0.293 HD
ENDBRANCH  34  48
BRANCH  37  50
ATOM     50  O   UNL     1     -16.886  47.929  35.147  1.00  0.00    -0.508 OA
ATOM     51  H   UNL     1     -16.221  47.769  35.913  1.00  0.00     0.293 HD
ENDBRANCH  37  50
ENDBRANCH  26  27
ENDBRANCH   5  26
BRANCH   4  52
ATOM     52  O   UNL     1     -24.871  53.108  33.355  1.00  0.00    -0.384 OA
ATOM     53  H   UNL     1     -25.323  53.855  32.842  1.00  0.00     0.211 HD
ENDBRANCH   4  52
TORSDOF 16
ENDMDL
MODEL 9
REMARK VINA RESULT:    -4.364      2.107      5.948
REMARK INTER + INTRA:         -10.282
REMARK INTER:                  -7.032
REMARK INTRA:                  -3.251
REMARK UNBOUND:                -3.112
REMARK SMILES C[C@@H]1O[C@H](OC[C@H]2O[C@@H](Oc3c(-c4ccc(O)c(O)c4)oc4cc(O)cc(O)c4c3=O)[C@H](O)[C@@H](O)[C@H]2O)[C@@H](O)[C@H](O)[C@@H]1O
REMARK SMILES IDX 7 1 36 2 34 3 32 4 9 5 8 6 6 7 5 8 4 9 1 10 2 11 42 12 3 13
REMARK SMILES IDX 40 14 38 15 43 16 41 18 39 20 37 22 35 24 10 26 11 27 12 28
REMARK SMILES IDX 30 29 21 30 29 31 31 32 22 33 27 34 23 35 26 36 24 37 13 38
REMARK SMILES IDX 20 39 14 40 18 41 15 42 16 43 19 44 17 46 28 48 25 50 33 52
REMARK H PARENT 43 17 41 19 39 21 37 23 35 25 19 45 17 47 28 49 25 51 33 53
REMARK Flexibility Score: inf
ROOT
ATOM      1  C   UNL     1     -31.268  44.430  36.297  1.00  0.00     0.180 C 
ATOM      2  C   UNL     1     -30.973  43.032  37.004  1.00  0.00     0.177 C 
ATOM      3  C   UNL     1     -30.598  43.112  38.515  1.00  0.00     0.180 C 
ATOM      4  C   UNL     1     -30.337  44.594  38.924  1.00  0.00     0.214 C 
ATOM      5  C   UNL     1     -29.534  45.230  37.765  1.00  0.00     0.339 C 
ATOM      6  O   UNL     1     -30.508  45.542  36.794  1.00  0.00    -0.332 OA
ENDROOT
BRANCH   1   7
ATOM      7  C   UNL     1     -32.766  44.856  36.161  1.00  0.00     0.198 C 
BRANCH   7   8
ATOM      8  O   UNL     1     -33.546  44.253  37.191  1.00  0.00    -0.347 OA
BRANCH   8   9
ATOM      9  C   UNL     1     -34.047  45.126  38.188  1.00  0.00     0.281 C 
ATOM     10  C   UNL     1     -33.531  45.627  41.809  1.00  0.00     0.041 C 
ATOM     11  C   UNL     1     -34.444  45.414  40.521  1.00  0.00     0.150 C 
ATOM     12  C   UNL     1     -35.148  46.768  40.059  1.00  0.00     0.174 C 
ATOM     13  O   UNL     1     -33.661  44.746  39.518  1.00  0.00    -0.344 OA
ATOM     14  C   UNL     1     -34.204  47.543  39.129  1.00  0.00     0.179 C 
ATOM     15  C   UNL     1     -33.823  46.660  37.921  1.00  0.00     0.202 C 
BRANCH  12  16
ATOM     16  O   UNL     1     -35.480  47.548  41.178  1.00  0.00    -0.388 OA
ATOM     17  H   UNL     1     -35.841  46.936  41.864  1.00  0.00     0.211 HD
ENDBRANCH  12  16
BRANCH  14  18
ATOM     18  O   UNL     1     -32.995  47.867  39.830  1.00  0.00    -0.387 OA
ATOM     19  H   UNL     1     -32.394  47.117  39.671  1.00  0.00     0.211 HD
ENDBRANCH  14  18
BRANCH  15  20
ATOM     20  O   UNL     1     -34.615  47.022  36.842  1.00  0.00    -0.385 OA
ATOM     21  H   UNL     1     -35.571  46.762  36.957  1.00  0.00     0.211 HD
ENDBRANCH  15  20
ENDBRANCH   8   9
ENDBRANCH   7   8
ENDBRANCH   1   7
BRANCH   2  22
ATOM     22  O   UNL     1     -32.006  42.115  36.766  1.00  0.00    -0.387 OA
ATOM     23  H   UNL     1     -32.235  42.141  35.796  1.00  0.00     0.211 HD
ENDBRANCH   2  22
BRANCH   3  24
ATOM     24  O   UNL     1     -31.545  42.613  39.392  1.00  0.00    -0.387 OA
ATOM     25  H   UNL     1     -31.890  43.329  39.984  1.00  0.00     0.211 HD
ENDBRANCH   3  24
BRANCH   5  26
ATOM     26  O   UNL     1     -28.788  46.408  38.046  1.00  0.00    -0.454 OA
BRANCH  26  27
ATOM     27  C   UNL     1     -28.929  47.593  37.298  1.00  0.00     0.214 A 
ATOM     28  C   UNL     1     -28.117  47.913  36.148  1.00  0.00     0.180 A 
ATOM     29  C   UNL     1     -29.907  48.520  37.674  1.00  0.00     0.239 A 
ATOM     30  O   UNL     1     -28.285  49.058  35.538  1.00  0.00    -0.452 OA
ATOM     31  C   UNL     1     -30.178  49.621  36.863  1.00  0.00     0.111 A 
ATOM     32  O   UNL     1     -30.575  48.265  38.690  1.00  0.00    -0.285 OA
ATOM     33  C   UNL     1     -29.290  49.873  35.781  1.00  0.00     0.146 A 
ATOM     34  C   UNL     1     -31.277  50.452  37.046  1.00  0.00     0.134 A 
ATOM     35  C   UNL     1     -29.504  50.965  34.926  1.00  0.00     0.094 A 
ATOM     36  C   UNL     1     -31.624  51.392  36.044  1.00  0.00     0.093 A 
ATOM     37  C   UNL     1     -30.739  51.611  34.962  1.00  0.00     0.123 A 
BRANCH  28  38
ATOM     38  C   UNL     1     -27.347  46.903  35.384  1.00  0.00     0.025 A 
ATOM     39  C   UNL     1     -26.162  46.226  35.829  1.00  0.00     0.062 A 
ATOM     40  C   UNL     1     -28.070  46.288  34.279  1.00  0.00     0.016 A 
ATOM     41  C   UNL     1     -25.939  44.908  35.300  1.00  0.00     0.158 A 
ATOM     42  C   UNL     1     -28.191  44.863  34.281  1.00  0.00     0.051 A 
ATOM     43  C   UNL     1     -26.965  44.267  34.590  1.00  0.00     0.157 A 
BRANCH  41  44
ATOM     44  O   UNL     1     -24.713  44.299  35.413  1.00  0.00    -0.504 OA
ATOM     45  H   UNL     1     -23.857  44.836  35.568  1.00  0.00     0.293 HD
ENDBRANCH  41  44
BRANCH  43  46
ATOM     46  O   UNL     1     -26.743  42.914  34.254  1.00  0.00    -0.504 OA
ATOM     47  H   UNL     1     -25.855  42.584  33.850  1.00  0.00     0.293 HD
ENDBRANCH  43  46
ENDBRANCH  28  38
BRANCH  34  48
ATOM     48  O   UNL     1     -32.123  50.299  38.188  1.00  0.00    -0.507 OA
ATOM     49  H   UNL     1     -31.828  50.555  39.165  1.00  0.00     0.293 HD
ENDBRANCH  34  48
BRANCH  37  50
ATOM     50  O   UNL     1     -31.191  52.339  33.834  1.00  0.00    -0.508 OA
ATOM     51  H   UNL     1     -31.167  53.365  33.836  1.00  0.00     0.293 HD
ENDBRANCH  37  50
ENDBRANCH  26  27
ENDBRANCH   5  26
BRANCH   4  52
ATOM     52  O   UNL     1     -29.786  44.774  40.223  1.00  0.00    -0.384 OA
ATOM     53  H   UNL     1     -29.785  43.878  40.695  1.00  0.00     0.211 HD
ENDBRANCH   4  52
TORSDOF 16
ENDMDL
