MODEL 1
REMARK VINA RESULT:    -4.939      0.000      0.000
REMARK INTER + INTRA:         -11.716
REMARK INTER:                  -9.558
REMARK INTRA:                  -2.158
REMARK UNBOUND:                -2.158
REMARK SMILES CCCCCCCCCCCCCCCCCC(=O)[O-]
REMARK SMILES IDX 10 1 11 2 12 3 13 4 14 5 15 6 16 7 17 8 18 9 19 10 20 11
REMARK SMILES IDX 9 12 8 13 7 14 6 15 5 16 4 17 3 18 2 19 1 20
REMARK H PARENT
REMARK Flexibility Score: inf
ROOT
ATOM      1  C   UNL     1      17.289 -32.346  22.946  1.00  0.00     0.000 C 
ENDROOT
BRANCH   1   2
ATOM      2  C   UNL     1      15.772 -32.216  23.158  1.00  0.00     0.000 C 
BRANCH   2   3
ATOM      3  C   UNL     1      14.965 -33.137  22.225  1.00  0.00     0.000 C 
BRANCH   3   4
ATOM      4  C   UNL     1      14.350 -32.377  21.038  1.00  0.00     0.000 C 
BRANCH   4   5
ATOM      5  C   UNL     1      14.076 -30.900  21.359  1.00  0.00     0.000 C 
BRANCH   5   6
ATOM      6  C   UNL     1      12.780 -30.744  22.168  1.00  0.00     0.000 C 
BRANCH   6   7
ATOM      7  C   UNL     1      12.979 -29.931  23.457  1.00  0.00     0.006 C 
BRANCH   7   8
ATOM      8  C   UNL     1      12.146 -28.641  23.478  1.00  0.00     0.053 C 
BRANCH   8   9
ATOM      9  C   UNL     1      12.982 -27.487  23.933  1.00  0.00     0.041 C 
ATOM     10  O   UNL     1      12.724 -26.903  25.018  1.00  0.00    -0.550 OA
ATOM     11  O   UNL     1      14.064 -27.069  23.166  1.00  0.00    -0.550 OA
ENDBRANCH   8   9
ENDBRANCH   7   8
ENDBRANCH   6   7
ENDBRANCH   5   6
ENDBRANCH   4   5
ENDBRANCH   3   4
ENDBRANCH   2   3
ENDBRANCH   1   2
BRANCH   1  12
ATOM     12  C   UNL     1      17.869 -31.221  22.070  1.00  0.00     0.000 C 
BRANCH  12  13
ATOM     13  C   UNL     1      18.070 -31.674  20.607  1.00  0.00    -0.000 C 
BRANCH  13  14
ATOM     14  C   UNL     1      19.088 -32.816  20.443  1.00  0.00    -0.000 C 
BRANCH  14  15
ATOM     15  C   UNL     1      18.696 -33.815  19.343  1.00  0.00    -0.000 C 
BRANCH  15  16
ATOM     16  C   UNL     1      17.190 -33.797  19.022  1.00  0.00    -0.000 C 
BRANCH  16  17
ATOM     17  C   UNL     1      16.430 -35.088  19.381  1.00  0.00    -0.000 C 
BRANCH  17  18
ATOM     18  C   UNL     1      17.003 -35.797  20.622  1.00  0.00    -0.000 C 
BRANCH  18  19
ATOM     19  C   UNL     1      17.564 -37.190  20.298  1.00  0.00    -0.003 C 
ATOM     20  C   UNL     1      17.587 -37.482  18.798  1.00  0.00     0.004 C 
ENDBRANCH  18  19
ENDBRANCH  17  18
ENDBRANCH  16  17
ENDBRANCH  15  16
ENDBRANCH  14  15
ENDBRANCH  13  14
ENDBRANCH  12  13
ENDBRANCH   1  12
TORSDOF 16
ENDMDL
MODEL 2
REMARK VINA RESULT:    -4.903      1.654      3.316
REMARK INTER + INTRA:         -11.646
REMARK INTER:                  -8.644
REMARK INTRA:                  -3.002
REMARK UNBOUND:                -2.158
REMARK SMILES CCCCCCCCCCCCCCCCCC(=O)[O-]
REMARK SMILES IDX 10 1 11 2 12 3 13 4 14 5 15 6 16 7 17 8 18 9 19 10 20 11
REMARK SMILES IDX 9 12 8 13 7 14 6 15 5 16 4 17 3 18 2 19 1 20
REMARK H PARENT
REMARK Flexibility Score: inf
ROOT
ATOM      1  C   UNL     1      17.874 -33.512  19.783  1.00  0.00     0.000 C 
ENDROOT
BRANCH   1   2
ATOM      2  C   UNL     1      16.346 -33.617  19.645  1.00  0.00     0.000 C 
BRANCH   2   3
ATOM      3  C   UNL     1      15.680 -34.216  20.896  1.00  0.00     0.000 C 
BRANCH   3   4
ATOM      4  C   UNL     1      14.629 -33.276  21.510  1.00  0.00     0.000 C 
BRANCH   4   5
ATOM      5  C   UNL     1      13.884 -32.450  20.451  1.00  0.00     0.000 C 
BRANCH   5   6
ATOM      6  C   UNL     1      13.659 -31.010  20.936  1.00  0.00     0.000 C 
BRANCH   6   7
ATOM      7  C   UNL     1      12.802 -30.939  22.209  1.00  0.00     0.006 C 
BRANCH   7   8
ATOM      8  C   UNL     1      13.389 -29.994  23.267  1.00  0.00     0.053 C 
BRANCH   8   9
ATOM      9  C   UNL     1      12.457 -28.852  23.523  1.00  0.00     0.041 C 
ATOM     10  O   UNL     1      12.781 -27.934  24.322  1.00  0.00    -0.550 OA
ATOM     11  O   UNL     1      11.238 -28.790  22.859  1.00  0.00    -0.550 OA
ENDBRANCH   8   9
ENDBRANCH   7   8
ENDBRANCH   6   7
ENDBRANCH   5   6
ENDBRANCH   4   5
ENDBRANCH   3   4
ENDBRANCH   2   3
ENDBRANCH   1   2
BRANCH   1  12
ATOM     12  C   UNL     1      18.310 -32.400  20.755  1.00  0.00     0.000 C 
BRANCH  12  13
ATOM     13  C   UNL     1      17.533 -31.087  20.518  1.00  0.00    -0.000 C 
BRANCH  13  14
ATOM     14  C   UNL     1      17.113 -30.370  21.813  1.00  0.00    -0.000 C 
BRANCH  14  15
ATOM     15  C   UNL     1      17.780 -30.958  23.067  1.00  0.00    -0.000 C 
BRANCH  15  16
ATOM     16  C   UNL     1      16.795 -31.721  23.971  1.00  0.00    -0.000 C 
BRANCH  16  17
ATOM     17  C   UNL     1      17.370 -32.979  24.648  1.00  0.00    -0.000 C 
BRANCH  17  18
ATOM     18  C   UNL     1      16.426 -34.193  24.561  1.00  0.00    -0.000 C 
BRANCH  18  19
ATOM     19  C   UNL     1      17.158 -35.480  24.153  1.00  0.00    -0.003 C 
ATOM     20  C   UNL     1      18.350 -35.215  23.235  1.00  0.00     0.004 C 
ENDBRANCH  18  19
ENDBRANCH  17  18
ENDBRANCH  16  17
ENDBRANCH  15  16
ENDBRANCH  14  15
ENDBRANCH  13  14
ENDBRANCH  12  13
ENDBRANCH   1  12
TORSDOF 16
ENDMDL
MODEL 3
REMARK VINA RESULT:    -4.880      4.787      7.012
REMARK INTER + INTRA:         -11.601
REMARK INTER:                  -9.845
REMARK INTRA:                  -1.756
REMARK UNBOUND:                -2.158
REMARK SMILES CCCCCCCCCCCCCCCCCC(=O)[O-]
REMARK SMILES IDX 10 1 11 2 12 3 13 4 14 5 15 6 16 7 17 8 18 9 19 10 20 11
REMARK SMILES IDX 9 12 8 13 7 14 6 15 5 16 4 17 3 18 2 19 1 20
REMARK H PARENT
REMARK Flexibility Score: inf
ROOT
ATOM      1  C   UNL     1      16.580 -29.976  22.532  1.00  0.00     0.000 C 
ENDROOT
BRANCH   1   2
ATOM      2  C   UNL     1      17.487 -30.147  21.303  1.00  0.00     0.000 C 
BRANCH   2   3
ATOM      3  C   UNL     1      18.309 -28.883  20.996  1.00  0.00     0.000 C 
BRANCH   3   4
ATOM      4  C   UNL     1      19.822 -29.114  21.147  1.00  0.00     0.000 C 
BRANCH   4   5
ATOM      5  C   UNL     1      20.649 -27.873  20.777  1.00  0.00     0.000 C 
BRANCH   5   6
ATOM      6  C   UNL     1      19.737 -26.705  20.373  1.00  0.00     0.000 C 
BRANCH   6   7
ATOM      7  C   UNL     1      20.517 -25.409  20.102  1.00  0.00     0.006 C 
BRANCH   7   8
ATOM      8  C   UNL     1      21.981 -25.669  19.718  1.00  0.00     0.053 C 
BRANCH   8   9
ATOM      9  C   UNL     1      22.850 -24.540  20.177  1.00  0.00     0.041 C 
ATOM     10  O   UNL     1      23.563 -23.910  19.352  1.00  0.00    -0.550 OA
ATOM     11  O   UNL     1      22.854 -24.169  21.517  1.00  0.00    -0.550 OA
ENDBRANCH   8   9
ENDBRANCH   7   8
ENDBRANCH   6   7
ENDBRANCH   5   6
ENDBRANCH   4   5
ENDBRANCH   3   4
ENDBRANCH   2   3
ENDBRANCH   1   2
BRANCH   1  12
ATOM     12  C   UNL     1      15.176 -29.458  22.172  1.00  0.00     0.000 C 
BRANCH  12  13
ATOM     13  C   UNL     1      14.077 -30.116  23.036  1.00  0.00    -0.000 C 
BRANCH  13  14
ATOM     14  C   UNL     1      13.113 -31.014  22.241  1.00  0.00    -0.000 C 
BRANCH  14  15
ATOM     15  C   UNL     1      13.542 -31.203  20.777  1.00  0.00    -0.000 C 
BRANCH  15  16
ATOM     16  C   UNL     1      13.882 -32.665  20.433  1.00  0.00    -0.000 C 
BRANCH  16  17
ATOM     17  C   UNL     1      15.374 -33.032  20.545  1.00  0.00    -0.000 C 
BRANCH  17  18
ATOM     18  C   UNL     1      15.613 -34.347  21.311  1.00  0.00    -0.000 C 
BRANCH  18  19
ATOM     19  C   UNL     1      16.293 -34.122  22.670  1.00  0.00    -0.003 C 
ATOM     20  C   UNL     1      15.331 -33.585  23.729  1.00  0.00     0.004 C 
ENDBRANCH  18  19
ENDBRANCH  17  18
ENDBRANCH  16  17
ENDBRANCH  15  16
ENDBRANCH  14  15
ENDBRANCH  13  14
ENDBRANCH  12  13
ENDBRANCH   1  12
TORSDOF 16
ENDMDL
MODEL 4
REMARK VINA RESULT:    -4.875      2.334      4.585
REMARK INTER + INTRA:         -11.593
REMARK INTER:                  -8.538
REMARK INTRA:                  -3.055
REMARK UNBOUND:                -2.158
REMARK SMILES CCCCCCCCCCCCCCCCCC(=O)[O-]
REMARK SMILES IDX 10 1 11 2 12 3 13 4 14 5 15 6 16 7 17 8 18 9 19 10 20 11
REMARK SMILES IDX 9 12 8 13 7 14 6 15 5 16 4 17 3 18 2 19 1 20
REMARK H PARENT
REMARK Flexibility Score: inf
ROOT
ATOM      1  C   UNL     1      18.624 -34.241  19.350  1.00  0.00     0.000 C 
ENDROOT
BRANCH   1   2
ATOM      2  C   UNL     1      19.156 -33.669  20.674  1.00  0.00     0.000 C 
BRANCH   2   3
ATOM      3  C   UNL     1      19.270 -32.135  20.651  1.00  0.00     0.000 C 
BRANCH   3   4
ATOM      4  C   UNL     1      18.566 -31.474  21.847  1.00  0.00     0.000 C 
BRANCH   4   5
ATOM      5  C   UNL     1      17.191 -30.898  21.479  1.00  0.00     0.000 C 
BRANCH   5   6
ATOM      6  C   UNL     1      16.502 -30.288  22.709  1.00  0.00     0.000 C 
BRANCH   6   7
ATOM      7  C   UNL     1      15.079 -29.793  22.408  1.00  0.00     0.006 C 
BRANCH   7   8
ATOM      8  C   UNL     1      14.489 -30.422  21.138  1.00  0.00     0.053 C 
BRANCH   8   9
ATOM      9  C   UNL     1      13.112 -30.944  21.404  1.00  0.00     0.041 C 
ATOM     10  O   UNL     1      12.679 -31.020  22.584  1.00  0.00    -0.550 OA
ATOM     11  O   UNL     1      12.298 -31.326  20.345  1.00  0.00    -0.550 OA
ENDBRANCH   8   9
ENDBRANCH   7   8
ENDBRANCH   6   7
ENDBRANCH   5   6
ENDBRANCH   4   5
ENDBRANCH   3   4
ENDBRANCH   2   3
ENDBRANCH   1   2
BRANCH   1  12
ATOM     12  C   UNL     1      17.261 -33.648  18.948  1.00  0.00     0.000 C 
BRANCH  12  13
ATOM     13  C   UNL     1      16.090 -34.584  19.322  1.00  0.00    -0.000 C 
BRANCH  13  14
ATOM     14  C   UNL     1      15.205 -34.048  20.461  1.00  0.00    -0.000 C 
BRANCH  14  15
ATOM     15  C   UNL     1      15.719 -34.441  21.855  1.00  0.00    -0.000 C 
BRANCH  15  16
ATOM     16  C   UNL     1      14.942 -33.760  22.997  1.00  0.00    -0.000 C 
BRANCH  16  17
ATOM     17  C   UNL     1      15.778 -33.427  24.247  1.00  0.00    -0.000 C 
BRANCH  17  18
ATOM     18  C   UNL     1      16.881 -34.466  24.527  1.00  0.00    -0.000 C 
BRANCH  18  19
ATOM     19  C   UNL     1      18.276 -33.830  24.628  1.00  0.00    -0.003 C 
ATOM     20  C   UNL     1      18.288 -32.568  25.489  1.00  0.00     0.004 C 
ENDBRANCH  18  19
ENDBRANCH  17  18
ENDBRANCH  16  17
ENDBRANCH  15  16
ENDBRANCH  14  15
ENDBRANCH  13  14
ENDBRANCH  12  13
ENDBRANCH   1  12
TORSDOF 16
ENDMDL
MODEL 5
REMARK VINA RESULT:    -4.865      1.451      2.843
REMARK INTER + INTRA:         -11.574
REMARK INTER:                  -8.841
REMARK INTRA:                  -2.733
REMARK UNBOUND:                -2.158
REMARK SMILES CCCCCCCCCCCCCCCCCC(=O)[O-]
REMARK SMILES IDX 10 1 11 2 12 3 13 4 14 5 15 6 16 7 17 8 18 9 19 10 20 11
REMARK SMILES IDX 9 12 8 13 7 14 6 15 5 16 4 17 3 18 2 19 1 20
REMARK H PARENT
REMARK Flexibility Score: inf
ROOT
ATOM      1  C   UNL     1      16.342 -33.623  24.261  1.00  0.00     0.000 C 
ENDROOT
BRANCH   1   2
ATOM      2  C   UNL     1      16.490 -34.568  23.057  1.00  0.00     0.000 C 
BRANCH   2   3
ATOM      3  C   UNL     1      15.436 -34.305  21.967  1.00  0.00     0.000 C 
BRANCH   3   4
ATOM      4  C   UNL     1      14.636 -33.016  22.220  1.00  0.00     0.000 C 
BRANCH   4   5
ATOM      5  C   UNL     1      14.327 -32.250  20.925  1.00  0.00     0.000 C 
BRANCH   5   6
ATOM      6  C   UNL     1      13.161 -31.271  21.131  1.00  0.00     0.000 C 
BRANCH   6   7
ATOM      7  C   UNL     1      13.046 -30.782  22.583  1.00  0.00     0.006 C 
BRANCH   7   8
ATOM      8  C   UNL     1      13.763 -29.444  22.815  1.00  0.00     0.053 C 
BRANCH   8   9
ATOM      9  C   UNL     1      12.823 -28.445  23.413  1.00  0.00     0.041 C 
ATOM     10  O   UNL     1      11.592 -28.701  23.498  1.00  0.00    -0.550 OA
ATOM     11  O   UNL     1      13.310 -27.237  23.899  1.00  0.00    -0.550 OA
ENDBRANCH   8   9
ENDBRANCH   7   8
ENDBRANCH   6   7
ENDBRANCH   5   6
ENDBRANCH   4   5
ENDBRANCH   3   4
ENDBRANCH   2   3
ENDBRANCH   1   2
BRANCH   1  12
ATOM     12  C   UNL     1      17.696 -33.200  24.859  1.00  0.00     0.000 C 
BRANCH  12  13
ATOM     13  C   UNL     1      17.993 -31.704  24.614  1.00  0.00    -0.000 C 
BRANCH  13  14
ATOM     14  C   UNL     1      16.910 -30.980  23.795  1.00  0.00    -0.000 C 
BRANCH  14  15
ATOM     15  C   UNL     1      17.423 -30.474  22.437  1.00  0.00    -0.000 C 
BRANCH  15  16
ATOM     16  C   UNL     1      18.490 -31.395  21.816  1.00  0.00    -0.000 C 
BRANCH  16  17
ATOM     17  C   UNL     1      18.066 -32.099  20.513  1.00  0.00    -0.000 C 
BRANCH  17  18
ATOM     18  C   UNL     1      18.864 -33.387  20.240  1.00  0.00    -0.000 C 
BRANCH  18  19
ATOM     19  C   UNL     1      18.447 -34.071  18.928  1.00  0.00    -0.003 C 
ATOM     20  C   UNL     1      16.942 -34.323  18.848  1.00  0.00     0.004 C 
ENDBRANCH  18  19
ENDBRANCH  17  18
ENDBRANCH  16  17
ENDBRANCH  15  16
ENDBRANCH  14  15
ENDBRANCH  13  14
ENDBRANCH  12  13
ENDBRANCH   1  12
TORSDOF 16
ENDMDL
MODEL 6
REMARK VINA RESULT:    -4.834      1.435      3.124
REMARK INTER + INTRA:         -11.513
REMARK INTER:                  -9.060
REMARK INTRA:                  -2.453
REMARK UNBOUND:                -2.158
REMARK SMILES CCCCCCCCCCCCCCCCCC(=O)[O-]
REMARK SMILES IDX 10 1 11 2 12 3 13 4 14 5 15 6 16 7 17 8 18 9 19 10 20 11
REMARK SMILES IDX 9 12 8 13 7 14 6 15 5 16 4 17 3 18 2 19 1 20
REMARK H PARENT
REMARK Flexibility Score: inf
ROOT
ATOM      1  C   UNL     1      14.825 -33.462  20.801  1.00  0.00     0.000 C 
ENDROOT
BRANCH   1   2
ATOM      2  C   UNL     1      15.064 -33.705  22.300  1.00  0.00     0.000 C 
BRANCH   2   3
ATOM      3  C   UNL     1      14.875 -32.430  23.142  1.00  0.00     0.000 C 
BRANCH   3   4
ATOM      4  C   UNL     1      16.173 -31.617  23.279  1.00  0.00     0.000 C 
BRANCH   4   5
ATOM      5  C   UNL     1      16.147 -30.320  22.456  1.00  0.00     0.000 C 
BRANCH   5   6
ATOM      6  C   UNL     1      14.712 -29.959  22.046  1.00  0.00     0.000 C 
BRANCH   6   7
ATOM      7  C   UNL     1      14.126 -28.811  22.884  1.00  0.00     0.006 C 
BRANCH   7   8
ATOM      8  C   UNL     1      12.696 -29.100  23.365  1.00  0.00     0.053 C 
BRANCH   8   9
ATOM      9  C   UNL     1      12.028 -27.835  23.806  1.00  0.00     0.041 C 
ATOM     10  O   UNL     1      11.076 -27.353  23.139  1.00  0.00    -0.550 OA
ATOM     11  O   UNL     1      12.445 -27.201  24.970  1.00  0.00    -0.550 OA
ENDBRANCH   8   9
ENDBRANCH   7   8
ENDBRANCH   6   7
ENDBRANCH   5   6
ENDBRANCH   4   5
ENDBRANCH   3   4
ENDBRANCH   2   3
ENDBRANCH   1   2
BRANCH   1  12
ATOM     12  C   UNL     1      15.171 -34.686  19.935  1.00  0.00     0.000 C 
BRANCH  12  13
ATOM     13  C   UNL     1      16.447 -34.458  19.095  1.00  0.00    -0.000 C 
BRANCH  13  14
ATOM     14  C   UNL     1      17.440 -35.633  19.140  1.00  0.00    -0.000 C 
BRANCH  14  15
ATOM     15  C   UNL     1      17.217 -36.560  20.346  1.00  0.00    -0.000 C 
BRANCH  15  16
ATOM     16  C   UNL     1      18.346 -36.473  21.390  1.00  0.00    -0.000 C 
BRANCH  16  17
ATOM     17  C   UNL     1      17.965 -35.771  22.707  1.00  0.00    -0.000 C 
BRANCH  17  18
ATOM     18  C   UNL     1      18.644 -34.398  22.874  1.00  0.00    -0.000 C 
BRANCH  18  19
ATOM     19  C   UNL     1      19.510 -34.019  21.663  1.00  0.00    -0.003 C 
ATOM     20  C   UNL     1      19.050 -32.724  20.992  1.00  0.00     0.004 C 
ENDBRANCH  18  19
ENDBRANCH  17  18
ENDBRANCH  16  17
ENDBRANCH  15  16
ENDBRANCH  14  15
ENDBRANCH  13  14
ENDBRANCH  12  13
ENDBRANCH   1  12
TORSDOF 16
ENDMDL
MODEL 7
REMARK VINA RESULT:    -4.800      3.441      7.565
REMARK INTER + INTRA:         -11.447
REMARK INTER:                  -9.212
REMARK INTRA:                  -2.235
REMARK UNBOUND:                -2.158
REMARK SMILES CCCCCCCCCCCCCCCCCC(=O)[O-]
REMARK SMILES IDX 10 1 11 2 12 3 13 4 14 5 15 6 16 7 17 8 18 9 19 10 20 11
REMARK SMILES IDX 9 12 8 13 7 14 6 15 5 16 4 17 3 18 2 19 1 20
REMARK H PARENT
REMARK Flexibility Score: inf
ROOT
ATOM      1  C   UNL     1      14.947 -33.449  22.805  1.00  0.00     0.000 C 
ENDROOT
BRANCH   1   2
ATOM      2  C   UNL     1      15.737 -32.274  23.405  1.00  0.00     0.000 C 
BRANCH   2   3
ATOM      3  C   UNL     1      17.184 -32.658  23.762  1.00  0.00     0.000 C 
BRANCH   3   4
ATOM      4  C   UNL     1      18.208 -31.625  23.262  1.00  0.00     0.000 C 
BRANCH   4   5
ATOM      5  C   UNL     1      17.580 -30.574  22.333  1.00  0.00     0.000 C 
BRANCH   5   6
ATOM      6  C   UNL     1      17.973 -30.829  20.870  1.00  0.00     0.000 C 
BRANCH   6   7
ATOM      7  C   UNL     1      18.723 -32.157  20.680  1.00  0.00     0.006 C 
BRANCH   7   8
ATOM      8  C   UNL     1      17.952 -33.151  19.800  1.00  0.00     0.053 C 
BRANCH   8   9
ATOM      9  C   UNL     1      18.141 -34.548  20.302  1.00  0.00     0.041 C 
ATOM     10  O   UNL     1      17.565 -35.512  19.731  1.00  0.00    -0.550 OA
ATOM     11  O   UNL     1      18.972 -34.788  21.389  1.00  0.00    -0.550 OA
ENDBRANCH   8   9
ENDBRANCH   7   8
ENDBRANCH   6   7
ENDBRANCH   5   6
ENDBRANCH   4   5
ENDBRANCH   3   4
ENDBRANCH   2   3
ENDBRANCH   1   2
BRANCH   1  12
ATOM     12  C   UNL     1      14.658 -33.270  21.303  1.00  0.00     0.000 C 
BRANCH  12  13
ATOM     13  C   UNL     1      14.469 -31.784  20.924  1.00  0.00    -0.000 C 
BRANCH  13  14
ATOM     14  C   UNL     1      13.020 -31.413  20.563  1.00  0.00    -0.000 C 
BRANCH  14  15
ATOM     15  C   UNL     1      12.311 -30.619  21.672  1.00  0.00    -0.000 C 
BRANCH  15  16
ATOM     16  C   UNL     1      13.273 -29.741  22.492  1.00  0.00    -0.000 C 
BRANCH  16  17
ATOM     17  C   UNL     1      12.757 -29.330  23.884  1.00  0.00    -0.000 C 
BRANCH  17  18
ATOM     18  C   UNL     1      12.008 -27.984  23.874  1.00  0.00    -0.000 C 
BRANCH  18  19
ATOM     19  C   UNL     1      12.772 -26.880  24.622  1.00  0.00    -0.003 C 
ATOM     20  C   UNL     1      13.512 -25.932  23.679  1.00  0.00     0.004 C 
ENDBRANCH  18  19
ENDBRANCH  17  18
ENDBRANCH  16  17
ENDBRANCH  15  16
ENDBRANCH  14  15
ENDBRANCH  13  14
ENDBRANCH  12  13
ENDBRANCH   1  12
TORSDOF 16
ENDMDL
MODEL 8
REMARK VINA RESULT:    -4.776      1.302      3.501
REMARK INTER + INTRA:         -11.401
REMARK INTER:                  -8.798
REMARK INTRA:                  -2.603
REMARK UNBOUND:                -2.158
REMARK SMILES CCCCCCCCCCCCCCCCCC(=O)[O-]
REMARK SMILES IDX 10 1 11 2 12 3 13 4 14 5 15 6 16 7 17 8 18 9 19 10 20 11
REMARK SMILES IDX 9 12 8 13 7 14 6 15 5 16 4 17 3 18 2 19 1 20
REMARK H PARENT
REMARK Flexibility Score: inf
ROOT
ATOM      1  C   UNL     1      17.152 -35.837  20.592  1.00  0.00     0.000 C 
ENDROOT
BRANCH   1   2
ATOM      2  C   UNL     1      16.071 -35.034  19.851  1.00  0.00     0.000 C 
BRANCH   2   3
ATOM      3  C   UNL     1      15.106 -34.316  20.811  1.00  0.00     0.000 C 
BRANCH   3   4
ATOM      4  C   UNL     1      14.270 -33.235  20.106  1.00  0.00     0.000 C 
BRANCH   4   5
ATOM      5  C   UNL     1      13.967 -32.035  21.017  1.00  0.00     0.000 C 
BRANCH   5   6
ATOM      6  C   UNL     1      14.296 -32.361  22.482  1.00  0.00     0.000 C 
BRANCH   6   7
ATOM      7  C   UNL     1      13.537 -31.464  23.474  1.00  0.00     0.006 C 
BRANCH   7   8
ATOM      8  C   UNL     1      12.773 -30.327  22.779  1.00  0.00     0.053 C 
BRANCH   8   9
ATOM      9  C   UNL     1      13.268 -28.998  23.256  1.00  0.00     0.041 C 
ATOM     10  O   UNL     1      14.341 -28.519  22.803  1.00  0.00    -0.550 OA
ATOM     11  O   UNL     1      12.530 -28.277  24.187  1.00  0.00    -0.550 OA
ENDBRANCH   8   9
ENDBRANCH   7   8
ENDBRANCH   6   7
ENDBRANCH   5   6
ENDBRANCH   4   5
ENDBRANCH   3   4
ENDBRANCH   2   3
ENDBRANCH   1   2
BRANCH   1  12
ATOM     12  C   UNL     1      18.394 -34.994  20.935  1.00  0.00     0.000 C 
BRANCH  12  13
ATOM     13  C   UNL     1      18.661 -33.901  19.877  1.00  0.00    -0.000 C 
BRANCH  13  14
ATOM     14  C   UNL     1      18.930 -32.509  20.474  1.00  0.00    -0.000 C 
BRANCH  14  15
ATOM     15  C   UNL     1      17.659 -31.652  20.592  1.00  0.00    -0.000 C 
BRANCH  15  16
ATOM     16  C   UNL     1      17.650 -30.758  21.845  1.00  0.00    -0.000 C 
BRANCH  16  17
ATOM     17  C   UNL     1      18.241 -31.404  23.113  1.00  0.00    -0.000 C 
BRANCH  17  18
ATOM     18  C   UNL     1      17.223 -32.274  23.874  1.00  0.00    -0.000 C 
BRANCH  18  19
ATOM     19  C   UNL     1      17.729 -33.706  24.106  1.00  0.00    -0.003 C 
ATOM     20  C   UNL     1      16.716 -34.576  24.848  1.00  0.00     0.004 C 
ENDBRANCH  18  19
ENDBRANCH  17  18
ENDBRANCH  16  17
ENDBRANCH  15  16
ENDBRANCH  14  15
ENDBRANCH  13  14
ENDBRANCH  12  13
ENDBRANCH   1  12
TORSDOF 16
ENDMDL
MODEL 9
REMARK VINA RESULT:    -4.754      3.134      6.416
REMARK INTER + INTRA:         -11.358
REMARK INTER:                  -8.530
REMARK INTRA:                  -2.828
REMARK UNBOUND:                -2.158
REMARK SMILES CCCCCCCCCCCCCCCCCC(=O)[O-]
REMARK SMILES IDX 10 1 11 2 12 3 13 4 14 5 15 6 16 7 17 8 18 9 19 10 20 11
REMARK SMILES IDX 9 12 8 13 7 14 6 15 5 16 4 17 3 18 2 19 1 20
REMARK H PARENT
REMARK Flexibility Score: inf
ROOT
ATOM      1  C   UNL     1      14.695 -33.235  20.769  1.00  0.00     0.000 C 
ENDROOT
BRANCH   1   2
ATOM      2  C   UNL     1      15.149 -34.342  19.804  1.00  0.00     0.000 C 
BRANCH   2   3
ATOM      3  C   UNL     1      16.461 -33.992  19.080  1.00  0.00     0.000 C 
BRANCH   3   4
ATOM      4  C   UNL     1      17.497 -35.126  19.158  1.00  0.00     0.000 C 
BRANCH   4   5
ATOM      5  C   UNL     1      16.998 -36.327  19.976  1.00  0.00     0.000 C 
BRANCH   5   6
ATOM      6  C   UNL     1      17.992 -36.681  21.092  1.00  0.00     0.000 C 
BRANCH   6   7
ATOM      7  C   UNL     1      18.312 -35.485  22.004  1.00  0.00     0.006 C 
BRANCH   7   8
ATOM      8  C   UNL     1      17.669 -35.610  23.392  1.00  0.00     0.053 C 
BRANCH   8   9
ATOM      9  C   UNL     1      18.333 -34.684  24.361  1.00  0.00     0.041 C 
ATOM     10  O   UNL     1      17.756 -33.625  24.726  1.00  0.00    -0.550 OA
ATOM     11  O   UNL     1      19.583 -35.001  24.879  1.00  0.00    -0.550 OA
ENDBRANCH   8   9
ENDBRANCH   7   8
ENDBRANCH   6   7
ENDBRANCH   5   6
ENDBRANCH   4   5
ENDBRANCH   3   4
ENDBRANCH   2   3
ENDBRANCH   1   2
BRANCH   1  12
ATOM     12  C   UNL     1      14.824 -33.642  22.248  1.00  0.00     0.000 C 
BRANCH  12  13
ATOM     13  C   UNL     1      14.821 -32.416  23.188  1.00  0.00    -0.000 C 
BRANCH  13  14
ATOM     14  C   UNL     1      13.717 -31.393  22.871  1.00  0.00    -0.000 C 
BRANCH  14  15
ATOM     15  C   UNL     1      14.234 -29.946  22.829  1.00  0.00    -0.000 C 
BRANCH  15  16
ATOM     16  C   UNL     1      15.173 -29.676  21.639  1.00  0.00    -0.000 C 
BRANCH  16  17
ATOM     17  C   UNL     1      16.673 -29.866  21.935  1.00  0.00    -0.000 C 
BRANCH  17  18
ATOM     18  C   UNL     1      17.385 -30.743  20.888  1.00  0.00    -0.000 C 
BRANCH  18  19
ATOM     19  C   UNL     1      18.307 -31.793  21.528  1.00  0.00    -0.003 C 
ATOM     20  C   UNL     1      19.434 -32.235  20.595  1.00  0.00     0.004 C 
ENDBRANCH  18  19
ENDBRANCH  17  18
ENDBRANCH  16  17
ENDBRANCH  15  16
ENDBRANCH  14  15
ENDBRANCH  13  14
ENDBRANCH  12  13
ENDBRANCH   1  12
TORSDOF 16
ENDMDL
