MODEL 1
REMARK VINA RESULT:    -8.482      0.000      0.000
REMARK INTER + INTRA:         -10.630
REMARK INTER:                 -10.218
REMARK INTRA:                  -0.413
REMARK UNBOUND:                -0.413
REMARK SMILES O=c1c(O)c(-c2ccc(O)cc2O)oc2cc(O)cc(O)c12
REMARK SMILES IDX 5 1 3 2 2 3 1 4 22 5 20 6 19 7 17 8 16 9 15 10 14 11 6 12
REMARK SMILES IDX 8 13 7 14 9 15 11 16 12 17 10 18 13 20 4 22 21 24 18 26
REMARK H PARENT 10 19 13 21 4 23 21 25 18 27
REMARK Flexibility Score: inf
ROOT
ATOM      1  C   UNL     1     -45.249 -11.257  11.893  1.00  0.00     0.184 A 
ATOM      2  C   UNL     1     -45.279 -10.206  12.821  1.00  0.00     0.208 A 
ATOM      3  C   UNL     1     -44.234  -9.268  12.823  1.00  0.00     0.238 A 
ATOM      4  O   UNL     1     -44.235  -8.363  13.697  1.00  0.00    -0.285 OA
ATOM      5  C   UNL     1     -43.186  -9.381  11.876  1.00  0.00     0.111 A 
ATOM      6  C   UNL     1     -42.096  -8.466  11.760  1.00  0.00     0.134 A 
ATOM      7  C   UNL     1     -41.054  -8.744  10.867  1.00  0.00     0.093 A 
ATOM      8  C   UNL     1     -41.092  -9.867  10.042  1.00  0.00     0.123 A 
ATOM      9  C   UNL     1     -42.181 -10.737  10.106  1.00  0.00     0.094 A 
ATOM     10  C   UNL     1     -43.219 -10.507  11.012  1.00  0.00     0.146 A 
ATOM     11  O   UNL     1     -44.230 -11.368  11.051  1.00  0.00    -0.451 OA
ENDROOT
BRANCH   1  12
ATOM     12  C   UNL     1     -46.333 -12.259  11.830  1.00  0.00     0.063 A 
ATOM     13  C   UNL     1     -48.464 -12.969  10.889  1.00  0.00     0.047 A 
ATOM     14  C   UNL     1     -47.450 -12.015  11.011  1.00  0.00     0.020 A 
ATOM     15  C   UNL     1     -48.374 -14.181  11.575  1.00  0.00     0.119 A 
ATOM     16  C   UNL     1     -47.266 -14.436  12.393  1.00  0.00     0.093 A 
ATOM     17  C   UNL     1     -46.248 -13.484  12.532  1.00  0.00     0.130 A 
BRANCH  15  18
ATOM     18  O   UNL     1     -49.390 -15.125  11.440  1.00  0.00    -0.508 OA
ATOM     19  H   UNL     1     -49.426 -15.950  12.026  1.00  0.00     0.293 HD
ENDBRANCH  15  18
BRANCH  17  20
ATOM     20  O   UNL     1     -45.184 -13.776  13.388  1.00  0.00    -0.507 OA
ATOM     21  H   UNL     1     -45.286 -13.839  14.393  1.00  0.00     0.293 HD
ENDBRANCH  17  20
ENDBRANCH   1  12
BRANCH   2  22
ATOM     22  O   UNL     1     -46.328 -10.117  13.741  1.00  0.00    -0.502 OA
ATOM     23  H   UNL     1     -47.297 -10.249  13.475  1.00  0.00     0.293 HD
ENDBRANCH   2  22
BRANCH   6  24
ATOM     24  O   UNL     1     -42.004  -7.267  12.473  1.00  0.00    -0.507 OA
ATOM     25  H   UNL     1     -41.901  -6.355  12.055  1.00  0.00     0.293 HD
ENDBRANCH   6  24
BRANCH   8  26
ATOM     26  O   UNL     1     -40.044 -10.104   9.155  1.00  0.00    -0.508 OA
ATOM     27  H   UNL     1     -40.053  -9.728   8.214  1.00  0.00     0.293 HD
ENDBRANCH   8  26
TORSDOF 6
ENDMDL
MODEL 2
REMARK VINA RESULT:    -7.774      1.867      6.700
REMARK INTER + INTRA:          -9.777
REMARK INTER:                  -9.432
REMARK INTRA:                  -0.345
REMARK UNBOUND:                -0.413
REMARK SMILES O=c1c(O)c(-c2ccc(O)cc2O)oc2cc(O)cc(O)c12
REMARK SMILES IDX 5 1 3 2 2 3 1 4 22 5 20 6 19 7 17 8 16 9 15 10 14 11 6 12
REMARK SMILES IDX 8 13 7 14 9 15 11 16 12 17 10 18 13 20 4 22 21 24 18 26
REMARK H PARENT 10 19 13 21 4 23 21 25 18 27
REMARK Flexibility Score: inf
ROOT
ATOM      1  C   UNL     1     -45.144 -11.274  12.619  1.00  0.00     0.184 A 
ATOM      2  C   UNL     1     -45.201 -11.485  14.005  1.00  0.00     0.208 A 
ATOM      3  C   UNL     1     -46.336 -12.103  14.554  1.00  0.00     0.238 A 
ATOM      4  O   UNL     1     -46.408 -12.234  15.803  1.00  0.00    -0.285 OA
ATOM      5  C   UNL     1     -47.386 -12.529  13.704  1.00  0.00     0.111 A 
ATOM      6  C   UNL     1     -48.565 -13.202  14.145  1.00  0.00     0.134 A 
ATOM      7  C   UNL     1     -49.593 -13.467  13.231  1.00  0.00     0.093 A 
ATOM      8  C   UNL     1     -49.458 -13.142  11.882  1.00  0.00     0.123 A 
ATOM      9  C   UNL     1     -48.285 -12.537  11.428  1.00  0.00     0.094 A 
ATOM     10  C   UNL     1     -47.258 -12.226  12.322  1.00  0.00     0.146 A 
ATOM     11  O   UNL     1     -46.164 -11.637  11.852  1.00  0.00    -0.451 OA
ENDROOT
BRANCH   1  12
ATOM     12  C   UNL     1     -43.965 -10.650  11.983  1.00  0.00     0.063 A 
ATOM     13  C   UNL     1     -42.028 -10.859  10.524  1.00  0.00     0.047 A 
ATOM     14  C   UNL     1     -43.118 -11.434  11.181  1.00  0.00     0.020 A 
ATOM     15  C   UNL     1     -41.773  -9.493  10.651  1.00  0.00     0.119 A 
ATOM     16  C   UNL     1     -42.610  -8.700  11.447  1.00  0.00     0.093 A 
ATOM     17  C   UNL     1     -43.700  -9.267  12.119  1.00  0.00     0.130 A 
BRANCH  15  18
ATOM     18  O   UNL     1     -40.685  -8.931   9.985  1.00  0.00    -0.508 OA
ATOM     19  H   UNL     1     -39.762  -8.911  10.403  1.00  0.00     0.293 HD
ENDBRANCH  15  18
BRANCH  17  20
ATOM     20  O   UNL     1     -44.480  -8.438  12.928  1.00  0.00    -0.507 OA
ATOM     21  H   UNL     1     -44.086  -7.741  13.547  1.00  0.00     0.293 HD
ENDBRANCH  17  20
ENDBRANCH   1  12
BRANCH   2  22
ATOM     22  O   UNL     1     -44.148 -11.059  14.820  1.00  0.00    -0.502 OA
ATOM     23  H   UNL     1     -43.304 -10.642  14.443  1.00  0.00     0.293 HD
ENDBRANCH   2  22
BRANCH   6  24
ATOM     24  O   UNL     1     -48.764 -13.651  15.454  1.00  0.00    -0.507 OA
ATOM     25  H   UNL     1     -48.081 -13.592  16.194  1.00  0.00     0.293 HD
ENDBRANCH   6  24
BRANCH   8  26
ATOM     26  O   UNL     1     -50.494 -13.435  10.998  1.00  0.00    -0.508 OA
ATOM     27  H   UNL     1     -51.011 -12.701  10.527  1.00  0.00     0.293 HD
ENDBRANCH   8  26
TORSDOF 6
ENDMDL
MODEL 3
REMARK VINA RESULT:    -7.492      2.836      7.877
REMARK INTER + INTRA:          -9.438
REMARK INTER:                  -9.085
REMARK INTRA:                  -0.353
REMARK UNBOUND:                -0.413
REMARK SMILES O=c1c(O)c(-c2ccc(O)cc2O)oc2cc(O)cc(O)c12
REMARK SMILES IDX 5 1 3 2 2 3 1 4 22 5 20 6 19 7 17 8 16 9 15 10 14 11 6 12
REMARK SMILES IDX 8 13 7 14 9 15 11 16 12 17 10 18 13 20 4 22 21 24 18 26
REMARK H PARENT 10 19 13 21 4 23 21 25 18 27
REMARK Flexibility Score: inf
ROOT
ATOM      1  C   UNL     1     -47.619 -12.491  12.623  1.00  0.00     0.184 A 
ATOM      2  C   UNL     1     -48.533 -12.611  11.565  1.00  0.00     0.208 A 
ATOM      3  C   UNL     1     -49.819 -13.111  11.830  1.00  0.00     0.238 A 
ATOM      4  O   UNL     1     -50.613 -13.274  10.868  1.00  0.00    -0.285 OA
ATOM      5  C   UNL     1     -50.181 -13.456  13.156  1.00  0.00     0.111 A 
ATOM      6  C   UNL     1     -51.468 -13.934  13.546  1.00  0.00     0.134 A 
ATOM      7  C   UNL     1     -51.675 -14.360  14.864  1.00  0.00     0.093 A 
ATOM      8  C   UNL     1     -50.664 -14.265  15.819  1.00  0.00     0.123 A 
ATOM      9  C   UNL     1     -49.419 -13.744  15.462  1.00  0.00     0.094 A 
ATOM     10  C   UNL     1     -49.170 -13.346  14.147  1.00  0.00     0.146 A 
ATOM     11  O   UNL     1     -47.968 -12.869  13.845  1.00  0.00    -0.451 OA
ENDROOT
BRANCH   1  12
ATOM     12  C   UNL     1     -46.261 -11.949  12.408  1.00  0.00     0.063 A 
ATOM     13  C   UNL     1     -44.064 -12.177  11.384  1.00  0.00     0.047 A 
ATOM     14  C   UNL     1     -45.336 -12.689  11.649  1.00  0.00     0.020 A 
ATOM     15  C   UNL     1     -43.699 -10.918  11.864  1.00  0.00     0.119 A 
ATOM     16  C   UNL     1     -44.612 -10.171  12.620  1.00  0.00     0.093 A 
ATOM     17  C   UNL     1     -45.887 -10.678  12.902  1.00  0.00     0.130 A 
BRANCH  15  18
ATOM     18  O   UNL     1     -42.429 -10.417  11.587  1.00  0.00    -0.508 OA
ATOM     19  H   UNL     1     -42.076 -10.364  10.639  1.00  0.00     0.293 HD
ENDBRANCH  15  18
BRANCH  17  20
ATOM     20  O   UNL     1     -46.744  -9.906  13.690  1.00  0.00    -0.507 OA
ATOM     21  H   UNL     1     -47.746  -9.880  13.553  1.00  0.00     0.293 HD
ENDBRANCH  17  20
ENDBRANCH   1  12
BRANCH   2  22
ATOM     22  O   UNL     1     -48.150 -12.259  10.268  1.00  0.00    -0.502 OA
ATOM     23  H   UNL     1     -48.559 -11.473   9.776  1.00  0.00     0.293 HD
ENDBRANCH   2  22
BRANCH   6  24
ATOM     24  O   UNL     1     -52.574 -13.986  12.693  1.00  0.00    -0.507 OA
ATOM     25  H   UNL     1     -53.441 -14.456  12.902  1.00  0.00     0.293 HD
ENDBRANCH   6  24
BRANCH   8  26
ATOM     26  O   UNL     1     -50.911 -14.683  17.125  1.00  0.00    -0.508 OA
ATOM     27  H   UNL     1     -50.817 -15.655  17.396  1.00  0.00     0.293 HD
ENDBRANCH   8  26
TORSDOF 6
ENDMDL
MODEL 4
REMARK VINA RESULT:    -7.361      3.129      7.592
REMARK INTER + INTRA:          -9.280
REMARK INTER:                  -8.866
REMARK INTRA:                  -0.414
REMARK UNBOUND:                -0.413
REMARK SMILES O=c1c(O)c(-c2ccc(O)cc2O)oc2cc(O)cc(O)c12
REMARK SMILES IDX 5 1 3 2 2 3 1 4 22 5 20 6 19 7 17 8 16 9 15 10 14 11 6 12
REMARK SMILES IDX 8 13 7 14 9 15 11 16 12 17 10 18 13 20 4 22 21 24 18 26
REMARK H PARENT 10 19 13 21 4 23 21 25 18 27
REMARK Flexibility Score: inf
ROOT
ATOM      1  C   UNL     1     -47.101 -12.320  13.900  1.00  0.00     0.184 A 
ATOM      2  C   UNL     1     -47.204 -12.389  15.297  1.00  0.00     0.208 A 
ATOM      3  C   UNL     1     -48.412 -12.814  15.871  1.00  0.00     0.238 A 
ATOM      4  O   UNL     1     -48.519 -12.816  17.125  1.00  0.00    -0.285 OA
ATOM      5  C   UNL     1     -49.493 -13.193  15.036  1.00  0.00     0.111 A 
ATOM      6  C   UNL     1     -50.751 -13.677  15.508  1.00  0.00     0.134 A 
ATOM      7  C   UNL     1     -51.788 -13.905  14.595  1.00  0.00     0.093 A 
ATOM      8  C   UNL     1     -51.595 -13.728  13.226  1.00  0.00     0.123 A 
ATOM      9  C   UNL     1     -50.352 -13.311  12.749  1.00  0.00     0.094 A 
ATOM     10  C   UNL     1     -49.308 -13.040  13.637  1.00  0.00     0.146 A 
ATOM     11  O   UNL     1     -48.145 -12.631  13.143  1.00  0.00    -0.451 OA
ENDROOT
BRANCH   1  12
ATOM     12  C   UNL     1     -45.846 -11.902  13.240  1.00  0.00     0.063 A 
ATOM     13  C   UNL     1     -43.753 -12.518  12.161  1.00  0.00     0.047 A 
ATOM     14  C   UNL     1     -44.921 -12.880  12.835  1.00  0.00     0.020 A 
ATOM     15  C   UNL     1     -43.495 -11.177  11.874  1.00  0.00     0.119 A 
ATOM     16  C   UNL     1     -44.410 -10.192  12.271  1.00  0.00     0.093 A 
ATOM     17  C   UNL     1     -45.579 -10.542  12.957  1.00  0.00     0.130 A 
BRANCH  15  18
ATOM     18  O   UNL     1     -42.329 -10.830  11.195  1.00  0.00    -0.508 OA
ATOM     19  H   UNL     1     -41.636 -10.219  11.612  1.00  0.00     0.293 HD
ENDBRANCH  15  18
BRANCH  17  20
ATOM     20  O   UNL     1     -46.438  -9.517  13.361  1.00  0.00    -0.507 OA
ATOM     21  H   UNL     1     -47.417  -9.487  13.109  1.00  0.00     0.293 HD
ENDBRANCH  17  20
ENDBRANCH   1  12
BRANCH   2  22
ATOM     22  O   UNL     1     -46.120 -12.014  16.096  1.00  0.00    -0.502 OA
ATOM     23  H   UNL     1     -45.875 -12.509  16.946  1.00  0.00     0.293 HD
ENDBRANCH   2  22
BRANCH   6  24
ATOM     24  O   UNL     1     -51.022 -13.973  16.847  1.00  0.00    -0.507 OA
ATOM     25  H   UNL     1     -50.515 -13.597  17.634  1.00  0.00     0.293 HD
ENDBRANCH   6  24
BRANCH   8  26
ATOM     26  O   UNL     1     -52.646 -13.980  12.346  1.00  0.00    -0.508 OA
ATOM     27  H   UNL     1     -53.061 -13.240  11.792  1.00  0.00     0.293 HD
ENDBRANCH   8  26
TORSDOF 6
ENDMDL
MODEL 5
REMARK VINA RESULT:    -7.224      3.785      5.865
REMARK INTER + INTRA:          -9.114
REMARK INTER:                  -8.792
REMARK INTRA:                  -0.323
REMARK UNBOUND:                -0.413
REMARK SMILES O=c1c(O)c(-c2ccc(O)cc2O)oc2cc(O)cc(O)c12
REMARK SMILES IDX 5 1 3 2 2 3 1 4 22 5 20 6 19 7 17 8 16 9 15 10 14 11 6 12
REMARK SMILES IDX 8 13 7 14 9 15 11 16 12 17 10 18 13 20 4 22 21 24 18 26
REMARK H PARENT 10 19 13 21 4 23 21 25 18 27
REMARK Flexibility Score: inf
ROOT
ATOM      1  C   UNL     1     -48.854 -13.464  14.473  1.00  0.00     0.184 A 
ATOM      2  C   UNL     1     -48.625 -14.017  13.204  1.00  0.00     0.208 A 
ATOM      3  C   UNL     1     -47.403 -13.763  12.561  1.00  0.00     0.238 A 
ATOM      4  O   UNL     1     -47.227 -14.210  11.398  1.00  0.00    -0.285 OA
ATOM      5  C   UNL     1     -46.414 -12.983  13.211  1.00  0.00     0.111 A 
ATOM      6  C   UNL     1     -45.125 -12.695  12.672  1.00  0.00     0.134 A 
ATOM      7  C   UNL     1     -44.274 -11.812  13.350  1.00  0.00     0.093 A 
ATOM      8  C   UNL     1     -44.640 -11.258  14.576  1.00  0.00     0.123 A 
ATOM      9  C   UNL     1     -45.875 -11.579  15.141  1.00  0.00     0.094 A 
ATOM     10  C   UNL     1     -46.760 -12.428  14.471  1.00  0.00     0.146 A 
ATOM     11  O   UNL     1     -47.931 -12.696  15.037  1.00  0.00    -0.451 OA
ENDROOT
BRANCH   1  12
ATOM     12  C   UNL     1     -50.112 -13.717  15.207  1.00  0.00     0.063 A 
ATOM     13  C   UNL     1     -52.536 -13.525  15.316  1.00  0.00     0.047 A 
ATOM     14  C   UNL     1     -51.327 -13.253  14.672  1.00  0.00     0.020 A 
ATOM     15  C   UNL     1     -52.552 -14.270  16.496  1.00  0.00     0.119 A 
ATOM     16  C   UNL     1     -51.348 -14.738  17.039  1.00  0.00     0.093 A 
ATOM     17  C   UNL     1     -50.128 -14.463  16.408  1.00  0.00     0.130 A 
BRANCH  15  18
ATOM     18  O   UNL     1     -53.766 -14.538  17.125  1.00  0.00    -0.508 OA
ATOM     19  H   UNL     1     -53.956 -15.440  17.546  1.00  0.00     0.293 HD
ENDBRANCH  15  18
BRANCH  17  20
ATOM     20  O   UNL     1     -48.956 -14.924  17.012  1.00  0.00    -0.507 OA
ATOM     21  H   UNL     1     -48.909 -15.786  17.540  1.00  0.00     0.293 HD
ENDBRANCH  17  20
ENDBRANCH   1  12
BRANCH   2  22
ATOM     22  O   UNL     1     -49.616 -14.786  12.588  1.00  0.00    -0.502 OA
ATOM     23  H   UNL     1     -49.501 -15.180  11.662  1.00  0.00     0.293 HD
ENDBRANCH   2  22
BRANCH   6  24
ATOM     24  O   UNL     1     -44.624 -13.265  11.498  1.00  0.00    -0.507 OA
ATOM     25  H   UNL     1     -43.782 -12.970  11.028  1.00  0.00     0.293 HD
ENDBRANCH   6  24
BRANCH   8  26
ATOM     26  O   UNL     1     -43.762 -10.396  15.229  1.00  0.00    -0.508 OA
ATOM     27  H   UNL     1     -42.823 -10.686  15.477  1.00  0.00     0.293 HD
ENDBRANCH   8  26
TORSDOF 6
ENDMDL
MODEL 6
REMARK VINA RESULT:    -7.081      2.082      3.957
REMARK INTER + INTRA:          -8.943
REMARK INTER:                  -8.640
REMARK INTRA:                  -0.303
REMARK UNBOUND:                -0.413
REMARK SMILES O=c1c(O)c(-c2ccc(O)cc2O)oc2cc(O)cc(O)c12
REMARK SMILES IDX 5 1 3 2 2 3 1 4 22 5 20 6 19 7 17 8 16 9 15 10 14 11 6 12
REMARK SMILES IDX 8 13 7 14 9 15 11 16 12 17 10 18 13 20 4 22 21 24 18 26
REMARK H PARENT 10 19 13 21 4 23 21 25 18 27
REMARK Flexibility Score: inf
ROOT
ATOM      1  C   UNL     1     -47.729 -12.395  11.930  1.00  0.00     0.184 A 
ATOM      2  C   UNL     1     -47.113 -12.796  10.736  1.00  0.00     0.208 A 
ATOM      3  C   UNL     1     -45.822 -12.326  10.444  1.00  0.00     0.238 A 
ATOM      4  O   UNL     1     -45.299 -12.639   9.343  1.00  0.00    -0.285 OA
ATOM      5  C   UNL     1     -45.155 -11.483  11.367  1.00  0.00     0.111 A 
ATOM      6  C   UNL     1     -43.831 -10.979  11.194  1.00  0.00     0.134 A 
ATOM      7  C   UNL     1     -43.318 -10.055  12.113  1.00  0.00     0.093 A 
ATOM      8  C   UNL     1     -44.055  -9.667  13.231  1.00  0.00     0.123 A 
ATOM      9  C   UNL     1     -45.328 -10.198  13.442  1.00  0.00     0.094 A 
ATOM     10  C   UNL     1     -45.882 -11.093  12.523  1.00  0.00     0.146 A 
ATOM     11  O   UNL     1     -47.102 -11.564  12.753  1.00  0.00    -0.451 OA
ENDROOT
BRANCH   1  12
ATOM     12  C   UNL     1     -49.076 -12.877  12.301  1.00  0.00     0.063 A 
ATOM     13  C   UNL     1     -51.443 -13.068  11.763  1.00  0.00     0.047 A 
ATOM     14  C   UNL     1     -50.169 -12.579  11.466  1.00  0.00     0.020 A 
ATOM     15  C   UNL     1     -51.644 -13.867  12.890  1.00  0.00     0.119 A 
ATOM     16  C   UNL     1     -50.564 -14.171  13.728  1.00  0.00     0.093 A 
ATOM     17  C   UNL     1     -49.284 -13.678  13.448  1.00  0.00     0.130 A 
BRANCH  15  18
ATOM     18  O   UNL     1     -52.920 -14.352  13.170  1.00  0.00    -0.508 OA
ATOM     19  H   UNL     1     -53.418 -14.942  12.514  1.00  0.00     0.293 HD
ENDBRANCH  15  18
BRANCH  17  20
ATOM     20  O   UNL     1     -48.250 -13.983  14.337  1.00  0.00    -0.507 OA
ATOM     21  H   UNL     1     -48.403 -14.451  15.220  1.00  0.00     0.293 HD
ENDBRANCH  17  20
ENDBRANCH   1  12
BRANCH   2  22
ATOM     22  O   UNL     1     -47.793 -13.632   9.846  1.00  0.00    -0.502 OA
ATOM     23  H   UNL     1     -47.356 -14.441   9.419  1.00  0.00     0.293 HD
ENDBRANCH   2  22
BRANCH   6  24
ATOM     24  O   UNL     1     -42.975 -11.370  10.160  1.00  0.00    -0.507 OA
ATOM     25  H   UNL     1     -43.244 -11.941   9.374  1.00  0.00     0.293 HD
ENDBRANCH   6  24
BRANCH   8  26
ATOM     26  O   UNL     1     -43.506  -8.758  14.133  1.00  0.00    -0.508 OA
ATOM     27  H   UNL     1     -42.743  -9.017  14.747  1.00  0.00     0.293 HD
ENDBRANCH   8  26
TORSDOF 6
ENDMDL
MODEL 7
REMARK VINA RESULT:    -7.032      2.217      7.275
REMARK INTER + INTRA:          -8.883
REMARK INTER:                  -8.769
REMARK INTRA:                  -0.114
REMARK UNBOUND:                -0.413
REMARK SMILES O=c1c(O)c(-c2ccc(O)cc2O)oc2cc(O)cc(O)c12
REMARK SMILES IDX 5 1 3 2 2 3 1 4 22 5 20 6 19 7 17 8 16 9 15 10 14 11 6 12
REMARK SMILES IDX 8 13 7 14 9 15 11 16 12 17 10 18 13 20 4 22 21 24 18 26
REMARK H PARENT 10 19 13 21 4 23 21 25 18 27
REMARK Flexibility Score: inf
ROOT
ATOM      1  C   UNL     1     -45.975 -11.709  12.428  1.00  0.00     0.184 A 
ATOM      2  C   UNL     1     -46.602 -12.450  11.416  1.00  0.00     0.208 A 
ATOM      3  C   UNL     1     -47.733 -13.219  11.735  1.00  0.00     0.238 A 
ATOM      4  O   UNL     1     -48.254 -13.930  10.838  1.00  0.00    -0.285 OA
ATOM      5  C   UNL     1     -48.238 -13.211  13.059  1.00  0.00     0.111 A 
ATOM      6  C   UNL     1     -49.400 -13.920  13.488  1.00  0.00     0.134 A 
ATOM      7  C   UNL     1     -49.736 -13.937  14.848  1.00  0.00     0.093 A 
ATOM      8  C   UNL     1     -48.990 -13.221  15.783  1.00  0.00     0.123 A 
ATOM      9  C   UNL     1     -47.887 -12.476  15.366  1.00  0.00     0.094 A 
ATOM     10  C   UNL     1     -47.504 -12.469  14.022  1.00  0.00     0.146 A 
ATOM     11  O   UNL     1     -46.438 -11.760  13.670  1.00  0.00    -0.451 OA
ENDROOT
BRANCH   1  12
ATOM     12  C   UNL     1     -44.796 -10.864  12.145  1.00  0.00     0.063 A 
ATOM     13  C   UNL     1     -42.637 -10.596  11.053  1.00  0.00     0.047 A 
ATOM     14  C   UNL     1     -43.738 -11.390  11.382  1.00  0.00     0.020 A 
ATOM     15  C   UNL     1     -42.579  -9.266  11.472  1.00  0.00     0.119 A 
ATOM     16  C   UNL     1     -43.627  -8.730  12.232  1.00  0.00     0.093 A 
ATOM     17  C   UNL     1     -44.732  -9.519  12.577  1.00  0.00     0.130 A 
BRANCH  15  18
ATOM     18  O   UNL     1     -41.476  -8.485  11.132  1.00  0.00    -0.508 OA
ATOM     19  H   UNL     1     -41.580  -7.621  10.613  1.00  0.00     0.293 HD
ENDBRANCH  15  18
BRANCH  17  20
ATOM     20  O   UNL     1     -45.731  -8.944  13.366  1.00  0.00    -0.507 OA
ATOM     21  H   UNL     1     -45.589  -8.685  14.334  1.00  0.00     0.293 HD
ENDBRANCH  17  20
ENDBRANCH   1  12
BRANCH   2  22
ATOM     22  O   UNL     1     -46.085 -12.436  10.117  1.00  0.00    -0.502 OA
ATOM     23  H   UNL     1     -45.586 -11.638   9.740  1.00  0.00     0.293 HD
ENDBRANCH   2  22
BRANCH   6  24
ATOM     24  O   UNL     1     -50.266 -14.596  12.623  1.00  0.00    -0.507 OA
ATOM     25  H   UNL     1     -50.238 -14.537  11.617  1.00  0.00     0.293 HD
ENDBRANCH   6  24
BRANCH   8  26
ATOM     26  O   UNL     1     -49.364 -13.248  17.125  1.00  0.00    -0.508 OA
ATOM     27  H   UNL     1     -48.902 -13.857  17.790  1.00  0.00     0.293 HD
ENDBRANCH   8  26
TORSDOF 6
ENDMDL
MODEL 8
REMARK VINA RESULT:    -6.955      8.624     10.620
REMARK INTER + INTRA:          -8.791
REMARK INTER:                  -8.551
REMARK INTRA:                  -0.240
REMARK UNBOUND:                -0.413
REMARK SMILES O=c1c(O)c(-c2ccc(O)cc2O)oc2cc(O)cc(O)c12
REMARK SMILES IDX 5 1 3 2 2 3 1 4 22 5 20 6 19 7 17 8 16 9 15 10 14 11 6 12
REMARK SMILES IDX 8 13 7 14 9 15 11 16 12 17 10 18 13 20 4 22 21 24 18 26
REMARK H PARENT 10 19 13 21 4 23 21 25 18 27
REMARK Flexibility Score: inf
ROOT
ATOM      1  C   UNL     1     -39.641  -7.641   3.689  1.00  0.00     0.184 A 
ATOM      2  C   UNL     1     -38.858  -7.880   4.829  1.00  0.00     0.208 A 
ATOM      3  C   UNL     1     -37.838  -6.973   5.157  1.00  0.00     0.238 A 
ATOM      4  O   UNL     1     -37.100  -7.224   6.145  1.00  0.00    -0.285 OA
ATOM      5  C   UNL     1     -37.634  -5.822   4.355  1.00  0.00     0.111 A 
ATOM      6  C   UNL     1     -36.657  -4.815   4.616  1.00  0.00     0.134 A 
ATOM      7  C   UNL     1     -36.464  -3.784   3.688  1.00  0.00     0.093 A 
ATOM      8  C   UNL     1     -37.254  -3.688   2.543  1.00  0.00     0.123 A 
ATOM      9  C   UNL     1     -38.252  -4.635   2.308  1.00  0.00     0.094 A 
ATOM     10  C   UNL     1     -38.444  -5.696   3.196  1.00  0.00     0.146 A 
ATOM     11  O   UNL     1     -39.395  -6.583   2.928  1.00  0.00    -0.451 OA
ENDROOT
BRANCH   1  12
ATOM     12  C   UNL     1     -40.743  -8.549   3.309  1.00  0.00     0.063 A 
ATOM     13  C   UNL     1     -41.667 -10.162   1.737  1.00  0.00     0.047 A 
ATOM     14  C   UNL     1     -40.666  -9.256   2.095  1.00  0.00     0.020 A 
ATOM     15  C   UNL     1     -42.753 -10.381   2.585  1.00  0.00     0.119 A 
ATOM     16  C   UNL     1     -42.841  -9.683   3.797  1.00  0.00     0.093 A 
ATOM     17  C   UNL     1     -41.850  -8.764   4.163  1.00  0.00     0.130 A 
BRANCH  15  18
ATOM     18  O   UNL     1     -43.742 -11.291   2.216  1.00  0.00    -0.508 OA
ATOM     19  H   UNL     1     -44.628 -10.984   1.833  1.00  0.00     0.293 HD
ENDBRANCH  15  18
BRANCH  17  20
ATOM     20  O   UNL     1     -42.006  -8.070   5.365  1.00  0.00    -0.507 OA
ATOM     21  H   UNL     1     -42.653  -8.357   6.088  1.00  0.00     0.293 HD
ENDBRANCH  17  20
ENDBRANCH   1  12
BRANCH   2  22
ATOM     22  O   UNL     1     -39.084  -9.021   5.604  1.00  0.00    -0.502 OA
ATOM     23  H   UNL     1     -38.335  -9.512   6.078  1.00  0.00     0.293 HD
ENDBRANCH   2  22
BRANCH   6  24
ATOM     24  O   UNL     1     -35.875  -4.766   5.774  1.00  0.00    -0.507 OA
ATOM     25  H   UNL     1     -35.999  -5.361   6.578  1.00  0.00     0.293 HD
ENDBRANCH   6  24
BRANCH   8  26
ATOM     26  O   UNL     1     -37.043  -2.640   1.650  1.00  0.00    -0.508 OA
ATOM     27  H   UNL     1     -37.619  -2.525   0.824  1.00  0.00     0.293 HD
ENDBRANCH   8  26
TORSDOF 6
ENDMDL
MODEL 9
REMARK VINA RESULT:    -6.882      2.014      7.117
REMARK INTER + INTRA:          -8.703
REMARK INTER:                  -8.559
REMARK INTRA:                  -0.144
REMARK UNBOUND:                -0.413
REMARK SMILES O=c1c(O)c(-c2ccc(O)cc2O)oc2cc(O)cc(O)c12
REMARK SMILES IDX 5 1 3 2 2 3 1 4 22 5 20 6 19 7 17 8 16 9 15 10 14 11 6 12
REMARK SMILES IDX 8 13 7 14 9 15 11 16 12 17 10 18 13 20 4 22 21 24 18 26
REMARK H PARENT 10 19 13 21 4 23 21 25 18 27
REMARK Flexibility Score: inf
ROOT
ATOM      1  C   UNL     1     -44.604 -10.261  12.909  1.00  0.00     0.184 A 
ATOM      2  C   UNL     1     -44.511 -11.206  11.877  1.00  0.00     0.208 A 
ATOM      3  C   UNL     1     -45.438 -12.260  11.832  1.00  0.00     0.238 A 
ATOM      4  O   UNL     1     -45.312 -13.138  10.939  1.00  0.00    -0.285 OA
ATOM      5  C   UNL     1     -46.465 -12.336  12.805  1.00  0.00     0.111 A 
ATOM      6  C   UNL     1     -47.482 -13.336  12.834  1.00  0.00     0.134 A 
ATOM      7  C   UNL     1     -48.374 -13.384  13.913  1.00  0.00     0.093 A 
ATOM      8  C   UNL     1     -48.325 -12.431  14.930  1.00  0.00     0.123 A 
ATOM      9  C   UNL     1     -47.372 -11.414  14.882  1.00  0.00     0.094 A 
ATOM     10  C   UNL     1     -46.445 -11.361  13.837  1.00  0.00     0.146 A 
ATOM     11  O   UNL     1     -45.545 -10.385  13.837  1.00  0.00    -0.451 OA
ENDROOT
BRANCH   1  12
ATOM     12  C   UNL     1     -43.671  -9.119  12.994  1.00  0.00     0.063 A 
ATOM     13  C   UNL     1     -42.568  -7.243  11.903  1.00  0.00     0.047 A 
ATOM     14  C   UNL     1     -43.403  -8.360  11.840  1.00  0.00     0.020 A 
ATOM     15  C   UNL     1     -41.995  -6.861  13.117  1.00  0.00     0.119 A 
ATOM     16  C   UNL     1     -42.255  -7.608  14.273  1.00  0.00     0.093 A 
ATOM     17  C   UNL     1     -43.082  -8.736  14.222  1.00  0.00     0.130 A 
BRANCH  15  18
ATOM     18  O   UNL     1     -41.168  -5.740  13.165  1.00  0.00    -0.508 OA
ATOM     19  H   UNL     1     -40.364  -5.649  12.556  1.00  0.00     0.293 HD
ENDBRANCH  15  18
BRANCH  17  20
ATOM     20  O   UNL     1     -43.278  -9.464  15.397  1.00  0.00    -0.507 OA
ATOM     21  H   UNL     1     -42.592 -10.108  15.769  1.00  0.00     0.293 HD
ENDBRANCH  17  20
ENDBRANCH   1  12
BRANCH   2  22
ATOM     22  O   UNL     1     -43.490 -11.104  10.927  1.00  0.00    -0.502 OA
ATOM     23  H   UNL     1     -42.792 -10.370  10.958  1.00  0.00     0.293 HD
ENDBRANCH   2  22
BRANCH   6  24
ATOM     24  O   UNL     1     -47.677 -14.282  11.823  1.00  0.00    -0.507 OA
ATOM     25  H   UNL     1     -48.555 -14.458  11.359  1.00  0.00     0.293 HD
ENDBRANCH   6  24
BRANCH   8  26
ATOM     26  O   UNL     1     -49.238 -12.501  15.980  1.00  0.00    -0.508 OA
ATOM     27  H   UNL     1     -49.843 -13.305  16.103  1.00  0.00     0.293 HD
ENDBRANCH   8  26
TORSDOF 6
ENDMDL
