MODEL 1
REMARK VINA RESULT:    -8.076      0.000      0.000
REMARK INTER + INTRA:          -9.619
REMARK INTER:                  -9.729
REMARK INTRA:                   0.110
REMARK UNBOUND:                 0.110
REMARK SMILES O=c1c(O)c(-c2ccc(O)cc2O)oc2cc(O)cc(O)c12
REMARK SMILES IDX 5 1 3 2 2 3 1 4 22 5 20 6 19 7 17 8 16 9 15 10 14 11 6 12
REMARK SMILES IDX 8 13 7 14 9 15 11 16 12 17 10 18 13 20 4 22 21 24 18 26
REMARK H PARENT 10 19 13 21 4 23 21 25 18 27
REMARK Flexibility Score: inf
ROOT
ATOM      1  C   UNL     1      17.528  22.521  40.428  1.00  0.00     0.184 A 
ATOM      2  C   UNL     1      17.172  23.563  39.559  1.00  0.00     0.208 A 
ATOM      3  C   UNL     1      16.031  24.329  39.847  1.00  0.00     0.238 A 
ATOM      4  O   UNL     1      15.747  25.297  39.093  1.00  0.00    -0.285 OA
ATOM      5  C   UNL     1      15.253  24.030  40.991  1.00  0.00     0.111 A 
ATOM      6  C   UNL     1      14.054  24.714  41.357  1.00  0.00     0.134 A 
ATOM      7  C   UNL     1      13.436  24.419  42.579  1.00  0.00     0.093 A 
ATOM      8  C   UNL     1      13.936  23.423  43.416  1.00  0.00     0.123 A 
ATOM      9  C   UNL     1      15.074  22.707  43.041  1.00  0.00     0.094 A 
ATOM     10  C   UNL     1      15.732  23.002  41.845  1.00  0.00     0.146 A 
ATOM     11  O   UNL     1      16.817  22.305  41.529  1.00  0.00    -0.451 OA
ENDROOT
BRANCH   1  12
ATOM     12  C   UNL     1      18.706  21.666  40.176  1.00  0.00     0.063 A 
ATOM     13  C   UNL     1      20.974  21.453  39.326  1.00  0.00     0.047 A 
ATOM     14  C   UNL     1      19.841  22.231  39.574  1.00  0.00     0.020 A 
ATOM     15  C   UNL     1      20.991  20.100  39.687  1.00  0.00     0.119 A 
ATOM     16  C   UNL     1      19.873  19.534  40.307  1.00  0.00     0.093 A 
ATOM     17  C   UNL     1      18.734  20.310  40.566  1.00  0.00     0.130 A 
BRANCH  15  18
ATOM     18  O   UNL     1      22.113  19.312  39.441  1.00  0.00    -0.508 OA
ATOM     19  H   UNL     1      22.109  18.592  38.728  1.00  0.00     0.293 HD
ENDBRANCH  15  18
BRANCH  17  20
ATOM     20  O   UNL     1      17.645  19.745  41.230  1.00  0.00    -0.507 OA
ATOM     21  H   UNL     1      16.727  19.698  40.801  1.00  0.00     0.293 HD
ENDBRANCH  17  20
ENDBRANCH   1  12
BRANCH   2  22
ATOM     22  O   UNL     1      17.968  23.848  38.447  1.00  0.00    -0.502 OA
ATOM     23  H   UNL     1      17.956  24.750  37.986  1.00  0.00     0.293 HD
ENDBRANCH   2  22
BRANCH   6  24
ATOM     24  O   UNL     1      13.420  25.663  40.550  1.00  0.00    -0.507 OA
ATOM     25  H   UNL     1      13.860  26.156  39.788  1.00  0.00     0.293 HD
ENDBRANCH   6  24
BRANCH   8  26
ATOM     26  O   UNL     1      13.288  23.146  44.618  1.00  0.00    -0.508 OA
ATOM     27  H   UNL     1      13.480  23.676  45.459  1.00  0.00     0.293 HD
ENDBRANCH   8  26
TORSDOF 6
ENDMDL
MODEL 2
REMARK VINA RESULT:    -7.977      1.476      6.548
REMARK INTER + INTRA:          -9.500
REMARK INTER:                  -9.620
REMARK INTRA:                   0.121
REMARK UNBOUND:                 0.110
REMARK SMILES O=c1c(O)c(-c2ccc(O)cc2O)oc2cc(O)cc(O)c12
REMARK SMILES IDX 5 1 3 2 2 3 1 4 22 5 20 6 19 7 17 8 16 9 15 10 14 11 6 12
REMARK SMILES IDX 8 13 7 14 9 15 11 16 12 17 10 18 13 20 4 22 21 24 18 26
REMARK H PARENT 10 19 13 21 4 23 21 25 18 27
REMARK Flexibility Score: inf
ROOT
ATOM      1  C   UNL     1      14.913  23.696  41.809  1.00  0.00     0.184 A 
ATOM      2  C   UNL     1      14.971  24.659  40.791  1.00  0.00     0.208 A 
ATOM      3  C   UNL     1      15.962  24.546  39.802  1.00  0.00     0.238 A 
ATOM      4  O   UNL     1      15.975  25.382  38.862  1.00  0.00    -0.285 OA
ATOM      5  C   UNL     1      16.892  23.480  39.857  1.00  0.00     0.111 A 
ATOM      6  C   UNL     1      17.963  23.290  38.932  1.00  0.00     0.134 A 
ATOM      7  C   UNL     1      18.742  22.129  39.007  1.00  0.00     0.093 A 
ATOM      8  C   UNL     1      18.533  21.184  40.009  1.00  0.00     0.123 A 
ATOM      9  C   UNL     1      17.527  21.388  40.956  1.00  0.00     0.094 A 
ATOM     10  C   UNL     1      16.710  22.519  40.886  1.00  0.00     0.146 A 
ATOM     11  O   UNL     1      15.757  22.670  41.799  1.00  0.00    -0.451 OA
ENDROOT
BRANCH   1  12
ATOM     12  C   UNL     1      13.907  23.765  42.889  1.00  0.00     0.063 A 
ATOM     13  C   UNL     1      11.656  24.352  43.596  1.00  0.00     0.047 A 
ATOM     14  C   UNL     1      12.633  24.277  42.600  1.00  0.00     0.020 A 
ATOM     15  C   UNL     1      11.938  23.903  44.892  1.00  0.00     0.119 A 
ATOM     16  C   UNL     1      13.197  23.370  45.183  1.00  0.00     0.093 A 
ATOM     17  C   UNL     1      14.181  23.286  44.187  1.00  0.00     0.130 A 
BRANCH  15  18
ATOM     18  O   UNL     1      10.973  23.976  45.895  1.00  0.00    -0.508 OA
ATOM     19  H   UNL     1      10.717  24.860  46.319  1.00  0.00     0.293 HD
ENDBRANCH  15  18
BRANCH  17  20
ATOM     20  O   UNL     1      15.416  22.707  44.479  1.00  0.00    -0.507 OA
ATOM     21  H   UNL     1      15.900  22.120  43.808  1.00  0.00     0.293 HD
ENDBRANCH  17  20
ENDBRANCH   1  12
BRANCH   2  22
ATOM     22  O   UNL     1      14.030  25.691  40.751  1.00  0.00    -0.502 OA
ATOM     23  H   UNL     1      13.811  26.194  39.899  1.00  0.00     0.293 HD
ENDBRANCH   2  22
BRANCH   6  24
ATOM     24  O   UNL     1      18.316  24.217  37.948  1.00  0.00    -0.507 OA
ATOM     25  H   UNL     1      18.442  23.999  36.971  1.00  0.00     0.293 HD
ENDBRANCH   6  24
BRANCH   8  26
ATOM     26  O   UNL     1      19.337  20.048  40.063  1.00  0.00    -0.508 OA
ATOM     27  H   UNL     1      19.324  19.354  39.325  1.00  0.00     0.293 HD
ENDBRANCH   8  26
TORSDOF 6
ENDMDL
MODEL 3
REMARK VINA RESULT:    -7.732      1.637      2.060
REMARK INTER + INTRA:          -9.205
REMARK INTER:                  -8.886
REMARK INTRA:                  -0.319
REMARK UNBOUND:                 0.110
REMARK SMILES O=c1c(O)c(-c2ccc(O)cc2O)oc2cc(O)cc(O)c12
REMARK SMILES IDX 5 1 3 2 2 3 1 4 22 5 20 6 19 7 17 8 16 9 15 10 14 11 6 12
REMARK SMILES IDX 8 13 7 14 9 15 11 16 12 17 10 18 13 20 4 22 21 24 18 26
REMARK H PARENT 10 19 13 21 4 23 21 25 18 27
REMARK Flexibility Score: inf
ROOT
ATOM      1  C   UNL     1      16.225  23.336  40.580  1.00  0.00     0.184 A 
ATOM      2  C   UNL     1      15.510  24.471  40.167  1.00  0.00     0.208 A 
ATOM      3  C   UNL     1      14.461  24.944  40.971  1.00  0.00     0.238 A 
ATOM      4  O   UNL     1      13.859  25.994  40.624  1.00  0.00    -0.285 OA
ATOM      5  C   UNL     1      14.130  24.265  42.168  1.00  0.00     0.111 A 
ATOM      6  C   UNL     1      13.059  24.631  43.038  1.00  0.00     0.134 A 
ATOM      7  C   UNL     1      12.905  23.966  44.261  1.00  0.00     0.093 A 
ATOM      8  C   UNL     1      13.739  22.907  44.615  1.00  0.00     0.123 A 
ATOM      9  C   UNL     1      14.752  22.500  43.745  1.00  0.00     0.094 A 
ATOM     10  C   UNL     1      14.954  23.168  42.534  1.00  0.00     0.146 A 
ATOM     11  O   UNL     1      15.935  22.757  41.740  1.00  0.00    -0.451 OA
ENDROOT
BRANCH   1  12
ATOM     12  C   UNL     1      17.329  22.776  39.773  1.00  0.00     0.063 A 
ATOM     13  C   UNL     1      19.518  23.074  38.758  1.00  0.00     0.047 A 
ATOM     14  C   UNL     1      18.454  23.573  39.513  1.00  0.00     0.020 A 
ATOM     15  C   UNL     1      19.475  21.764  38.264  1.00  0.00     0.119 A 
ATOM     16  C   UNL     1      18.369  20.955  38.537  1.00  0.00     0.093 A 
ATOM     17  C   UNL     1      17.298  21.448  39.299  1.00  0.00     0.130 A 
BRANCH  15  18
ATOM     18  O   UNL     1      20.528  21.256  37.507  1.00  0.00    -0.508 OA
ATOM     19  H   UNL     1      20.611  21.452  36.516  1.00  0.00     0.293 HD
ENDBRANCH  15  18
BRANCH  17  20
ATOM     20  O   UNL     1      16.223  20.614  39.606  1.00  0.00    -0.507 OA
ATOM     21  H   UNL     1      16.355  19.630  39.815  1.00  0.00     0.293 HD
ENDBRANCH  17  20
ENDBRANCH   1  12
BRANCH   2  22
ATOM     22  O   UNL     1      15.870  25.133  38.990  1.00  0.00    -0.502 OA
ATOM     23  H   UNL     1      16.163  26.103  38.980  1.00  0.00     0.293 HD
ENDBRANCH   2  22
BRANCH   6  24
ATOM     24  O   UNL     1      12.113  25.615  42.739  1.00  0.00    -0.507 OA
ATOM     25  H   UNL     1      11.221  25.713  43.200  1.00  0.00     0.293 HD
ENDBRANCH   6  24
BRANCH   8  26
ATOM     26  O   UNL     1      13.547  22.257  45.832  1.00  0.00    -0.508 OA
ATOM     27  H   UNL     1      14.090  22.497  46.653  1.00  0.00     0.293 HD
ENDBRANCH   8  26
TORSDOF 6
ENDMDL
MODEL 4
REMARK VINA RESULT:    -7.598      1.223      6.370
REMARK INTER + INTRA:          -9.043
REMARK INTER:                  -9.198
REMARK INTRA:                   0.155
REMARK UNBOUND:                 0.110
REMARK SMILES O=c1c(O)c(-c2ccc(O)cc2O)oc2cc(O)cc(O)c12
REMARK SMILES IDX 5 1 3 2 2 3 1 4 22 5 20 6 19 7 17 8 16 9 15 10 14 11 6 12
REMARK SMILES IDX 8 13 7 14 9 15 11 16 12 17 10 18 13 20 4 22 21 24 18 26
REMARK H PARENT 10 19 13 21 4 23 21 25 18 27
REMARK Flexibility Score: inf
ROOT
ATOM      1  C   UNL     1      16.152  23.312  40.922  1.00  0.00     0.184 A 
ATOM      2  C   UNL     1      16.535  24.193  39.900  1.00  0.00     0.208 A 
ATOM      3  C   UNL     1      17.665  23.886  39.125  1.00  0.00     0.238 A 
ATOM      4  O   UNL     1      17.973  24.652  38.175  1.00  0.00    -0.285 OA
ATOM      5  C   UNL     1      18.406  22.710  39.395  1.00  0.00     0.111 A 
ATOM      6  C   UNL     1      19.591  22.321  38.701  1.00  0.00     0.134 A 
ATOM      7  C   UNL     1      20.168  21.072  38.965  1.00  0.00     0.093 A 
ATOM      8  C   UNL     1      19.642  20.228  39.942  1.00  0.00     0.123 A 
ATOM      9  C   UNL     1      18.518  20.624  40.670  1.00  0.00     0.094 A 
ATOM     10  C   UNL     1      17.899  21.848  40.404  1.00  0.00     0.146 A 
ATOM     11  O   UNL     1      16.826  22.183  41.110  1.00  0.00    -0.451 OA
ENDROOT
BRANCH   1  12
ATOM     12  C   UNL     1      14.984  23.583  41.784  1.00  0.00     0.063 A 
ATOM     13  C   UNL     1      12.763  24.541  42.034  1.00  0.00     0.047 A 
ATOM     14  C   UNL     1      13.886  24.273  41.247  1.00  0.00     0.020 A 
ATOM     15  C   UNL     1      12.719  24.112  43.366  1.00  0.00     0.119 A 
ATOM     16  C   UNL     1      13.797  23.404  43.903  1.00  0.00     0.093 A 
ATOM     17  C   UNL     1      14.927  23.125  43.118  1.00  0.00     0.130 A 
BRANCH  15  18
ATOM     18  O   UNL     1      11.606  24.377  44.161  1.00  0.00    -0.508 OA
ATOM     19  H   UNL     1      11.078  25.237  44.064  1.00  0.00     0.293 HD
ENDBRANCH  15  18
BRANCH  17  20
ATOM     20  O   UNL     1      15.975  22.375  43.651  1.00  0.00    -0.507 OA
ATOM     21  H   UNL     1      16.779  22.817  44.083  1.00  0.00     0.293 HD
ENDBRANCH  17  20
ENDBRANCH   1  12
BRANCH   2  22
ATOM     22  O   UNL     1      15.777  25.338  39.643  1.00  0.00    -0.502 OA
ATOM     23  H   UNL     1      16.028  26.250  40.004  1.00  0.00     0.293 HD
ENDBRANCH   2  22
BRANCH   6  24
ATOM     24  O   UNL     1      20.250  23.128  37.770  1.00  0.00    -0.507 OA
ATOM     25  H   UNL     1      21.192  22.977  37.443  1.00  0.00     0.293 HD
ENDBRANCH   6  24
BRANCH   8  26
ATOM     26  O   UNL     1      20.250  19.000  40.190  1.00  0.00    -0.508 OA
ATOM     27  H   UNL     1      19.766  18.125  40.025  1.00  0.00     0.293 HD
ENDBRANCH   8  26
TORSDOF 6
ENDMDL
MODEL 5
REMARK VINA RESULT:    -7.387      1.840      6.650
REMARK INTER + INTRA:          -8.788
REMARK INTER:                  -8.780
REMARK INTRA:                  -0.008
REMARK UNBOUND:                 0.110
REMARK SMILES O=c1c(O)c(-c2ccc(O)cc2O)oc2cc(O)cc(O)c12
REMARK SMILES IDX 5 1 3 2 2 3 1 4 22 5 20 6 19 7 17 8 16 9 15 10 14 11 6 12
REMARK SMILES IDX 8 13 7 14 9 15 11 16 12 17 10 18 13 20 4 22 21 24 18 26
REMARK H PARENT 10 19 13 21 4 23 21 25 18 27
REMARK Flexibility Score: inf
ROOT
ATOM      1  C   UNL     1      14.400  23.658  42.385  1.00  0.00     0.184 A 
ATOM      2  C   UNL     1      14.190  24.699  41.469  1.00  0.00     0.208 A 
ATOM      3  C   UNL     1      15.031  24.802  40.349  1.00  0.00     0.238 A 
ATOM      4  O   UNL     1      14.804  25.705  39.503  1.00  0.00    -0.285 OA
ATOM      5  C   UNL     1      16.083  23.870  40.172  1.00  0.00     0.111 A 
ATOM      6  C   UNL     1      17.021  23.903  39.097  1.00  0.00     0.134 A 
ATOM      7  C   UNL     1      17.940  22.856  38.950  1.00  0.00     0.093 A 
ATOM      8  C   UNL     1      17.997  21.813  39.874  1.00  0.00     0.123 A 
ATOM      9  C   UNL     1      17.123  21.802  40.962  1.00  0.00     0.094 A 
ATOM     10  C   UNL     1      16.172  22.813  41.116  1.00  0.00     0.146 A 
ATOM     11  O   UNL     1      15.353  22.760  42.159  1.00  0.00    -0.451 OA
ENDROOT
BRANCH   1  12
ATOM     12  C   UNL     1      13.562  23.502  43.592  1.00  0.00     0.063 A 
ATOM     13  C   UNL     1      11.356  23.572  44.612  1.00  0.00     0.047 A 
ATOM     14  C   UNL     1      12.179  23.715  43.492  1.00  0.00     0.020 A 
ATOM     15  C   UNL     1      11.907  23.202  45.845  1.00  0.00     0.119 A 
ATOM     16  C   UNL     1      13.280  22.966  45.949  1.00  0.00     0.093 A 
ATOM     17  C   UNL     1      14.112  23.102  44.827  1.00  0.00     0.130 A 
BRANCH  15  18
ATOM     18  O   UNL     1      11.098  23.059  46.971  1.00  0.00    -0.508 OA
ATOM     19  H   UNL     1      10.840  22.145  47.325  1.00  0.00     0.293 HD
ENDBRANCH  15  18
BRANCH  17  20
ATOM     20  O   UNL     1      15.473  22.815  44.934  1.00  0.00    -0.507 OA
ATOM     21  H   UNL     1      15.910  22.631  45.830  1.00  0.00     0.293 HD
ENDBRANCH  17  20
ENDBRANCH   1  12
BRANCH   2  22
ATOM     22  O   UNL     1      13.133  25.594  41.658  1.00  0.00    -0.502 OA
ATOM     23  H   UNL     1      13.281  26.567  41.900  1.00  0.00     0.293 HD
ENDBRANCH   2  22
BRANCH   6  24
ATOM     24  O   UNL     1      17.110  24.946  38.171  1.00  0.00    -0.507 OA
ATOM     25  H   UNL     1      16.706  25.861  38.295  1.00  0.00     0.293 HD
ENDBRANCH   6  24
BRANCH   8  26
ATOM     26  O   UNL     1      18.934  20.796  39.705  1.00  0.00    -0.508 OA
ATOM     27  H   UNL     1      19.813  20.958  39.228  1.00  0.00     0.293 HD
ENDBRANCH   8  26
TORSDOF 6
ENDMDL
MODEL 6
REMARK VINA RESULT:    -7.192      1.517      6.913
REMARK INTER + INTRA:          -8.553
REMARK INTER:                  -8.177
REMARK INTRA:                  -0.377
REMARK UNBOUND:                 0.110
REMARK SMILES O=c1c(O)c(-c2ccc(O)cc2O)oc2cc(O)cc(O)c12
REMARK SMILES IDX 5 1 3 2 2 3 1 4 22 5 20 6 19 7 17 8 16 9 15 10 14 11 6 12
REMARK SMILES IDX 8 13 7 14 9 15 11 16 12 17 10 18 13 20 4 22 21 24 18 26
REMARK H PARENT 10 19 13 21 4 23 21 25 18 27
REMARK Flexibility Score: inf
ROOT
ATOM      1  C   UNL     1      17.039  22.392  40.942  1.00  0.00     0.184 A 
ATOM      2  C   UNL     1      17.173  21.006  40.772  1.00  0.00     0.208 A 
ATOM      3  C   UNL     1      18.370  20.498  40.244  1.00  0.00     0.238 A 
ATOM      4  O   UNL     1      18.506  19.250  40.145  1.00  0.00    -0.285 OA
ATOM      5  C   UNL     1      19.411  21.385  39.878  1.00  0.00     0.111 A 
ATOM      6  C   UNL     1      20.651  20.984  39.295  1.00  0.00     0.134 A 
ATOM      7  C   UNL     1      21.658  21.935  39.092  1.00  0.00     0.093 A 
ATOM      8  C   UNL     1      21.449  23.281  39.390  1.00  0.00     0.123 A 
ATOM      9  C   UNL     1      20.219  23.695  39.905  1.00  0.00     0.094 A 
ATOM     10  C   UNL     1      19.207  22.764  40.151  1.00  0.00     0.146 A 
ATOM     11  O   UNL     1      18.056  23.196  40.651  1.00  0.00    -0.451 OA
ENDROOT
BRANCH   1  12
ATOM     12  C   UNL     1      15.800  22.994  41.476  1.00  0.00     0.063 A 
ATOM     13  C   UNL     1      14.282  23.306  43.350  1.00  0.00     0.047 A 
ATOM     14  C   UNL     1      15.444  22.748  42.812  1.00  0.00     0.020 A 
ATOM     15  C   UNL     1      13.466  24.127  42.563  1.00  0.00     0.119 A 
ATOM     16  C   UNL     1      13.824  24.396  41.239  1.00  0.00     0.093 A 
ATOM     17  C   UNL     1      14.993  23.845  40.692  1.00  0.00     0.130 A 
BRANCH  15  18
ATOM     18  O   UNL     1      12.303  24.686  43.088  1.00  0.00    -0.508 OA
ATOM     19  H   UNL     1      11.598  25.102  42.489  1.00  0.00     0.293 HD
ENDBRANCH  15  18
BRANCH  17  20
ATOM     20  O   UNL     1      15.364  24.161  39.385  1.00  0.00    -0.507 OA
ATOM     21  H   UNL     1      15.934  24.974  39.176  1.00  0.00     0.293 HD
ENDBRANCH  17  20
ENDBRANCH   1  12
BRANCH   2  22
ATOM     22  O   UNL     1      16.138  20.151  41.159  1.00  0.00    -0.502 OA
ATOM     23  H   UNL     1      15.378  19.900  40.537  1.00  0.00     0.293 HD
ENDBRANCH   2  22
BRANCH   6  24
ATOM     24  O   UNL     1      20.930  19.680  38.877  1.00  0.00    -0.507 OA
ATOM     25  H   UNL     1      20.327  19.123  38.291  1.00  0.00     0.293 HD
ENDBRANCH   6  24
BRANCH   8  26
ATOM     26  O   UNL     1      22.468  24.203  39.161  1.00  0.00    -0.508 OA
ATOM     27  H   UNL     1      23.213  24.346  39.832  1.00  0.00     0.293 HD
ENDBRANCH   8  26
TORSDOF 6
ENDMDL
MODEL 7
REMARK VINA RESULT:    -6.338      1.906      6.666
REMARK INTER + INTRA:          -7.525
REMARK INTER:                  -7.113
REMARK INTRA:                  -0.412
REMARK UNBOUND:                 0.110
REMARK SMILES O=c1c(O)c(-c2ccc(O)cc2O)oc2cc(O)cc(O)c12
REMARK SMILES IDX 5 1 3 2 2 3 1 4 22 5 20 6 19 7 17 8 16 9 15 10 14 11 6 12
REMARK SMILES IDX 8 13 7 14 9 15 11 16 12 17 10 18 13 20 4 22 21 24 18 26
REMARK H PARENT 10 19 13 21 4 23 21 25 18 27
REMARK Flexibility Score: inf
ROOT
ATOM      1  C   UNL     1      16.826  22.907  40.480  1.00  0.00     0.184 A 
ATOM      2  C   UNL     1      16.823  21.708  39.752  1.00  0.00     0.208 A 
ATOM      3  C   UNL     1      17.991  21.319  39.076  1.00  0.00     0.238 A 
ATOM      4  O   UNL     1      17.999  20.216  38.470  1.00  0.00    -0.285 OA
ATOM      5  C   UNL     1      19.140  22.145  39.124  1.00  0.00     0.111 A 
ATOM      6  C   UNL     1      20.364  21.870  38.444  1.00  0.00     0.134 A 
ATOM      7  C   UNL     1      21.478  22.690  38.667  1.00  0.00     0.093 A 
ATOM      8  C   UNL     1      21.393  23.810  39.493  1.00  0.00     0.123 A 
ATOM      9  C   UNL     1      20.184  24.122  40.117  1.00  0.00     0.094 A 
ATOM     10  C   UNL     1      19.066  23.303  39.942  1.00  0.00     0.146 A 
ATOM     11  O   UNL     1      17.938  23.630  40.562  1.00  0.00    -0.451 OA
ENDROOT
BRANCH   1  12
ATOM     12  C   UNL     1      15.627  23.383  41.200  1.00  0.00     0.063 A 
ATOM     13  C   UNL     1      13.554  24.654  41.171  1.00  0.00     0.047 A 
ATOM     14  C   UNL     1      14.702  24.191  40.522  1.00  0.00     0.020 A 
ATOM     15  C   UNL     1      13.312  24.304  42.505  1.00  0.00     0.119 A 
ATOM     16  C   UNL     1      14.217  23.482  43.182  1.00  0.00     0.093 A 
ATOM     17  C   UNL     1      15.368  23.008  42.535  1.00  0.00     0.130 A 
BRANCH  15  18
ATOM     18  O   UNL     1      12.174  24.763  43.164  1.00  0.00    -0.508 OA
ATOM     19  H   UNL     1      12.012  25.752  43.316  1.00  0.00     0.293 HD
ENDBRANCH  15  18
BRANCH  17  20
ATOM     20  O   UNL     1      16.237  22.147  43.207  1.00  0.00    -0.507 OA
ATOM     21  H   UNL     1      17.244  22.248  43.139  1.00  0.00     0.293 HD
ENDBRANCH  17  20
ENDBRANCH   1  12
BRANCH   2  22
ATOM     22  O   UNL     1      15.681  20.903  39.736  1.00  0.00    -0.502 OA
ATOM     23  H   UNL     1      14.758  21.264  39.944  1.00  0.00     0.293 HD
ENDBRANCH   2  22
BRANCH   6  24
ATOM     24  O   UNL     1      20.530  20.830  37.525  1.00  0.00    -0.507 OA
ATOM     25  H   UNL     1      20.440  19.849  37.745  1.00  0.00     0.293 HD
ENDBRANCH   6  24
BRANCH   8  26
ATOM     26  O   UNL     1      22.516  24.612  39.680  1.00  0.00    -0.508 OA
ATOM     27  H   UNL     1      23.452  24.265  39.505  1.00  0.00     0.293 HD
ENDBRANCH   8  26
TORSDOF 6
ENDMDL
MODEL 8
REMARK VINA RESULT:    -5.540      1.617      2.647
REMARK INTER + INTRA:          -6.564
REMARK INTER:                  -7.791
REMARK INTRA:                   1.227
REMARK UNBOUND:                 0.110
REMARK SMILES O=c1c(O)c(-c2ccc(O)cc2O)oc2cc(O)cc(O)c12
REMARK SMILES IDX 5 1 3 2 2 3 1 4 22 5 20 6 19 7 17 8 16 9 15 10 14 11 6 12
REMARK SMILES IDX 8 13 7 14 9 15 11 16 12 17 10 18 13 20 4 22 21 24 18 26
REMARK H PARENT 10 19 13 21 4 23 21 25 18 27
REMARK Flexibility Score: inf
ROOT
ATOM      1  C   UNL     1      19.381  22.415  39.292  1.00  0.00     0.184 A 
ATOM      2  C   UNL     1      19.179  23.563  38.511  1.00  0.00     0.208 A 
ATOM      3  C   UNL     1      18.007  24.314  38.694  1.00  0.00     0.238 A 
ATOM      4  O   UNL     1      17.858  25.372  38.030  1.00  0.00    -0.285 OA
ATOM      5  C   UNL     1      17.045  23.895  39.644  1.00  0.00     0.111 A 
ATOM      6  C   UNL     1      15.803  24.557  39.884  1.00  0.00     0.134 A 
ATOM      7  C   UNL     1      14.985  24.129  40.938  1.00  0.00     0.093 A 
ATOM      8  C   UNL     1      15.333  23.027  41.718  1.00  0.00     0.123 A 
ATOM      9  C   UNL     1      16.517  22.336  41.454  1.00  0.00     0.094 A 
ATOM     10  C   UNL     1      17.370  22.760  40.433  1.00  0.00     0.146 A 
ATOM     11  O   UNL     1      18.492  22.082  40.221  1.00  0.00    -0.451 OA
ENDROOT
BRANCH   1  12
ATOM     12  C   UNL     1      20.583  21.570  39.138  1.00  0.00     0.063 A 
ATOM     13  C   UNL     1      22.239  20.109  40.155  1.00  0.00     0.047 A 
ATOM     14  C   UNL     1      21.106  20.918  40.265  1.00  0.00     0.020 A 
ATOM     15  C   UNL     1      22.857  19.931  38.911  1.00  0.00     0.119 A 
ATOM     16  C   UNL     1      22.330  20.558  37.778  1.00  0.00     0.093 A 
ATOM     17  C   UNL     1      21.189  21.368  37.880  1.00  0.00     0.130 A 
BRANCH  15  18
ATOM     18  O   UNL     1      23.989  19.128  38.788  1.00  0.00    -0.508 OA
ATOM     19  H   UNL     1      24.893  19.521  38.549  1.00  0.00     0.293 HD
ENDBRANCH  15  18
BRANCH  17  20
ATOM     20  O   UNL     1      20.644  21.947  36.734  1.00  0.00    -0.507 OA
ATOM     21  H   UNL     1      21.076  22.748  36.286  1.00  0.00     0.293 HD
ENDBRANCH  17  20
ENDBRANCH   1  12
BRANCH   2  22
ATOM     22  O   UNL     1      20.154  23.963  37.593  1.00  0.00    -0.502 OA
ATOM     23  H   UNL     1      20.404  23.405  36.786  1.00  0.00     0.293 HD
ENDBRANCH   2  22
BRANCH   6  24
ATOM     24  O   UNL     1      15.317  25.611  39.106  1.00  0.00    -0.507 OA
ATOM     25  H   UNL     1      15.766  25.968  38.277  1.00  0.00     0.293 HD
ENDBRANCH   6  24
BRANCH   8  26
ATOM     26  O   UNL     1      14.489  22.620  42.748  1.00  0.00    -0.508 OA
ATOM     27  H   UNL     1      14.204  23.256  43.483  1.00  0.00     0.293 HD
ENDBRANCH   8  26
TORSDOF 6
ENDMDL
