MODEL 1
REMARK VINA RESULT:     8.511      0.000      0.000
REMARK INTER + INTRA:          17.302
REMARK INTER:                  18.463
REMARK INTRA:                  -1.161
REMARK UNBOUND:                -1.161
REMARK SMILES CCCCCCCCCCCCCCCCCCCCCC(=O)[O-]
REMARK SMILES IDX 12 1 11 2 10 3 9 4 8 5 7 6 6 7 5 8 4 9 3 10 2 11 1 12 13 13
REMARK SMILES IDX 14 14 15 15 16 16 17 17 18 18 19 19 20 20 21 21 22 22 23 23
REMARK SMILES IDX 24 24
REMARK H PARENT
REMARK Flexibility Score: inf
ROOT
ATOM      1  C   UNL     1       7.213  42.345  12.498  1.00  0.00     0.000 C 
ENDROOT
BRANCH   1   2
ATOM      2  C   UNL     1       7.374  42.761  11.020  1.00  0.00     0.000 C 
BRANCH   2   3
ATOM      3  C   UNL     1       6.066  42.742  10.207  1.00  0.00     0.000 C 
BRANCH   3   4
ATOM      4  C   UNL     1       5.447  44.139  10.030  1.00  0.00    -0.000 C 
BRANCH   4   5
ATOM      5  C   UNL     1       3.909  44.131  10.143  1.00  0.00    -0.000 C 
BRANCH   5   6
ATOM      6  C   UNL     1       3.362  43.523  11.450  1.00  0.00    -0.000 C 
BRANCH   6   7
ATOM      7  C   UNL     1       1.828  43.594  11.545  1.00  0.00    -0.000 C 
BRANCH   7   8
ATOM      8  C   UNL     1       1.359  44.373  12.786  1.00  0.00    -0.000 C 
BRANCH   8   9
ATOM      9  C   UNL     1      -0.030  43.919  13.272  1.00  0.00    -0.000 C 
BRANCH   9  10
ATOM     10  C   UNL     1      -0.619  44.877  14.330  1.00  0.00    -0.000 C 
BRANCH  10  11
ATOM     11  C   UNL     1      -2.087  44.579  14.679  1.00  0.00    -0.003 C 
ATOM     12  C   UNL     1      -2.398  43.088  14.751  1.00  0.00     0.004 C 
ENDBRANCH  10  11
ENDBRANCH   9  10
ENDBRANCH   8   9
ENDBRANCH   7   8
ENDBRANCH   6   7
ENDBRANCH   5   6
ENDBRANCH   4   5
ENDBRANCH   3   4
ENDBRANCH   2   3
ENDBRANCH   1   2
BRANCH   1  13
ATOM     13  C   UNL     1       6.394  43.357  13.326  1.00  0.00     0.000 C 
BRANCH  13  14
ATOM     14  C   UNL     1       5.544  42.686  14.428  1.00  0.00     0.000 C 
BRANCH  14  15
ATOM     15  C   UNL     1       6.218  41.478  15.109  1.00  0.00     0.000 C 
BRANCH  15  16
ATOM     16  C   UNL     1       5.707  41.130  16.520  1.00  0.00     0.000 C 
BRANCH  16  17
ATOM     17  C   UNL     1       6.436  39.964  17.217  1.00  0.00     0.000 C 
BRANCH  17  18
ATOM     18  C   UNL     1       6.265  39.975  18.743  1.00  0.00     0.000 C 
BRANCH  18  19
ATOM     19  C   UNL     1       4.797  40.222  19.126  1.00  0.00     0.000 C 
BRANCH  19  20
ATOM     20  C   UNL     1       4.606  41.513  19.945  1.00  0.00     0.006 C 
BRANCH  20  21
ATOM     21  C   UNL     1       3.152  41.773  20.366  1.00  0.00     0.053 C 
BRANCH  21  22
ATOM     22  C   UNL     1       2.937  43.196  20.786  1.00  0.00     0.041 C 
ATOM     23  O   UNL     1       1.891  43.808  20.446  1.00  0.00    -0.550 OA
ATOM     24  O   UNL     1       3.905  43.852  21.535  1.00  0.00    -0.550 OA
ENDBRANCH  21  22
ENDBRANCH  20  21
ENDBRANCH  19  20
ENDBRANCH  18  19
ENDBRANCH  17  18
ENDBRANCH  16  17
ENDBRANCH  15  16
ENDBRANCH  14  15
ENDBRANCH  13  14
ENDBRANCH   1  13
TORSDOF 20
ENDMDL
MODEL 2
REMARK VINA RESULT:     9.179      1.953      2.785
REMARK INTER + INTRA:          18.750
REMARK INTER:                  20.286
REMARK INTRA:                  -1.536
REMARK UNBOUND:                -1.161
REMARK SMILES CCCCCCCCCCCCCCCCCCCCCC(=O)[O-]
REMARK SMILES IDX 12 1 11 2 10 3 9 4 8 5 7 6 6 7 5 8 4 9 3 10 2 11 1 12 13 13
REMARK SMILES IDX 14 14 15 15 16 16 17 17 18 18 19 19 20 20 21 21 22 22 23 23
REMARK SMILES IDX 24 24
REMARK H PARENT
REMARK Flexibility Score: inf
ROOT
ATOM      1  C   UNL     1       6.421  42.281  12.718  1.00  0.00     0.000 C 
ENDROOT
BRANCH   1   2
ATOM      2  C   UNL     1       7.757  42.036  11.985  1.00  0.00     0.000 C 
BRANCH   2   3
ATOM      3  C   UNL     1       8.753  43.208  12.068  1.00  0.00     0.000 C 
BRANCH   3   4
ATOM      4  C   UNL     1       8.083  44.582  11.896  1.00  0.00    -0.000 C 
BRANCH   4   5
ATOM      5  C   UNL     1       7.912  44.983  10.418  1.00  0.00    -0.000 C 
BRANCH   5   6
ATOM      6  C   UNL     1       6.474  44.853   9.877  1.00  0.00    -0.000 C 
BRANCH   6   7
ATOM      7  C   UNL     1       5.406  45.015  10.973  1.00  0.00    -0.000 C 
BRANCH   7   8
ATOM      8  C   UNL     1       4.158  44.158  10.698  1.00  0.00    -0.000 C 
BRANCH   8   9
ATOM      9  C   UNL     1       3.354  43.868  11.979  1.00  0.00    -0.000 C 
BRANCH   9  10
ATOM     10  C   UNL     1       1.855  43.639  11.686  1.00  0.00    -0.000 C 
BRANCH  10  11
ATOM     11  C   UNL     1       1.594  42.549  10.632  1.00  0.00    -0.003 C 
ATOM     12  C   UNL     1       0.111  42.298  10.381  1.00  0.00     0.004 C 
ENDBRANCH  10  11
ENDBRANCH   9  10
ENDBRANCH   8   9
ENDBRANCH   7   8
ENDBRANCH   6   7
ENDBRANCH   5   6
ENDBRANCH   4   5
ENDBRANCH   3   4
ENDBRANCH   2   3
ENDBRANCH   1   2
BRANCH   1  13
ATOM     13  C   UNL     1       6.525  42.099  14.246  1.00  0.00     0.000 C 
BRANCH  13  14
ATOM     14  C   UNL     1       5.149  41.931  14.928  1.00  0.00     0.000 C 
BRANCH  14  15
ATOM     15  C   UNL     1       5.217  41.616  16.436  1.00  0.00     0.000 C 
BRANCH  15  16
ATOM     16  C   UNL     1       6.147  40.456  16.839  1.00  0.00     0.000 C 
BRANCH  16  17
ATOM     17  C   UNL     1       6.034  39.999  18.307  1.00  0.00     0.000 C 
BRANCH  17  18
ATOM     18  C   UNL     1       5.091  40.879  19.139  1.00  0.00     0.000 C 
BRANCH  18  19
ATOM     19  C   UNL     1       4.066  40.019  19.896  1.00  0.00     0.000 C 
BRANCH  19  20
ATOM     20  C   UNL     1       3.310  40.811  20.980  1.00  0.00     0.006 C 
BRANCH  20  21
ATOM     21  C   UNL     1       2.342  41.863  20.420  1.00  0.00     0.053 C 
BRANCH  21  22
ATOM     22  C   UNL     1       2.834  43.259  20.659  1.00  0.00     0.041 C 
ATOM     23  O   UNL     1       2.180  44.246  20.231  1.00  0.00    -0.550 OA
ATOM     24  O   UNL     1       4.030  43.468  21.335  1.00  0.00    -0.550 OA
ENDBRANCH  21  22
ENDBRANCH  20  21
ENDBRANCH  19  20
ENDBRANCH  18  19
ENDBRANCH  17  18
ENDBRANCH  16  17
ENDBRANCH  15  16
ENDBRANCH  14  15
ENDBRANCH  13  14
ENDBRANCH   1  13
TORSDOF 20
ENDMDL
MODEL 3
REMARK VINA RESULT:     9.767      2.243      3.777
REMARK INTER + INTRA:          20.026
REMARK INTER:                  21.154
REMARK INTRA:                  -1.128
REMARK UNBOUND:                -1.161
REMARK SMILES CCCCCCCCCCCCCCCCCCCCCC(=O)[O-]
REMARK SMILES IDX 12 1 11 2 10 3 9 4 8 5 7 6 6 7 5 8 4 9 3 10 2 11 1 12 13 13
REMARK SMILES IDX 14 14 15 15 16 16 17 17 18 18 19 19 20 20 21 21 22 22 23 23
REMARK SMILES IDX 24 24
REMARK H PARENT
REMARK Flexibility Score: inf
ROOT
ATOM      1  C   UNL     1       6.999  41.197  15.125  1.00  0.00     0.000 C 
ENDROOT
BRANCH   1   2
ATOM      2  C   UNL     1       6.343  42.213  14.166  1.00  0.00     0.000 C 
BRANCH   2   3
ATOM      3  C   UNL     1       7.040  42.341  12.798  1.00  0.00     0.000 C 
BRANCH   3   4
ATOM      4  C   UNL     1       7.376  43.795  12.427  1.00  0.00    -0.000 C 
BRANCH   4   5
ATOM      5  C   UNL     1       7.995  43.926  11.021  1.00  0.00    -0.000 C 
BRANCH   5   6
ATOM      6  C   UNL     1       6.972  44.067   9.876  1.00  0.00    -0.000 C 
BRANCH   6   7
ATOM      7  C   UNL     1       5.892  45.125  10.167  1.00  0.00    -0.000 C 
BRANCH   7   8
ATOM      8  C   UNL     1       4.480  44.516  10.213  1.00  0.00    -0.000 C 
BRANCH   8   9
ATOM      9  C   UNL     1       4.085  44.060  11.629  1.00  0.00    -0.000 C 
BRANCH   9  10
ATOM     10  C   UNL     1       2.574  43.763  11.745  1.00  0.00    -0.000 C 
BRANCH  10  11
ATOM     11  C   UNL     1       1.888  43.532  10.387  1.00  0.00    -0.003 C 
ATOM     12  C   UNL     1       0.730  42.541  10.460  1.00  0.00     0.004 C 
ENDBRANCH  10  11
ENDBRANCH   9  10
ENDBRANCH   8   9
ENDBRANCH   7   8
ENDBRANCH   6   7
ENDBRANCH   5   6
ENDBRANCH   4   5
ENDBRANCH   3   4
ENDBRANCH   2   3
ENDBRANCH   1   2
BRANCH   1  13
ATOM     13  C   UNL     1       6.102  40.829  16.325  1.00  0.00     0.000 C 
BRANCH  13  14
ATOM     14  C   UNL     1       6.852  40.035  17.417  1.00  0.00     0.000 C 
BRANCH  14  15
ATOM     15  C   UNL     1       6.293  40.223  18.842  1.00  0.00     0.000 C 
BRANCH  15  16
ATOM     16  C   UNL     1       4.758  40.200  18.971  1.00  0.00     0.000 C 
BRANCH  16  17
ATOM     17  C   UNL     1       4.218  40.184  20.414  1.00  0.00     0.000 C 
BRANCH  17  18
ATOM     18  C   UNL     1       2.711  40.467  20.495  1.00  0.00     0.000 C 
BRANCH  18  19
ATOM     19  C   UNL     1       2.446  41.822  21.171  1.00  0.00     0.000 C 
BRANCH  19  20
ATOM     20  C   UNL     1       2.784  43.017  20.259  1.00  0.00     0.006 C 
BRANCH  20  21
ATOM     21  C   UNL     1       3.268  44.262  21.018  1.00  0.00     0.053 C 
BRANCH  21  22
ATOM     22  C   UNL     1       4.460  43.964  21.877  1.00  0.00     0.041 C 
ATOM     23  O   UNL     1       4.586  44.513  23.002  1.00  0.00    -0.550 OA
ATOM     24  O   UNL     1       5.445  43.096  21.421  1.00  0.00    -0.550 OA
ENDBRANCH  21  22
ENDBRANCH  20  21
ENDBRANCH  19  20
ENDBRANCH  18  19
ENDBRANCH  17  18
ENDBRANCH  16  17
ENDBRANCH  15  16
ENDBRANCH  14  15
ENDBRANCH  13  14
ENDBRANCH   1  13
TORSDOF 20
ENDMDL
MODEL 4
REMARK VINA RESULT:     9.939      4.704      7.428
REMARK INTER + INTRA:          20.400
REMARK INTER:                  21.155
REMARK INTRA:                  -0.755
REMARK UNBOUND:                -1.161
REMARK SMILES CCCCCCCCCCCCCCCCCCCCCC(=O)[O-]
REMARK SMILES IDX 12 1 11 2 10 3 9 4 8 5 7 6 6 7 5 8 4 9 3 10 2 11 1 12 13 13
REMARK SMILES IDX 14 14 15 15 16 16 17 17 18 18 19 19 20 20 21 21 22 22 23 23
REMARK SMILES IDX 24 24
REMARK H PARENT
REMARK Flexibility Score: inf
ROOT
ATOM      1  C   UNL     1       0.573  43.488  12.082  1.00  0.00     0.000 C 
ENDROOT
BRANCH   1   2
ATOM      2  C   UNL     1       1.268  44.248  13.233  1.00  0.00     0.000 C 
BRANCH   2   3
ATOM      3  C   UNL     1       0.313  44.759  14.327  1.00  0.00     0.000 C 
BRANCH   3   4
ATOM      4  C   UNL     1      -1.090  45.096  13.792  1.00  0.00    -0.000 C 
BRANCH   4   5
ATOM      5  C   UNL     1      -2.083  43.926  13.937  1.00  0.00    -0.000 C 
BRANCH   5   6
ATOM      6  C   UNL     1      -1.762  42.946  15.084  1.00  0.00    -0.000 C 
BRANCH   6   7
ATOM      7  C   UNL     1      -2.705  41.730  15.112  1.00  0.00    -0.000 C 
BRANCH   7   8
ATOM      8  C   UNL     1      -3.184  41.335  13.705  1.00  0.00    -0.000 C 
BRANCH   8   9
ATOM      9  C   UNL     1      -4.652  40.869  13.695  1.00  0.00    -0.000 C 
BRANCH   9  10
ATOM     10  C   UNL     1      -5.244  40.781  15.119  1.00  0.00    -0.000 C 
BRANCH  10  11
ATOM     11  C   UNL     1      -5.741  39.374  15.491  1.00  0.00    -0.003 C 
ATOM     12  C   UNL     1      -4.862  38.679  16.526  1.00  0.00     0.004 C 
ENDBRANCH  10  11
ENDBRANCH   9  10
ENDBRANCH   8   9
ENDBRANCH   7   8
ENDBRANCH   6   7
ENDBRANCH   5   6
ENDBRANCH   4   5
ENDBRANCH   3   4
ENDBRANCH   2   3
ENDBRANCH   1   2
BRANCH   1  13
ATOM     13  C   UNL     1       1.566  42.892  11.063  1.00  0.00     0.000 C 
BRANCH  13  14
ATOM     14  C   UNL     1       1.851  43.837   9.875  1.00  0.00     0.000 C 
BRANCH  14  15
ATOM     15  C   UNL     1       3.129  44.687  10.027  1.00  0.00     0.000 C 
BRANCH  15  16
ATOM     16  C   UNL     1       4.360  43.954  10.594  1.00  0.00     0.000 C 
BRANCH  16  17
ATOM     17  C   UNL     1       4.321  43.674  12.109  1.00  0.00     0.000 C 
BRANCH  17  18
ATOM     18  C   UNL     1       5.570  44.177  12.846  1.00  0.00     0.000 C 
BRANCH  18  19
ATOM     19  C   UNL     1       6.036  43.153  13.894  1.00  0.00     0.000 C 
BRANCH  19  20
ATOM     20  C   UNL     1       7.214  42.292  13.401  1.00  0.00     0.006 C 
BRANCH  20  21
ATOM     21  C   UNL     1       8.154  43.022  12.430  1.00  0.00     0.053 C 
BRANCH  21  22
ATOM     22  C   UNL     1       7.740  42.832  11.002  1.00  0.00     0.041 C 
ATOM     23  O   UNL     1       7.289  41.724  10.612  1.00  0.00    -0.550 OA
ATOM     24  O   UNL     1       7.875  43.876  10.096  1.00  0.00    -0.550 OA
ENDBRANCH  21  22
ENDBRANCH  20  21
ENDBRANCH  19  20
ENDBRANCH  18  19
ENDBRANCH  17  18
ENDBRANCH  16  17
ENDBRANCH  15  16
ENDBRANCH  14  15
ENDBRANCH  13  14
ENDBRANCH   1  13
TORSDOF 20
ENDMDL
MODEL 5
REMARK VINA RESULT:     9.960      2.159      3.295
REMARK INTER + INTRA:          20.443
REMARK INTER:                  21.019
REMARK INTRA:                  -0.575
REMARK UNBOUND:                -1.161
REMARK SMILES CCCCCCCCCCCCCCCCCCCCCC(=O)[O-]
REMARK SMILES IDX 12 1 11 2 10 3 9 4 8 5 7 6 6 7 5 8 4 9 3 10 2 11 1 12 13 13
REMARK SMILES IDX 14 14 15 15 16 16 17 17 18 18 19 19 20 20 21 21 22 22 23 23
REMARK SMILES IDX 24 24
REMARK H PARENT
REMARK Flexibility Score: inf
ROOT
ATOM      1  C   UNL     1       5.980  43.156  14.480  1.00  0.00     0.000 C 
ENDROOT
BRANCH   1   2
ATOM      2  C   UNL     1       6.168  43.198  12.948  1.00  0.00     0.000 C 
BRANCH   2   3
ATOM      3  C   UNL     1       7.353  42.362  12.429  1.00  0.00     0.000 C 
BRANCH   3   4
ATOM      4  C   UNL     1       8.446  43.215  11.762  1.00  0.00    -0.000 C 
BRANCH   4   5
ATOM      5  C   UNL     1       7.947  43.945  10.499  1.00  0.00    -0.000 C 
BRANCH   5   6
ATOM      6  C   UNL     1       6.487  43.638  10.110  1.00  0.00    -0.000 C 
BRANCH   6   7
ATOM      7  C   UNL     1       5.647  44.910   9.895  1.00  0.00    -0.000 C 
BRANCH   7   8
ATOM      8  C   UNL     1       4.267  44.814  10.569  1.00  0.00    -0.000 C 
BRANCH   8   9
ATOM      9  C   UNL     1       3.347  43.793   9.875  1.00  0.00    -0.000 C 
BRANCH   9  10
ATOM     10  C   UNL     1       2.061  43.523  10.686  1.00  0.00    -0.000 C 
BRANCH  10  11
ATOM     11  C   UNL     1       0.991  42.745   9.900  1.00  0.00    -0.003 C 
ATOM     12  C   UNL     1      -0.069  42.109  10.795  1.00  0.00     0.004 C 
ENDBRANCH  10  11
ENDBRANCH   9  10
ENDBRANCH   8   9
ENDBRANCH   7   8
ENDBRANCH   6   7
ENDBRANCH   5   6
ENDBRANCH   4   5
ENDBRANCH   3   4
ENDBRANCH   2   3
ENDBRANCH   1   2
BRANCH   1  13
ATOM     13  C   UNL     1       5.211  41.909  14.962  1.00  0.00     0.000 C 
BRANCH  13  14
ATOM     14  C   UNL     1       6.031  41.034  15.936  1.00  0.00     0.000 C 
BRANCH  14  15
ATOM     15  C   UNL     1       5.281  40.635  17.224  1.00  0.00     0.000 C 
BRANCH  15  16
ATOM     16  C   UNL     1       6.162  40.168  18.398  1.00  0.00     0.000 C 
BRANCH  16  17
ATOM     17  C   UNL     1       5.527  40.309  19.795  1.00  0.00     0.000 C 
BRANCH  17  18
ATOM     18  C   UNL     1       4.020  40.016  19.803  1.00  0.00     0.000 C 
BRANCH  18  19
ATOM     19  C   UNL     1       3.250  41.136  20.522  1.00  0.00     0.000 C 
BRANCH  19  20
ATOM     20  C   UNL     1       3.554  42.531  19.945  1.00  0.00     0.006 C 
BRANCH  20  21
ATOM     21  C   UNL     1       3.221  43.686  20.901  1.00  0.00     0.053 C 
BRANCH  21  22
ATOM     22  C   UNL     1       4.381  44.032  21.786  1.00  0.00     0.041 C 
ATOM     23  O   UNL     1       4.239  44.853  22.729  1.00  0.00    -0.550 OA
ATOM     24  O   UNL     1       5.626  43.462  21.552  1.00  0.00    -0.550 OA
ENDBRANCH  21  22
ENDBRANCH  20  21
ENDBRANCH  19  20
ENDBRANCH  18  19
ENDBRANCH  17  18
ENDBRANCH  16  17
ENDBRANCH  15  16
ENDBRANCH  14  15
ENDBRANCH  13  14
ENDBRANCH   1  13
TORSDOF 20
ENDMDL
MODEL 6
REMARK VINA RESULT:    10.730      5.192      8.658
REMARK INTER + INTRA:          22.115
REMARK INTER:                  22.566
REMARK INTRA:                  -0.451
REMARK UNBOUND:                -1.161
REMARK SMILES CCCCCCCCCCCCCCCCCCCCCC(=O)[O-]
REMARK SMILES IDX 12 1 11 2 10 3 9 4 8 5 7 6 6 7 5 8 4 9 3 10 2 11 1 12 13 13
REMARK SMILES IDX 14 14 15 15 16 16 17 17 18 18 19 19 20 20 21 21 22 22 23 23
REMARK SMILES IDX 24 24
REMARK H PARENT
REMARK Flexibility Score: inf
ROOT
ATOM      1  C   UNL     1      -0.407  42.769  12.149  1.00  0.00     0.000 C 
ENDROOT
BRANCH   1   2
ATOM      2  C   UNL     1       0.178  42.223  10.829  1.00  0.00     0.000 C 
BRANCH   2   3
ATOM      3  C   UNL     1       1.115  43.200  10.095  1.00  0.00     0.000 C 
BRANCH   3   4
ATOM      4  C   UNL     1       2.600  42.975  10.427  1.00  0.00    -0.000 C 
BRANCH   4   5
ATOM      5  C   UNL     1       3.482  44.191  10.079  1.00  0.00    -0.000 C 
BRANCH   5   6
ATOM      6  C   UNL     1       3.927  45.033  11.292  1.00  0.00    -0.000 C 
BRANCH   6   7
ATOM      7  C   UNL     1       5.412  44.837  11.642  1.00  0.00    -0.000 C 
BRANCH   7   8
ATOM      8  C   UNL     1       6.197  44.175  10.496  1.00  0.00    -0.000 C 
BRANCH   8   9
ATOM      9  C   UNL     1       7.717  44.367  10.641  1.00  0.00    -0.000 C 
BRANCH   9  10
ATOM     10  C   UNL     1       8.281  43.642  11.882  1.00  0.00    -0.000 C 
BRANCH  10  11
ATOM     11  C   UNL     1       7.556  42.323  12.205  1.00  0.00    -0.003 C 
ATOM     12  C   UNL     1       7.589  41.322  11.055  1.00  0.00     0.004 C 
ENDBRANCH  10  11
ENDBRANCH   9  10
ENDBRANCH   8   9
ENDBRANCH   7   8
ENDBRANCH   6   7
ENDBRANCH   5   6
ENDBRANCH   4   5
ENDBRANCH   3   4
ENDBRANCH   2   3
ENDBRANCH   1   2
BRANCH   1  13
ATOM     13  C   UNL     1       0.386  43.965  12.715  1.00  0.00     0.000 C 
BRANCH  13  14
ATOM     14  C   UNL     1      -0.193  44.498  14.044  1.00  0.00     0.000 C 
BRANCH  14  15
ATOM     15  C   UNL     1      -1.709  44.273  14.216  1.00  0.00     0.000 C 
BRANCH  15  16
ATOM     16  C   UNL     1      -2.118  42.980  14.948  1.00  0.00     0.000 C 
BRANCH  16  17
ATOM     17  C   UNL     1      -3.386  42.289  14.409  1.00  0.00     0.000 C 
BRANCH  17  18
ATOM     18  C   UNL     1      -3.486  40.813  14.819  1.00  0.00     0.000 C 
BRANCH  18  19
ATOM     19  C   UNL     1      -4.953  40.402  15.021  1.00  0.00     0.000 C 
BRANCH  19  20
ATOM     20  C   UNL     1      -5.102  39.139  15.891  1.00  0.00     0.006 C 
BRANCH  20  21
ATOM     21  C   UNL     1      -5.992  38.054  15.266  1.00  0.00     0.053 C 
BRANCH  21  22
ATOM     22  C   UNL     1      -5.464  36.676  15.531  1.00  0.00     0.041 C 
ATOM     23  O   UNL     1      -5.759  35.723  14.764  1.00  0.00    -0.550 OA
ATOM     24  O   UNL     1      -4.662  36.441  16.641  1.00  0.00    -0.550 OA
ENDBRANCH  21  22
ENDBRANCH  20  21
ENDBRANCH  19  20
ENDBRANCH  18  19
ENDBRANCH  17  18
ENDBRANCH  16  17
ENDBRANCH  15  16
ENDBRANCH  14  15
ENDBRANCH  13  14
ENDBRANCH   1  13
TORSDOF 20
ENDMDL
