MODEL 1
REMARK VINA RESULT:    -6.928      0.000      0.000
REMARK INTER + INTRA:          -8.410
REMARK INTER:                  -8.143
REMARK INTRA:                  -0.266
REMARK UNBOUND:                -0.266
REMARK SMILES O=c1cc(-c2ccc(O)c(O)c2)oc2cc(O)cc(O)c12
REMARK SMILES IDX 4 1 3 2 2 3 1 4 21 5 19 6 18 7 16 8 15 9 14 10 13 11 5 12
REMARK SMILES IDX 6 13 7 14 8 15 12 16 10 17 9 18 11 20 20 22 17 24
REMARK H PARENT 9 19 11 21 20 23 17 25
REMARK Flexibility Score: inf
ROOT
ATOM      1  C   UNL     1      12.639  58.715  75.813  1.00  0.00     0.138 A 
ATOM      2  C   UNL     1      13.373  59.906  75.899  1.00  0.00     0.100 A 
ATOM      3  C   UNL     1      14.561  59.934  76.632  1.00  0.00     0.197 A 
ATOM      4  O   UNL     1      15.229  61.000  76.639  1.00  0.00    -0.289 OA
ATOM      5  C   UNL     1      14.997  58.770  77.308  1.00  0.00     0.107 A 
ATOM      6  C   UNL     1      16.171  58.692  78.117  1.00  0.00     0.134 A 
ATOM      7  C   UNL     1      16.566  57.456  78.641  1.00  0.00     0.093 A 
ATOM      8  C   UNL     1      15.801  56.308  78.438  1.00  0.00     0.123 A 
ATOM      9  C   UNL     1      14.623  56.383  77.693  1.00  0.00     0.094 A 
ATOM     10  C   UNL     1      14.220  57.595  77.128  1.00  0.00     0.146 A 
ATOM     11  O   UNL     1      13.099  57.621  76.412  1.00  0.00    -0.456 OA
ENDROOT
BRANCH   1  12
ATOM     12  C   UNL     1      11.369  58.630  75.050  1.00  0.00     0.021 A 
ATOM     13  C   UNL     1      11.356  58.522  73.646  1.00  0.00     0.016 A 
ATOM     14  C   UNL     1      10.144  58.454  72.952  1.00  0.00     0.051 A 
ATOM     15  C   UNL     1       8.928  58.499  73.645  1.00  0.00     0.157 A 
ATOM     16  C   UNL     1      10.143  58.689  75.736  1.00  0.00     0.062 A 
ATOM     17  C   UNL     1       8.928  58.619  75.044  1.00  0.00     0.158 A 
BRANCH  15  18
ATOM     18  O   UNL     1       7.722  58.430  72.948  1.00  0.00    -0.504 OA
ATOM     19  H   UNL     1       6.960  59.068  73.140  1.00  0.00     0.293 HD
ENDBRANCH  15  18
BRANCH  17  20
ATOM     20  O   UNL     1       7.735  58.671  75.762  1.00  0.00    -0.504 OA
ATOM     21  H   UNL     1       7.058  59.414  75.631  1.00  0.00     0.293 HD
ENDBRANCH  17  20
ENDBRANCH   1  12
BRANCH   6  22
ATOM     22  O   UNL     1      16.962  59.795  78.453  1.00  0.00    -0.507 OA
ATOM     23  H   UNL     1      17.931  59.747  78.726  1.00  0.00     0.293 HD
ENDBRANCH   6  22
BRANCH   8  24
ATOM     24  O   UNL     1      16.217  55.097  78.988  1.00  0.00    -0.508 OA
ATOM     25  H   UNL     1      16.475  54.310  78.403  1.00  0.00     0.293 HD
ENDBRANCH   8  24
TORSDOF 5
ENDMDL
MODEL 2
REMARK VINA RESULT:    -6.605     16.387     17.547
REMARK INTER + INTRA:          -8.030
REMARK INTER:                  -7.741
REMARK INTRA:                  -0.289
REMARK UNBOUND:                -0.266
REMARK SMILES O=c1cc(-c2ccc(O)c(O)c2)oc2cc(O)cc(O)c12
REMARK SMILES IDX 4 1 3 2 2 3 1 4 21 5 19 6 18 7 16 8 15 9 14 10 13 11 5 12
REMARK SMILES IDX 6 13 7 14 8 15 12 16 10 17 9 18 11 20 20 22 17 24
REMARK H PARENT 9 19 11 21 20 23 17 25
REMARK Flexibility Score: inf
ROOT
ATOM      1  C   UNL     1       2.596  63.474  89.307  1.00  0.00     0.138 A 
ATOM      2  C   UNL     1       3.549  63.491  88.279  1.00  0.00     0.100 A 
ATOM      3  C   UNL     1       4.728  62.757  88.419  1.00  0.00     0.197 A 
ATOM      4  O   UNL     1       5.536  62.742  87.453  1.00  0.00    -0.289 OA
ATOM      5  C   UNL     1       4.967  62.029  89.608  1.00  0.00     0.107 A 
ATOM      6  C   UNL     1       6.150  61.278  89.877  1.00  0.00     0.134 A 
ATOM      7  C   UNL     1       6.224  60.502  91.040  1.00  0.00     0.093 A 
ATOM      8  C   UNL     1       5.187  60.496  91.972  1.00  0.00     0.123 A 
ATOM      9  C   UNL     1       4.047  61.268  91.744  1.00  0.00     0.094 A 
ATOM     10  C   UNL     1       3.928  62.027  90.577  1.00  0.00     0.146 A 
ATOM     11  O   UNL     1       2.820  62.737  90.391  1.00  0.00    -0.456 OA
ENDROOT
BRANCH   1  12
ATOM     12  C   UNL     1       1.327  64.237  89.212  1.00  0.00     0.021 A 
ATOM     13  C   UNL     1       0.587  64.588  90.357  1.00  0.00     0.016 A 
ATOM     14  C   UNL     1      -0.611  65.298  90.237  1.00  0.00     0.051 A 
ATOM     15  C   UNL     1      -1.094  65.663  88.974  1.00  0.00     0.157 A 
ATOM     16  C   UNL     1       0.828  64.596  87.947  1.00  0.00     0.062 A 
ATOM     17  C   UNL     1      -0.371  65.308  87.823  1.00  0.00     0.158 A 
BRANCH  15  18
ATOM     18  O   UNL     1      -2.289  66.373  88.859  1.00  0.00    -0.504 OA
ATOM     19  H   UNL     1      -2.511  67.142  89.479  1.00  0.00     0.293 HD
ENDBRANCH  15  18
BRANCH  17  20
ATOM     20  O   UNL     1      -0.826  65.653  86.552  1.00  0.00    -0.504 OA
ATOM     21  H   UNL     1      -0.200  65.741  85.760  1.00  0.00     0.293 HD
ENDBRANCH  17  20
ENDBRANCH   1  12
BRANCH   6  22
ATOM     22  O   UNL     1       7.281  61.280  89.055  1.00  0.00    -0.507 OA
ATOM     23  H   UNL     1       7.950  62.031  88.997  1.00  0.00     0.293 HD
ENDBRANCH   6  22
BRANCH   8  24
ATOM     24  O   UNL     1       5.302  59.722  93.125  1.00  0.00    -0.508 OA
ATOM     25  H   UNL     1       6.104  59.805  93.740  1.00  0.00     0.293 HD
ENDBRANCH   8  24
TORSDOF 5
ENDMDL
MODEL 3
REMARK VINA RESULT:    -6.582     18.032     18.266
REMARK INTER + INTRA:          -8.003
REMARK INTER:                  -7.690
REMARK INTRA:                  -0.313
REMARK UNBOUND:                -0.266
REMARK SMILES O=c1cc(-c2ccc(O)c(O)c2)oc2cc(O)cc(O)c12
REMARK SMILES IDX 4 1 3 2 2 3 1 4 21 5 19 6 18 7 16 8 15 9 14 10 13 11 5 12
REMARK SMILES IDX 6 13 7 14 8 15 12 16 10 17 9 18 11 20 20 22 17 24
REMARK H PARENT 9 19 11 21 20 23 17 25
REMARK Flexibility Score: inf
ROOT
ATOM      1  C   UNL     1       2.693  63.962  90.403  1.00  0.00     0.138 A 
ATOM      2  C   UNL     1       3.623  64.985  90.639  1.00  0.00     0.100 A 
ATOM      3  C   UNL     1       4.786  64.709  91.359  1.00  0.00     0.197 A 
ATOM      4  O   UNL     1       5.630  65.632  91.501  1.00  0.00    -0.289 OA
ATOM      5  C   UNL     1       5.004  63.408  91.871  1.00  0.00     0.107 A 
ATOM      6  C   UNL     1       6.134  63.021  92.652  1.00  0.00     0.134 A 
ATOM      7  C   UNL     1       6.300  61.676  93.005  1.00  0.00     0.093 A 
ATOM      8  C   UNL     1       5.350  60.716  92.659  1.00  0.00     0.123 A 
ATOM      9  C   UNL     1       4.214  61.093  91.940  1.00  0.00     0.094 A 
ATOM     10  C   UNL     1       4.036  62.421  91.544  1.00  0.00     0.146 A 
ATOM     11  O   UNL     1       2.948  62.736  90.848  1.00  0.00    -0.456 OA
ENDROOT
BRANCH   1  12
ATOM     12  C   UNL     1       1.440  64.201  89.646  1.00  0.00     0.021 A 
ATOM     13  C   UNL     1       0.895  65.492  89.505  1.00  0.00     0.016 A 
ATOM     14  C   UNL     1      -0.293  65.686  88.795  1.00  0.00     0.051 A 
ATOM     15  C   UNL     1      -0.961  64.597  88.220  1.00  0.00     0.157 A 
ATOM     16  C   UNL     1       0.756  63.112  89.077  1.00  0.00     0.062 A 
ATOM     17  C   UNL     1      -0.433  63.303  88.364  1.00  0.00     0.158 A 
BRANCH  15  18
ATOM     18  O   UNL     1      -2.145  64.796  87.511  1.00  0.00    -0.504 OA
ATOM     19  H   UNL     1      -3.045  64.805  87.974  1.00  0.00     0.293 HD
ENDBRANCH  15  18
BRANCH  17  20
ATOM     20  O   UNL     1      -1.076  62.198  87.807  1.00  0.00    -0.504 OA
ATOM     21  H   UNL     1      -1.883  62.292  87.202  1.00  0.00     0.293 HD
ENDBRANCH  17  20
ENDBRANCH   1  12
BRANCH   6  22
ATOM     22  O   UNL     1       7.100  63.915  93.125  1.00  0.00    -0.507 OA
ATOM     23  H   UNL     1       8.092  63.824  92.973  1.00  0.00     0.293 HD
ENDBRANCH   6  22
BRANCH   8  24
ATOM     24  O   UNL     1       5.542  59.390  93.040  1.00  0.00    -0.508 OA
ATOM     25  H   UNL     1       6.382  58.882  92.787  1.00  0.00     0.293 HD
ENDBRANCH   8  24
TORSDOF 5
ENDMDL
MODEL 4
REMARK VINA RESULT:    -6.470      1.360      2.905
REMARK INTER + INTRA:          -7.871
REMARK INTER:                  -7.602
REMARK INTRA:                  -0.269
REMARK UNBOUND:                -0.266
REMARK SMILES O=c1cc(-c2ccc(O)c(O)c2)oc2cc(O)cc(O)c12
REMARK SMILES IDX 4 1 3 2 2 3 1 4 21 5 19 6 18 7 16 8 15 9 14 10 13 11 5 12
REMARK SMILES IDX 6 13 7 14 8 15 12 16 10 17 9 18 11 20 20 22 17 24
REMARK H PARENT 9 19 11 21 20 23 17 25
REMARK Flexibility Score: inf
ROOT
ATOM      1  C   UNL     1      12.561  58.819  75.920  1.00  0.00     0.138 A 
ATOM      2  C   UNL     1      13.310  57.698  76.306  1.00  0.00     0.100 A 
ATOM      3  C   UNL     1      14.482  57.872  77.042  1.00  0.00     0.197 A 
ATOM      4  O   UNL     1      15.099  56.844  77.427  1.00  0.00    -0.289 OA
ATOM      5  C   UNL     1      14.923  59.177  77.367  1.00  0.00     0.107 A 
ATOM      6  C   UNL     1      16.124  59.476  78.078  1.00  0.00     0.134 A 
ATOM      7  C   UNL     1      16.397  60.799  78.444  1.00  0.00     0.093 A 
ATOM      8  C   UNL     1      15.548  61.841  78.072  1.00  0.00     0.123 A 
ATOM      9  C   UNL     1      14.398  61.566  77.330  1.00  0.00     0.094 A 
ATOM     10  C   UNL     1      14.079  60.252  76.980  1.00  0.00     0.146 A 
ATOM     11  O   UNL     1      12.967  60.031  76.285  1.00  0.00    -0.456 OA
ENDROOT
BRANCH   1  12
ATOM     12  C   UNL     1      11.308  58.693  75.135  1.00  0.00     0.021 A 
ATOM     13  C   UNL     1      11.323  58.546  73.735  1.00  0.00     0.016 A 
ATOM     14  C   UNL     1      10.127  58.440  73.020  1.00  0.00     0.051 A 
ATOM     15  C   UNL     1       8.897  58.485  73.688  1.00  0.00     0.157 A 
ATOM     16  C   UNL     1      10.067  58.751  75.796  1.00  0.00     0.062 A 
ATOM     17  C   UNL     1       8.868  58.643  75.083  1.00  0.00     0.158 A 
BRANCH  15  18
ATOM     18  O   UNL     1       7.706  58.376  72.970  1.00  0.00    -0.504 OA
ATOM     19  H   UNL     1       7.213  57.496  72.890  1.00  0.00     0.293 HD
ENDBRANCH  15  18
BRANCH  17  20
ATOM     20  O   UNL     1       7.660  58.695  75.776  1.00  0.00    -0.504 OA
ATOM     21  H   UNL     1       7.598  58.496  76.768  1.00  0.00     0.293 HD
ENDBRANCH  17  20
ENDBRANCH   1  12
BRANCH   6  22
ATOM     22  O   UNL     1      17.084  58.521  78.425  1.00  0.00    -0.507 OA
ATOM     23  H   UNL     1      17.883  58.694  79.015  1.00  0.00     0.293 HD
ENDBRANCH   6  22
BRANCH   8  24
ATOM     24  O   UNL     1      15.860  63.148  78.441  1.00  0.00    -0.508 OA
ATOM     25  H   UNL     1      15.357  63.940  78.058  1.00  0.00     0.293 HD
ENDBRANCH   8  24
TORSDOF 5
ENDMDL
MODEL 5
REMARK VINA RESULT:    -6.456     16.964     19.142
REMARK INTER + INTRA:          -7.855
REMARK INTER:                  -7.590
REMARK INTRA:                  -0.264
REMARK UNBOUND:                -0.266
REMARK SMILES O=c1cc(-c2ccc(O)c(O)c2)oc2cc(O)cc(O)c12
REMARK SMILES IDX 4 1 3 2 2 3 1 4 21 5 19 6 18 7 16 8 15 9 14 10 13 11 5 12
REMARK SMILES IDX 6 13 7 14 8 15 12 16 10 17 9 18 11 20 20 22 17 24
REMARK H PARENT 9 19 11 21 20 23 17 25
REMARK Flexibility Score: inf
ROOT
ATOM      1  C   UNL     1       3.054  63.685  90.327  1.00  0.00     0.138 A 
ATOM      2  C   UNL     1       3.629  64.954  90.175  1.00  0.00     0.100 A 
ATOM      3  C   UNL     1       2.939  65.945  89.475  1.00  0.00     0.197 A 
ATOM      4  O   UNL     1       3.454  67.092  89.409  1.00  0.00    -0.289 OA
ATOM      5  C   UNL     1       1.681  65.653  88.899  1.00  0.00     0.107 A 
ATOM      6  C   UNL     1       0.906  66.572  88.130  1.00  0.00     0.134 A 
ATOM      7  C   UNL     1      -0.378  66.208  87.708  1.00  0.00     0.093 A 
ATOM      8  C   UNL     1      -0.892  64.939  87.973  1.00  0.00     0.123 A 
ATOM      9  C   UNL     1      -0.121  64.013  88.678  1.00  0.00     0.094 A 
ATOM     10  C   UNL     1       1.150  64.358  89.142  1.00  0.00     0.146 A 
ATOM     11  O   UNL     1       1.846  63.452  89.823  1.00  0.00    -0.456 OA
ENDROOT
BRANCH   1  12
ATOM     12  C   UNL     1       3.744  62.594  91.060  1.00  0.00     0.021 A 
ATOM     13  C   UNL     1       3.666  62.479  92.461  1.00  0.00     0.016 A 
ATOM     14  C   UNL     1       4.335  61.447  93.125  1.00  0.00     0.051 A 
ATOM     15  C   UNL     1       5.097  60.518  92.405  1.00  0.00     0.157 A 
ATOM     16  C   UNL     1       4.523  61.665  90.346  1.00  0.00     0.062 A 
ATOM     17  C   UNL     1       5.193  60.630  91.009  1.00  0.00     0.158 A 
BRANCH  15  18
ATOM     18  O   UNL     1       5.761  59.490  93.073  1.00  0.00    -0.504 OA
ATOM     19  H   UNL     1       5.257  58.773  93.579  1.00  0.00     0.293 HD
ENDBRANCH  15  18
BRANCH  17  20
ATOM     20  O   UNL     1       5.946  59.724  90.264  1.00  0.00    -0.504 OA
ATOM     21  H   UNL     1       6.704  59.190  90.672  1.00  0.00     0.293 HD
ENDBRANCH  17  20
ENDBRANCH   1  12
BRANCH   6  22
ATOM     22  O   UNL     1       1.357  67.836  87.736  1.00  0.00    -0.507 OA
ATOM     23  H   UNL     1       1.614  68.579  88.367  1.00  0.00     0.293 HD
ENDBRANCH   6  22
BRANCH   8  24
ATOM     24  O   UNL     1      -2.168  64.606  87.525  1.00  0.00    -0.508 OA
ATOM     25  H   UNL     1      -2.541  63.669  87.634  1.00  0.00     0.293 HD
ENDBRANCH   8  24
TORSDOF 5
ENDMDL
MODEL 6
REMARK VINA RESULT:    -6.447     16.671     17.953
REMARK INTER + INTRA:          -7.844
REMARK INTER:                  -7.526
REMARK INTRA:                  -0.318
REMARK UNBOUND:                -0.266
REMARK SMILES O=c1cc(-c2ccc(O)c(O)c2)oc2cc(O)cc(O)c12
REMARK SMILES IDX 4 1 3 2 2 3 1 4 21 5 19 6 18 7 16 8 15 9 14 10 13 11 5 12
REMARK SMILES IDX 6 13 7 14 8 15 12 16 10 17 9 18 11 20 20 22 17 24
REMARK H PARENT 9 19 11 21 20 23 17 25
REMARK Flexibility Score: inf
ROOT
ATOM      1  C   UNL     1       2.036  63.804  90.000  1.00  0.00     0.138 A 
ATOM      2  C   UNL     1       2.319  63.561  91.352  1.00  0.00     0.100 A 
ATOM      3  C   UNL     1       3.494  62.894  91.702  1.00  0.00     0.197 A 
ATOM      4  O   UNL     1       3.751  62.746  92.925  1.00  0.00    -0.289 OA
ATOM      5  C   UNL     1       4.373  62.439  90.690  1.00  0.00     0.107 A 
ATOM      6  C   UNL     1       5.578  61.713  90.927  1.00  0.00     0.134 A 
ATOM      7  C   UNL     1       6.427  61.417  89.854  1.00  0.00     0.093 A 
ATOM      8  C   UNL     1       6.088  61.767  88.548  1.00  0.00     0.123 A 
ATOM      9  C   UNL     1       4.886  62.431  88.298  1.00  0.00     0.094 A 
ATOM     10  C   UNL     1       4.033  62.770  89.351  1.00  0.00     0.146 A 
ATOM     11  O   UNL     1       2.905  63.415  89.073  1.00  0.00    -0.456 OA
ENDROOT
BRANCH   1  12
ATOM     12  C   UNL     1       0.801  64.507  89.572  1.00  0.00     0.021 A 
ATOM     13  C   UNL     1      -0.115  65.029  90.506  1.00  0.00     0.016 A 
ATOM     14  C   UNL     1      -1.275  65.678  90.074  1.00  0.00     0.051 A 
ATOM     15  C   UNL     1      -1.544  65.811  88.706  1.00  0.00     0.157 A 
ATOM     16  C   UNL     1       0.516  64.633  88.201  1.00  0.00     0.062 A 
ATOM     17  C   UNL     1      -0.645  65.283  87.765  1.00  0.00     0.158 A 
BRANCH  15  18
ATOM     18  O   UNL     1      -2.703  66.460  88.280  1.00  0.00    -0.504 OA
ATOM     19  H   UNL     1      -3.068  66.335  87.344  1.00  0.00     0.293 HD
ENDBRANCH  15  18
BRANCH  17  20
ATOM     20  O   UNL     1      -0.886  65.395  86.397  1.00  0.00    -0.504 OA
ATOM     21  H   UNL     1      -1.524  64.777  85.910  1.00  0.00     0.293 HD
ENDBRANCH  17  20
ENDBRANCH   1  12
BRANCH   6  22
ATOM     22  O   UNL     1       5.972  61.241  92.183  1.00  0.00    -0.507 OA
ATOM     23  H   UNL     1       6.604  60.472  92.338  1.00  0.00     0.293 HD
ENDBRANCH   6  22
BRANCH   8  24
ATOM     24  O   UNL     1       6.951  61.443  87.503  1.00  0.00    -0.508 OA
ATOM     25  H   UNL     1       7.141  60.479  87.252  1.00  0.00     0.293 HD
ENDBRANCH   8  24
TORSDOF 5
ENDMDL
MODEL 7
REMARK VINA RESULT:    -6.413      1.816      6.723
REMARK INTER + INTRA:          -7.804
REMARK INTER:                  -7.499
REMARK INTRA:                  -0.305
REMARK UNBOUND:                -0.266
REMARK SMILES O=c1cc(-c2ccc(O)c(O)c2)oc2cc(O)cc(O)c12
REMARK SMILES IDX 4 1 3 2 2 3 1 4 21 5 19 6 18 7 16 8 15 9 14 10 13 11 5 12
REMARK SMILES IDX 6 13 7 14 8 15 12 16 10 17 9 18 11 20 20 22 17 24
REMARK H PARENT 9 19 11 21 20 23 17 25
REMARK Flexibility Score: inf
ROOT
ATOM      1  C   UNL     1      12.779  58.842  75.955  1.00  0.00     0.138 A 
ATOM      2  C   UNL     1      12.928  60.235  75.880  1.00  0.00     0.100 A 
ATOM      3  C   UNL     1      11.978  60.995  75.197  1.00  0.00     0.197 A 
ATOM      4  O   UNL     1      12.105  62.247  75.201  1.00  0.00    -0.289 OA
ATOM      5  C   UNL     1      10.891  60.353  74.558  1.00  0.00     0.107 A 
ATOM      6  C   UNL     1       9.884  61.022  73.799  1.00  0.00     0.134 A 
ATOM      7  C   UNL     1       8.792  60.296  73.311  1.00  0.00     0.093 A 
ATOM      8  C   UNL     1       8.699  58.917  73.501  1.00  0.00     0.123 A 
ATOM      9  C   UNL     1       9.705  58.244  74.195  1.00  0.00     0.094 A 
ATOM     10  C   UNL     1      10.790  58.946  74.724  1.00  0.00     0.146 A 
ATOM     11  O   UNL     1      11.720  58.270  75.393  1.00  0.00    -0.456 OA
ENDROOT
BRANCH   1  12
ATOM     12  C   UNL     1      13.760  57.986  76.667  1.00  0.00     0.021 A 
ATOM     13  C   UNL     1      15.132  58.303  76.700  1.00  0.00     0.016 A 
ATOM     14  C   UNL     1      16.034  57.472  77.370  1.00  0.00     0.051 A 
ATOM     15  C   UNL     1      15.586  56.310  78.011  1.00  0.00     0.157 A 
ATOM     16  C   UNL     1      13.321  56.810  77.301  1.00  0.00     0.062 A 
ATOM     17  C   UNL     1      14.223  55.977  77.974  1.00  0.00     0.158 A 
BRANCH  15  18
ATOM     18  O   UNL     1      16.491  55.486  78.679  1.00  0.00    -0.504 OA
ATOM     19  H   UNL     1      16.656  55.574  79.674  1.00  0.00     0.293 HD
ENDBRANCH  15  18
BRANCH  17  20
ATOM     20  O   UNL     1      13.746  54.826  78.598  1.00  0.00    -0.504 OA
ATOM     21  H   UNL     1      12.757  54.610  78.648  1.00  0.00     0.293 HD
ENDBRANCH  17  20
ENDBRANCH   1  12
BRANCH   6  22
ATOM     22  O   UNL     1       9.923  62.383  73.478  1.00  0.00    -0.507 OA
ATOM     23  H   UNL     1      10.744  62.964  73.533  1.00  0.00     0.293 HD
ENDBRANCH   6  22
BRANCH   8  24
ATOM     24  O   UNL     1       7.604  58.225  72.987  1.00  0.00    -0.508 OA
ATOM     25  H   UNL     1       6.921  58.679  72.392  1.00  0.00     0.293 HD
ENDBRANCH   8  24
TORSDOF 5
ENDMDL
MODEL 8
REMARK VINA RESULT:    -6.398      2.016      6.925
REMARK INTER + INTRA:          -7.787
REMARK INTER:                  -7.499
REMARK INTRA:                  -0.288
REMARK UNBOUND:                -0.266
REMARK SMILES O=c1cc(-c2ccc(O)c(O)c2)oc2cc(O)cc(O)c12
REMARK SMILES IDX 4 1 3 2 2 3 1 4 21 5 19 6 18 7 16 8 15 9 14 10 13 11 5 12
REMARK SMILES IDX 6 13 7 14 8 15 12 16 10 17 9 18 11 20 20 22 17 24
REMARK H PARENT 9 19 11 21 20 23 17 25
REMARK Flexibility Score: inf
ROOT
ATOM      1  C   UNL     1      12.132  58.502  75.966  1.00  0.00     0.138 A 
ATOM      2  C   UNL     1      11.832  58.689  74.609  1.00  0.00     0.100 A 
ATOM      3  C   UNL     1      10.622  59.279  74.244  1.00  0.00     0.197 A 
ATOM      4  O   UNL     1      10.409  59.491  73.022  1.00  0.00    -0.289 OA
ATOM      5  C   UNL     1       9.693  59.655  75.243  1.00  0.00     0.107 A 
ATOM      6  C   UNL     1       8.411  60.228  74.987  1.00  0.00     0.134 A 
ATOM      7  C   UNL     1       7.626  60.668  76.059  1.00  0.00     0.093 A 
ATOM      8  C   UNL     1       8.046  60.501  77.378  1.00  0.00     0.123 A 
ATOM      9  C   UNL     1       9.275  59.893  77.642  1.00  0.00     0.094 A 
ATOM     10  C   UNL     1      10.097  59.475  76.593  1.00  0.00     0.146 A 
ATOM     11  O   UNL     1      11.266  58.914  76.887  1.00  0.00    -0.456 OA
ENDROOT
BRANCH   1  12
ATOM     12  C   UNL     1      13.403  57.878  76.410  1.00  0.00     0.021 A 
ATOM     13  C   UNL     1      14.649  58.296  75.904  1.00  0.00     0.016 A 
ATOM     14  C   UNL     1      15.829  57.683  76.333  1.00  0.00     0.051 A 
ATOM     15  C   UNL     1      15.787  56.639  77.267  1.00  0.00     0.157 A 
ATOM     16  C   UNL     1      13.369  56.821  77.337  1.00  0.00     0.062 A 
ATOM     17  C   UNL     1      14.549  56.206  77.769  1.00  0.00     0.158 A 
BRANCH  15  18
ATOM     18  O   UNL     1      16.968  56.032  77.692  1.00  0.00    -0.504 OA
ATOM     19  H   UNL     1      17.349  56.201  78.615  1.00  0.00     0.293 HD
ENDBRANCH  15  18
BRANCH  17  20
ATOM     20  O   UNL     1      14.473  55.168  78.697  1.00  0.00    -0.504 OA
ATOM     21  H   UNL     1      15.160  55.051  79.433  1.00  0.00     0.293 HD
ENDBRANCH  17  20
ENDBRANCH   1  12
BRANCH   6  22
ATOM     22  O   UNL     1       7.858  60.364  73.710  1.00  0.00    -0.507 OA
ATOM     23  H   UNL     1       7.851  59.643  73.005  1.00  0.00     0.293 HD
ENDBRANCH   6  22
BRANCH   8  24
ATOM     24  O   UNL     1       7.231  60.937  78.420  1.00  0.00    -0.508 OA
ATOM     25  H   UNL     1       7.533  61.661  79.062  1.00  0.00     0.293 HD
ENDBRANCH   8  24
TORSDOF 5
ENDMDL
MODEL 9
REMARK VINA RESULT:    -5.995     16.806     18.991
REMARK INTER + INTRA:          -7.313
REMARK INTER:                  -7.050
REMARK INTRA:                  -0.262
REMARK UNBOUND:                -0.266
REMARK SMILES O=c1cc(-c2ccc(O)c(O)c2)oc2cc(O)cc(O)c12
REMARK SMILES IDX 4 1 3 2 2 3 1 4 21 5 19 6 18 7 16 8 15 9 14 10 13 11 5 12
REMARK SMILES IDX 6 13 7 14 8 15 12 16 10 17 9 18 11 20 20 22 17 24
REMARK H PARENT 9 19 11 21 20 23 17 25
REMARK Flexibility Score: inf
ROOT
ATOM      1  C   UNL     1       2.850  63.479  90.080  1.00  0.00     0.138 A 
ATOM      2  C   UNL     1       1.609  63.138  89.523  1.00  0.00     0.100 A 
ATOM      3  C   UNL     1       0.897  64.087  88.790  1.00  0.00     0.197 A 
ATOM      4  O   UNL     1      -0.184  63.732  88.251  1.00  0.00    -0.289 OA
ATOM      5  C   UNL     1       1.416  65.395  88.641  1.00  0.00     0.107 A 
ATOM      6  C   UNL     1       0.758  66.456  87.949  1.00  0.00     0.134 A 
ATOM      7  C   UNL     1       1.422  67.675  87.766  1.00  0.00     0.093 A 
ATOM      8  C   UNL     1       2.691  67.893  88.299  1.00  0.00     0.123 A 
ATOM      9  C   UNL     1       3.322  66.881  89.023  1.00  0.00     0.094 A 
ATOM     10  C   UNL     1       2.700  65.641  89.194  1.00  0.00     0.146 A 
ATOM     11  O   UNL     1       3.341  64.698  89.878  1.00  0.00    -0.456 OA
ENDROOT
BRANCH   1  12
ATOM     12  C   UNL     1       3.649  62.509  90.870  1.00  0.00     0.021 A 
ATOM     13  C   UNL     1       3.604  62.486  92.277  1.00  0.00     0.016 A 
ATOM     14  C   UNL     1       4.375  61.568  92.995  1.00  0.00     0.051 A 
ATOM     15  C   UNL     1       5.208  60.664  92.324  1.00  0.00     0.157 A 
ATOM     16  C   UNL     1       4.498  61.607  90.204  1.00  0.00     0.062 A 
ATOM     17  C   UNL     1       5.270  60.686  90.921  1.00  0.00     0.158 A 
BRANCH  15  18
ATOM     18  O   UNL     1       5.974  59.749  93.045  1.00  0.00    -0.504 OA
ATOM     19  H   UNL     1       6.951  59.919  93.250  1.00  0.00     0.293 HD
ENDBRANCH  15  18
BRANCH  17  20
ATOM     20  O   UNL     1       6.092  59.801  90.224  1.00  0.00    -0.504 OA
ATOM     21  H   UNL     1       7.015  60.064  89.900  1.00  0.00     0.293 HD
ENDBRANCH  17  20
ENDBRANCH   1  12
BRANCH   6  22
ATOM     22  O   UNL     1      -0.545  66.373  87.448  1.00  0.00    -0.507 OA
ATOM     23  H   UNL     1      -0.964  67.039  86.819  1.00  0.00     0.293 HD
ENDBRANCH   6  22
BRANCH   8  24
ATOM     24  O   UNL     1       3.315  69.125  88.109  1.00  0.00    -0.508 OA
ATOM     25  H   UNL     1       3.338  69.572  87.200  1.00  0.00     0.293 HD
ENDBRANCH   8  24
TORSDOF 5
ENDMDL
