MODEL 1
REMARK VINA RESULT:     5.743      0.000      0.000
REMARK INTER + INTRA:           6.182
REMARK INTER:                   6.246
REMARK INTRA:                  -0.065
REMARK UNBOUND:                -0.065
REMARK SMILES COc1cc2ccc(=O)oc2cc1O
REMARK SMILES IDX 3 1 13 2 12 3 11 4 5 5 4 6 6 7 7 8 8 9 9 10 10 11 2 12 1 13
REMARK SMILES IDX 14 14
REMARK H PARENT 14 15
REMARK Flexibility Score: inf
ROOT
ATOM      1  C   UNL     1      -2.112   0.140   2.589  1.00  0.00     0.161 A 
ATOM      2  C   UNL     1      -3.055   0.026   3.623  1.00  0.00     0.161 A 
ATOM      3  C   UNL     1      -4.252  -0.675   3.416  1.00  0.00     0.098 A 
ATOM      4  C   UNL     1      -4.517  -1.265   2.178  1.00  0.00     0.142 A 
ATOM      5  C   UNL     1      -3.575  -1.155   1.133  1.00  0.00     0.022 A 
ATOM      6  C   UNL     1      -2.379  -0.455   1.339  1.00  0.00     0.062 A 
ATOM      7  C   UNL     1      -3.869  -1.757  -0.094  1.00  0.00     0.019 A 
ATOM      8  C   UNL     1      -5.074  -2.443  -0.250  1.00  0.00     0.094 A 
ATOM      9  C   UNL     1      -5.959  -2.511   0.830  1.00  0.00     0.336 A 
ATOM     10  O   UNL     1      -7.051  -3.125   0.710  1.00  0.00    -0.246 OA
ATOM     11  O   UNL     1      -5.655  -1.929   1.988  1.00  0.00    -0.423 OA
ENDROOT
BRANCH   1  12
ATOM     12  O   UNL     1      -0.928   0.850   2.842  1.00  0.00    -0.493 OA
ATOM     13  C   UNL     1       0.353   0.250   2.999  1.00  0.00     0.278 C 
ENDBRANCH   1  12
BRANCH   2  14
ATOM     14  O   UNL     1      -2.793   0.614   4.860  1.00  0.00    -0.504 OA
ATOM     15  H   UNL     1      -2.088   1.333   4.967  1.00  0.00     0.293 HD
ENDBRANCH   2  14
TORSDOF 2
ENDMDL
MODEL 2
REMARK VINA RESULT:     5.819      1.263      4.885
REMARK INTER + INTRA:           6.265
REMARK INTER:                   6.312
REMARK INTRA:                  -0.047
REMARK UNBOUND:                -0.065
REMARK SMILES COc1cc2ccc(=O)oc2cc1O
REMARK SMILES IDX 3 1 13 2 12 3 11 4 5 5 4 6 6 7 7 8 8 9 9 10 10 11 2 12 1 13
REMARK SMILES IDX 14 14
REMARK H PARENT 14 15
REMARK Flexibility Score: inf
ROOT
ATOM      1  C   UNL     1      -4.895  -1.996   1.192  1.00  0.00     0.161 A 
ATOM      2  C   UNL     1      -5.096  -2.252   2.557  1.00  0.00     0.161 A 
ATOM      3  C   UNL     1      -4.285  -1.636   3.521  1.00  0.00     0.098 A 
ATOM      4  C   UNL     1      -3.269  -0.761   3.131  1.00  0.00     0.142 A 
ATOM      5  C   UNL     1      -3.059  -0.497   1.761  1.00  0.00     0.022 A 
ATOM      6  C   UNL     1      -3.869  -1.113   0.796  1.00  0.00     0.062 A 
ATOM      7  C   UNL     1      -2.034   0.383   1.402  1.00  0.00     0.019 A 
ATOM      8  C   UNL     1      -1.255   0.971   2.399  1.00  0.00     0.094 A 
ATOM      9  C   UNL     1      -1.521   0.663   3.736  1.00  0.00     0.336 A 
ATOM     10  O   UNL     1      -0.830   1.182   4.650  1.00  0.00    -0.246 OA
ATOM     11  O   UNL     1      -2.503  -0.179   4.050  1.00  0.00    -0.423 OA
ENDROOT
BRANCH   1  12
ATOM     12  O   UNL     1      -5.730  -2.635   0.262  1.00  0.00    -0.493 OA
ATOM     13  C   UNL     1      -5.370  -2.911  -1.088  1.00  0.00     0.278 C 
ENDBRANCH   1  12
BRANCH   2  14
ATOM     14  O   UNL     1      -6.110  -3.125   2.950  1.00  0.00    -0.504 OA
ATOM     15  H   UNL     1      -6.545  -3.057   3.862  1.00  0.00     0.293 HD
ENDBRANCH   2  14
TORSDOF 2
ENDMDL
