MODEL 1
REMARK VINA RESULT:    -0.391      0.000      0.000
REMARK INTER + INTRA:          -3.020
REMARK INTER:                  -1.031
REMARK INTRA:                  -1.989
REMARK UNBOUND:                -1.989
REMARK SMILES CCCCCCCCCCCCCCCCCCCCCCCCCCCCCC(=O)[O-]
REMARK SMILES IDX 16 1 17 2 18 3 19 4 20 5 21 6 22 7 23 8 24 9 25 10 26 11
REMARK SMILES IDX 27 12 28 13 29 14 30 15 31 16 32 17 15 18 14 19 13 20 12 21
REMARK SMILES IDX 11 22 10 23 9 24 8 25 7 26 6 27 5 28 4 29 3 30 2 31 1 32
REMARK H PARENT
REMARK Flexibility Score: inf
ROOT
ATOM      1  C   UNL     1      10.564  79.054   1.903  1.00  0.00     0.000 C 
ENDROOT
BRANCH   1   2
ATOM      2  C   UNL     1       9.861  78.844   3.253  1.00  0.00     0.000 C 
BRANCH   2   3
ATOM      3  C   UNL     1       8.833  79.952   3.558  1.00  0.00     0.000 C 
BRANCH   3   4
ATOM      4  C   UNL     1       7.961  79.679   4.799  1.00  0.00     0.000 C 
BRANCH   4   5
ATOM      5  C   UNL     1       7.538  78.205   4.963  1.00  0.00     0.000 C 
BRANCH   5   6
ATOM      6  C   UNL     1       7.210  77.851   6.424  1.00  0.00     0.000 C 
BRANCH   6   7
ATOM      7  C   UNL     1       5.865  78.428   6.902  1.00  0.00     0.000 C 
BRANCH   7   8
ATOM      8  C   UNL     1       5.175  77.660   8.049  1.00  0.00     0.000 C 
BRANCH   8   9
ATOM      9  C   UNL     1       3.680  77.337   7.833  1.00  0.00     0.000 C 
BRANCH   9  10
ATOM     10  C   UNL     1       2.924  78.364   6.973  1.00  0.00     0.000 C 
BRANCH  10  11
ATOM     11  C   UNL     1       2.328  79.522   7.790  1.00  0.00     0.000 C 
BRANCH  11  12
ATOM     12  C   UNL     1       3.268  80.004   8.906  1.00  0.00     0.000 C 
BRANCH  12  13
ATOM     13  C   UNL     1       2.811  79.550  10.299  1.00  0.00     0.006 C 
BRANCH  13  14
ATOM     14  C   UNL     1       3.817  79.981  11.371  1.00  0.00     0.053 C 
BRANCH  14  15
ATOM     15  C   UNL     1       4.806  78.889  11.633  1.00  0.00     0.041 C 
ATOM     16  O   UNL     1       4.438  77.685  11.620  1.00  0.00    -0.550 OA
ATOM     17  O   UNL     1       6.126  79.203  11.930  1.00  0.00    -0.550 OA
ENDBRANCH  14  15
ENDBRANCH  13  14
ENDBRANCH  12  13
ENDBRANCH  11  12
ENDBRANCH  10  11
ENDBRANCH   9  10
ENDBRANCH   8   9
ENDBRANCH   7   8
ENDBRANCH   6   7
ENDBRANCH   5   6
ENDBRANCH   4   5
ENDBRANCH   3   4
ENDBRANCH   2   3
ENDBRANCH   1   2
BRANCH   1  18
ATOM     18  C   UNL     1      11.688  80.091   2.022  1.00  0.00     0.000 C 
BRANCH  18  19
ATOM     19  C   UNL     1      12.865  79.804   1.073  1.00  0.00     0.000 C 
BRANCH  19  20
ATOM     20  C   UNL     1      14.035  79.025   1.704  1.00  0.00     0.000 C 
BRANCH  20  21
ATOM     21  C   UNL     1      14.890  78.244   0.683  1.00  0.00     0.000 C 
BRANCH  21  22
ATOM     22  C   UNL     1      14.068  77.205  -0.102  1.00  0.00     0.000 C 
BRANCH  22  23
ATOM     23  C   UNL     1      14.127  77.450  -1.625  1.00  0.00     0.000 C 
BRANCH  23  24
ATOM     24  C   UNL     1      12.765  77.792  -2.250  1.00  0.00    -0.000 C 
BRANCH  24  25
ATOM     25  C   UNL     1      11.872  78.622  -1.312  1.00  0.00    -0.000 C 
BRANCH  25  26
ATOM     26  C   UNL     1      10.393  78.625  -1.741  1.00  0.00    -0.000 C 
BRANCH  26  27
ATOM     27  C   UNL     1       9.586  79.864  -1.309  1.00  0.00    -0.000 C 
BRANCH  27  28
ATOM     28  C   UNL     1       8.098  79.603  -1.007  1.00  0.00    -0.000 C 
BRANCH  28  29
ATOM     29  C   UNL     1       7.637  80.125   0.372  1.00  0.00    -0.000 C 
BRANCH  29  30
ATOM     30  C   UNL     1       6.420  79.384   0.965  1.00  0.00    -0.000 C 
BRANCH  30  31
ATOM     31  C   UNL     1       6.734  78.011   1.588  1.00  0.00    -0.003 C 
ATOM     32  C   UNL     1       5.491  77.285   2.100  1.00  0.00     0.004 C 
ENDBRANCH  30  31
ENDBRANCH  29  30
ENDBRANCH  28  29
ENDBRANCH  27  28
ENDBRANCH  26  27
ENDBRANCH  25  26
ENDBRANCH  24  25
ENDBRANCH  23  24
ENDBRANCH  22  23
ENDBRANCH  21  22
ENDBRANCH  20  21
ENDBRANCH  19  20
ENDBRANCH  18  19
ENDBRANCH   1  18
TORSDOF 28
ENDMDL
MODEL 2
REMARK VINA RESULT:     0.045      2.340      5.008
REMARK INTER + INTRA:          -1.871
REMARK INTER:                   0.753
REMARK INTRA:                  -2.624
REMARK UNBOUND:                -1.989
REMARK SMILES CCCCCCCCCCCCCCCCCCCCCCCCCCCCCC(=O)[O-]
REMARK SMILES IDX 16 1 17 2 18 3 19 4 20 5 21 6 22 7 23 8 24 9 25 10 26 11
REMARK SMILES IDX 27 12 28 13 29 14 30 15 31 16 32 17 15 18 14 19 13 20 12 21
REMARK SMILES IDX 11 22 10 23 9 24 8 25 7 26 6 27 5 28 4 29 3 30 2 31 1 32
REMARK H PARENT
REMARK Flexibility Score: inf
ROOT
ATOM      1  C   UNL     1       6.222  77.655   0.986  1.00  0.00     0.000 C 
ENDROOT
BRANCH   1   2
ATOM      2  C   UNL     1       5.890  79.027   1.592  1.00  0.00     0.000 C 
BRANCH   2   3
ATOM      3  C   UNL     1       7.090  79.648   2.334  1.00  0.00     0.000 C 
BRANCH   3   4
ATOM      4  C   UNL     1       8.330  78.735   2.404  1.00  0.00     0.000 C 
BRANCH   4   5
ATOM      5  C   UNL     1       8.982  78.660   3.799  1.00  0.00     0.000 C 
BRANCH   5   6
ATOM      6  C   UNL     1       8.008  79.063   4.921  1.00  0.00     0.000 C 
BRANCH   6   7
ATOM      7  C   UNL     1       7.610  77.887   5.832  1.00  0.00     0.000 C 
BRANCH   7   8
ATOM      8  C   UNL     1       6.534  78.195   6.894  1.00  0.00     0.000 C 
BRANCH   8   9
ATOM      9  C   UNL     1       5.134  77.607   6.616  1.00  0.00     0.000 C 
BRANCH   9  10
ATOM     10  C   UNL     1       4.125  77.794   7.762  1.00  0.00     0.000 C 
BRANCH  10  11
ATOM     11  C   UNL     1       2.927  78.680   7.382  1.00  0.00     0.000 C 
BRANCH  11  12
ATOM     12  C   UNL     1       2.664  79.791   8.409  1.00  0.00     0.000 C 
BRANCH  12  13
ATOM     13  C   UNL     1       3.851  80.012   9.358  1.00  0.00     0.006 C 
BRANCH  13  14
ATOM     14  C   UNL     1       3.448  79.739  10.810  1.00  0.00     0.053 C 
BRANCH  14  15
ATOM     15  C   UNL     1       4.290  78.650  11.394  1.00  0.00     0.041 C 
ATOM     16  O   UNL     1       3.838  77.477  11.478  1.00  0.00    -0.550 OA
ATOM     17  O   UNL     1       5.558  78.936  11.883  1.00  0.00    -0.550 OA
ENDBRANCH  14  15
ENDBRANCH  13  14
ENDBRANCH  12  13
ENDBRANCH  11  12
ENDBRANCH  10  11
ENDBRANCH   9  10
ENDBRANCH   8   9
ENDBRANCH   7   8
ENDBRANCH   6   7
ENDBRANCH   5   6
ENDBRANCH   4   5
ENDBRANCH   3   4
ENDBRANCH   2   3
ENDBRANCH   1   2
BRANCH   1  18
ATOM     18  C   UNL     1       5.570  76.524   1.794  1.00  0.00     0.000 C 
BRANCH  18  19
ATOM     19  C   UNL     1       5.438  75.218   0.991  1.00  0.00     0.000 C 
BRANCH  19  20
ATOM     20  C   UNL     1       4.676  75.348  -0.342  1.00  0.00     0.000 C 
BRANCH  20  21
ATOM     21  C   UNL     1       4.810  74.115  -1.262  1.00  0.00     0.000 C 
BRANCH  21  22
ATOM     22  C   UNL     1       4.969  74.500  -2.744  1.00  0.00     0.000 C 
BRANCH  22  23
ATOM     23  C   UNL     1       6.042  75.591  -2.949  1.00  0.00     0.000 C 
BRANCH  23  24
ATOM     24  C   UNL     1       6.928  75.363  -4.184  1.00  0.00    -0.000 C 
BRANCH  24  25
ATOM     25  C   UNL     1       7.886  76.534  -4.453  1.00  0.00    -0.000 C 
BRANCH  25  26
ATOM     26  C   UNL     1       7.776  77.653  -3.399  1.00  0.00    -0.000 C 
BRANCH  26  27
ATOM     27  C   UNL     1       9.119  78.208  -2.888  1.00  0.00    -0.000 C 
BRANCH  27  28
ATOM     28  C   UNL     1       9.035  79.575  -2.182  1.00  0.00    -0.000 C 
BRANCH  28  29
ATOM     29  C   UNL     1       9.291  79.510  -0.659  1.00  0.00    -0.000 C 
BRANCH  29  30
ATOM     30  C   UNL     1      10.634  80.122  -0.208  1.00  0.00    -0.000 C 
BRANCH  30  31
ATOM     31  C   UNL     1      11.620  79.126   0.432  1.00  0.00    -0.003 C 
ATOM     32  C   UNL     1      12.588  78.508  -0.575  1.00  0.00     0.004 C 
ENDBRANCH  30  31
ENDBRANCH  29  30
ENDBRANCH  28  29
ENDBRANCH  27  28
ENDBRANCH  26  27
ENDBRANCH  25  26
ENDBRANCH  24  25
ENDBRANCH  23  24
ENDBRANCH  22  23
ENDBRANCH  21  22
ENDBRANCH  20  21
ENDBRANCH  19  20
ENDBRANCH  18  19
ENDBRANCH   1  18
TORSDOF 28
ENDMDL
MODEL 3
REMARK VINA RESULT:     0.115      2.788      6.232
REMARK INTER + INTRA:          -1.685
REMARK INTER:                   0.971
REMARK INTRA:                  -2.657
REMARK UNBOUND:                -1.989
REMARK SMILES CCCCCCCCCCCCCCCCCCCCCCCCCCCCCC(=O)[O-]
REMARK SMILES IDX 16 1 17 2 18 3 19 4 20 5 21 6 22 7 23 8 24 9 25 10 26 11
REMARK SMILES IDX 27 12 28 13 29 14 30 15 31 16 32 17 15 18 14 19 13 20 12 21
REMARK SMILES IDX 11 22 10 23 9 24 8 25 7 26 6 27 5 28 4 29 3 30 2 31 1 32
REMARK H PARENT
REMARK Flexibility Score: inf
ROOT
ATOM      1  C   UNL     1       5.319  74.289  -0.149  1.00  0.00     0.000 C 
ENDROOT
BRANCH   1   2
ATOM      2  C   UNL     1       5.565  75.293   0.987  1.00  0.00     0.000 C 
BRANCH   2   3
ATOM      3  C   UNL     1       5.744  76.734   0.470  1.00  0.00     0.000 C 
BRANCH   3   4
ATOM      4  C   UNL     1       5.780  77.804   1.578  1.00  0.00     0.000 C 
BRANCH   4   5
ATOM      5  C   UNL     1       6.135  79.219   1.080  1.00  0.00     0.000 C 
BRANCH   5   6
ATOM      6  C   UNL     1       6.705  80.107   2.200  1.00  0.00     0.000 C 
BRANCH   6   7
ATOM      7  C   UNL     1       8.215  79.907   2.425  1.00  0.00     0.000 C 
BRANCH   7   8
ATOM      8  C   UNL     1       8.604  78.803   3.430  1.00  0.00     0.000 C 
BRANCH   8   9
ATOM      9  C   UNL     1       8.232  79.079   4.903  1.00  0.00     0.000 C 
BRANCH   9  10
ATOM     10  C   UNL     1       7.562  77.898   5.624  1.00  0.00     0.000 C 
BRANCH  10  11
ATOM     11  C   UNL     1       6.636  78.330   6.773  1.00  0.00     0.000 C 
BRANCH  11  12
ATOM     12  C   UNL     1       5.334  77.516   6.822  1.00  0.00     0.000 C 
BRANCH  12  13
ATOM     13  C   UNL     1       4.420  77.932   7.983  1.00  0.00     0.006 C 
BRANCH  13  14
ATOM     14  C   UNL     1       3.199  78.700   7.469  1.00  0.00     0.053 C 
BRANCH  14  15
ATOM     15  C   UNL     1       2.337  77.814   6.626  1.00  0.00     0.041 C 
ATOM     16  O   UNL     1       2.106  78.113   5.424  1.00  0.00    -0.550 OA
ATOM     17  O   UNL     1       1.755  76.680   7.178  1.00  0.00    -0.550 OA
ENDBRANCH  14  15
ENDBRANCH  13  14
ENDBRANCH  12  13
ENDBRANCH  11  12
ENDBRANCH  10  11
ENDBRANCH   9  10
ENDBRANCH   8   9
ENDBRANCH   7   8
ENDBRANCH   6   7
ENDBRANCH   5   6
ENDBRANCH   4   5
ENDBRANCH   3   4
ENDBRANCH   2   3
ENDBRANCH   1   2
BRANCH   1  18
ATOM     18  C   UNL     1       4.388  74.882  -1.215  1.00  0.00     0.000 C 
BRANCH  18  19
ATOM     19  C   UNL     1       4.920  74.684  -2.646  1.00  0.00     0.000 C 
BRANCH  19  20
ATOM     20  C   UNL     1       6.421  74.980  -2.828  1.00  0.00     0.000 C 
BRANCH  20  21
ATOM     21  C   UNL     1       6.803  75.421  -4.258  1.00  0.00     0.000 C 
BRANCH  21  22
ATOM     22  C   UNL     1       7.854  76.545  -4.268  1.00  0.00     0.000 C 
BRANCH  22  23
ATOM     23  C   UNL     1       7.617  77.572  -3.141  1.00  0.00     0.000 C 
BRANCH  23  24
ATOM     24  C   UNL     1       8.850  78.431  -2.816  1.00  0.00    -0.000 C 
BRANCH  24  25
ATOM     25  C   UNL     1       8.508  79.667  -1.968  1.00  0.00    -0.000 C 
BRANCH  25  26
ATOM     26  C   UNL     1       9.317  79.738  -0.659  1.00  0.00    -0.000 C 
BRANCH  26  27
ATOM     27  C   UNL     1      10.825  79.460  -0.804  1.00  0.00    -0.000 C 
BRANCH  27  28
ATOM     28  C   UNL     1      11.483  78.774   0.410  1.00  0.00    -0.000 C 
BRANCH  28  29
ATOM     29  C   UNL     1      12.951  79.196   0.648  1.00  0.00    -0.000 C 
BRANCH  29  30
ATOM     30  C   UNL     1      13.999  78.240   0.042  1.00  0.00    -0.000 C 
BRANCH  30  31
ATOM     31  C   UNL     1      13.422  76.967  -0.605  1.00  0.00    -0.003 C 
ATOM     32  C   UNL     1      13.429  77.013  -2.132  1.00  0.00     0.004 C 
ENDBRANCH  30  31
ENDBRANCH  29  30
ENDBRANCH  28  29
ENDBRANCH  27  28
ENDBRANCH  26  27
ENDBRANCH  25  26
ENDBRANCH  24  25
ENDBRANCH  23  24
ENDBRANCH  22  23
ENDBRANCH  21  22
ENDBRANCH  20  21
ENDBRANCH  19  20
ENDBRANCH  18  19
ENDBRANCH   1  18
TORSDOF 28
ENDMDL
MODEL 4
REMARK VINA RESULT:     0.565      4.519     10.356
REMARK INTER + INTRA:          -0.498
REMARK INTER:                   1.537
REMARK INTRA:                  -2.035
REMARK UNBOUND:                -1.989
REMARK SMILES CCCCCCCCCCCCCCCCCCCCCCCCCCCCCC(=O)[O-]
REMARK SMILES IDX 16 1 17 2 18 3 19 4 20 5 21 6 22 7 23 8 24 9 25 10 26 11
REMARK SMILES IDX 27 12 28 13 29 14 30 15 31 16 32 17 15 18 14 19 13 20 12 21
REMARK SMILES IDX 11 22 10 23 9 24 8 25 7 26 6 27 5 28 4 29 3 30 2 31 1 32
REMARK H PARENT
REMARK Flexibility Score: inf
ROOT
ATOM      1  C   UNL     1       4.438  75.993  -0.249  1.00  0.00     0.000 C 
ENDROOT
BRANCH   1   2
ATOM      2  C   UNL     1       4.167  74.748  -1.107  1.00  0.00     0.000 C 
BRANCH   2   3
ATOM      3  C   UNL     1       5.412  74.296  -1.896  1.00  0.00     0.000 C 
BRANCH   3   4
ATOM      4  C   UNL     1       5.637  75.063  -3.213  1.00  0.00     0.000 C 
BRANCH   4   5
ATOM      5  C   UNL     1       7.109  75.116  -3.670  1.00  0.00     0.000 C 
BRANCH   5   6
ATOM      6  C   UNL     1       7.440  76.418  -4.421  1.00  0.00     0.000 C 
BRANCH   6   7
ATOM      7  C   UNL     1       8.667  77.153  -3.851  1.00  0.00     0.000 C 
BRANCH   7   8
ATOM      8  C   UNL     1       8.365  78.274  -2.835  1.00  0.00     0.000 C 
BRANCH   8   9
ATOM      9  C   UNL     1       9.600  78.962  -2.212  1.00  0.00     0.000 C 
BRANCH   9  10
ATOM     10  C   UNL     1       9.278  79.923  -1.056  1.00  0.00     0.000 C 
BRANCH  10  11
ATOM     11  C   UNL     1      10.230  79.776   0.143  1.00  0.00     0.000 C 
BRANCH  11  12
ATOM     12  C   UNL     1      11.367  78.777  -0.124  1.00  0.00     0.000 C 
BRANCH  12  13
ATOM     13  C   UNL     1      12.736  79.460  -0.246  1.00  0.00     0.006 C 
BRANCH  13  14
ATOM     14  C   UNL     1      13.863  78.502   0.152  1.00  0.00     0.053 C 
BRANCH  14  15
ATOM     15  C   UNL     1      13.879  77.307  -0.747  1.00  0.00     0.041 C 
ATOM     16  O   UNL     1      14.162  76.170  -0.285  1.00  0.00    -0.550 OA
ATOM     17  O   UNL     1      13.621  77.453  -2.104  1.00  0.00    -0.550 OA
ENDBRANCH  14  15
ENDBRANCH  13  14
ENDBRANCH  12  13
ENDBRANCH  11  12
ENDBRANCH  10  11
ENDBRANCH   9  10
ENDBRANCH   8   9
ENDBRANCH   7   8
ENDBRANCH   6   7
ENDBRANCH   5   6
ENDBRANCH   4   5
ENDBRANCH   3   4
ENDBRANCH   2   3
ENDBRANCH   1   2
BRANCH   1  18
ATOM     18  C   UNL     1       5.516  75.711   0.807  1.00  0.00     0.000 C 
BRANCH  18  19
ATOM     19  C   UNL     1       5.765  76.910   1.738  1.00  0.00     0.000 C 
BRANCH  19  20
ATOM     20  C   UNL     1       6.160  78.218   1.025  1.00  0.00     0.000 C 
BRANCH  20  21
ATOM     21  C   UNL     1       6.256  79.439   1.965  1.00  0.00     0.000 C 
BRANCH  21  22
ATOM     22  C   UNL     1       7.709  79.896   2.191  1.00  0.00     0.000 C 
BRANCH  22  23
ATOM     23  C   UNL     1       8.360  79.183   3.395  1.00  0.00     0.000 C 
BRANCH  23  24
ATOM     24  C   UNL     1       7.411  78.993   4.590  1.00  0.00    -0.000 C 
BRANCH  24  25
ATOM     25  C   UNL     1       7.864  77.869   5.536  1.00  0.00    -0.000 C 
BRANCH  25  26
ATOM     26  C   UNL     1       7.101  77.869   6.874  1.00  0.00    -0.000 C 
BRANCH  26  27
ATOM     27  C   UNL     1       5.602  77.525   6.776  1.00  0.00    -0.000 C 
BRANCH  27  28
ATOM     28  C   UNL     1       4.708  78.187   7.842  1.00  0.00    -0.000 C 
BRANCH  28  29
ATOM     29  C   UNL     1       3.521  77.309   8.298  1.00  0.00    -0.000 C 
BRANCH  29  30
ATOM     30  C   UNL     1       2.593  76.843   7.157  1.00  0.00    -0.000 C 
BRANCH  30  31
ATOM     31  C   UNL     1       2.356  77.881   6.044  1.00  0.00    -0.003 C 
ATOM     32  C   UNL     1       1.414  79.008   6.465  1.00  0.00     0.004 C 
ENDBRANCH  30  31
ENDBRANCH  29  30
ENDBRANCH  28  29
ENDBRANCH  27  28
ENDBRANCH  26  27
ENDBRANCH  25  26
ENDBRANCH  24  25
ENDBRANCH  23  24
ENDBRANCH  22  23
ENDBRANCH  21  22
ENDBRANCH  20  21
ENDBRANCH  19  20
ENDBRANCH  18  19
ENDBRANCH   1  18
TORSDOF 28
ENDMDL
MODEL 5
REMARK VINA RESULT:     0.610      2.396      5.601
REMARK INTER + INTRA:          -0.381
REMARK INTER:                   1.767
REMARK INTRA:                  -2.148
REMARK UNBOUND:                -1.989
REMARK SMILES CCCCCCCCCCCCCCCCCCCCCCCCCCCCCC(=O)[O-]
REMARK SMILES IDX 16 1 17 2 18 3 19 4 20 5 21 6 22 7 23 8 24 9 25 10 26 11
REMARK SMILES IDX 27 12 28 13 29 14 30 15 31 16 32 17 15 18 14 19 13 20 12 21
REMARK SMILES IDX 11 22 10 23 9 24 8 25 7 26 6 27 5 28 4 29 3 30 2 31 1 32
REMARK H PARENT
REMARK Flexibility Score: inf
ROOT
ATOM      1  C   UNL     1       5.392  74.893   0.922  1.00  0.00     0.000 C 
ENDROOT
BRANCH   1   2
ATOM      2  C   UNL     1       5.358  76.413   0.700  1.00  0.00     0.000 C 
BRANCH   2   3
ATOM      3  C   UNL     1       5.870  77.197   1.925  1.00  0.00     0.000 C 
BRANCH   3   4
ATOM      4  C   UNL     1       6.014  78.713   1.689  1.00  0.00     0.000 C 
BRANCH   4   5
ATOM      5  C   UNL     1       7.436  79.258   1.927  1.00  0.00     0.000 C 
BRANCH   5   6
ATOM      6  C   UNL     1       7.624  79.795   3.356  1.00  0.00     0.000 C 
BRANCH   6   7
ATOM      7  C   UNL     1       8.294  78.782   4.303  1.00  0.00     0.000 C 
BRANCH   7   8
ATOM      8  C   UNL     1       7.720  78.719   5.734  1.00  0.00     0.000 C 
BRANCH   8   9
ATOM      9  C   UNL     1       6.679  77.606   5.987  1.00  0.00     0.000 C 
BRANCH   9  10
ATOM     10  C   UNL     1       5.972  77.693   7.350  1.00  0.00     0.000 C 
BRANCH  10  11
ATOM     11  C   UNL     1       4.481  78.053   7.242  1.00  0.00     0.000 C 
BRANCH  11  12
ATOM     12  C   UNL     1       3.913  78.619   8.553  1.00  0.00     0.000 C 
BRANCH  12  13
ATOM     13  C   UNL     1       3.740  77.543   9.634  1.00  0.00     0.006 C 
BRANCH  13  14
ATOM     14  C   UNL     1       3.645  78.177  11.025  1.00  0.00     0.053 C 
BRANCH  14  15
ATOM     15  C   UNL     1       4.975  78.713  11.451  1.00  0.00     0.041 C 
ATOM     16  O   UNL     1       5.060  79.857  11.972  1.00  0.00    -0.550 OA
ATOM     17  O   UNL     1       6.127  77.968  11.237  1.00  0.00    -0.550 OA
ENDBRANCH  14  15
ENDBRANCH  13  14
ENDBRANCH  12  13
ENDBRANCH  11  12
ENDBRANCH  10  11
ENDBRANCH   9  10
ENDBRANCH   8   9
ENDBRANCH   7   8
ENDBRANCH   6   7
ENDBRANCH   5   6
ENDBRANCH   4   5
ENDBRANCH   3   4
ENDBRANCH   2   3
ENDBRANCH   1   2
BRANCH   1  18
ATOM     18  C   UNL     1       5.371  74.141  -0.416  1.00  0.00     0.000 C 
BRANCH  18  19
ATOM     19  C   UNL     1       4.625  74.913  -1.520  1.00  0.00     0.000 C 
BRANCH  19  20
ATOM     20  C   UNL     1       5.223  74.768  -2.932  1.00  0.00     0.000 C 
BRANCH  20  21
ATOM     21  C   UNL     1       6.730  75.100  -3.011  1.00  0.00     0.000 C 
BRANCH  21  22
ATOM     22  C   UNL     1       7.117  75.772  -4.340  1.00  0.00     0.000 C 
BRANCH  22  23
ATOM     23  C   UNL     1       8.127  76.922  -4.136  1.00  0.00     0.000 C 
BRANCH  23  24
ATOM     24  C   UNL     1       7.832  77.792  -2.904  1.00  0.00    -0.000 C 
BRANCH  24  25
ATOM     25  C   UNL     1       8.892  78.883  -2.679  1.00  0.00    -0.000 C 
BRANCH  25  26
ATOM     26  C   UNL     1       8.734  79.602  -1.325  1.00  0.00    -0.000 C 
BRANCH  26  27
ATOM     27  C   UNL     1      10.046  80.099  -0.689  1.00  0.00    -0.000 C 
BRANCH  27  28
ATOM     28  C   UNL     1      11.061  78.994  -0.337  1.00  0.00    -0.000 C 
BRANCH  28  29
ATOM     29  C   UNL     1      12.532  79.469  -0.341  1.00  0.00    -0.000 C 
BRANCH  29  30
ATOM     30  C   UNL     1      13.475  78.629  -1.229  1.00  0.00    -0.000 C 
BRANCH  30  31
ATOM     31  C   UNL     1      14.914  78.491  -0.700  1.00  0.00    -0.003 C 
ATOM     32  C   UNL     1      15.077  77.358   0.312  1.00  0.00     0.004 C 
ENDBRANCH  30  31
ENDBRANCH  29  30
ENDBRANCH  28  29
ENDBRANCH  27  28
ENDBRANCH  26  27
ENDBRANCH  25  26
ENDBRANCH  24  25
ENDBRANCH  23  24
ENDBRANCH  22  23
ENDBRANCH  21  22
ENDBRANCH  20  21
ENDBRANCH  19  20
ENDBRANCH  18  19
ENDBRANCH   1  18
TORSDOF 28
ENDMDL
MODEL 6
REMARK VINA RESULT:     0.766      4.495     10.380
REMARK INTER + INTRA:           0.031
REMARK INTER:                   2.722
REMARK INTRA:                  -2.692
REMARK UNBOUND:                -1.989
REMARK SMILES CCCCCCCCCCCCCCCCCCCCCCCCCCCCCC(=O)[O-]
REMARK SMILES IDX 16 1 17 2 18 3 19 4 20 5 21 6 22 7 23 8 24 9 25 10 26 11
REMARK SMILES IDX 27 12 28 13 29 14 30 15 31 16 32 17 15 18 14 19 13 20 12 21
REMARK SMILES IDX 11 22 10 23 9 24 8 25 7 26 6 27 5 28 4 29 3 30 2 31 1 32
REMARK H PARENT
REMARK Flexibility Score: inf
ROOT
ATOM      1  C   UNL     1       4.927  74.715  -2.480  1.00  0.00     0.000 C 
ENDROOT
BRANCH   1   2
ATOM      2  C   UNL     1       6.373  75.230  -2.547  1.00  0.00     0.000 C 
BRANCH   2   3
ATOM      3  C   UNL     1       6.886  75.354  -3.995  1.00  0.00     0.000 C 
BRANCH   3   4
ATOM      4  C   UNL     1       7.449  76.744  -4.349  1.00  0.00     0.000 C 
BRANCH   4   5
ATOM      5  C   UNL     1       8.868  77.008  -3.806  1.00  0.00     0.000 C 
BRANCH   5   6
ATOM      6  C   UNL     1       9.060  78.467  -3.358  1.00  0.00     0.000 C 
BRANCH   6   7
ATOM      7  C   UNL     1       8.301  78.810  -2.062  1.00  0.00     0.000 C 
BRANCH   7   8
ATOM      8  C   UNL     1       9.040  79.740  -1.078  1.00  0.00     0.000 C 
BRANCH   8   9
ATOM      9  C   UNL     1      10.342  79.173  -0.471  1.00  0.00     0.000 C 
BRANCH   9  10
ATOM     10  C   UNL     1      10.966  80.047   0.630  1.00  0.00     0.000 C 
BRANCH  10  11
ATOM     11  C   UNL     1      12.501  80.115   0.558  1.00  0.00     0.000 C 
BRANCH  11  12
ATOM     12  C   UNL     1      13.040  79.822  -0.851  1.00  0.00     0.000 C 
BRANCH  12  13
ATOM     13  C   UNL     1      14.574  79.773  -0.897  1.00  0.00     0.006 C 
BRANCH  13  14
ATOM     14  C   UNL     1      15.061  78.412  -1.404  1.00  0.00     0.053 C 
BRANCH  14  15
ATOM     15  C   UNL     1      13.968  77.395  -1.316  1.00  0.00     0.041 C 
ATOM     16  O   UNL     1      13.262  77.134  -2.326  1.00  0.00    -0.550 OA
ATOM     17  O   UNL     1      13.700  76.764  -0.108  1.00  0.00    -0.550 OA
ENDBRANCH  14  15
ENDBRANCH  13  14
ENDBRANCH  12  13
ENDBRANCH  11  12
ENDBRANCH  10  11
ENDBRANCH   9  10
ENDBRANCH   8   9
ENDBRANCH   7   8
ENDBRANCH   6   7
ENDBRANCH   5   6
ENDBRANCH   4   5
ENDBRANCH   3   4
ENDBRANCH   2   3
ENDBRANCH   1   2
BRANCH   1  18
ATOM     18  C   UNL     1       4.369  74.825  -1.054  1.00  0.00     0.000 C 
BRANCH  18  19
ATOM     19  C   UNL     1       5.375  74.361   0.015  1.00  0.00     0.000 C 
BRANCH  19  20
ATOM     20  C   UNL     1       5.507  75.295   1.233  1.00  0.00     0.000 C 
BRANCH  20  21
ATOM     21  C   UNL     1       5.601  76.792   0.866  1.00  0.00     0.000 C 
BRANCH  21  22
ATOM     22  C   UNL     1       5.757  77.694   2.104  1.00  0.00     0.000 C 
BRANCH  22  23
ATOM     23  C   UNL     1       6.079  79.154   1.721  1.00  0.00     0.000 C 
BRANCH  23  24
ATOM     24  C   UNL     1       7.292  79.735   2.466  1.00  0.00    -0.000 C 
BRANCH  24  25
ATOM     25  C   UNL     1       8.412  78.703   2.676  1.00  0.00    -0.000 C 
BRANCH  25  26
ATOM     26  C   UNL     1       8.873  78.610   4.143  1.00  0.00    -0.000 C 
BRANCH  26  27
ATOM     27  C   UNL     1       7.846  79.091   5.186  1.00  0.00    -0.000 C 
BRANCH  27  28
ATOM     28  C   UNL     1       7.295  77.992   6.116  1.00  0.00    -0.000 C 
BRANCH  28  29
ATOM     29  C   UNL     1       5.764  77.804   6.025  1.00  0.00    -0.000 C 
BRANCH  29  30
ATOM     30  C   UNL     1       5.070  77.528   7.376  1.00  0.00    -0.000 C 
BRANCH  30  31
ATOM     31  C   UNL     1       3.878  78.449   7.695  1.00  0.00    -0.003 C 
ATOM     32  C   UNL     1       3.946  79.058   9.094  1.00  0.00     0.004 C 
ENDBRANCH  30  31
ENDBRANCH  29  30
ENDBRANCH  28  29
ENDBRANCH  27  28
ENDBRANCH  26  27
ENDBRANCH  25  26
ENDBRANCH  24  25
ENDBRANCH  23  24
ENDBRANCH  22  23
ENDBRANCH  21  22
ENDBRANCH  20  21
ENDBRANCH  19  20
ENDBRANCH  18  19
ENDBRANCH   1  18
TORSDOF 28
ENDMDL
MODEL 7
REMARK VINA RESULT:     1.147      2.325      5.770
REMARK INTER + INTRA:           1.036
REMARK INTER:                   3.147
REMARK INTRA:                  -2.111
REMARK UNBOUND:                -1.989
REMARK SMILES CCCCCCCCCCCCCCCCCCCCCCCCCCCCCC(=O)[O-]
REMARK SMILES IDX 16 1 17 2 18 3 19 4 20 5 21 6 22 7 23 8 24 9 25 10 26 11
REMARK SMILES IDX 27 12 28 13 29 14 30 15 31 16 32 17 15 18 14 19 13 20 12 21
REMARK SMILES IDX 11 22 10 23 9 24 8 25 7 26 6 27 5 28 4 29 3 30 2 31 1 32
REMARK H PARENT
REMARK Flexibility Score: inf
ROOT
ATOM      1  C   UNL     1       4.712  74.502  -2.038  1.00  0.00     0.000 C 
ENDROOT
BRANCH   1   2
ATOM      2  C   UNL     1       5.595  74.864  -0.834  1.00  0.00     0.000 C 
BRANCH   2   3
ATOM      3  C   UNL     1       4.942  75.924   0.076  1.00  0.00     0.000 C 
BRANCH   3   4
ATOM      4  C   UNL     1       5.789  76.310   1.304  1.00  0.00     0.000 C 
BRANCH   4   5
ATOM      5  C   UNL     1       6.151  77.808   1.377  1.00  0.00     0.000 C 
BRANCH   5   6
ATOM      6  C   UNL     1       6.246  78.315   2.826  1.00  0.00     0.000 C 
BRANCH   6   7
ATOM      7  C   UNL     1       7.686  78.638   3.264  1.00  0.00     0.000 C 
BRANCH   7   8
ATOM      8  C   UNL     1       7.871  78.994   4.754  1.00  0.00     0.000 C 
BRANCH   8   9
ATOM      9  C   UNL     1       7.738  77.816   5.743  1.00  0.00     0.000 C 
BRANCH   9  10
ATOM     10  C   UNL     1       6.712  78.039   6.867  1.00  0.00     0.000 C 
BRANCH  10  11
ATOM     11  C   UNL     1       5.283  77.626   6.480  1.00  0.00     0.000 C 
BRANCH  11  12
ATOM     12  C   UNL     1       4.377  77.411   7.702  1.00  0.00     0.000 C 
BRANCH  12  13
ATOM     13  C   UNL     1       3.452  78.607   7.969  1.00  0.00     0.006 C 
BRANCH  13  14
ATOM     14  C   UNL     1       3.985  79.463   9.122  1.00  0.00     0.053 C 
BRANCH  14  15
ATOM     15  C   UNL     1       4.050  78.664  10.385  1.00  0.00     0.041 C 
ATOM     16  O   UNL     1       3.130  78.756  11.240  1.00  0.00    -0.550 OA
ATOM     17  O   UNL     1       5.145  77.848  10.636  1.00  0.00    -0.550 OA
ENDBRANCH  14  15
ENDBRANCH  13  14
ENDBRANCH  12  13
ENDBRANCH  11  12
ENDBRANCH  10  11
ENDBRANCH   9  10
ENDBRANCH   8   9
ENDBRANCH   7   8
ENDBRANCH   6   7
ENDBRANCH   5   6
ENDBRANCH   4   5
ENDBRANCH   3   4
ENDBRANCH   2   3
ENDBRANCH   1   2
BRANCH   1  18
ATOM     18  C   UNL     1       5.314  75.040  -3.343  1.00  0.00     0.000 C 
BRANCH  18  19
ATOM     19  C   UNL     1       6.847  74.907  -3.390  1.00  0.00     0.000 C 
BRANCH  19  20
ATOM     20  C   UNL     1       7.579  76.065  -4.095  1.00  0.00     0.000 C 
BRANCH  20  21
ATOM     21  C   UNL     1       7.340  77.445  -3.444  1.00  0.00     0.000 C 
BRANCH  21  22
ATOM     22  C   UNL     1       8.650  78.134  -3.024  1.00  0.00     0.000 C 
BRANCH  22  23
ATOM     23  C   UNL     1       8.400  79.330  -2.080  1.00  0.00     0.000 C 
BRANCH  23  24
ATOM     24  C   UNL     1       9.666  79.827  -1.362  1.00  0.00    -0.000 C 
BRANCH  24  25
ATOM     25  C   UNL     1       9.918  79.100  -0.031  1.00  0.00    -0.000 C 
BRANCH  25  26
ATOM     26  C   UNL     1      10.240  80.064   1.126  1.00  0.00    -0.000 C 
BRANCH  26  27
ATOM     27  C   UNL     1      11.690  80.009   1.643  1.00  0.00    -0.000 C 
BRANCH  27  28
ATOM     28  C   UNL     1      12.776  80.117   0.554  1.00  0.00    -0.000 C 
BRANCH  28  29
ATOM     29  C   UNL     1      14.139  79.519   0.968  1.00  0.00    -0.000 C 
BRANCH  29  30
ATOM     30  C   UNL     1      14.787  78.604  -0.094  1.00  0.00    -0.000 C 
BRANCH  30  31
ATOM     31  C   UNL     1      14.154  77.206  -0.221  1.00  0.00    -0.003 C 
ATOM     32  C   UNL     1      13.357  77.022  -1.512  1.00  0.00     0.004 C 
ENDBRANCH  30  31
ENDBRANCH  29  30
ENDBRANCH  28  29
ENDBRANCH  27  28
ENDBRANCH  26  27
ENDBRANCH  25  26
ENDBRANCH  24  25
ENDBRANCH  23  24
ENDBRANCH  22  23
ENDBRANCH  21  22
ENDBRANCH  20  21
ENDBRANCH  19  20
ENDBRANCH  18  19
ENDBRANCH   1  18
TORSDOF 28
ENDMDL
MODEL 8
REMARK VINA RESULT:     1.179      4.332     10.482
REMARK INTER + INTRA:           1.121
REMARK INTER:                   3.710
REMARK INTRA:                  -2.589
REMARK UNBOUND:                -1.989
REMARK SMILES CCCCCCCCCCCCCCCCCCCCCCCCCCCCCC(=O)[O-]
REMARK SMILES IDX 16 1 17 2 18 3 19 4 20 5 21 6 22 7 23 8 24 9 25 10 26 11
REMARK SMILES IDX 27 12 28 13 29 14 30 15 31 16 32 17 15 18 14 19 13 20 12 21
REMARK SMILES IDX 11 22 10 23 9 24 8 25 7 26 6 27 5 28 4 29 3 30 2 31 1 32
REMARK H PARENT
REMARK Flexibility Score: inf
ROOT
ATOM      1  C   UNL     1       5.758  76.850   0.631  1.00  0.00     0.000 C 
ENDROOT
BRANCH   1   2
ATOM      2  C   UNL     1       5.139  75.466   0.882  1.00  0.00     0.000 C 
BRANCH   2   3
ATOM      3  C   UNL     1       5.764  74.372  -0.007  1.00  0.00     0.000 C 
BRANCH   3   4
ATOM      4  C   UNL     1       4.996  74.107  -1.315  1.00  0.00     0.000 C 
BRANCH   4   5
ATOM      5  C   UNL     1       5.069  75.259  -2.337  1.00  0.00     0.000 C 
BRANCH   5   6
ATOM      6  C   UNL     1       5.739  74.831  -3.654  1.00  0.00     0.000 C 
BRANCH   6   7
ATOM      7  C   UNL     1       7.246  75.145  -3.699  1.00  0.00     0.000 C 
BRANCH   7   8
ATOM      8  C   UNL     1       7.618  76.597  -4.064  1.00  0.00     0.000 C 
BRANCH   8   9
ATOM      9  C   UNL     1       7.574  77.610  -2.900  1.00  0.00     0.000 C 
BRANCH   9  10
ATOM     10  C   UNL     1       8.775  78.570  -2.844  1.00  0.00     0.000 C 
BRANCH  10  11
ATOM     11  C   UNL     1       8.613  79.689  -1.801  1.00  0.00     0.000 C 
BRANCH  11  12
ATOM     12  C   UNL     1       9.945  80.082  -1.144  1.00  0.00     0.000 C 
BRANCH  12  13
ATOM     13  C   UNL     1      10.482  78.995  -0.203  1.00  0.00     0.006 C 
BRANCH  13  14
ATOM     14  C   UNL     1      11.869  79.369   0.328  1.00  0.00     0.053 C 
BRANCH  14  15
ATOM     15  C   UNL     1      12.913  78.459  -0.238  1.00  0.00     0.041 C 
ATOM     16  O   UNL     1      13.986  78.257   0.390  1.00  0.00    -0.550 OA
ATOM     17  O   UNL     1      12.719  77.866  -1.479  1.00  0.00    -0.550 OA
ENDBRANCH  14  15
ENDBRANCH  13  14
ENDBRANCH  12  13
ENDBRANCH  11  12
ENDBRANCH  10  11
ENDBRANCH   9  10
ENDBRANCH   8   9
ENDBRANCH   7   8
ENDBRANCH   6   7
ENDBRANCH   5   6
ENDBRANCH   4   5
ENDBRANCH   3   4
ENDBRANCH   2   3
ENDBRANCH   1   2
BRANCH   1  18
ATOM     18  C   UNL     1       5.864  77.651   1.935  1.00  0.00     0.000 C 
BRANCH  18  19
ATOM     19  C   UNL     1       6.061  79.158   1.694  1.00  0.00     0.000 C 
BRANCH  19  20
ATOM     20  C   UNL     1       7.487  79.678   1.958  1.00  0.00     0.000 C 
BRANCH  20  21
ATOM     21  C   UNL     1       8.359  78.717   2.795  1.00  0.00     0.000 C 
BRANCH  21  22
ATOM     22  C   UNL     1       8.557  79.207   4.241  1.00  0.00     0.000 C 
BRANCH  22  23
ATOM     23  C   UNL     1       7.994  78.208   5.274  1.00  0.00     0.000 C 
BRANCH  23  24
ATOM     24  C   UNL     1       6.577  78.554   5.761  1.00  0.00    -0.000 C 
BRANCH  24  25
ATOM     25  C   UNL     1       6.193  77.808   7.050  1.00  0.00    -0.000 C 
BRANCH  25  26
ATOM     26  C   UNL     1       4.690  77.478   7.125  1.00  0.00    -0.000 C 
BRANCH  26  27
ATOM     27  C   UNL     1       4.014  77.797   8.472  1.00  0.00    -0.000 C 
BRANCH  27  28
ATOM     28  C   UNL     1       3.858  79.297   8.786  1.00  0.00    -0.000 C 
BRANCH  28  29
ATOM     29  C   UNL     1       3.364  79.589  10.221  1.00  0.00    -0.000 C 
BRANCH  29  30
ATOM     30  C   UNL     1       4.481  79.647  11.285  1.00  0.00    -0.000 C 
BRANCH  30  31
ATOM     31  C   UNL     1       4.754  78.319  12.015  1.00  0.00    -0.003 C 
ATOM     32  C   UNL     1       6.158  77.772  11.764  1.00  0.00     0.004 C 
ENDBRANCH  30  31
ENDBRANCH  29  30
ENDBRANCH  28  29
ENDBRANCH  27  28
ENDBRANCH  26  27
ENDBRANCH  25  26
ENDBRANCH  24  25
ENDBRANCH  23  24
ENDBRANCH  22  23
ENDBRANCH  21  22
ENDBRANCH  20  21
ENDBRANCH  19  20
ENDBRANCH  18  19
ENDBRANCH   1  18
TORSDOF 28
ENDMDL
