MODEL 1
REMARK VINA RESULT:    -5.932      0.000      0.000
REMARK INTER + INTRA:          -7.108
REMARK INTER:                  -6.972
REMARK INTRA:                  -0.136
REMARK UNBOUND:                -0.136
REMARK SMILES O=C([O-])C=Cc1ccc(O)c(O)c1
REMARK SMILES IDX 6 1 13 2 7 3 11 4 8 5 9 6 5 7 4 8 2 9 1 10 3 11 12 12 10 14
REMARK H PARENT 12 13 10 15
REMARK Flexibility Score: inf
ROOT
ATOM      1  C   UNL     1     203.983 206.236 277.401  1.00  0.00    -0.022 A 
ATOM      2  C   UNL     1     204.626 207.480 277.283  1.00  0.00     0.058 A 
ATOM      3  C   UNL     1     204.098 205.309 276.347  1.00  0.00     0.012 A 
ATOM      4  C   UNL     1     205.390 207.787 276.147  1.00  0.00     0.157 A 
ATOM      5  C   UNL     1     204.859 205.615 275.215  1.00  0.00     0.051 A 
ATOM      6  C   UNL     1     205.508 206.847 275.110  1.00  0.00     0.157 A 
ENDROOT
BRANCH   1   7
ATOM      7  C   UNL     1     203.178 205.966 278.619  1.00  0.00     0.010 C 
ATOM      8  C   UNL     1     203.136 206.785 279.679  1.00  0.00     0.025 C 
BRANCH   8   9
ATOM      9  C   UNL     1     202.313 206.483 280.861  1.00  0.00     0.064 C 
ATOM     10  O   UNL     1     201.976 205.293 281.096  1.00  0.00    -0.545 OA
ATOM     11  O   UNL     1     201.898 207.492 281.723  1.00  0.00    -0.545 OA
ENDBRANCH   8   9
ENDBRANCH   1   7
BRANCH   4  12
ATOM     12  O   UNL     1     206.030 209.022 276.047  1.00  0.00    -0.504 OA
ATOM     13  H   UNL     1     206.317 209.401 275.153  1.00  0.00     0.293 HD
ENDBRANCH   4  12
BRANCH   6  14
ATOM     14  O   UNL     1     206.262 207.123 273.970  1.00  0.00    -0.504 OA
ATOM     15  H   UNL     1     207.275 207.108 273.976  1.00  0.00     0.293 HD
ENDBRANCH   6  14
TORSDOF 4
ENDMDL
MODEL 2
REMARK VINA RESULT:    -5.892      1.579      1.975
REMARK INTER + INTRA:          -7.061
REMARK INTER:                  -6.929
REMARK INTRA:                  -0.133
REMARK UNBOUND:                -0.136
REMARK SMILES O=C([O-])C=Cc1ccc(O)c(O)c1
REMARK SMILES IDX 6 1 13 2 7 3 11 4 8 5 9 6 5 7 4 8 2 9 1 10 3 11 12 12 10 14
REMARK H PARENT 12 13 10 15
REMARK Flexibility Score: inf
ROOT
ATOM      1  C   UNL     1     202.543 205.974 277.032  1.00  0.00    -0.022 A 
ATOM      2  C   UNL     1     203.933 205.881 276.847  1.00  0.00     0.058 A 
ATOM      3  C   UNL     1     201.707 206.006 275.899  1.00  0.00     0.012 A 
ATOM      4  C   UNL     1     204.481 205.797 275.558  1.00  0.00     0.157 A 
ATOM      5  C   UNL     1     202.252 205.923 274.615  1.00  0.00     0.051 A 
ATOM      6  C   UNL     1     203.634 205.816 274.437  1.00  0.00     0.157 A 
ENDROOT
BRANCH   1   7
ATOM      7  C   UNL     1     202.017 206.071 278.416  1.00  0.00     0.010 C 
ATOM      8  C   UNL     1     202.779 205.952 279.512  1.00  0.00     0.025 C 
BRANCH   8   9
ATOM      9  C   UNL     1     202.216 206.068 280.867  1.00  0.00     0.064 C 
ATOM     10  O   UNL     1     201.883 205.027 281.491  1.00  0.00    -0.545 OA
ATOM     11  O   UNL     1     202.042 207.309 281.468  1.00  0.00    -0.545 OA
ENDBRANCH   8   9
ENDBRANCH   1   7
BRANCH   4  12
ATOM     12  O   UNL     1     205.861 205.696 275.389  1.00  0.00    -0.504 OA
ATOM     13  H   UNL     1     206.465 205.374 276.136  1.00  0.00     0.293 HD
ENDBRANCH   4  12
BRANCH   6  14
ATOM     14  O   UNL     1     204.149 205.732 273.144  1.00  0.00    -0.504 OA
ATOM     15  H   UNL     1     205.139 205.819 272.951  1.00  0.00     0.293 HD
ENDBRANCH   6  14
TORSDOF 4
ENDMDL
MODEL 3
REMARK VINA RESULT:    -5.782      1.703      5.793
REMARK INTER + INTRA:          -6.931
REMARK INTER:                  -6.801
REMARK INTRA:                  -0.130
REMARK UNBOUND:                -0.136
REMARK SMILES O=C([O-])C=Cc1ccc(O)c(O)c1
REMARK SMILES IDX 6 1 13 2 7 3 11 4 8 5 9 6 5 7 4 8 2 9 1 10 3 11 12 12 10 14
REMARK H PARENT 12 13 10 15
REMARK Flexibility Score: inf
ROOT
ATOM      1  C   UNL     1     202.773 207.121 278.418  1.00  0.00    -0.022 A 
ATOM      2  C   UNL     1     202.332 208.433 278.659  1.00  0.00     0.058 A 
ATOM      3  C   UNL     1     202.832 206.215 279.494  1.00  0.00     0.012 A 
ATOM      4  C   UNL     1     201.932 208.831 279.944  1.00  0.00     0.157 A 
ATOM      5  C   UNL     1     202.435 206.611 280.775  1.00  0.00     0.051 A 
ATOM      6  C   UNL     1     201.982 207.913 281.005  1.00  0.00     0.157 A 
ENDROOT
BRANCH   1   7
ATOM      7  C   UNL     1     203.194 206.756 277.042  1.00  0.00     0.010 C 
ATOM      8  C   UNL     1     204.427 206.335 276.729  1.00  0.00     0.025 C 
BRANCH   8   9
ATOM      9  C   UNL     1     204.798 205.972 275.351  1.00  0.00     0.064 C 
ATOM     10  O   UNL     1     205.605 206.698 274.714  1.00  0.00    -0.545 OA
ATOM     11  O   UNL     1     204.269 204.841 274.740  1.00  0.00    -0.545 OA
ENDBRANCH   8   9
ENDBRANCH   1   7
BRANCH   4  12
ATOM     12  O   UNL     1     201.487 210.133 280.167  1.00  0.00    -0.504 OA
ATOM     13  H   UNL     1     201.914 210.927 279.705  1.00  0.00     0.293 HD
ENDBRANCH   4  12
BRANCH   6  14
ATOM     14  O   UNL     1     201.591 208.278 282.293  1.00  0.00    -0.504 OA
ATOM     15  H   UNL     1     200.650 208.122 282.635  1.00  0.00     0.293 HD
ENDBRANCH   6  14
TORSDOF 4
ENDMDL
MODEL 4
REMARK VINA RESULT:    -5.764      2.811      5.760
REMARK INTER + INTRA:          -6.911
REMARK INTER:                  -6.783
REMARK INTRA:                  -0.128
REMARK UNBOUND:                -0.136
REMARK SMILES O=C([O-])C=Cc1ccc(O)c(O)c1
REMARK SMILES IDX 6 1 13 2 7 3 11 4 8 5 9 6 5 7 4 8 2 9 1 10 3 11 12 12 10 14
REMARK H PARENT 12 13 10 15
REMARK Flexibility Score: inf
ROOT
ATOM      1  C   UNL     1     202.249 206.784 278.440  1.00  0.00    -0.022 A 
ATOM      2  C   UNL     1     202.355 208.164 278.680  1.00  0.00     0.058 A 
ATOM      3  C   UNL     1     202.021 205.920 279.530  1.00  0.00     0.012 A 
ATOM      4  C   UNL     1     202.211 208.680 279.976  1.00  0.00     0.157 A 
ATOM      5  C   UNL     1     201.877 206.434 280.822  1.00  0.00     0.051 A 
ATOM      6  C   UNL     1     201.968 207.810 281.051  1.00  0.00     0.157 A 
ENDROOT
BRANCH   1   7
ATOM      7  C   UNL     1     202.421 206.289 277.051  1.00  0.00     0.010 C 
ATOM      8  C   UNL     1     201.401 206.017 276.227  1.00  0.00     0.025 C 
BRANCH   8   9
ATOM      9  C   UNL     1     201.618 205.540 274.852  1.00  0.00     0.064 C 
ATOM     10  O   UNL     1     200.647 205.089 274.191  1.00  0.00    -0.545 OA
ATOM     11  O   UNL     1     202.881 205.575 274.271  1.00  0.00    -0.545 OA
ENDBRANCH   8   9
ENDBRANCH   1   7
BRANCH   4  12
ATOM     12  O   UNL     1     202.308 210.053 280.198  1.00  0.00    -0.504 OA
ATOM     13  H   UNL     1     203.138 210.469 280.605  1.00  0.00     0.293 HD
ENDBRANCH   4  12
BRANCH   6  14
ATOM     14  O   UNL     1     201.818 208.293 282.351  1.00  0.00    -0.504 OA
ATOM     15  H   UNL     1     202.590 208.327 283.005  1.00  0.00     0.293 HD
ENDBRANCH   6  14
TORSDOF 4
ENDMDL
MODEL 5
REMARK VINA RESULT:    -5.641      2.242      3.465
REMARK INTER + INTRA:          -6.766
REMARK INTER:                  -6.633
REMARK INTRA:                  -0.133
REMARK UNBOUND:                -0.136
REMARK SMILES O=C([O-])C=Cc1ccc(O)c(O)c1
REMARK SMILES IDX 6 1 13 2 7 3 11 4 8 5 9 6 5 7 4 8 2 9 1 10 3 11 12 12 10 14
REMARK H PARENT 12 13 10 15
REMARK Flexibility Score: inf
ROOT
ATOM      1  C   UNL     1     203.700 208.962 278.779  1.00  0.00    -0.022 A 
ATOM      2  C   UNL     1     204.502 208.553 277.701  1.00  0.00     0.058 A 
ATOM      3  C   UNL     1     203.720 210.317 279.166  1.00  0.00     0.012 A 
ATOM      4  C   UNL     1     205.292 209.479 277.002  1.00  0.00     0.157 A 
ATOM      5  C   UNL     1     204.507 211.239 278.470  1.00  0.00     0.051 A 
ATOM      6  C   UNL     1     205.291 210.829 277.389  1.00  0.00     0.157 A 
ENDROOT
BRANCH   1   7
ATOM      7  C   UNL     1     202.893 207.940 279.491  1.00  0.00     0.010 C 
ATOM      8  C   UNL     1     202.761 206.674 279.073  1.00  0.00     0.025 C 
BRANCH   8   9
ATOM      9  C   UNL     1     201.959 205.689 279.817  1.00  0.00     0.064 C 
ATOM     10  O   UNL     1     201.074 205.027 279.215  1.00  0.00    -0.545 OA
ATOM     11  O   UNL     1     202.159 205.481 281.178  1.00  0.00    -0.545 OA
ENDBRANCH   8   9
ENDBRANCH   1   7
BRANCH   4  12
ATOM     12  O   UNL     1     206.076 209.060 275.927  1.00  0.00    -0.504 OA
ATOM     13  H   UNL     1     206.866 208.440 276.056  1.00  0.00     0.293 HD
ENDBRANCH   4  12
BRANCH   6  14
ATOM     14  O   UNL     1     206.063 211.773 276.713  1.00  0.00    -0.504 OA
ATOM     15  H   UNL     1     206.133 211.789 275.703  1.00  0.00     0.293 HD
ENDBRANCH   6  14
TORSDOF 4
ENDMDL
MODEL 6
REMARK VINA RESULT:    -5.585     14.062     15.286
REMARK INTER + INTRA:          -6.700
REMARK INTER:                  -6.574
REMARK INTRA:                  -0.125
REMARK UNBOUND:                -0.136
REMARK SMILES O=C([O-])C=Cc1ccc(O)c(O)c1
REMARK SMILES IDX 6 1 13 2 7 3 11 4 8 5 9 6 5 7 4 8 2 9 1 10 3 11 12 12 10 14
REMARK H PARENT 12 13 10 15
REMARK Flexibility Score: inf
ROOT
ATOM      1  C   UNL     1     214.358 203.114 287.379  1.00  0.00    -0.022 A 
ATOM      2  C   UNL     1     213.560 203.274 288.524  1.00  0.00     0.058 A 
ATOM      3  C   UNL     1     215.654 202.581 287.521  1.00  0.00     0.012 A 
ATOM      4  C   UNL     1     214.032 202.886 289.787  1.00  0.00     0.157 A 
ATOM      5  C   UNL     1     216.125 202.196 288.780  1.00  0.00     0.051 A 
ATOM      6  C   UNL     1     215.321 202.342 289.913  1.00  0.00     0.157 A 
ENDROOT
BRANCH   1   7
ATOM      7  C   UNL     1     213.813 203.551 286.068  1.00  0.00     0.010 C 
ATOM      8  C   UNL     1     212.692 203.056 285.527  1.00  0.00     0.025 C 
BRANCH   8   9
ATOM      9  C   UNL     1     212.182 203.527 284.229  1.00  0.00     0.064 C 
ATOM     10  O   UNL     1     211.175 204.282 284.195  1.00  0.00    -0.545 OA
ATOM     11  O   UNL     1     212.791 203.148 283.038  1.00  0.00    -0.545 OA
ENDBRANCH   8   9
ENDBRANCH   1   7
BRANCH   4  12
ATOM     12  O   UNL     1     213.226 203.041 290.914  1.00  0.00    -0.504 OA
ATOM     13  H   UNL     1     212.730 202.259 291.323  1.00  0.00     0.293 HD
ENDBRANCH   4  12
BRANCH   6  14
ATOM     14  O   UNL     1     215.818 201.946 291.154  1.00  0.00    -0.504 OA
ATOM     15  H   UNL     1     216.549 201.251 291.246  1.00  0.00     0.293 HD
ENDBRANCH   6  14
TORSDOF 4
ENDMDL
MODEL 7
REMARK VINA RESULT:    -5.526     12.253     12.800
REMARK INTER + INTRA:          -6.631
REMARK INTER:                  -6.498
REMARK INTRA:                  -0.133
REMARK UNBOUND:                -0.136
REMARK SMILES O=C([O-])C=Cc1ccc(O)c(O)c1
REMARK SMILES IDX 6 1 13 2 7 3 11 4 8 5 9 6 5 7 4 8 2 9 1 10 3 11 12 12 10 14
REMARK H PARENT 12 13 10 15
REMARK Flexibility Score: inf
ROOT
ATOM      1  C   UNL     1     212.902 203.561 286.002  1.00  0.00    -0.022 A 
ATOM      2  C   UNL     1     211.909 204.554 285.957  1.00  0.00     0.058 A 
ATOM      3  C   UNL     1     213.083 202.729 284.879  1.00  0.00     0.012 A 
ATOM      4  C   UNL     1     211.126 204.733 284.807  1.00  0.00     0.157 A 
ATOM      5  C   UNL     1     212.303 202.908 283.733  1.00  0.00     0.051 A 
ATOM      6  C   UNL     1     211.328 203.907 283.689  1.00  0.00     0.157 A 
ENDROOT
BRANCH   1   7
ATOM      7  C   UNL     1     213.695 203.406 287.247  1.00  0.00     0.010 C 
ATOM      8  C   UNL     1     213.450 204.089 288.374  1.00  0.00     0.025 C 
BRANCH   8   9
ATOM      9  C   UNL     1     214.256 203.895 289.591  1.00  0.00     0.064 C 
ATOM     10  O   UNL     1     213.775 203.246 290.556  1.00  0.00    -0.545 OA
ATOM     11  O   UNL     1     215.539 204.419 289.693  1.00  0.00    -0.545 OA
ENDBRANCH   8   9
ENDBRANCH   1   7
BRANCH   4  12
ATOM     12  O   UNL     1     210.151 205.729 284.772  1.00  0.00    -0.504 OA
ATOM     13  H   UNL     1     209.374 205.690 284.123  1.00  0.00     0.293 HD
ENDBRANCH   4  12
BRANCH   6  14
ATOM     14  O   UNL     1     210.566 204.062 282.531  1.00  0.00    -0.504 OA
ATOM     15  H   UNL     1     210.840 203.651 281.647  1.00  0.00     0.293 HD
ENDBRANCH   6  14
TORSDOF 4
ENDMDL
MODEL 8
REMARK VINA RESULT:    -5.456      1.480      6.030
REMARK INTER + INTRA:          -6.549
REMARK INTER:                  -6.424
REMARK INTRA:                  -0.125
REMARK UNBOUND:                -0.136
REMARK SMILES O=C([O-])C=Cc1ccc(O)c(O)c1
REMARK SMILES IDX 6 1 13 2 7 3 11 4 8 5 9 6 5 7 4 8 2 9 1 10 3 11 12 12 10 14
REMARK H PARENT 12 13 10 15
REMARK Flexibility Score: inf
ROOT
ATOM      1  C   UNL     1     202.834 207.281 278.308  1.00  0.00    -0.022 A 
ATOM      2  C   UNL     1     202.550 206.237 279.203  1.00  0.00     0.058 A 
ATOM      3  C   UNL     1     202.678 208.612 278.743  1.00  0.00     0.012 A 
ATOM      4  C   UNL     1     202.141 206.510 280.517  1.00  0.00     0.157 A 
ATOM      5  C   UNL     1     202.271 208.884 280.052  1.00  0.00     0.051 A 
ATOM      6  C   UNL     1     202.004 207.841 280.943  1.00  0.00     0.157 A 
ENDROOT
BRANCH   1   7
ATOM      7  C   UNL     1     203.252 206.937 276.925  1.00  0.00     0.010 C 
ATOM      8  C   UNL     1     204.387 206.287 276.632  1.00  0.00     0.025 C 
BRANCH   8   9
ATOM      9  C   UNL     1     204.756 205.956 275.246  1.00  0.00     0.064 C 
ATOM     10  O   UNL     1     205.647 206.627 274.663  1.00  0.00    -0.545 OA
ATOM     11  O   UNL     1     204.133 204.914 274.567  1.00  0.00    -0.545 OA
ENDBRANCH   8   9
ENDBRANCH   1   7
BRANCH   4  12
ATOM     12  O   UNL     1     201.872 205.463 281.398  1.00  0.00    -0.504 OA
ATOM     13  H   UNL     1     200.972 204.997 281.410  1.00  0.00     0.293 HD
ENDBRANCH   4  12
BRANCH   6  14
ATOM     14  O   UNL     1     201.602 208.145 282.243  1.00  0.00    -0.504 OA
ATOM     15  H   UNL     1     201.832 207.551 283.031  1.00  0.00     0.293 HD
ENDBRANCH   6  14
TORSDOF 4
ENDMDL
MODEL 9
REMARK VINA RESULT:    -5.437      3.627      5.002
REMARK INTER + INTRA:          -6.526
REMARK INTER:                  -6.394
REMARK INTRA:                  -0.133
REMARK UNBOUND:                -0.136
REMARK SMILES O=C([O-])C=Cc1ccc(O)c(O)c1
REMARK SMILES IDX 6 1 13 2 7 3 11 4 8 5 9 6 5 7 4 8 2 9 1 10 3 11 12 12 10 14
REMARK H PARENT 12 13 10 15
REMARK Flexibility Score: inf
ROOT
ATOM      1  C   UNL     1     202.665 206.898 277.232  1.00  0.00    -0.022 A 
ATOM      2  C   UNL     1     203.416 205.724 277.417  1.00  0.00     0.058 A 
ATOM      3  C   UNL     1     202.971 208.030 278.011  1.00  0.00     0.012 A 
ATOM      4  C   UNL     1     204.469 205.685 278.343  1.00  0.00     0.157 A 
ATOM      5  C   UNL     1     204.021 207.992 278.933  1.00  0.00     0.051 A 
ATOM      6  C   UNL     1     204.773 206.827 279.102  1.00  0.00     0.157 A 
ENDROOT
BRANCH   1   7
ATOM      7  C   UNL     1     201.554 206.881 276.247  1.00  0.00     0.010 C 
ATOM      8  C   UNL     1     201.167 205.784 275.582  1.00  0.00     0.025 C 
BRANCH   8   9
ATOM      9  C   UNL     1     200.051 205.811 274.622  1.00  0.00     0.064 C 
ATOM     10  O   UNL     1     198.947 205.295 274.939  1.00  0.00    -0.545 OA
ATOM     11  O   UNL     1     200.196 206.394 273.368  1.00  0.00    -0.545 OA
ENDBRANCH   8   9
ENDBRANCH   1   7
BRANCH   4  12
ATOM     12  O   UNL     1     205.212 204.518 278.509  1.00  0.00    -0.504 OA
ATOM     13  H   UNL     1     206.078 204.509 279.035  1.00  0.00     0.293 HD
ENDBRANCH   4  12
BRANCH   6  14
ATOM     14  O   UNL     1     205.815 206.820 280.029  1.00  0.00    -0.504 OA
ATOM     15  H   UNL     1     206.418 207.622 280.168  1.00  0.00     0.293 HD
ENDBRANCH   6  14
TORSDOF 4
ENDMDL
