MODEL 1
REMARK VINA RESULT:    -5.890      0.000      0.000
REMARK INTER + INTRA:          -7.055
REMARK INTER:                  -6.923
REMARK INTRA:                  -0.132
REMARK UNBOUND:                -0.132
REMARK SMILES O=C([O-])C=Cc1ccc(O)c(O)c1
REMARK SMILES IDX 6 1 13 2 7 3 11 4 8 5 9 6 5 7 4 8 2 9 1 10 3 11 12 12 10 14
REMARK H PARENT 12 13 10 15
REMARK Flexibility Score: inf
ROOT
ATOM      1  C   UNL     1      82.063  62.927   8.969  1.00  0.00    -0.022 A 
ATOM      2  C   UNL     1      83.426  63.012   9.300  1.00  0.00     0.058 A 
ATOM      3  C   UNL     1      81.104  63.272   9.941  1.00  0.00     0.012 A 
ATOM      4  C   UNL     1      83.827  63.411  10.584  1.00  0.00     0.157 A 
ATOM      5  C   UNL     1      81.505  63.669  11.220  1.00  0.00     0.051 A 
ATOM      6  C   UNL     1      82.865  63.737  11.546  1.00  0.00     0.157 A 
ENDROOT
BRANCH   1   7
ATOM      7  C   UNL     1      81.691  62.510   7.593  1.00  0.00     0.010 C 
ATOM      8  C   UNL     1      81.050  63.302   6.723  1.00  0.00     0.025 C 
BRANCH   8   9
ATOM      9  C   UNL     1      80.687  62.850   5.370  1.00  0.00     0.064 C 
ATOM     10  O   UNL     1      80.997  61.699   4.961  1.00  0.00    -0.545 OA
ATOM     11  O   UNL     1      79.992  63.707   4.527  1.00  0.00    -0.545 OA
ENDBRANCH   8   9
ENDBRANCH   1   7
BRANCH   4  12
ATOM     12  O   UNL     1      85.180  63.484  10.908  1.00  0.00    -0.504 OA
ATOM     13  H   UNL     1      85.773  64.225  10.552  1.00  0.00     0.293 HD
ENDBRANCH   4  12
BRANCH   6  14
ATOM     14  O   UNL     1      83.266  64.131  12.821  1.00  0.00    -0.504 OA
ATOM     15  H   UNL     1      82.749  63.857  13.648  1.00  0.00     0.293 HD
ENDBRANCH   6  14
TORSDOF 4
ENDMDL
MODEL 2
REMARK VINA RESULT:    -5.657      1.529      6.095
REMARK INTER + INTRA:          -6.781
REMARK INTER:                  -6.649
REMARK INTRA:                  -0.132
REMARK UNBOUND:                -0.132
REMARK SMILES O=C([O-])C=Cc1ccc(O)c(O)c1
REMARK SMILES IDX 6 1 13 2 7 3 11 4 8 5 9 6 5 7 4 8 2 9 1 10 3 11 12 12 10 14
REMARK H PARENT 12 13 10 15
REMARK Flexibility Score: inf
ROOT
ATOM      1  C   UNL     1      81.305  62.896   8.236  1.00  0.00    -0.022 A 
ATOM      2  C   UNL     1      80.027  63.474   8.321  1.00  0.00     0.058 A 
ATOM      3  C   UNL     1      81.782  62.481   6.977  1.00  0.00     0.012 A 
ATOM      4  C   UNL     1      79.227  63.614   7.178  1.00  0.00     0.157 A 
ATOM      5  C   UNL     1      80.984  62.622   5.838  1.00  0.00     0.051 A 
ATOM      6  C   UNL     1      79.706  63.185   5.934  1.00  0.00     0.157 A 
ENDROOT
BRANCH   1   7
ATOM      7  C   UNL     1      82.116  62.780   9.474  1.00  0.00     0.010 C 
ATOM      8  C   UNL     1      81.730  63.258  10.665  1.00  0.00     0.025 C 
BRANCH   8   9
ATOM      9  C   UNL     1      82.567  63.135  11.870  1.00  0.00     0.064 C 
ATOM     10  O   UNL     1      83.353  64.058  12.216  1.00  0.00    -0.545 OA
ATOM     11  O   UNL     1      82.492  61.981  12.638  1.00  0.00    -0.545 OA
ENDBRANCH   8   9
ENDBRANCH   1   7
BRANCH   4  12
ATOM     12  O   UNL     1      77.957  64.179   7.271  1.00  0.00    -0.504 OA
ATOM     13  H   UNL     1      77.827  65.166   7.463  1.00  0.00     0.293 HD
ENDBRANCH   4  12
BRANCH   6  14
ATOM     14  O   UNL     1      78.908  63.325   4.800  1.00  0.00    -0.504 OA
ATOM     15  H   UNL     1      77.938  63.032   4.794  1.00  0.00     0.293 HD
ENDBRANCH   6  14
TORSDOF 4
ENDMDL
MODEL 3
REMARK VINA RESULT:    -5.276      1.406      5.819
REMARK INTER + INTRA:          -6.333
REMARK INTER:                  -6.194
REMARK INTRA:                  -0.139
REMARK UNBOUND:                -0.132
REMARK SMILES O=C([O-])C=Cc1ccc(O)c(O)c1
REMARK SMILES IDX 6 1 13 2 7 3 11 4 8 5 9 6 5 7 4 8 2 9 1 10 3 11 12 12 10 14
REMARK H PARENT 12 13 10 15
REMARK Flexibility Score: inf
ROOT
ATOM      1  C   UNL     1      81.239  62.884   8.274  1.00  0.00    -0.022 A 
ATOM      2  C   UNL     1      81.408  62.538   6.922  1.00  0.00     0.058 A 
ATOM      3  C   UNL     1      79.948  63.202   8.738  1.00  0.00     0.012 A 
ATOM      4  C   UNL     1      80.316  62.532   6.043  1.00  0.00     0.157 A 
ATOM      5  C   UNL     1      78.860  63.196   7.860  1.00  0.00     0.051 A 
ATOM      6  C   UNL     1      79.040  62.865   6.512  1.00  0.00     0.157 A 
ENDROOT
BRANCH   1   7
ATOM      7  C   UNL     1      82.426  62.864   9.166  1.00  0.00     0.010 C 
ATOM      8  C   UNL     1      82.406  63.275  10.442  1.00  0.00     0.025 C 
BRANCH   8   9
ATOM      9  C   UNL     1      83.606  63.252  11.293  1.00  0.00     0.064 C 
ATOM     10  O   UNL     1      83.537  62.927  12.510  1.00  0.00    -0.545 OA
ATOM     11  O   UNL     1      84.836  63.596  10.749  1.00  0.00    -0.545 OA
ENDBRANCH   8   9
ENDBRANCH   1   7
BRANCH   4  12
ATOM     12  O   UNL     1      80.493  62.197   4.702  1.00  0.00    -0.504 OA
ATOM     13  H   UNL     1      80.661  62.904   3.995  1.00  0.00     0.293 HD
ENDBRANCH   4  12
BRANCH   6  14
ATOM     14  O   UNL     1      77.957  62.860   5.635  1.00  0.00    -0.504 OA
ATOM     15  H   UNL     1      77.427  62.016   5.451  1.00  0.00     0.293 HD
ENDBRANCH   6  14
TORSDOF 4
ENDMDL
MODEL 4
REMARK VINA RESULT:    -5.221      0.900      2.137
REMARK INTER + INTRA:          -6.269
REMARK INTER:                  -6.141
REMARK INTRA:                  -0.128
REMARK UNBOUND:                -0.132
REMARK SMILES O=C([O-])C=Cc1ccc(O)c(O)c1
REMARK SMILES IDX 6 1 13 2 7 3 11 4 8 5 9 6 5 7 4 8 2 9 1 10 3 11 12 12 10 14
REMARK H PARENT 12 13 10 15
REMARK Flexibility Score: inf
ROOT
ATOM      1  C   UNL     1      82.202  62.869   8.888  1.00  0.00    -0.022 A 
ATOM      2  C   UNL     1      81.143  63.225   9.740  1.00  0.00     0.058 A 
ATOM      3  C   UNL     1      83.521  62.942   9.376  1.00  0.00     0.012 A 
ATOM      4  C   UNL     1      81.393  63.670  11.046  1.00  0.00     0.157 A 
ATOM      5  C   UNL     1      83.770  63.386  10.678  1.00  0.00     0.051 A 
ATOM      6  C   UNL     1      82.709  63.754  11.515  1.00  0.00     0.157 A 
ENDROOT
BRANCH   1   7
ATOM      7  C   UNL     1      81.883  62.394   7.518  1.00  0.00     0.010 C 
ATOM      8  C   UNL     1      81.226  63.128   6.609  1.00  0.00     0.025 C 
BRANCH   8   9
ATOM      9  C   UNL     1      80.917  62.619   5.263  1.00  0.00     0.064 C 
ATOM     10  O   UNL     1      80.472  63.382   4.363  1.00  0.00    -0.545 OA
ATOM     11  O   UNL     1      81.115  61.275   4.980  1.00  0.00    -0.545 OA
ENDBRANCH   8   9
ENDBRANCH   1   7
BRANCH   4  12
ATOM     12  O   UNL     1      80.339  64.031  11.882  1.00  0.00    -0.504 OA
ATOM     13  H   UNL     1      80.494  64.543  12.743  1.00  0.00     0.293 HD
ENDBRANCH   4  12
BRANCH   6  14
ATOM     14  O   UNL     1      82.955  64.198  12.813  1.00  0.00    -0.504 OA
ATOM     15  H   UNL     1      82.846  65.172  13.070  1.00  0.00     0.293 HD
ENDBRANCH   6  14
TORSDOF 4
ENDMDL
MODEL 5
REMARK VINA RESULT:    -4.923      2.837      4.426
REMARK INTER + INTRA:          -5.918
REMARK INTER:                  -5.781
REMARK INTRA:                  -0.137
REMARK UNBOUND:                -0.132
REMARK SMILES O=C([O-])C=Cc1ccc(O)c(O)c1
REMARK SMILES IDX 6 1 13 2 7 3 11 4 8 5 9 6 5 7 4 8 2 9 1 10 3 11 12 12 10 14
REMARK H PARENT 12 13 10 15
REMARK Flexibility Score: inf
ROOT
ATOM      1  C   UNL     1      79.971  62.985   6.546  1.00  0.00    -0.022 A 
ATOM      2  C   UNL     1      80.602  63.159   7.789  1.00  0.00     0.058 A 
ATOM      3  C   UNL     1      80.662  62.312   5.520  1.00  0.00     0.012 A 
ATOM      4  C   UNL     1      81.908  62.692   8.000  1.00  0.00     0.157 A 
ATOM      5  C   UNL     1      81.964  61.846   5.732  1.00  0.00     0.051 A 
ATOM      6  C   UNL     1      82.590  62.037   6.969  1.00  0.00     0.157 A 
ENDROOT
BRANCH   1   7
ATOM      7  C   UNL     1      78.585  63.489   6.376  1.00  0.00     0.010 C 
ATOM      8  C   UNL     1      78.031  63.762   5.187  1.00  0.00     0.025 C 
BRANCH   8   9
ATOM      9  C   UNL     1      76.656  64.271   5.058  1.00  0.00     0.064 C 
ATOM     10  O   UNL     1      76.305  65.349   5.610  1.00  0.00    -0.545 OA
ATOM     11  O   UNL     1      75.727  63.551   4.319  1.00  0.00    -0.545 OA
ENDBRANCH   8   9
ENDBRANCH   1   7
BRANCH   4  12
ATOM     12  O   UNL     1      82.531  62.876   9.233  1.00  0.00    -0.504 OA
ATOM     13  H   UNL     1      83.334  63.485   9.336  1.00  0.00     0.293 HD
ENDBRANCH   4  12
BRANCH   6  14
ATOM     14  O   UNL     1      83.888  61.575   7.181  1.00  0.00    -0.504 OA
ATOM     15  H   UNL     1      84.412  61.110   6.450  1.00  0.00     0.293 HD
ENDBRANCH   6  14
TORSDOF 4
ENDMDL
MODEL 6
REMARK VINA RESULT:    -4.902      2.234      3.438
REMARK INTER + INTRA:          -5.893
REMARK INTER:                  -5.769
REMARK INTRA:                  -0.125
REMARK UNBOUND:                -0.132
REMARK SMILES O=C([O-])C=Cc1ccc(O)c(O)c1
REMARK SMILES IDX 6 1 13 2 7 3 11 4 8 5 9 6 5 7 4 8 2 9 1 10 3 11 12 12 10 14
REMARK H PARENT 12 13 10 15
REMARK Flexibility Score: inf
ROOT
ATOM      1  C   UNL     1      81.180  62.855   6.359  1.00  0.00    -0.022 A 
ATOM      2  C   UNL     1      80.188  63.205   7.291  1.00  0.00     0.058 A 
ATOM      3  C   UNL     1      82.459  62.499   6.828  1.00  0.00     0.012 A 
ATOM      4  C   UNL     1      80.472  63.225   8.664  1.00  0.00     0.157 A 
ATOM      5  C   UNL     1      82.741  62.519   8.198  1.00  0.00     0.051 A 
ATOM      6  C   UNL     1      81.751  62.884   9.118  1.00  0.00     0.157 A 
ENDROOT
BRANCH   1   7
ATOM      7  C   UNL     1      80.826  62.839   4.917  1.00  0.00     0.010 C 
ATOM      8  C   UNL     1      80.697  63.944   4.169  1.00  0.00     0.025 C 
BRANCH   8   9
ATOM      9  C   UNL     1      80.333  63.890   2.744  1.00  0.00     0.064 C 
ATOM     10  O   UNL     1      81.154  63.490   1.875  1.00  0.00    -0.545 OA
ATOM     11  O   UNL     1      79.064  64.288   2.349  1.00  0.00    -0.545 OA
ENDBRANCH   8   9
ENDBRANCH   1   7
BRANCH   4  12
ATOM     12  O   UNL     1      79.487  63.583   9.583  1.00  0.00    -0.504 OA
ATOM     13  H   UNL     1      79.444  63.168  10.506  1.00  0.00     0.293 HD
ENDBRANCH   4  12
BRANCH   6  14
ATOM     14  O   UNL     1      82.030  62.907  10.483  1.00  0.00    -0.504 OA
ATOM     15  H   UNL     1      81.868  62.098  11.071  1.00  0.00     0.293 HD
ENDBRANCH   6  14
TORSDOF 4
ENDMDL
MODEL 7
REMARK VINA RESULT:    -4.888      1.464      5.783
REMARK INTER + INTRA:          -5.877
REMARK INTER:                  -5.744
REMARK INTRA:                  -0.133
REMARK UNBOUND:                -0.132
REMARK SMILES O=C([O-])C=Cc1ccc(O)c(O)c1
REMARK SMILES IDX 6 1 13 2 7 3 11 4 8 5 9 6 5 7 4 8 2 9 1 10 3 11 12 12 10 14
REMARK H PARENT 12 13 10 15
REMARK Flexibility Score: inf
ROOT
ATOM      1  C   UNL     1      81.060  62.968   8.356  1.00  0.00    -0.022 A 
ATOM      2  C   UNL     1      82.126  62.297   7.733  1.00  0.00     0.058 A 
ATOM      3  C   UNL     1      79.911  63.269   7.599  1.00  0.00     0.012 A 
ATOM      4  C   UNL     1      82.059  61.953   6.375  1.00  0.00     0.157 A 
ATOM      5  C   UNL     1      79.845  62.926   6.246  1.00  0.00     0.051 A 
ATOM      6  C   UNL     1      80.918  62.271   5.630  1.00  0.00     0.157 A 
ENDROOT
BRANCH   1   7
ATOM      7  C   UNL     1      81.176  63.301   9.798  1.00  0.00     0.010 C 
ATOM      8  C   UNL     1      82.283  63.093  10.524  1.00  0.00     0.025 C 
BRANCH   8   9
ATOM      9  C   UNL     1      82.357  63.425  11.956  1.00  0.00     0.064 C 
ATOM     10  O   UNL     1      82.407  64.622  12.347  1.00  0.00    -0.545 OA
ATOM     11  O   UNL     1      82.376  62.401  12.894  1.00  0.00    -0.545 OA
ENDBRANCH   8   9
ENDBRANCH   1   7
BRANCH   4  12
ATOM     12  O   UNL     1      83.123  61.296   5.761  1.00  0.00    -0.504 OA
ATOM     13  H   UNL     1      83.741  60.683   6.281  1.00  0.00     0.293 HD
ENDBRANCH   4  12
BRANCH   6  14
ATOM     14  O   UNL     1      80.855  61.929   4.280  1.00  0.00    -0.504 OA
ATOM     15  H   UNL     1      80.168  61.271   3.931  1.00  0.00     0.293 HD
ENDBRANCH   6  14
TORSDOF 4
ENDMDL
MODEL 8
REMARK VINA RESULT:    -4.700      2.161      3.263
REMARK INTER + INTRA:          -5.656
REMARK INTER:                  -5.522
REMARK INTRA:                  -0.133
REMARK UNBOUND:                -0.132
REMARK SMILES O=C([O-])C=Cc1ccc(O)c(O)c1
REMARK SMILES IDX 6 1 13 2 7 3 11 4 8 5 9 6 5 7 4 8 2 9 1 10 3 11 12 12 10 14
REMARK H PARENT 12 13 10 15
REMARK Flexibility Score: inf
ROOT
ATOM      1  C   UNL     1      80.466  63.303   7.336  1.00  0.00    -0.022 A 
ATOM      2  C   UNL     1      79.822  63.689   8.523  1.00  0.00     0.058 A 
ATOM      3  C   UNL     1      81.762  62.759   7.411  1.00  0.00     0.012 A 
ATOM      4  C   UNL     1      80.466  63.558   9.762  1.00  0.00     0.157 A 
ATOM      5  C   UNL     1      82.404  62.629   8.646  1.00  0.00     0.051 A 
ATOM      6  C   UNL     1      81.761  63.030   9.823  1.00  0.00     0.157 A 
ENDROOT
BRANCH   1   7
ATOM      7  C   UNL     1      79.736  63.452   6.051  1.00  0.00     0.010 C 
ATOM      8  C   UNL     1      78.412  63.642   5.964  1.00  0.00     0.025 C 
BRANCH   8   9
ATOM      9  C   UNL     1      77.720  63.773   4.672  1.00  0.00     0.064 C 
ATOM     10  O   UNL     1      76.483  63.552   4.568  1.00  0.00    -0.545 OA
ATOM     11  O   UNL     1      78.442  64.145   3.546  1.00  0.00    -0.545 OA
ENDBRANCH   8   9
ENDBRANCH   1   7
BRANCH   4  12
ATOM     12  O   UNL     1      79.826  63.951  10.935  1.00  0.00    -0.504 OA
ATOM     13  H   UNL     1      79.340  64.838  11.004  1.00  0.00     0.293 HD
ENDBRANCH   4  12
BRANCH   6  14
ATOM     14  O   UNL     1      82.399  62.902  11.055  1.00  0.00    -0.504 OA
ATOM     15  H   UNL     1      83.401  62.766  11.122  1.00  0.00     0.293 HD
ENDBRANCH   6  14
TORSDOF 4
ENDMDL
MODEL 9
REMARK VINA RESULT:    -4.625      3.719      4.907
REMARK INTER + INTRA:          -5.568
REMARK INTER:                  -5.438
REMARK INTRA:                  -0.130
REMARK UNBOUND:                -0.132
REMARK SMILES O=C([O-])C=Cc1ccc(O)c(O)c1
REMARK SMILES IDX 6 1 13 2 7 3 11 4 8 5 9 6 5 7 4 8 2 9 1 10 3 11 12 12 10 14
REMARK H PARENT 12 13 10 15
REMARK Flexibility Score: inf
ROOT
ATOM      1  C   UNL     1      79.842  61.574   7.208  1.00  0.00    -0.022 A 
ATOM      2  C   UNL     1      80.584  62.060   8.297  1.00  0.00     0.058 A 
ATOM      3  C   UNL     1      80.474  61.448   5.956  1.00  0.00     0.012 A 
ATOM      4  C   UNL     1      81.926  62.437   8.138  1.00  0.00     0.157 A 
ATOM      5  C   UNL     1      81.812  61.824   5.798  1.00  0.00     0.051 A 
ATOM      6  C   UNL     1      82.539  62.321   6.886  1.00  0.00     0.157 A 
ENDROOT
BRANCH   1   7
ATOM      7  C   UNL     1      78.428  61.178   7.431  1.00  0.00     0.010 C 
ATOM      8  C   UNL     1      78.000  59.908   7.425  1.00  0.00     0.025 C 
BRANCH   8   9
ATOM      9  C   UNL     1      76.587  59.555   7.639  1.00  0.00     0.064 C 
ATOM     10  O   UNL     1      75.699  59.883   6.807  1.00  0.00    -0.545 OA
ATOM     11  O   UNL     1      76.225  58.850   8.779  1.00  0.00    -0.545 OA
ENDBRANCH   8   9
ENDBRANCH   1   7
BRANCH   4  12
ATOM     12  O   UNL     1      82.654  62.927   9.221  1.00  0.00    -0.504 OA
ATOM     13  H   UNL     1      82.978  62.317   9.962  1.00  0.00     0.293 HD
ENDBRANCH   4  12
BRANCH   6  14
ATOM     14  O   UNL     1      83.872  62.698   6.730  1.00  0.00    -0.504 OA
ATOM     15  H   UNL     1      84.149  63.405   6.059  1.00  0.00     0.293 HD
ENDBRANCH   6  14
TORSDOF 4
ENDMDL
