MODEL 1
REMARK VINA RESULT:    -6.454      0.000      0.000
REMARK INTER + INTRA:         -12.413
REMARK INTER:                 -10.605
REMARK INTRA:                  -1.808
REMARK UNBOUND:                -1.808
REMARK SMILES C[C@H]1O[C@H](OC[C@@H]2O[C@H](Oc3c(-c4ccc(O)c(O)c4)oc4cc(O)cc(O)c4c3=O)[C@@H](O)[C@@H](O)[C@H]2O)[C@@H](O)[C@@H](O)[C@@H]1O
REMARK SMILES IDX 7 1 36 2 34 3 32 4 9 5 8 6 6 7 5 8 4 9 1 10 2 11 42 12 3 13
REMARK SMILES IDX 40 14 38 15 43 16 41 18 39 20 37 22 35 24 10 26 11 27 12 28
REMARK SMILES IDX 30 29 21 30 29 31 31 32 22 33 27 34 23 35 26 36 24 37 13 38
REMARK SMILES IDX 20 39 14 40 18 41 15 42 16 43 19 44 17 46 28 48 25 50 33 52
REMARK H PARENT 43 17 41 19 39 21 37 23 35 25 19 45 17 47 28 49 25 51 33 53
REMARK Flexibility Score: inf
ROOT
ATOM      1  C   UNL     1      53.969   4.278  78.792  1.00  0.00     0.180 C 
ATOM      2  C   UNL     1      53.045   3.187  78.190  1.00  0.00     0.177 C 
ATOM      3  C   UNL     1      51.980   2.778  79.199  1.00  0.00     0.180 C 
ATOM      4  C   UNL     1      51.202   4.018  79.688  1.00  0.00     0.214 C 
ATOM      5  C   UNL     1      52.128   5.228  80.055  1.00  0.00     0.339 C 
ATOM      6  O   UNL     1      53.268   5.429  79.226  1.00  0.00    -0.332 OA
ENDROOT
BRANCH   1   7
ATOM      7  C   UNL     1      54.912   3.735  79.873  1.00  0.00     0.198 C 
BRANCH   7   8
ATOM      8  O   UNL     1      55.932   4.670  80.146  1.00  0.00    -0.347 OA
BRANCH   8   9
ATOM      9  C   UNL     1      56.965   4.575  79.163  1.00  0.00     0.281 C 
ATOM     10  C   UNL     1      55.930   7.375  77.011  1.00  0.00     0.041 C 
ATOM     11  C   UNL     1      56.433   6.686  78.276  1.00  0.00     0.150 C 
ATOM     12  C   UNL     1      57.743   7.345  78.766  1.00  0.00     0.174 C 
ATOM     13  O   UNL     1      56.631   5.307  77.989  1.00  0.00    -0.344 OA
ATOM     14  C   UNL     1      58.272   6.590  79.994  1.00  0.00     0.179 C 
ATOM     15  C   UNL     1      58.307   5.061  79.758  1.00  0.00     0.202 C 
BRANCH  12  16
ATOM     16  O   UNL     1      57.543   8.710  79.059  1.00  0.00    -0.388 OA
ATOM     17  H   UNL     1      57.806   9.236  78.263  1.00  0.00     0.211 HD
ENDBRANCH  12  16
BRANCH  14  18
ATOM     18  O   UNL     1      59.521   7.071  80.399  1.00  0.00    -0.387 OA
ATOM     19  H   UNL     1      59.435   8.054  80.520  1.00  0.00     0.211 HD
ENDBRANCH  14  18
BRANCH  15  20
ATOM     20  O   UNL     1      59.396   4.686  78.936  1.00  0.00    -0.385 OA
ATOM     21  H   UNL     1      59.576   3.727  79.079  1.00  0.00     0.211 HD
ENDBRANCH  15  20
ENDBRANCH   8   9
ENDBRANCH   7   8
ENDBRANCH   1   7
BRANCH   2  22
ATOM     22  O   UNL     1      52.440   3.569  76.967  1.00  0.00    -0.387 OA
ATOM     23  H   UNL     1      52.477   2.808  76.330  1.00  0.00     0.211 HD
ENDBRANCH   2  22
BRANCH   3  24
ATOM     24  O   UNL     1      51.121   1.846  78.619  1.00  0.00    -0.387 OA
ATOM     25  H   UNL     1      51.681   1.123  78.241  1.00  0.00     0.211 HD
ENDBRANCH   3  24
BRANCH   5  26
ATOM     26  O   UNL     1      52.370   5.459  81.468  1.00  0.00    -0.454 OA
BRANCH  26  27
ATOM     27  C   UNL     1      53.555   5.787  82.162  1.00  0.00     0.214 A 
ATOM     28  C   UNL     1      54.155   4.850  83.040  1.00  0.00     0.180 A 
ATOM     29  C   UNL     1      54.290   6.955  81.850  1.00  0.00     0.239 A 
ATOM     30  O   UNL     1      55.352   5.109  83.565  1.00  0.00    -0.452 OA
ATOM     31  C   UNL     1      55.530   7.206  82.476  1.00  0.00     0.111 A 
ATOM     32  O   UNL     1      53.861   7.742  80.964  1.00  0.00    -0.285 OA
ATOM     33  C   UNL     1      56.049   6.209  83.330  1.00  0.00     0.146 A 
ATOM     34  C   UNL     1      56.312   8.373  82.246  1.00  0.00     0.134 A 
ATOM     35  C   UNL     1      57.313   6.344  83.905  1.00  0.00     0.094 A 
ATOM     36  C   UNL     1      57.591   8.474  82.801  1.00  0.00     0.093 A 
ATOM     37  C   UNL     1      58.102   7.463  83.616  1.00  0.00     0.123 A 
BRANCH  28  38
ATOM     38  C   UNL     1      53.568   3.522  83.410  1.00  0.00     0.025 A 
ATOM     39  C   UNL     1      54.158   2.309  83.034  1.00  0.00     0.062 A 
ATOM     40  C   UNL     1      52.287   3.488  83.992  1.00  0.00     0.016 A 
ATOM     41  C   UNL     1      53.460   1.096  83.153  1.00  0.00     0.158 A 
ATOM     42  C   UNL     1      51.583   2.285  84.125  1.00  0.00     0.051 A 
ATOM     43  C   UNL     1      52.161   1.087  83.684  1.00  0.00     0.157 A 
BRANCH  41  44
ATOM     44  O   UNL     1      54.043  -0.085  82.680  1.00  0.00    -0.504 OA
ATOM     45  H   UNL     1      54.977  -0.108  82.311  1.00  0.00     0.293 HD
ENDBRANCH  41  44
BRANCH  43  46
ATOM     46  O   UNL     1      51.449  -0.107  83.758  1.00  0.00    -0.504 OA
ATOM     47  H   UNL     1      51.538  -0.729  84.541  1.00  0.00     0.293 HD
ENDBRANCH  43  46
ENDBRANCH  28  38
BRANCH  34  48
ATOM     48  O   UNL     1      55.850   9.456  81.496  1.00  0.00    -0.507 OA
ATOM     49  H   UNL     1      55.364   9.338  80.607  1.00  0.00     0.293 HD
ENDBRANCH  34  48
BRANCH  37  50
ATOM     50  O   UNL     1      59.398   7.552  84.125  1.00  0.00    -0.508 OA
ATOM     51  H   UNL     1      59.611   7.257  85.069  1.00  0.00     0.293 HD
ENDBRANCH  37  50
ENDBRANCH  26  27
ENDBRANCH   5  26
BRANCH   4  52
ATOM     52  O   UNL     1      50.240   4.390  78.730  1.00  0.00    -0.384 OA
ATOM     53  H   UNL     1      49.574   4.994  79.142  1.00  0.00     0.211 HD
ENDBRANCH   4  52
TORSDOF 16
ENDMDL
MODEL 2
REMARK VINA RESULT:    -6.402      1.841      6.515
REMARK INTER + INTRA:         -12.327
REMARK INTER:                 -10.632
REMARK INTRA:                  -1.695
REMARK UNBOUND:                -1.808
REMARK SMILES C[C@H]1O[C@H](OC[C@@H]2O[C@H](Oc3c(-c4ccc(O)c(O)c4)oc4cc(O)cc(O)c4c3=O)[C@@H](O)[C@@H](O)[C@H]2O)[C@@H](O)[C@@H](O)[C@@H]1O
REMARK SMILES IDX 7 1 36 2 34 3 32 4 9 5 8 6 6 7 5 8 4 9 1 10 2 11 42 12 3 13
REMARK SMILES IDX 40 14 38 15 43 16 41 18 39 20 37 22 35 24 10 26 11 27 12 28
REMARK SMILES IDX 30 29 21 30 29 31 31 32 22 33 27 34 23 35 26 36 24 37 13 38
REMARK SMILES IDX 20 39 14 40 18 41 15 42 16 43 19 44 17 46 28 48 25 50 33 52
REMARK H PARENT 43 17 41 19 39 21 37 23 35 25 19 45 17 47 28 49 25 51 33 53
REMARK Flexibility Score: inf
ROOT
ATOM      1  C   UNL     1      54.509   7.294  78.217  1.00  0.00     0.180 C 
ATOM      2  C   UNL     1      53.051   7.793  78.041  1.00  0.00     0.177 C 
ATOM      3  C   UNL     1      52.342   7.848  79.389  1.00  0.00     0.180 C 
ATOM      4  C   UNL     1      53.153   8.706  80.384  1.00  0.00     0.214 C 
ATOM      5  C   UNL     1      54.686   8.382  80.379  1.00  0.00     0.339 C 
ATOM      6  O   UNL     1      55.268   8.085  79.114  1.00  0.00    -0.332 OA
ENDROOT
BRANCH   1   7
ATOM      7  C   UNL     1      54.595   5.800  78.552  1.00  0.00     0.198 C 
BRANCH   7   8
ATOM      8  O   UNL     1      53.359   5.170  78.295  1.00  0.00    -0.347 OA
BRANCH   8   9
ATOM      9  C   UNL     1      53.369   3.836  78.806  1.00  0.00     0.281 C 
ATOM     10  C   UNL     1      50.501   4.108  81.096  1.00  0.00     0.041 C 
ATOM     11  C   UNL     1      51.235   4.094  79.758  1.00  0.00     0.150 C 
ATOM     12  C   UNL     1      50.557   3.108  78.780  1.00  0.00     0.174 C 
ATOM     13  O   UNL     1      52.590   3.731  79.993  1.00  0.00    -0.344 OA
ATOM     14  C   UNL     1      51.355   3.053  77.469  1.00  0.00     0.179 C 
ATOM     15  C   UNL     1      52.867   2.852  77.724  1.00  0.00     0.202 C 
BRANCH  12  16
ATOM     16  O   UNL     1      49.216   3.475  78.541  1.00  0.00    -0.388 OA
ATOM     17  H   UNL     1      48.634   2.846  79.036  1.00  0.00     0.211 HD
ENDBRANCH  12  16
BRANCH  14  18
ATOM     18  O   UNL     1      50.852   2.081  76.597  1.00  0.00    -0.387 OA
ATOM     19  H   UNL     1      50.311   2.552  75.909  1.00  0.00     0.211 HD
ENDBRANCH  14  18
BRANCH  15  20
ATOM     20  O   UNL     1      53.163   1.513  78.074  1.00  0.00    -0.385 OA
ATOM     21  H   UNL     1      53.383   1.018  77.250  1.00  0.00     0.211 HD
ENDBRANCH  15  20
ENDBRANCH   8   9
ENDBRANCH   7   8
ENDBRANCH   1   7
BRANCH   2  22
ATOM     22  O   UNL     1      52.957   9.046  77.386  1.00  0.00    -0.387 OA
ATOM     23  H   UNL     1      52.452   9.680  77.960  1.00  0.00     0.211 HD
ENDBRANCH   2  22
BRANCH   3  24
ATOM     24  O   UNL     1      51.058   8.360  79.219  1.00  0.00    -0.387 OA
ATOM     25  H   UNL     1      51.120   9.109  78.576  1.00  0.00     0.211 HD
ENDBRANCH   3  24
BRANCH   5  26
ATOM     26  O   UNL     1      55.184   7.564  81.471  1.00  0.00    -0.454 OA
BRANCH  26  27
ATOM     27  C   UNL     1      55.047   6.184  81.730  1.00  0.00     0.214 A 
ATOM     28  C   UNL     1      56.096   5.285  81.408  1.00  0.00     0.180 A 
ATOM     29  C   UNL     1      53.972   5.684  82.501  1.00  0.00     0.239 A 
ATOM     30  O   UNL     1      56.020   4.015  81.801  1.00  0.00    -0.452 OA
ATOM     31  C   UNL     1      53.915   4.316  82.845  1.00  0.00     0.111 A 
ATOM     32  O   UNL     1      53.094   6.479  82.934  1.00  0.00    -0.285 OA
ATOM     33  C   UNL     1      55.011   3.502  82.486  1.00  0.00     0.146 A 
ATOM     34  C   UNL     1      52.850   3.728  83.585  1.00  0.00     0.134 A 
ATOM     35  C   UNL     1      55.070   2.164  82.878  1.00  0.00     0.094 A 
ATOM     36  C   UNL     1      52.945   2.397  84.000  1.00  0.00     0.093 A 
ATOM     37  C   UNL     1      54.051   1.616  83.664  1.00  0.00     0.123 A 
BRANCH  28  38
ATOM     38  C   UNL     1      57.352   5.658  80.681  1.00  0.00     0.025 A 
ATOM     39  C   UNL     1      58.163   6.726  81.082  1.00  0.00     0.062 A 
ATOM     40  C   UNL     1      57.629   5.035  79.449  1.00  0.00     0.016 A 
ATOM     41  C   UNL     1      59.174   7.224  80.243  1.00  0.00     0.158 A 
ATOM     42  C   UNL     1      58.639   5.515  78.607  1.00  0.00     0.051 A 
ATOM     43  C   UNL     1      59.400   6.626  78.993  1.00  0.00     0.157 A 
BRANCH  41  44
ATOM     44  O   UNL     1      59.903   8.352  80.634  1.00  0.00    -0.504 OA
ATOM     45  H   UNL     1      60.425   8.378  81.492  1.00  0.00     0.293 HD
ENDBRANCH  41  44
BRANCH  43  46
ATOM     46  O   UNL     1      60.369   7.147  78.139  1.00  0.00    -0.504 OA
ATOM     47  H   UNL     1      60.207   7.974  77.594  1.00  0.00     0.293 HD
ENDBRANCH  43  46
ENDBRANCH  28  38
BRANCH  34  48
ATOM     48  O   UNL     1      51.682   4.421  83.907  1.00  0.00    -0.507 OA
ATOM     49  H   UNL     1      51.507   4.795  84.840  1.00  0.00     0.293 HD
ENDBRANCH  34  48
BRANCH  37  50
ATOM     50  O   UNL     1      54.156   0.304  84.125  1.00  0.00    -0.508 OA
ATOM     51  H   UNL     1      54.040   0.082  85.106  1.00  0.00     0.293 HD
ENDBRANCH  37  50
ENDBRANCH  26  27
ENDBRANCH   5  26
BRANCH   4  52
ATOM     52  O   UNL     1      52.923  10.073  80.137  1.00  0.00    -0.384 OA
ATOM     53  H   UNL     1      51.977  10.291  80.323  1.00  0.00     0.211 HD
ENDBRANCH   4  52
TORSDOF 16
ENDMDL
MODEL 3
REMARK VINA RESULT:    -6.213      2.461      4.018
REMARK INTER + INTRA:         -12.016
REMARK INTER:                 -10.914
REMARK INTRA:                  -1.102
REMARK UNBOUND:                -1.808
REMARK SMILES C[C@H]1O[C@H](OC[C@@H]2O[C@H](Oc3c(-c4ccc(O)c(O)c4)oc4cc(O)cc(O)c4c3=O)[C@@H](O)[C@@H](O)[C@H]2O)[C@@H](O)[C@@H](O)[C@@H]1O
REMARK SMILES IDX 7 1 36 2 34 3 32 4 9 5 8 6 6 7 5 8 4 9 1 10 2 11 42 12 3 13
REMARK SMILES IDX 40 14 38 15 43 16 41 18 39 20 37 22 35 24 10 26 11 27 12 28
REMARK SMILES IDX 30 29 21 30 29 31 31 32 22 33 27 34 23 35 26 36 24 37 13 38
REMARK SMILES IDX 20 39 14 40 18 41 15 42 16 43 19 44 17 46 28 48 25 50 33 52
REMARK H PARENT 43 17 41 19 39 21 37 23 35 25 19 45 17 47 28 49 25 51 33 53
REMARK Flexibility Score: inf
ROOT
ATOM      1  C   UNL     1      55.196   8.387  77.550  1.00  0.00     0.180 C 
ATOM      2  C   UNL     1      54.289   8.740  76.341  1.00  0.00     0.177 C 
ATOM      3  C   UNL     1      52.876   8.218  76.569  1.00  0.00     0.180 C 
ATOM      4  C   UNL     1      52.321   8.744  77.909  1.00  0.00     0.214 C 
ATOM      5  C   UNL     1      53.340   8.628  79.093  1.00  0.00     0.339 C 
ATOM      6  O   UNL     1      54.706   8.882  78.782  1.00  0.00    -0.332 OA
ENDROOT
BRANCH   1   7
ATOM      7  C   UNL     1      55.541   6.894  77.623  1.00  0.00     0.198 C 
BRANCH   7   8
ATOM      8  O   UNL     1      56.449   6.654  78.676  1.00  0.00    -0.347 OA
BRANCH   8   9
ATOM      9  C   UNL     1      57.723   6.275  78.152  1.00  0.00     0.281 C 
ATOM     10  C   UNL     1      58.580   9.429  76.462  1.00  0.00     0.041 C 
ATOM     11  C   UNL     1      58.269   8.502  77.632  1.00  0.00     0.150 C 
ATOM     12  C   UNL     1      59.374   8.599  78.708  1.00  0.00     0.174 C 
ATOM     13  O   UNL     1      58.153   7.174  77.136  1.00  0.00    -0.344 OA
ATOM     14  C   UNL     1      59.081   7.603  79.840  1.00  0.00     0.179 C 
ATOM     15  C   UNL     1      58.761   6.191  79.296  1.00  0.00     0.202 C 
BRANCH  12  16
ATOM     16  O   UNL     1      59.480   9.914  79.206  1.00  0.00    -0.388 OA
ATOM     17  H   UNL     1      60.395  10.032  79.566  1.00  0.00     0.211 HD
ENDBRANCH  12  16
BRANCH  14  18
ATOM     18  O   UNL     1      60.119   7.564  80.777  1.00  0.00    -0.387 OA
ATOM     19  H   UNL     1      60.823   8.194  80.466  1.00  0.00     0.211 HD
ENDBRANCH  14  18
BRANCH  15  20
ATOM     20  O   UNL     1      59.932   5.518  78.875  1.00  0.00    -0.385 OA
ATOM     21  H   UNL     1      59.913   4.603  79.243  1.00  0.00     0.211 HD
ENDBRANCH  15  20
ENDBRANCH   8   9
ENDBRANCH   7   8
ENDBRANCH   1   7
BRANCH   2  22
ATOM     22  O   UNL     1      54.257  10.125  76.043  1.00  0.00    -0.387 OA
ATOM     23  H   UNL     1      54.610  10.636  76.817  1.00  0.00     0.211 HD
ENDBRANCH   2  22
BRANCH   3  24
ATOM     24  O   UNL     1      52.061   8.601  75.505  1.00  0.00    -0.387 OA
ATOM     25  H   UNL     1      51.229   8.069  75.563  1.00  0.00     0.211 HD
ENDBRANCH   3  24
BRANCH   5  26
ATOM     26  O   UNL     1      53.135   7.535  80.027  1.00  0.00    -0.454 OA
BRANCH  26  27
ATOM     27  C   UNL     1      54.059   6.703  80.695  1.00  0.00     0.214 A 
ATOM     28  C   UNL     1      54.096   5.311  80.427  1.00  0.00     0.180 A 
ATOM     29  C   UNL     1      55.103   7.247  81.480  1.00  0.00     0.239 A 
ATOM     30  O   UNL     1      55.073   4.566  80.943  1.00  0.00    -0.452 OA
ATOM     31  C   UNL     1      56.083   6.403  82.046  1.00  0.00     0.111 A 
ATOM     32  O   UNL     1      55.191   8.496  81.620  1.00  0.00    -0.285 OA
ATOM     33  C   UNL     1      56.041   5.032  81.715  1.00  0.00     0.146 A 
ATOM     34  C   UNL     1      57.143   6.866  82.877  1.00  0.00     0.134 A 
ATOM     35  C   UNL     1      57.033   4.156  82.158  1.00  0.00     0.094 A 
ATOM     36  C   UNL     1      58.147   5.982  83.279  1.00  0.00     0.093 A 
ATOM     37  C   UNL     1      58.108   4.635  82.915  1.00  0.00     0.123 A 
BRANCH  28  38
ATOM     38  C   UNL     1      53.130   4.581  79.545  1.00  0.00     0.025 A 
ATOM     39  C   UNL     1      51.771   4.456  79.860  1.00  0.00     0.062 A 
ATOM     40  C   UNL     1      53.635   3.838  78.462  1.00  0.00     0.016 A 
ATOM     41  C   UNL     1      50.948   3.551  79.171  1.00  0.00     0.158 A 
ATOM     42  C   UNL     1      52.823   2.938  77.760  1.00  0.00     0.051 A 
ATOM     43  C   UNL     1      51.481   2.776  78.129  1.00  0.00     0.157 A 
BRANCH  41  44
ATOM     44  O   UNL     1      49.619   3.383  79.574  1.00  0.00    -0.504 OA
ATOM     45  H   UNL     1      48.846   3.642  78.985  1.00  0.00     0.293 HD
ENDBRANCH  41  44
BRANCH  43  46
ATOM     46  O   UNL     1      50.679   1.844  77.476  1.00  0.00    -0.504 OA
ATOM     47  H   UNL     1      49.678   1.922  77.463  1.00  0.00     0.293 HD
ENDBRANCH  43  46
ENDBRANCH  28  38
BRANCH  34  48
ATOM     48  O   UNL     1      57.222   8.182  83.337  1.00  0.00    -0.507 OA
ATOM     49  H   UNL     1      57.945   8.491  83.987  1.00  0.00     0.293 HD
ENDBRANCH  34  48
BRANCH  37  50
ATOM     50  O   UNL     1      59.141   3.773  83.282  1.00  0.00    -0.508 OA
ATOM     51  H   UNL     1      59.120   2.793  83.027  1.00  0.00     0.293 HD
ENDBRANCH  37  50
ENDBRANCH  26  27
ENDBRANCH   5  26
BRANCH   4  52
ATOM     52  O   UNL     1      51.872  10.070  77.755  1.00  0.00    -0.384 OA
ATOM     53  H   UNL     1      52.584  10.698  78.033  1.00  0.00     0.211 HD
ENDBRANCH   4  52
TORSDOF 16
ENDMDL
MODEL 4
REMARK VINA RESULT:    -6.141      2.264      5.198
REMARK INTER + INTRA:         -11.898
REMARK INTER:                  -9.840
REMARK INTRA:                  -2.058
REMARK UNBOUND:                -1.808
REMARK SMILES C[C@H]1O[C@H](OC[C@@H]2O[C@H](Oc3c(-c4ccc(O)c(O)c4)oc4cc(O)cc(O)c4c3=O)[C@@H](O)[C@@H](O)[C@H]2O)[C@@H](O)[C@@H](O)[C@@H]1O
REMARK SMILES IDX 7 1 36 2 34 3 32 4 9 5 8 6 6 7 5 8 4 9 1 10 2 11 42 12 3 13
REMARK SMILES IDX 40 14 38 15 43 16 41 18 39 20 37 22 35 24 10 26 11 27 12 28
REMARK SMILES IDX 30 29 21 30 29 31 31 32 22 33 27 34 23 35 26 36 24 37 13 38
REMARK SMILES IDX 20 39 14 40 18 41 15 42 16 43 19 44 17 46 28 48 25 50 33 52
REMARK H PARENT 43 17 41 19 39 21 37 23 35 25 19 45 17 47 28 49 25 51 33 53
REMARK Flexibility Score: inf
ROOT
ATOM      1  C   UNL     1      53.414   8.517  78.669  1.00  0.00     0.180 C 
ATOM      2  C   UNL     1      53.718   9.617  77.619  1.00  0.00     0.177 C 
ATOM      3  C   UNL     1      54.710   9.104  76.583  1.00  0.00     0.180 C 
ATOM      4  C   UNL     1      54.191   7.796  75.948  1.00  0.00     0.214 C 
ATOM      5  C   UNL     1      53.637   6.773  76.997  1.00  0.00     0.339 C 
ATOM      6  O   UNL     1      52.919   7.319  78.099  1.00  0.00    -0.332 OA
ENDROOT
BRANCH   1   7
ATOM      7  C   UNL     1      54.587   8.260  79.624  1.00  0.00     0.198 C 
BRANCH   7   8
ATOM      8  O   UNL     1      54.223   7.310  80.600  1.00  0.00    -0.347 OA
BRANCH   8   9
ATOM      9  C   UNL     1      53.778   7.969  81.788  1.00  0.00     0.281 C 
ATOM     10  C   UNL     1      54.074   5.142  84.124  1.00  0.00     0.041 C 
ATOM     11  C   UNL     1      54.550   6.217  83.152  1.00  0.00     0.150 C 
ATOM     12  C   UNL     1      55.678   7.060  83.788  1.00  0.00     0.174 C 
ATOM     13  O   UNL     1      53.437   7.031  82.803  1.00  0.00    -0.344 OA
ATOM     14  C   UNL     1      56.089   8.182  82.824  1.00  0.00     0.179 C 
ATOM     15  C   UNL     1      54.863   8.954  82.284  1.00  0.00     0.202 C 
BRANCH  12  16
ATOM     16  O   UNL     1      56.784   6.252  84.125  1.00  0.00    -0.388 OA
ATOM     17  H   UNL     1      57.015   5.703  83.333  1.00  0.00     0.211 HD
ENDBRANCH  12  16
BRANCH  14  18
ATOM     18  O   UNL     1      57.021   9.048  83.404  1.00  0.00    -0.387 OA
ATOM     19  H   UNL     1      57.922   8.654  83.261  1.00  0.00     0.211 HD
ENDBRANCH  14  18
BRANCH  15  20
ATOM     20  O   UNL     1      54.340   9.845  83.251  1.00  0.00    -0.385 OA
ATOM     21  H   UNL     1      54.825  10.700  83.179  1.00  0.00     0.211 HD
ENDBRANCH  15  20
ENDBRANCH   8   9
ENDBRANCH   7   8
ENDBRANCH   1   7
BRANCH   2  22
ATOM     22  O   UNL     1      52.559  10.123  76.978  1.00  0.00    -0.387 OA
ATOM     23  H   UNL     1      51.926   9.378  76.808  1.00  0.00     0.211 HD
ENDBRANCH   2  22
BRANCH   3  24
ATOM     24  O   UNL     1      54.920  10.082  75.614  1.00  0.00    -0.387 OA
ATOM     25  H   UNL     1      54.830   9.646  74.730  1.00  0.00     0.211 HD
ENDBRANCH   3  24
BRANCH   5  26
ATOM     26  O   UNL     1      54.501   5.658  77.342  1.00  0.00    -0.454 OA
BRANCH  26  27
ATOM     27  C   UNL     1      55.202   5.365  78.532  1.00  0.00     0.214 A 
ATOM     28  C   UNL     1      54.639   4.495  79.500  1.00  0.00     0.180 A 
ATOM     29  C   UNL     1      56.553   5.746  78.702  1.00  0.00     0.239 A 
ATOM     30  O   UNL     1      55.374   4.101  80.540  1.00  0.00    -0.452 OA
ATOM     31  C   UNL     1      57.269   5.344  79.850  1.00  0.00     0.111 A 
ATOM     32  O   UNL     1      57.136   6.396  77.792  1.00  0.00    -0.285 OA
ATOM     33  C   UNL     1      56.626   4.471  80.754  1.00  0.00     0.146 A 
ATOM     34  C   UNL     1      58.618   5.716  80.114  1.00  0.00     0.134 A 
ATOM     35  C   UNL     1      57.305   3.955  81.858  1.00  0.00     0.094 A 
ATOM     36  C   UNL     1      59.292   5.159  81.203  1.00  0.00     0.093 A 
ATOM     37  C   UNL     1      58.651   4.272  82.069  1.00  0.00     0.123 A 
BRANCH  28  38
ATOM     38  C   UNL     1      53.259   3.916  79.435  1.00  0.00     0.025 A 
ATOM     39  C   UNL     1      52.792   3.209  78.320  1.00  0.00     0.062 A 
ATOM     40  C   UNL     1      52.338   4.251  80.446  1.00  0.00     0.016 A 
ATOM     41  C   UNL     1      51.428   2.914  78.168  1.00  0.00     0.158 A 
ATOM     42  C   UNL     1      50.976   3.954  80.312  1.00  0.00     0.051 A 
ATOM     43  C   UNL     1      50.514   3.305  79.160  1.00  0.00     0.157 A 
BRANCH  41  44
ATOM     44  O   UNL     1      50.983   2.290  76.998  1.00  0.00    -0.504 OA
ATOM     45  H   UNL     1      50.119   2.547  76.551  1.00  0.00     0.293 HD
ENDBRANCH  41  44
BRANCH  43  46
ATOM     46  O   UNL     1      49.155   3.055  78.989  1.00  0.00    -0.504 OA
ATOM     47  H   UNL     1      48.497   3.169  79.738  1.00  0.00     0.293 HD
ENDBRANCH  43  46
ENDBRANCH  28  38
BRANCH  34  48
ATOM     48  O   UNL     1      59.311   6.645  79.335  1.00  0.00    -0.507 OA
ATOM     49  H   UNL     1      58.977   6.951  78.422  1.00  0.00     0.293 HD
ENDBRANCH  34  48
BRANCH  37  50
ATOM     50  O   UNL     1      59.348   3.685  83.125  1.00  0.00    -0.508 OA
ATOM     51  H   UNL     1      59.941   4.237  83.731  1.00  0.00     0.293 HD
ENDBRANCH  37  50
ENDBRANCH  26  27
ENDBRANCH   5  26
BRANCH   4  52
ATOM     52  O   UNL     1      53.225   8.090  74.967  1.00  0.00    -0.384 OA
ATOM     53  H   UNL     1      53.024   9.058  74.976  1.00  0.00     0.211 HD
ENDBRANCH   4  52
TORSDOF 16
ENDMDL
MODEL 5
REMARK VINA RESULT:    -6.138      2.234      4.558
REMARK INTER + INTRA:         -11.893
REMARK INTER:                 -10.477
REMARK INTRA:                  -1.416
REMARK UNBOUND:                -1.808
REMARK SMILES C[C@H]1O[C@H](OC[C@@H]2O[C@H](Oc3c(-c4ccc(O)c(O)c4)oc4cc(O)cc(O)c4c3=O)[C@@H](O)[C@@H](O)[C@H]2O)[C@@H](O)[C@@H](O)[C@@H]1O
REMARK SMILES IDX 7 1 36 2 34 3 32 4 9 5 8 6 6 7 5 8 4 9 1 10 2 11 42 12 3 13
REMARK SMILES IDX 40 14 38 15 43 16 41 18 39 20 37 22 35 24 10 26 11 27 12 28
REMARK SMILES IDX 30 29 21 30 29 31 31 32 22 33 27 34 23 35 26 36 24 37 13 38
REMARK SMILES IDX 20 39 14 40 18 41 15 42 16 43 19 44 17 46 28 48 25 50 33 52
REMARK H PARENT 43 17 41 19 39 21 37 23 35 25 19 45 17 47 28 49 25 51 33 53
REMARK Flexibility Score: inf
ROOT
ATOM      1  C   UNL     1      54.513   9.432  78.184  1.00  0.00     0.180 C 
ATOM      2  C   UNL     1      55.355   8.638  77.150  1.00  0.00     0.177 C 
ATOM      3  C   UNL     1      55.276   7.144  77.437  1.00  0.00     0.180 C 
ATOM      4  C   UNL     1      53.803   6.687  77.489  1.00  0.00     0.214 C 
ATOM      5  C   UNL     1      52.885   7.639  78.328  1.00  0.00     0.339 C 
ATOM      6  O   UNL     1      53.156   9.034  78.225  1.00  0.00    -0.332 OA
ENDROOT
BRANCH   1   7
ATOM      7  C   UNL     1      55.150   9.460  79.579  1.00  0.00     0.198 C 
BRANCH   7   8
ATOM      8  O   UNL     1      56.540   9.241  79.486  1.00  0.00    -0.347 OA
BRANCH   8   9
ATOM      9  C   UNL     1      57.005   8.530  80.635  1.00  0.00     0.281 C 
ATOM     10  C   UNL     1      58.395   5.582  78.926  1.00  0.00     0.041 C 
ATOM     11  C   UNL     1      58.270   7.052  79.315  1.00  0.00     0.150 C 
ATOM     12  C   UNL     1      59.628   7.599  79.807  1.00  0.00     0.174 C 
ATOM     13  O   UNL     1      57.276   7.167  80.325  1.00  0.00    -0.344 OA
ATOM     14  C   UNL     1      59.463   9.056  80.263  1.00  0.00     0.179 C 
ATOM     15  C   UNL     1      58.258   9.227  81.217  1.00  0.00     0.202 C 
BRANCH  12  16
ATOM     16  O   UNL     1      60.611   7.493  78.799  1.00  0.00    -0.388 OA
ATOM     17  H   UNL     1      60.577   8.317  78.251  1.00  0.00     0.211 HD
ENDBRANCH  12  16
BRANCH  14  18
ATOM     18  O   UNL     1      60.638   9.557  80.834  1.00  0.00    -0.387 OA
ATOM     19  H   UNL     1      60.374  10.116  81.613  1.00  0.00     0.211 HD
ENDBRANCH  14  18
BRANCH  15  20
ATOM     20  O   UNL     1      58.550   8.751  82.516  1.00  0.00    -0.385 OA
ATOM     21  H   UNL     1      58.614   9.525  83.123  1.00  0.00     0.211 HD
ENDBRANCH  15  20
ENDBRANCH   8   9
ENDBRANCH   7   8
ENDBRANCH   1   7
BRANCH   2  22
ATOM     22  O   UNL     1      54.992   8.898  75.805  1.00  0.00    -0.387 OA
ATOM     23  H   UNL     1      55.100   8.070  75.269  1.00  0.00     0.211 HD
ENDBRANCH   2  22
BRANCH   3  24
ATOM     24  O   UNL     1      55.983   6.444  76.462  1.00  0.00    -0.387 OA
ATOM     25  H   UNL     1      56.300   5.602  76.873  1.00  0.00     0.211 HD
ENDBRANCH   3  24
BRANCH   5  26
ATOM     26  O   UNL     1      52.533   7.197  79.665  1.00  0.00    -0.454 OA
BRANCH  26  27
ATOM     27  C   UNL     1      53.138   6.246  80.514  1.00  0.00     0.214 A 
ATOM     28  C   UNL     1      52.991   4.859  80.258  1.00  0.00     0.180 A 
ATOM     29  C   UNL     1      54.071   6.633  81.504  1.00  0.00     0.239 A 
ATOM     30  O   UNL     1      53.694   3.979  80.970  1.00  0.00    -0.452 OA
ATOM     31  C   UNL     1      54.750   5.657  82.266  1.00  0.00     0.111 A 
ATOM     32  O   UNL     1      54.342   7.854  81.662  1.00  0.00    -0.285 OA
ATOM     33  C   UNL     1      54.543   4.301  81.931  1.00  0.00     0.146 A 
ATOM     34  C   UNL     1      55.675   5.963  83.304  1.00  0.00     0.134 A 
ATOM     35  C   UNL     1      55.254   3.288  82.574  1.00  0.00     0.094 A 
ATOM     36  C   UNL     1      56.404   4.938  83.910  1.00  0.00     0.093 A 
ATOM     37  C   UNL     1      56.211   3.605  83.544  1.00  0.00     0.123 A 
BRANCH  28  38
ATOM     38  C   UNL     1      52.122   4.271  79.189  1.00  0.00     0.025 A 
ATOM     39  C   UNL     1      50.741   4.100  79.352  1.00  0.00     0.062 A 
ATOM     40  C   UNL     1      52.735   3.701  78.058  1.00  0.00     0.016 A 
ATOM     41  C   UNL     1      49.999   3.310  78.461  1.00  0.00     0.158 A 
ATOM     42  C   UNL     1      52.005   2.919  77.155  1.00  0.00     0.051 A 
ATOM     43  C   UNL     1      50.637   2.702  77.368  1.00  0.00     0.157 A 
BRANCH  41  44
ATOM     44  O   UNL     1      48.640   3.083  78.707  1.00  0.00    -0.504 OA
ATOM     45  H   UNL     1      47.998   2.843  77.972  1.00  0.00     0.293 HD
ENDBRANCH  41  44
BRANCH  43  46
ATOM     46  O   UNL     1      49.912   1.880  76.509  1.00  0.00    -0.504 OA
ATOM     47  H   UNL     1      49.943   1.995  75.513  1.00  0.00     0.293 HD
ENDBRANCH  43  46
ENDBRANCH  28  38
BRANCH  34  48
ATOM     48  O   UNL     1      55.880   7.263  83.773  1.00  0.00    -0.507 OA
ATOM     49  H   UNL     1      55.945   7.481  84.767  1.00  0.00     0.293 HD
ENDBRANCH  34  48
BRANCH  37  50
ATOM     50  O   UNL     1      56.979   2.594  84.122  1.00  0.00    -0.508 OA
ATOM     51  H   UNL     1      57.056   2.504  85.127  1.00  0.00     0.293 HD
ENDBRANCH  37  50
ENDBRANCH  26  27
ENDBRANCH   5  26
BRANCH   4  52
ATOM     52  O   UNL     1      53.305   6.524  76.182  1.00  0.00    -0.384 OA
ATOM     53  H   UNL     1      54.022   6.186  75.591  1.00  0.00     0.211 HD
ENDBRANCH   4  52
TORSDOF 16
ENDMDL
MODEL 6
REMARK VINA RESULT:    -6.117      2.155      4.949
REMARK INTER + INTRA:         -11.859
REMARK INTER:                 -10.609
REMARK INTRA:                  -1.250
REMARK UNBOUND:                -1.808
REMARK SMILES C[C@H]1O[C@H](OC[C@@H]2O[C@H](Oc3c(-c4ccc(O)c(O)c4)oc4cc(O)cc(O)c4c3=O)[C@@H](O)[C@@H](O)[C@H]2O)[C@@H](O)[C@@H](O)[C@@H]1O
REMARK SMILES IDX 7 1 36 2 34 3 32 4 9 5 8 6 6 7 5 8 4 9 1 10 2 11 42 12 3 13
REMARK SMILES IDX 40 14 38 15 43 16 41 18 39 20 37 22 35 24 10 26 11 27 12 28
REMARK SMILES IDX 30 29 21 30 29 31 31 32 22 33 27 34 23 35 26 36 24 37 13 38
REMARK SMILES IDX 20 39 14 40 18 41 15 42 16 43 19 44 17 46 28 48 25 50 33 52
REMARK H PARENT 43 17 41 19 39 21 37 23 35 25 19 45 17 47 28 49 25 51 33 53
REMARK Flexibility Score: inf
ROOT
ATOM      1  C   UNL     1      54.335   7.282  77.590  1.00  0.00     0.180 C 
ATOM      2  C   UNL     1      52.858   7.745  77.703  1.00  0.00     0.177 C 
ATOM      3  C   UNL     1      52.381   7.645  79.147  1.00  0.00     0.180 C 
ATOM      4  C   UNL     1      53.328   8.431  80.078  1.00  0.00     0.214 C 
ATOM      5  C   UNL     1      54.845   8.162  79.793  1.00  0.00     0.339 C 
ATOM      6  O   UNL     1      55.216   8.010  78.427  1.00  0.00    -0.332 OA
ENDROOT
BRANCH   1   7
ATOM      7  C   UNL     1      54.503   5.766  77.755  1.00  0.00     0.198 C 
BRANCH   7   8
ATOM      8  O   UNL     1      53.264   5.170  78.067  1.00  0.00    -0.347 OA
BRANCH   8   9
ATOM      9  C   UNL     1      53.469   3.881  78.649  1.00  0.00     0.281 C 
ATOM     10  C   UNL     1      50.985   4.101  81.354  1.00  0.00     0.041 C 
ATOM     11  C   UNL     1      51.498   4.044  79.919  1.00  0.00     0.150 C 
ATOM     12  C   UNL     1      50.763   2.942  79.124  1.00  0.00     0.174 C 
ATOM     13  O   UNL     1      52.899   3.804  79.950  1.00  0.00    -0.344 OA
ATOM     14  C   UNL     1      51.345   2.851  77.706  1.00  0.00     0.179 C 
ATOM     15  C   UNL     1      52.891   2.785  77.723  1.00  0.00     0.202 C 
BRANCH  12  16
ATOM     16  O   UNL     1      49.374   3.187  79.085  1.00  0.00    -0.388 OA
ATOM     17  H   UNL     1      48.963   2.749  79.873  1.00  0.00     0.211 HD
ENDBRANCH  12  16
BRANCH  14  18
ATOM     18  O   UNL     1      50.798   1.784  76.988  1.00  0.00    -0.387 OA
ATOM     19  H   UNL     1      51.501   1.085  76.914  1.00  0.00     0.211 HD
ENDBRANCH  14  18
BRANCH  15  20
ATOM     20  O   UNL     1      53.353   1.502  78.100  1.00  0.00    -0.385 OA
ATOM     21  H   UNL     1      54.338   1.525  78.135  1.00  0.00     0.211 HD
ENDBRANCH  15  20
ENDBRANCH   8   9
ENDBRANCH   7   8
ENDBRANCH   1   7
BRANCH   2  22
ATOM     22  O   UNL     1      52.634   9.051  77.202  1.00  0.00    -0.387 OA
ATOM     23  H   UNL     1      51.671   9.275  77.288  1.00  0.00     0.211 HD
ENDBRANCH   2  22
BRANCH   3  24
ATOM     24  O   UNL     1      51.076   8.125  79.239  1.00  0.00    -0.387 OA
ATOM     25  H   UNL     1      50.500   7.523  78.705  1.00  0.00     0.211 HD
ENDBRANCH   3  24
BRANCH   5  26
ATOM     26  O   UNL     1      55.531   7.262  80.702  1.00  0.00    -0.454 OA
BRANCH  26  27
ATOM     27  C   UNL     1      56.666   7.458  81.518  1.00  0.00     0.214 A 
ATOM     28  C   UNL     1      56.836   6.701  82.705  1.00  0.00     0.180 A 
ATOM     29  C   UNL     1      57.757   8.246  81.082  1.00  0.00     0.239 A 
ATOM     30  O   UNL     1      57.982   6.781  83.380  1.00  0.00    -0.452 OA
ATOM     31  C   UNL     1      58.929   8.336  81.864  1.00  0.00     0.111 A 
ATOM     32  O   UNL     1      57.703   8.817  79.959  1.00  0.00    -0.285 OA
ATOM     33  C   UNL     1      59.007   7.539  83.025  1.00  0.00     0.146 A 
ATOM     34  C   UNL     1      60.055   9.135  81.515  1.00  0.00     0.134 A 
ATOM     35  C   UNL     1      60.172   7.502  83.793  1.00  0.00     0.094 A 
ATOM     36  C   UNL     1      61.225   9.057  82.274  1.00  0.00     0.093 A 
ATOM     37  C   UNL     1      61.297   8.237  83.402  1.00  0.00     0.123 A 
BRANCH  28  38
ATOM     38  C   UNL     1      55.828   5.746  83.265  1.00  0.00     0.025 A 
ATOM     39  C   UNL     1      56.002   4.357  83.220  1.00  0.00     0.062 A 
ATOM     40  C   UNL     1      54.581   6.248  83.683  1.00  0.00     0.016 A 
ATOM     41  C   UNL     1      54.939   3.483  83.500  1.00  0.00     0.158 A 
ATOM     42  C   UNL     1      53.515   5.388  83.975  1.00  0.00     0.051 A 
ATOM     43  C   UNL     1      53.686   4.002  83.861  1.00  0.00     0.157 A 
BRANCH  41  44
ATOM     44  O   UNL     1      55.122   2.104  83.354  1.00  0.00    -0.504 OA
ATOM     45  H   UNL     1      55.504   1.536  84.090  1.00  0.00     0.293 HD
ENDBRANCH  41  44
BRANCH  43  46
ATOM     46  O   UNL     1      52.618   3.140  84.093  1.00  0.00    -0.504 OA
ATOM     47  H   UNL     1      52.300   2.926  85.021  1.00  0.00     0.293 HD
ENDBRANCH  43  46
ENDBRANCH  28  38
BRANCH  34  48
ATOM     48  O   UNL     1      60.044  10.028  80.441  1.00  0.00    -0.507 OA
ATOM     49  H   UNL     1      59.384   9.945  79.668  1.00  0.00     0.293 HD
ENDBRANCH  34  48
BRANCH  37  50
ATOM     50  O   UNL     1      62.485   8.130  84.124  1.00  0.00    -0.508 OA
ATOM     51  H   UNL     1      62.692   8.762  84.887  1.00  0.00     0.293 HD
ENDBRANCH  37  50
ENDBRANCH  26  27
ENDBRANCH   5  26
BRANCH   4  52
ATOM     52  O   UNL     1      53.035   9.806  80.011  1.00  0.00    -0.384 OA
ATOM     53  H   UNL     1      52.153   9.980  80.424  1.00  0.00     0.211 HD
ENDBRANCH   4  52
TORSDOF 16
ENDMDL
MODEL 7
REMARK VINA RESULT:    -6.028      1.370      2.088
REMARK INTER + INTRA:         -11.713
REMARK INTER:                 -10.563
REMARK INTRA:                  -1.150
REMARK UNBOUND:                -1.808
REMARK SMILES C[C@H]1O[C@H](OC[C@@H]2O[C@H](Oc3c(-c4ccc(O)c(O)c4)oc4cc(O)cc(O)c4c3=O)[C@@H](O)[C@@H](O)[C@H]2O)[C@@H](O)[C@@H](O)[C@@H]1O
REMARK SMILES IDX 7 1 36 2 34 3 32 4 9 5 8 6 6 7 5 8 4 9 1 10 2 11 42 12 3 13
REMARK SMILES IDX 40 14 38 15 43 16 41 18 39 20 37 22 35 24 10 26 11 27 12 28
REMARK SMILES IDX 30 29 21 30 29 31 31 32 22 33 27 34 23 35 26 36 24 37 13 38
REMARK SMILES IDX 20 39 14 40 18 41 15 42 16 43 19 44 17 46 28 48 25 50 33 52
REMARK H PARENT 43 17 41 19 39 21 37 23 35 25 19 45 17 47 28 49 25 51 33 53
REMARK Flexibility Score: inf
ROOT
ATOM      1  C   UNL     1      53.168   4.447  79.411  1.00  0.00     0.180 C 
ATOM      2  C   UNL     1      52.260   3.421  78.681  1.00  0.00     0.177 C 
ATOM      3  C   UNL     1      51.504   2.568  79.692  1.00  0.00     0.180 C 
ATOM      4  C   UNL     1      50.722   3.469  80.672  1.00  0.00     0.214 C 
ATOM      5  C   UNL     1      51.565   4.671  81.219  1.00  0.00     0.339 C 
ATOM      6  O   UNL     1      52.458   5.291  80.299  1.00  0.00    -0.332 OA
ENDROOT
BRANCH   1   7
ATOM      7  C   UNL     1      54.386   3.798  80.081  1.00  0.00     0.198 C 
BRANCH   7   8
ATOM      8  O   UNL     1      55.576   4.261  79.484  1.00  0.00    -0.347 OA
BRANCH   8   9
ATOM      9  C   UNL     1      55.954   5.519  80.048  1.00  0.00     0.281 C 
ATOM     10  C   UNL     1      59.471   5.566  78.966  1.00  0.00     0.041 C 
ATOM     11  C   UNL     1      57.953   5.569  78.812  1.00  0.00     0.150 C 
ATOM     12  C   UNL     1      57.502   6.748  77.920  1.00  0.00     0.174 C 
ATOM     13  O   UNL     1      57.370   5.654  80.106  1.00  0.00    -0.344 OA
ATOM     14  C   UNL     1      55.969   6.777  77.840  1.00  0.00     0.179 C 
ATOM     15  C   UNL     1      55.318   6.674  79.240  1.00  0.00     0.202 C 
BRANCH  12  16
ATOM     16  O   UNL     1      58.074   6.656  76.634  1.00  0.00    -0.388 OA
ATOM     17  H   UNL     1      57.514   7.185  76.011  1.00  0.00     0.211 HD
ENDBRANCH  12  16
BRANCH  14  18
ATOM     18  O   UNL     1      55.508   7.900  77.146  1.00  0.00    -0.387 OA
ATOM     19  H   UNL     1      54.761   7.601  76.561  1.00  0.00     0.211 HD
ENDBRANCH  14  18
BRANCH  15  20
ATOM     20  O   UNL     1      55.402   7.897  79.945  1.00  0.00    -0.385 OA
ATOM     21  H   UNL     1      56.118   8.441  79.540  1.00  0.00     0.211 HD
ENDBRANCH  15  20
ENDBRANCH   8   9
ENDBRANCH   7   8
ENDBRANCH   1   7
BRANCH   2  22
ATOM     22  O   UNL     1      51.356   4.016  77.767  1.00  0.00    -0.387 OA
ATOM     23  H   UNL     1      51.560   3.700  76.849  1.00  0.00     0.211 HD
ENDBRANCH   2  22
BRANCH   3  24
ATOM     24  O   UNL     1      50.647   1.700  79.019  1.00  0.00    -0.387 OA
ATOM     25  H   UNL     1      49.882   1.516  79.619  1.00  0.00     0.211 HD
ENDBRANCH   3  24
BRANCH   5  26
ATOM     26  O   UNL     1      52.093   4.540  82.566  1.00  0.00    -0.454 OA
BRANCH  26  27
ATOM     27  C   UNL     1      53.413   4.638  83.056  1.00  0.00     0.214 A 
ATOM     28  C   UNL     1      54.087   3.488  83.538  1.00  0.00     0.180 A 
ATOM     29  C   UNL     1      54.172   5.820  82.888  1.00  0.00     0.239 A 
ATOM     30  O   UNL     1      55.381   3.563  83.848  1.00  0.00    -0.452 OA
ATOM     31  C   UNL     1      55.527   5.859  83.284  1.00  0.00     0.111 A 
ATOM     32  O   UNL     1      53.651   6.821  82.326  1.00  0.00    -0.285 OA
ATOM     33  C   UNL     1      56.112   4.660  83.745  1.00  0.00     0.146 A 
ATOM     34  C   UNL     1      56.349   7.017  83.184  1.00  0.00     0.134 A 
ATOM     35  C   UNL     1      57.470   4.600  84.059  1.00  0.00     0.094 A 
ATOM     36  C   UNL     1      57.714   6.928  83.467  1.00  0.00     0.093 A 
ATOM     37  C   UNL     1      58.283   5.726  83.891  1.00  0.00     0.123 A 
BRANCH  28  38
ATOM     38  C   UNL     1      53.469   2.132  83.691  1.00  0.00     0.025 A 
ATOM     39  C   UNL     1      54.180   0.950  83.447  1.00  0.00     0.062 A 
ATOM     40  C   UNL     1      52.081   2.043  83.905  1.00  0.00     0.016 A 
ATOM     41  C   UNL     1      53.518  -0.283  83.333  1.00  0.00     0.158 A 
ATOM     42  C   UNL     1      51.409   0.818  83.803  1.00  0.00     0.051 A 
ATOM     43  C   UNL     1      52.125  -0.346  83.494  1.00  0.00     0.157 A 
BRANCH  41  44
ATOM     44  O   UNL     1      54.247  -1.429  82.995  1.00  0.00    -0.504 OA
ATOM     45  H   UNL     1      53.804  -2.320  82.852  1.00  0.00     0.293 HD
ENDBRANCH  41  44
BRANCH  43  46
ATOM     46  O   UNL     1      51.461  -1.559  83.334  1.00  0.00    -0.504 OA
ATOM     47  H   UNL     1      50.534  -1.707  83.689  1.00  0.00     0.293 HD
ENDBRANCH  43  46
ENDBRANCH  28  38
BRANCH  34  48
ATOM     48  O   UNL     1      55.847   8.271  82.829  1.00  0.00    -0.507 OA
ATOM     49  H   UNL     1      55.475   8.926  83.517  1.00  0.00     0.293 HD
ENDBRANCH  34  48
BRANCH  37  50
ATOM     50  O   UNL     1      59.655   5.636  84.124  1.00  0.00    -0.508 OA
ATOM     51  H   UNL     1      60.211   4.901  83.706  1.00  0.00     0.293 HD
ENDBRANCH  37  50
ENDBRANCH  26  27
ENDBRANCH   5  26
BRANCH   4  52
ATOM     52  O   UNL     1      49.533   3.918  80.068  1.00  0.00    -0.384 OA
ATOM     53  H   UNL     1      48.834   4.039  80.756  1.00  0.00     0.211 HD
ENDBRANCH   4  52
TORSDOF 16
ENDMDL
MODEL 8
REMARK VINA RESULT:    -5.961      1.944      3.013
REMARK INTER + INTRA:         -11.602
REMARK INTER:                 -10.712
REMARK INTRA:                  -0.890
REMARK UNBOUND:                -1.808
REMARK SMILES C[C@H]1O[C@H](OC[C@@H]2O[C@H](Oc3c(-c4ccc(O)c(O)c4)oc4cc(O)cc(O)c4c3=O)[C@@H](O)[C@@H](O)[C@H]2O)[C@@H](O)[C@@H](O)[C@@H]1O
REMARK SMILES IDX 7 1 36 2 34 3 32 4 9 5 8 6 6 7 5 8 4 9 1 10 2 11 42 12 3 13
REMARK SMILES IDX 40 14 38 15 43 16 41 18 39 20 37 22 35 24 10 26 11 27 12 28
REMARK SMILES IDX 30 29 21 30 29 31 31 32 22 33 27 34 23 35 26 36 24 37 13 38
REMARK SMILES IDX 20 39 14 40 18 41 15 42 16 43 19 44 17 46 28 48 25 50 33 52
REMARK H PARENT 43 17 41 19 39 21 37 23 35 25 19 45 17 47 28 49 25 51 33 53
REMARK Flexibility Score: inf
ROOT
ATOM      1  C   UNL     1      52.152   5.392  78.404  1.00  0.00     0.180 C 
ATOM      2  C   UNL     1      52.990   4.248  77.774  1.00  0.00     0.177 C 
ATOM      3  C   UNL     1      54.191   3.924  78.654  1.00  0.00     0.180 C 
ATOM      4  C   UNL     1      53.730   3.607  80.092  1.00  0.00     0.214 C 
ATOM      5  C   UNL     1      52.675   4.624  80.646  1.00  0.00     0.339 C 
ATOM      6  O   UNL     1      51.707   5.103  79.717  1.00  0.00    -0.332 OA
ENDROOT
BRANCH   1   7
ATOM      7  C   UNL     1      52.842   6.759  78.316  1.00  0.00     0.198 C 
BRANCH   7   8
ATOM      8  O   UNL     1      53.543   6.874  77.098  1.00  0.00    -0.347 OA
BRANCH   8   9
ATOM      9  C   UNL     1      53.316   8.160  76.517  1.00  0.00     0.281 C 
ATOM     10  C   UNL     1      52.861  10.088  79.618  1.00  0.00     0.041 C 
ATOM     11  C   UNL     1      53.598   9.240  78.586  1.00  0.00     0.150 C 
ATOM     12  C   UNL     1      54.925   9.918  78.177  1.00  0.00     0.174 C 
ATOM     13  O   UNL     1      52.747   9.061  77.461  1.00  0.00    -0.344 OA
ATOM     14  C   UNL     1      55.613   9.087  77.084  1.00  0.00     0.179 C 
ATOM     15  C   UNL     1      54.638   8.720  75.941  1.00  0.00     0.202 C 
BRANCH  12  16
ATOM     16  O   UNL     1      55.772  10.086  79.293  1.00  0.00    -0.388 OA
ATOM     17  H   UNL     1      55.203  10.187  80.097  1.00  0.00     0.211 HD
ENDBRANCH  12  16
BRANCH  14  18
ATOM     18  O   UNL     1      56.757   9.725  76.592  1.00  0.00    -0.387 OA
ATOM     19  H   UNL     1      56.746  10.659  76.933  1.00  0.00     0.211 HD
ENDBRANCH  14  18
BRANCH  15  20
ATOM     20  O   UNL     1      54.397   9.823  75.088  1.00  0.00    -0.385 OA
ATOM     21  H   UNL     1      54.395  10.643  75.634  1.00  0.00     0.211 HD
ENDBRANCH  15  20
ENDBRANCH   8   9
ENDBRANCH   7   8
ENDBRANCH   1   7
BRANCH   2  22
ATOM     22  O   UNL     1      52.240   3.074  77.516  1.00  0.00    -0.387 OA
ATOM     23  H   UNL     1      51.298   3.218  77.792  1.00  0.00     0.211 HD
ENDBRANCH   2  22
BRANCH   3  24
ATOM     24  O   UNL     1      54.893   2.853  78.106  1.00  0.00    -0.387 OA
ATOM     25  H   UNL     1      54.355   2.499  77.356  1.00  0.00     0.211 HD
ENDBRANCH   3  24
BRANCH   5  26
ATOM     26  O   UNL     1      53.161   5.631  81.572  1.00  0.00    -0.454 OA
BRANCH  26  27
ATOM     27  C   UNL     1      54.395   5.747  82.249  1.00  0.00     0.214 A 
ATOM     28  C   UNL     1      54.832   4.722  83.125  1.00  0.00     0.180 A 
ATOM     29  C   UNL     1      55.320   6.765  81.919  1.00  0.00     0.239 A 
ATOM     30  O   UNL     1      56.063   4.768  83.632  1.00  0.00    -0.452 OA
ATOM     31  C   UNL     1      56.594   6.795  82.527  1.00  0.00     0.111 A 
ATOM     32  O   UNL     1      55.025   7.612  81.033  1.00  0.00    -0.285 OA
ATOM     33  C   UNL     1      56.940   5.726  83.381  1.00  0.00     0.146 A 
ATOM     34  C   UNL     1      57.567   7.805  82.279  1.00  0.00     0.134 A 
ATOM     35  C   UNL     1      58.217   5.638  83.938  1.00  0.00     0.094 A 
ATOM     36  C   UNL     1      58.850   7.680  82.816  1.00  0.00     0.093 A 
ATOM     37  C   UNL     1      59.187   6.598  83.632  1.00  0.00     0.123 A 
BRANCH  28  38
ATOM     38  C   UNL     1      54.025   3.521  83.511  1.00  0.00     0.025 A 
ATOM     39  C   UNL     1      54.449   2.213  83.245  1.00  0.00     0.062 A 
ATOM     40  C   UNL     1      52.715   3.712  83.989  1.00  0.00     0.016 A 
ATOM     41  C   UNL     1      53.568   1.126  83.367  1.00  0.00     0.158 A 
ATOM     42  C   UNL     1      51.828   2.637  84.124  1.00  0.00     0.051 A 
ATOM     43  C   UNL     1      52.247   1.342  83.791  1.00  0.00     0.157 A 
BRANCH  41  44
ATOM     44  O   UNL     1      53.997  -0.154  83.002  1.00  0.00    -0.504 OA
ATOM     45  H   UNL     1      54.928  -0.329  82.665  1.00  0.00     0.293 HD
ENDBRANCH  41  44
BRANCH  43  46
ATOM     46  O   UNL     1      51.359   0.273  83.867  1.00  0.00    -0.504 OA
ATOM     47  H   UNL     1      51.433  -0.523  83.260  1.00  0.00     0.293 HD
ENDBRANCH  43  46
ENDBRANCH  28  38
BRANCH  34  48
ATOM     48  O   UNL     1      57.293   8.950  81.528  1.00  0.00    -0.507 OA
ATOM     49  H   UNL     1      57.993   9.670  81.352  1.00  0.00     0.293 HD
ENDBRANCH  34  48
BRANCH  37  50
ATOM     50  O   UNL     1      60.485   6.459  84.122  1.00  0.00    -0.508 OA
ATOM     51  H   UNL     1      60.937   7.211  84.627  1.00  0.00     0.293 HD
ENDBRANCH  37  50
ENDBRANCH  26  27
ENDBRANCH   5  26
BRANCH   4  52
ATOM     52  O   UNL     1      53.245   2.287  80.161  1.00  0.00    -0.384 OA
ATOM     53  H   UNL     1      52.347   2.239  79.750  1.00  0.00     0.211 HD
ENDBRANCH   4  52
TORSDOF 16
ENDMDL
MODEL 9
REMARK VINA RESULT:    -5.823      2.133      5.580
REMARK INTER + INTRA:         -11.376
REMARK INTER:                 -10.103
REMARK INTRA:                  -1.273
REMARK UNBOUND:                -1.808
REMARK SMILES C[C@H]1O[C@H](OC[C@@H]2O[C@H](Oc3c(-c4ccc(O)c(O)c4)oc4cc(O)cc(O)c4c3=O)[C@@H](O)[C@@H](O)[C@H]2O)[C@@H](O)[C@@H](O)[C@@H]1O
REMARK SMILES IDX 7 1 36 2 34 3 32 4 9 5 8 6 6 7 5 8 4 9 1 10 2 11 42 12 3 13
REMARK SMILES IDX 40 14 38 15 43 16 41 18 39 20 37 22 35 24 10 26 11 27 12 28
REMARK SMILES IDX 30 29 21 30 29 31 31 32 22 33 27 34 23 35 26 36 24 37 13 38
REMARK SMILES IDX 20 39 14 40 18 41 15 42 16 43 19 44 17 46 28 48 25 50 33 52
REMARK H PARENT 43 17 41 19 39 21 37 23 35 25 19 45 17 47 28 49 25 51 33 53
REMARK Flexibility Score: inf
ROOT
ATOM      1  C   UNL     1      54.579   6.570  82.166  1.00  0.00     0.180 C 
ATOM      2  C   UNL     1      53.288   5.902  82.710  1.00  0.00     0.177 C 
ATOM      3  C   UNL     1      53.124   4.507  82.121  1.00  0.00     0.180 C 
ATOM      4  C   UNL     1      54.390   3.664  82.382  1.00  0.00     0.214 C 
ATOM      5  C   UNL     1      55.722   4.431  82.078  1.00  0.00     0.339 C 
ATOM      6  O   UNL     1      55.750   5.814  82.418  1.00  0.00    -0.332 OA
ENDROOT
BRANCH   1   7
ATOM      7  C   UNL     1      54.465   6.984  80.694  1.00  0.00     0.198 C 
BRANCH   7   8
ATOM      8  O   UNL     1      55.320   8.073  80.425  1.00  0.00    -0.347 OA
BRANCH   8   9
ATOM      9  C   UNL     1      54.564   9.281  80.326  1.00  0.00     0.281 C 
ATOM     10  C   UNL     1      55.268  10.078  76.803  1.00  0.00     0.041 C 
ATOM     11  C   UNL     1      54.711   9.282  77.980  1.00  0.00     0.150 C 
ATOM     12  C   UNL     1      53.207   8.994  77.774  1.00  0.00     0.174 C 
ATOM     13  O   UNL     1      54.931  10.028  79.171  1.00  0.00    -0.344 OA
ATOM     14  C   UNL     1      52.650   8.260  79.003  1.00  0.00     0.179 C 
ATOM     15  C   UNL     1      53.051   8.960  80.322  1.00  0.00     0.202 C 
BRANCH  12  16
ATOM     16  O   UNL     1      52.992   8.246  76.598  1.00  0.00    -0.388 OA
ATOM     17  H   UNL     1      53.309   7.322  76.759  1.00  0.00     0.211 HD
ENDBRANCH  12  16
BRANCH  14  18
ATOM     18  O   UNL     1      51.265   8.086  78.919  1.00  0.00    -0.387 OA
ATOM     19  H   UNL     1      51.001   7.454  79.639  1.00  0.00     0.211 HD
ENDBRANCH  14  18
BRANCH  15  20
ATOM     20  O   UNL     1      52.280  10.125  80.548  1.00  0.00    -0.385 OA
ATOM     21  H   UNL     1      51.463  10.068  80.000  1.00  0.00     0.211 HD
ENDBRANCH  15  20
ENDBRANCH   8   9
ENDBRANCH   7   8
ENDBRANCH   1   7
BRANCH   2  22
ATOM     22  O   UNL     1      53.233   5.846  84.125  1.00  0.00    -0.387 OA
ATOM     23  H   UNL     1      52.787   6.664  84.469  1.00  0.00     0.211 HD
ENDBRANCH   2  22
BRANCH   3  24
ATOM     24  O   UNL     1      51.997   3.900  82.670  1.00  0.00    -0.387 OA
ATOM     25  H   UNL     1      51.668   4.487  83.395  1.00  0.00     0.211 HD
ENDBRANCH   3  24
BRANCH   5  26
ATOM     26  O   UNL     1      56.390   4.111  80.829  1.00  0.00    -0.454 OA
BRANCH  26  27
ATOM     27  C   UNL     1      56.823   4.940  79.772  1.00  0.00     0.214 A 
ATOM     28  C   UNL     1      56.017   5.111  78.618  1.00  0.00     0.180 A 
ATOM     29  C   UNL     1      57.950   5.782  79.914  1.00  0.00     0.239 A 
ATOM     30  O   UNL     1      56.360   6.016  77.702  1.00  0.00    -0.452 OA
ATOM     31  C   UNL     1      58.298   6.687  78.887  1.00  0.00     0.111 A 
ATOM     32  O   UNL     1      58.608   5.767  80.989  1.00  0.00    -0.285 OA
ATOM     33  C   UNL     1      57.430   6.791  77.780  1.00  0.00     0.146 A 
ATOM     34  C   UNL     1      59.437   7.541  78.935  1.00  0.00     0.134 A 
ATOM     35  C   UNL     1      57.657   7.732  76.775  1.00  0.00     0.094 A 
ATOM     36  C   UNL     1      59.627   8.502  77.940  1.00  0.00     0.093 A 
ATOM     37  C   UNL     1      58.740   8.613  76.868  1.00  0.00     0.123 A 
BRANCH  28  38
ATOM     38  C   UNL     1      54.741   4.375  78.345  1.00  0.00     0.025 A 
ATOM     39  C   UNL     1      53.485   4.988  78.440  1.00  0.00     0.062 A 
ATOM     40  C   UNL     1      54.790   2.980  78.170  1.00  0.00     0.016 A 
ATOM     41  C   UNL     1      52.305   4.227  78.448  1.00  0.00     0.158 A 
ATOM     42  C   UNL     1      53.621   2.209  78.166  1.00  0.00     0.051 A 
ATOM     43  C   UNL     1      52.376   2.830  78.328  1.00  0.00     0.157 A 
BRANCH  41  44
ATOM     44  O   UNL     1      51.074   4.863  78.640  1.00  0.00    -0.504 OA
ATOM     45  H   UNL     1      50.553   5.258  77.877  1.00  0.00     0.293 HD
ENDBRANCH  41  44
BRANCH  43  46
ATOM     46  O   UNL     1      51.211   2.069  78.383  1.00  0.00    -0.504 OA
ATOM     47  H   UNL     1      50.626   2.052  79.198  1.00  0.00     0.293 HD
ENDBRANCH  43  46
ENDBRANCH  28  38
BRANCH  34  48
ATOM     48  O   UNL     1      60.406   7.452  79.937  1.00  0.00    -0.507 OA
ATOM     49  H   UNL     1      60.176   7.525  80.928  1.00  0.00     0.293 HD
ENDBRANCH  34  48
BRANCH  37  50
ATOM     50  O   UNL     1      58.913   9.608  75.907  1.00  0.00    -0.508 OA
ATOM     51  H   UNL     1      59.563  10.371  76.053  1.00  0.00     0.293 HD
ENDBRANCH  37  50
ENDBRANCH  26  27
ENDBRANCH   5  26
BRANCH   4  52
ATOM     52  O   UNL     1      54.377   3.175  83.702  1.00  0.00    -0.384 OA
ATOM     53  H   UNL     1      54.380   2.187  83.692  1.00  0.00     0.211 HD
ENDBRANCH   4  52
TORSDOF 16
ENDMDL
