MODEL 1
REMARK VINA RESULT:    -6.366      0.000      0.000
REMARK INTER + INTRA:          -7.961
REMARK INTER:                  -7.668
REMARK INTRA:                  -0.293
REMARK UNBOUND:                -0.293
REMARK SMILES O=c1c(O)c(-c2ccc(O)c(O)c2)oc2cc(O)cc(O)c12
REMARK SMILES IDX 5 1 3 2 2 3 1 4 22 5 20 6 19 7 17 8 16 9 15 10 14 11 6 12
REMARK SMILES IDX 7 13 8 14 9 15 13 16 11 17 10 18 12 20 4 22 21 24 18 26
REMARK H PARENT 10 19 12 21 4 23 21 25 18 27
REMARK Flexibility Score: inf
ROOT
ATOM      1  C   UNL     1     -12.690   2.800  23.236  1.00  0.00     0.180 A 
ATOM      2  C   UNL     1     -11.435   2.186  23.086  1.00  0.00     0.208 A 
ATOM      3  C   UNL     1     -10.275   2.938  23.332  1.00  0.00     0.238 A 
ATOM      4  O   UNL     1      -9.156   2.369  23.249  1.00  0.00    -0.285 OA
ATOM      5  C   UNL     1     -10.384   4.299  23.709  1.00  0.00     0.111 A 
ATOM      6  C   UNL     1      -9.276   5.166  23.944  1.00  0.00     0.134 A 
ATOM      7  C   UNL     1      -9.502   6.457  24.440  1.00  0.00     0.093 A 
ATOM      8  C   UNL     1     -10.800   6.932  24.646  1.00  0.00     0.123 A 
ATOM      9  C   UNL     1     -11.889   6.113  24.363  1.00  0.00     0.094 A 
ATOM     10  C   UNL     1     -11.695   4.809  23.902  1.00  0.00     0.146 A 
ATOM     11  O   UNL     1     -12.762   4.057  23.654  1.00  0.00    -0.452 OA
ENDROOT
BRANCH   1  12
ATOM     12  C   UNL     1     -13.956   2.078  22.970  1.00  0.00     0.025 A 
ATOM     13  C   UNL     1     -14.594   2.238  21.729  1.00  0.00     0.016 A 
ATOM     14  C   UNL     1     -15.779   1.551  21.449  1.00  0.00     0.051 A 
ATOM     15  C   UNL     1     -16.332   0.682  22.398  1.00  0.00     0.157 A 
ATOM     16  C   UNL     1     -14.505   1.190  23.912  1.00  0.00     0.062 A 
ATOM     17  C   UNL     1     -15.692   0.498  23.630  1.00  0.00     0.158 A 
BRANCH  15  18
ATOM     18  O   UNL     1     -17.513  -0.003  22.124  1.00  0.00    -0.504 OA
ATOM     19  H   UNL     1     -18.377   0.488  21.922  1.00  0.00     0.293 HD
ENDBRANCH  15  18
BRANCH  17  20
ATOM     20  O   UNL     1     -16.238  -0.377  24.567  1.00  0.00    -0.504 OA
ATOM     21  H   UNL     1     -16.539  -0.056  25.480  1.00  0.00     0.293 HD
ENDBRANCH  17  20
ENDBRANCH   1  12
BRANCH   2  22
ATOM     22  O   UNL     1     -11.349   0.836  22.734  1.00  0.00    -0.502 OA
ATOM     23  H   UNL     1     -10.639   0.482  22.104  1.00  0.00     0.293 HD
ENDBRANCH   2  22
BRANCH   6  24
ATOM     24  O   UNL     1      -7.946   4.823  23.683  1.00  0.00    -0.507 OA
ATOM     25  H   UNL     1      -7.650   4.186  22.959  1.00  0.00     0.293 HD
ENDBRANCH   6  24
BRANCH   8  26
ATOM     26  O   UNL     1     -11.016   8.222  25.124  1.00  0.00    -0.508 OA
ATOM     27  H   UNL     1     -10.350   8.680  25.736  1.00  0.00     0.293 HD
ENDBRANCH   8  26
TORSDOF 6
ENDMDL
MODEL 2
REMARK VINA RESULT:    -6.283      2.454      7.174
REMARK INTER + INTRA:          -7.861
REMARK INTER:                  -7.771
REMARK INTRA:                  -0.090
REMARK UNBOUND:                -0.293
REMARK SMILES O=c1c(O)c(-c2ccc(O)c(O)c2)oc2cc(O)cc(O)c12
REMARK SMILES IDX 5 1 3 2 2 3 1 4 22 5 20 6 19 7 17 8 16 9 15 10 14 11 6 12
REMARK SMILES IDX 7 13 8 14 9 15 13 16 11 17 10 18 12 20 4 22 21 24 18 26
REMARK H PARENT 10 19 12 21 4 23 21 25 18 27
REMARK Flexibility Score: inf
ROOT
ATOM      1  C   UNL     1      -9.865   4.132  23.896  1.00  0.00     0.180 A 
ATOM      2  C   UNL     1     -10.338   5.363  24.382  1.00  0.00     0.208 A 
ATOM      3  C   UNL     1     -11.676   5.718  24.148  1.00  0.00     0.238 A 
ATOM      4  O   UNL     1     -12.109   6.796  24.631  1.00  0.00    -0.285 OA
ATOM      5  C   UNL     1     -12.520   4.845  23.419  1.00  0.00     0.111 A 
ATOM      6  C   UNL     1     -13.880   5.121  23.089  1.00  0.00     0.134 A 
ATOM      7  C   UNL     1     -14.658   4.129  22.478  1.00  0.00     0.093 A 
ATOM      8  C   UNL     1     -14.105   2.895  22.126  1.00  0.00     0.123 A 
ATOM      9  C   UNL     1     -12.762   2.639  22.390  1.00  0.00     0.094 A 
ATOM     10  C   UNL     1     -11.970   3.595  23.031  1.00  0.00     0.146 A 
ATOM     11  O   UNL     1     -10.697   3.306  23.274  1.00  0.00    -0.452 OA
ENDROOT
BRANCH   1  12
ATOM     12  C   UNL     1      -8.460   3.700  24.081  1.00  0.00     0.025 A 
ATOM     13  C   UNL     1      -8.193   2.445  24.654  1.00  0.00     0.016 A 
ATOM     14  C   UNL     1      -6.875   2.009  24.819  1.00  0.00     0.051 A 
ATOM     15  C   UNL     1      -5.808   2.813  24.399  1.00  0.00     0.157 A 
ATOM     16  C   UNL     1      -7.386   4.494  23.643  1.00  0.00     0.062 A 
ATOM     17  C   UNL     1      -6.063   4.056  23.806  1.00  0.00     0.158 A 
BRANCH  15  18
ATOM     18  O   UNL     1      -4.493   2.382  24.564  1.00  0.00    -0.504 OA
ATOM     19  H   UNL     1      -4.224   1.781  25.334  1.00  0.00     0.293 HD
ENDBRANCH  15  18
BRANCH  17  20
ATOM     20  O   UNL     1      -4.999   4.846  23.377  1.00  0.00    -0.504 OA
ATOM     21  H   UNL     1      -4.087   4.449  23.185  1.00  0.00     0.293 HD
ENDBRANCH  17  20
ENDBRANCH   1  12
BRANCH   2  22
ATOM     22  O   UNL     1      -9.495   6.200  25.117  1.00  0.00    -0.502 OA
ATOM     23  H   UNL     1      -9.845   6.954  25.695  1.00  0.00     0.293 HD
ENDBRANCH   2  22
BRANCH   6  24
ATOM     24  O   UNL     1     -14.504   6.352  23.313  1.00  0.00    -0.507 OA
ATOM     25  H   UNL     1     -14.753   6.712  24.222  1.00  0.00     0.293 HD
ENDBRANCH   6  24
BRANCH   8  26
ATOM     26  O   UNL     1     -14.881   1.920  21.504  1.00  0.00    -0.508 OA
ATOM     27  H   UNL     1     -14.624   0.940  21.532  1.00  0.00     0.293 HD
ENDBRANCH   8  26
TORSDOF 6
ENDMDL
MODEL 3
REMARK VINA RESULT:    -6.223      0.898      1.616
REMARK INTER + INTRA:          -7.788
REMARK INTER:                  -7.493
REMARK INTRA:                  -0.296
REMARK UNBOUND:                -0.293
REMARK SMILES O=c1c(O)c(-c2ccc(O)c(O)c2)oc2cc(O)cc(O)c12
REMARK SMILES IDX 5 1 3 2 2 3 1 4 22 5 20 6 19 7 17 8 16 9 15 10 14 11 6 12
REMARK SMILES IDX 7 13 8 14 9 15 13 16 11 17 10 18 12 20 4 22 21 24 18 26
REMARK H PARENT 10 19 12 21 4 23 21 25 18 27
REMARK Flexibility Score: inf
ROOT
ATOM      1  C   UNL     1     -13.038   2.734  22.774  1.00  0.00     0.180 A 
ATOM      2  C   UNL     1     -11.781   2.160  22.520  1.00  0.00     0.208 A 
ATOM      3  C   UNL     1     -10.624   2.905  22.798  1.00  0.00     0.238 A 
ATOM      4  O   UNL     1      -9.500   2.367  22.621  1.00  0.00    -0.285 OA
ATOM      5  C   UNL     1     -10.739   4.221  23.310  1.00  0.00     0.111 A 
ATOM      6  C   UNL     1      -9.636   5.081  23.590  1.00  0.00     0.134 A 
ATOM      7  C   UNL     1      -9.862   6.312  24.218  1.00  0.00     0.093 A 
ATOM      8  C   UNL     1     -11.158   6.742  24.515  1.00  0.00     0.123 A 
ATOM      9  C   UNL     1     -12.245   5.935  24.191  1.00  0.00     0.094 A 
ATOM     10  C   UNL     1     -12.049   4.686  23.598  1.00  0.00     0.146 A 
ATOM     11  O   UNL     1     -13.113   3.943  23.316  1.00  0.00    -0.452 OA
ENDROOT
BRANCH   1  12
ATOM     12  C   UNL     1     -14.303   2.019  22.483  1.00  0.00     0.025 A 
ATOM     13  C   UNL     1     -14.799   1.087  23.410  1.00  0.00     0.016 A 
ATOM     14  C   UNL     1     -16.000   0.417  23.165  1.00  0.00     0.051 A 
ATOM     15  C   UNL     1     -16.731   0.680  21.999  1.00  0.00     0.157 A 
ATOM     16  C   UNL     1     -15.050   2.294  21.323  1.00  0.00     0.062 A 
ATOM     17  C   UNL     1     -16.257   1.623  21.079  1.00  0.00     0.158 A 
BRANCH  15  18
ATOM     18  O   UNL     1     -17.928   0.012  21.751  1.00  0.00    -0.504 OA
ATOM     19  H   UNL     1     -18.647   0.413  21.159  1.00  0.00     0.293 HD
ENDBRANCH  15  18
BRANCH  17  20
ATOM     20  O   UNL     1     -16.993   1.892  19.927  1.00  0.00    -0.504 OA
ATOM     21  H   UNL     1     -17.689   2.629  19.901  1.00  0.00     0.293 HD
ENDBRANCH  17  20
ENDBRANCH   1  12
BRANCH   2  22
ATOM     22  O   UNL     1     -11.689   0.853  22.035  1.00  0.00    -0.502 OA
ATOM     23  H   UNL     1     -11.495   0.061  22.635  1.00  0.00     0.293 HD
ENDBRANCH   2  22
BRANCH   6  24
ATOM     24  O   UNL     1      -8.311   4.788  23.251  1.00  0.00    -0.507 OA
ATOM     25  H   UNL     1      -7.894   3.872  23.307  1.00  0.00     0.293 HD
ENDBRANCH   6  24
BRANCH   8  26
ATOM     26  O   UNL     1     -11.375   7.976  25.125  1.00  0.00    -0.508 OA
ATOM     27  H   UNL     1     -10.707   8.369  25.778  1.00  0.00     0.293 HD
ENDBRANCH   8  26
TORSDOF 6
ENDMDL
MODEL 4
REMARK VINA RESULT:    -6.120      1.160      2.872
REMARK INTER + INTRA:          -7.664
REMARK INTER:                  -7.371
REMARK INTRA:                  -0.294
REMARK UNBOUND:                -0.293
REMARK SMILES O=c1c(O)c(-c2ccc(O)c(O)c2)oc2cc(O)cc(O)c12
REMARK SMILES IDX 5 1 3 2 2 3 1 4 22 5 20 6 19 7 17 8 16 9 15 10 14 11 6 12
REMARK SMILES IDX 7 13 8 14 9 15 13 16 11 17 10 18 12 20 4 22 21 24 18 26
REMARK H PARENT 10 19 12 21 4 23 21 25 18 27
REMARK Flexibility Score: inf
ROOT
ATOM      1  C   UNL     1     -13.171   3.555  23.215  1.00  0.00     0.180 A 
ATOM      2  C   UNL     1     -13.413   4.889  23.584  1.00  0.00     0.208 A 
ATOM      3  C   UNL     1     -12.334   5.689  23.996  1.00  0.00     0.238 A 
ATOM      4  O   UNL     1     -12.548   6.897  24.273  1.00  0.00    -0.285 OA
ATOM      5  C   UNL     1     -11.030   5.139  24.050  1.00  0.00     0.111 A 
ATOM      6  C   UNL     1      -9.871   5.844  24.490  1.00  0.00     0.134 A 
ATOM      7  C   UNL     1      -8.611   5.242  24.376  1.00  0.00     0.093 A 
ATOM      8  C   UNL     1      -8.478   3.935  23.900  1.00  0.00     0.123 A 
ATOM      9  C   UNL     1      -9.610   3.217  23.524  1.00  0.00     0.094 A 
ATOM     10  C   UNL     1     -10.876   3.804  23.591  1.00  0.00     0.146 A 
ATOM     11  O   UNL     1     -11.929   3.088  23.213  1.00  0.00    -0.452 OA
ENDROOT
BRANCH   1  12
ATOM     12  C   UNL     1     -14.261   2.645  22.794  1.00  0.00     0.025 A 
ATOM     13  C   UNL     1     -14.734   2.698  21.473  1.00  0.00     0.016 A 
ATOM     14  C   UNL     1     -15.747   1.834  21.048  1.00  0.00     0.051 A 
ATOM     15  C   UNL     1     -16.290   0.895  21.934  1.00  0.00     0.157 A 
ATOM     16  C   UNL     1     -14.796   1.687  23.674  1.00  0.00     0.062 A 
ATOM     17  C   UNL     1     -15.811   0.817  23.248  1.00  0.00     0.158 A 
BRANCH  15  18
ATOM     18  O   UNL     1     -17.302   0.033  21.515  1.00  0.00    -0.504 OA
ATOM     19  H   UNL     1     -18.129  -0.127  22.079  1.00  0.00     0.293 HD
ENDBRANCH  15  18
BRANCH  17  20
ATOM     20  O   UNL     1     -16.344  -0.127  24.122  1.00  0.00    -0.504 OA
ATOM     21  H   UNL     1     -15.797  -0.514  24.883  1.00  0.00     0.293 HD
ENDBRANCH  17  20
ENDBRANCH   1  12
BRANCH   2  22
ATOM     22  O   UNL     1     -14.704   5.419  23.504  1.00  0.00    -0.502 OA
ATOM     23  H   UNL     1     -15.281   5.572  24.321  1.00  0.00     0.293 HD
ENDBRANCH   2  22
BRANCH   6  24
ATOM     24  O   UNL     1      -9.903   7.117  25.067  1.00  0.00    -0.507 OA
ATOM     25  H   UNL     1      -9.709   7.975  24.573  1.00  0.00     0.293 HD
ENDBRANCH   6  24
BRANCH   8  26
ATOM     26  O   UNL     1      -7.223   3.338  23.806  1.00  0.00    -0.508 OA
ATOM     27  H   UNL     1      -6.802   3.128  22.908  1.00  0.00     0.293 HD
ENDBRANCH   8  26
TORSDOF 6
ENDMDL
MODEL 5
REMARK VINA RESULT:    -6.065      2.492      6.725
REMARK INTER + INTRA:          -7.599
REMARK INTER:                  -7.385
REMARK INTRA:                  -0.214
REMARK UNBOUND:                -0.293
REMARK SMILES O=c1c(O)c(-c2ccc(O)c(O)c2)oc2cc(O)cc(O)c12
REMARK SMILES IDX 5 1 3 2 2 3 1 4 22 5 20 6 19 7 17 8 16 9 15 10 14 11 6 12
REMARK SMILES IDX 7 13 8 14 9 15 13 16 11 17 10 18 12 20 4 22 21 24 18 26
REMARK H PARENT 10 19 12 21 4 23 21 25 18 27
REMARK Flexibility Score: inf
ROOT
ATOM      1  C   UNL     1      -9.989   3.100  23.236  1.00  0.00     0.180 A 
ATOM      2  C   UNL     1     -10.439   2.059  22.406  1.00  0.00     0.208 A 
ATOM      3  C   UNL     1     -11.782   2.047  21.996  1.00  0.00     0.238 A 
ATOM      4  O   UNL     1     -12.167   1.144  21.210  1.00  0.00    -0.285 OA
ATOM      5  C   UNL     1     -12.661   3.067  22.435  1.00  0.00     0.111 A 
ATOM      6  C   UNL     1     -14.051   3.132  22.115  1.00  0.00     0.134 A 
ATOM      7  C   UNL     1     -14.795   4.257  22.495  1.00  0.00     0.093 A 
ATOM      8  C   UNL     1     -14.215   5.287  23.241  1.00  0.00     0.123 A 
ATOM      9  C   UNL     1     -12.874   5.203  23.609  1.00  0.00     0.094 A 
ATOM     10  C   UNL     1     -12.097   4.112  23.213  1.00  0.00     0.146 A 
ATOM     11  O   UNL     1     -10.820   4.077  23.577  1.00  0.00    -0.452 OA
ENDROOT
BRANCH   1  12
ATOM     12  C   UNL     1      -8.593   3.166  23.728  1.00  0.00     0.025 A 
ATOM     13  C   UNL     1      -8.145   2.217  24.662  1.00  0.00     0.016 A 
ATOM     14  C   UNL     1      -6.827   2.248  25.125  1.00  0.00     0.051 A 
ATOM     15  C   UNL     1      -5.934   3.218  24.649  1.00  0.00     0.157 A 
ATOM     16  C   UNL     1      -7.688   4.125  23.239  1.00  0.00     0.062 A 
ATOM     17  C   UNL     1      -6.364   4.154  23.701  1.00  0.00     0.158 A 
BRANCH  15  18
ATOM     18  O   UNL     1      -4.620   3.253  25.109  1.00  0.00    -0.504 OA
ATOM     19  H   UNL     1      -3.983   2.479  24.957  1.00  0.00     0.293 HD
ENDBRANCH  15  18
BRANCH  17  20
ATOM     20  O   UNL     1      -5.470   5.108  23.219  1.00  0.00    -0.504 OA
ATOM     21  H   UNL     1      -4.851   4.910  22.441  1.00  0.00     0.293 HD
ENDBRANCH  17  20
ENDBRANCH   1  12
BRANCH   2  22
ATOM     22  O   UNL     1      -9.550   1.074  21.966  1.00  0.00    -0.502 OA
ATOM     23  H   UNL     1      -9.378   0.224  22.489  1.00  0.00     0.293 HD
ENDBRANCH   2  22
BRANCH   6  24
ATOM     24  O   UNL     1     -14.749   2.117  21.455  1.00  0.00    -0.507 OA
ATOM     25  H   UNL     1     -14.720   1.954  20.460  1.00  0.00     0.293 HD
ENDBRANCH   6  24
BRANCH   8  26
ATOM     26  O   UNL     1     -14.966   6.393  23.629  1.00  0.00    -0.508 OA
ATOM     27  H   UNL     1     -15.857   6.607  23.196  1.00  0.00     0.293 HD
ENDBRANCH   8  26
TORSDOF 6
ENDMDL
MODEL 6
REMARK VINA RESULT:    -6.049      1.715      6.881
REMARK INTER + INTRA:          -7.579
REMARK INTER:                  -7.382
REMARK INTRA:                  -0.197
REMARK UNBOUND:                -0.293
REMARK SMILES O=c1c(O)c(-c2ccc(O)c(O)c2)oc2cc(O)cc(O)c12
REMARK SMILES IDX 5 1 3 2 2 3 1 4 22 5 20 6 19 7 17 8 16 9 15 10 14 11 6 12
REMARK SMILES IDX 7 13 8 14 9 15 13 16 11 17 10 18 12 20 4 22 21 24 18 26
REMARK H PARENT 10 19 12 21 4 23 21 25 18 27
REMARK Flexibility Score: inf
ROOT
ATOM      1  C   UNL     1     -13.158   3.283  22.943  1.00  0.00     0.180 A 
ATOM      2  C   UNL     1     -13.167   1.903  23.207  1.00  0.00     0.208 A 
ATOM      3  C   UNL     1     -14.206   1.116  22.685  1.00  0.00     0.238 A 
ATOM      4  O   UNL     1     -14.180  -0.127  22.878  1.00  0.00    -0.285 OA
ATOM      5  C   UNL     1     -15.231   1.722  21.919  1.00  0.00     0.111 A 
ATOM      6  C   UNL     1     -16.353   1.029  21.374  1.00  0.00     0.134 A 
ATOM      7  C   UNL     1     -17.236   1.705  20.522  1.00  0.00     0.093 A 
ATOM      8  C   UNL     1     -17.073   3.066  20.249  1.00  0.00     0.123 A 
ATOM      9  C   UNL     1     -16.015   3.764  20.824  1.00  0.00     0.094 A 
ATOM     10  C   UNL     1     -15.097   3.109  21.648  1.00  0.00     0.146 A 
ATOM     11  O   UNL     1     -14.096   3.811  22.167  1.00  0.00    -0.452 OA
ENDROOT
BRANCH   1  12
ATOM     12  C   UNL     1     -12.109   4.181  23.481  1.00  0.00     0.025 A 
ATOM     13  C   UNL     1     -12.437   5.096  24.495  1.00  0.00     0.016 A 
ATOM     14  C   UNL     1     -11.459   5.938  25.031  1.00  0.00     0.051 A 
ATOM     15  C   UNL     1     -10.137   5.865  24.573  1.00  0.00     0.157 A 
ATOM     16  C   UNL     1     -10.777   4.098  23.039  1.00  0.00     0.062 A 
ATOM     17  C   UNL     1      -9.794   4.941  23.579  1.00  0.00     0.158 A 
BRANCH  15  18
ATOM     18  O   UNL     1      -9.160   6.704  25.104  1.00  0.00    -0.504 OA
ATOM     19  H   UNL     1      -8.174   6.476  25.043  1.00  0.00     0.293 HD
ENDBRANCH  15  18
BRANCH  17  20
ATOM     20  O   UNL     1      -8.476   4.862  23.135  1.00  0.00    -0.504 OA
ATOM     21  H   UNL     1      -8.081   3.992  22.798  1.00  0.00     0.293 HD
ENDBRANCH  17  20
ENDBRANCH   1  12
BRANCH   2  22
ATOM     22  O   UNL     1     -12.134   1.321  23.948  1.00  0.00    -0.502 OA
ATOM     23  H   UNL     1     -11.159   1.540  23.787  1.00  0.00     0.293 HD
ENDBRANCH   2  22
BRANCH   6  24
ATOM     24  O   UNL     1     -16.660  -0.305  21.658  1.00  0.00    -0.507 OA
ATOM     25  H   UNL     1     -17.051  -0.957  20.995  1.00  0.00     0.293 HD
ENDBRANCH   6  24
BRANCH   8  26
ATOM     26  O   UNL     1     -17.965   3.734  19.413  1.00  0.00    -0.508 OA
ATOM     27  H   UNL     1     -18.147   4.725  19.517  1.00  0.00     0.293 HD
ENDBRANCH   8  26
TORSDOF 6
ENDMDL
MODEL 7
REMARK VINA RESULT:    -5.837      2.880      4.347
REMARK INTER + INTRA:          -7.323
REMARK INTER:                  -7.081
REMARK INTRA:                  -0.242
REMARK UNBOUND:                -0.293
REMARK SMILES O=c1c(O)c(-c2ccc(O)c(O)c2)oc2cc(O)cc(O)c12
REMARK SMILES IDX 5 1 3 2 2 3 1 4 22 5 20 6 19 7 17 8 16 9 15 10 14 11 6 12
REMARK SMILES IDX 7 13 8 14 9 15 13 16 11 17 10 18 12 20 4 22 21 24 18 26
REMARK H PARENT 10 19 12 21 4 23 21 25 18 27
REMARK Flexibility Score: inf
ROOT
ATOM      1  C   UNL     1     -10.237   2.727  23.747  1.00  0.00     0.180 A 
ATOM      2  C   UNL     1     -10.046   1.433  24.260  1.00  0.00     0.208 A 
ATOM      3  C   UNL     1      -8.751   1.025  24.615  1.00  0.00     0.238 A 
ATOM      4  O   UNL     1      -8.593  -0.114  25.125  1.00  0.00    -0.285 OA
ATOM      5  C   UNL     1      -7.660   1.911  24.438  1.00  0.00     0.111 A 
ATOM      6  C   UNL     1      -6.300   1.590  24.726  1.00  0.00     0.134 A 
ATOM      7  C   UNL     1      -5.320   2.588  24.636  1.00  0.00     0.093 A 
ATOM      8  C   UNL     1      -5.643   3.877  24.205  1.00  0.00     0.123 A 
ATOM      9  C   UNL     1      -6.958   4.183  23.864  1.00  0.00     0.094 A 
ATOM     10  C   UNL     1      -7.963   3.220  23.978  1.00  0.00     0.146 A 
ATOM     11  O   UNL     1      -9.206   3.557  23.653  1.00  0.00    -0.452 OA
ENDROOT
BRANCH   1  12
ATOM     12  C   UNL     1     -11.570   3.219  23.326  1.00  0.00     0.025 A 
ATOM     13  C   UNL     1     -12.185   4.252  24.052  1.00  0.00     0.016 A 
ATOM     14  C   UNL     1     -13.433   4.746  23.661  1.00  0.00     0.051 A 
ATOM     15  C   UNL     1     -14.075   4.224  22.531  1.00  0.00     0.157 A 
ATOM     16  C   UNL     1     -12.210   2.712  22.181  1.00  0.00     0.062 A 
ATOM     17  C   UNL     1     -13.461   3.209  21.787  1.00  0.00     0.158 A 
BRANCH  15  18
ATOM     18  O   UNL     1     -15.320   4.712  22.139  1.00  0.00    -0.504 OA
ATOM     19  H   UNL     1     -15.461   5.691  21.920  1.00  0.00     0.293 HD
ENDBRANCH  15  18
BRANCH  17  20
ATOM     20  O   UNL     1     -14.097   2.702  20.656  1.00  0.00    -0.504 OA
ATOM     21  H   UNL     1     -14.905   2.094  20.729  1.00  0.00     0.293 HD
ENDBRANCH  17  20
ENDBRANCH   1  12
BRANCH   2  22
ATOM     22  O   UNL     1     -11.139   0.582  24.447  1.00  0.00    -0.502 OA
ATOM     23  H   UNL     1     -11.974   0.869  24.942  1.00  0.00     0.293 HD
ENDBRANCH   2  22
BRANCH   6  24
ATOM     24  O   UNL     1      -5.856   0.311  25.075  1.00  0.00    -0.507 OA
ATOM     25  H   UNL     1      -5.950  -0.508  24.493  1.00  0.00     0.293 HD
ENDBRANCH   6  24
BRANCH   8  26
ATOM     26  O   UNL     1      -4.660   4.859  24.103  1.00  0.00    -0.508 OA
ATOM     27  H   UNL     1      -3.687   4.656  24.298  1.00  0.00     0.293 HD
ENDBRANCH   8  26
TORSDOF 6
ENDMDL
MODEL 8
REMARK VINA RESULT:    -5.552      1.908      7.005
REMARK INTER + INTRA:          -6.981
REMARK INTER:                  -7.145
REMARK INTRA:                   0.164
REMARK UNBOUND:                -0.293
REMARK SMILES O=c1c(O)c(-c2ccc(O)c(O)c2)oc2cc(O)cc(O)c12
REMARK SMILES IDX 5 1 3 2 2 3 1 4 22 5 20 6 19 7 17 8 16 9 15 10 14 11 6 12
REMARK SMILES IDX 7 13 8 14 9 15 13 16 11 17 10 18 12 20 4 22 21 24 18 26
REMARK H PARENT 10 19 12 21 4 23 21 25 18 27
REMARK Flexibility Score: inf
ROOT
ATOM      1  C   UNL     1     -12.213   3.004  23.142  1.00  0.00     0.180 A 
ATOM      2  C   UNL     1     -12.833   4.264  23.137  1.00  0.00     0.208 A 
ATOM      3  C   UNL     1     -14.171   4.363  22.721  1.00  0.00     0.238 A 
ATOM      4  O   UNL     1     -14.739   5.484  22.769  1.00  0.00    -0.285 OA
ATOM      5  C   UNL     1     -14.865   3.202  22.300  1.00  0.00     0.111 A 
ATOM      6  C   UNL     1     -16.209   3.191  21.820  1.00  0.00     0.134 A 
ATOM      7  C   UNL     1     -16.838   1.967  21.556  1.00  0.00     0.093 A 
ATOM      8  C   UNL     1     -16.149   0.759  21.691  1.00  0.00     0.123 A 
ATOM      9  C   UNL     1     -14.818   0.765  22.101  1.00  0.00     0.094 A 
ATOM     10  C   UNL     1     -14.175   1.966  22.407  1.00  0.00     0.146 A 
ATOM     11  O   UNL     1     -12.909   1.925  22.805  1.00  0.00    -0.452 OA
ENDROOT
BRANCH   1  12
ATOM     12  C   UNL     1     -10.798   2.825  23.544  1.00  0.00     0.025 A 
ATOM     13  C   UNL     1     -10.411   1.646  24.203  1.00  0.00     0.016 A 
ATOM     14  C   UNL     1      -9.078   1.447  24.572  1.00  0.00     0.051 A 
ATOM     15  C   UNL     1      -8.111   2.416  24.274  1.00  0.00     0.157 A 
ATOM     16  C   UNL     1      -9.820   3.785  23.229  1.00  0.00     0.062 A 
ATOM     17  C   UNL     1      -8.481   3.585  23.597  1.00  0.00     0.158 A 
BRANCH  15  18
ATOM     18  O   UNL     1      -6.781   2.222  24.642  1.00  0.00    -0.504 OA
ATOM     19  H   UNL     1      -6.220   2.977  25.019  1.00  0.00     0.293 HD
ENDBRANCH  15  18
BRANCH  17  20
ATOM     20  O   UNL     1      -7.515   4.540  23.290  1.00  0.00    -0.504 OA
ATOM     21  H   UNL     1      -7.651   5.211  22.543  1.00  0.00     0.293 HD
ENDBRANCH  17  20
ENDBRANCH   1  12
BRANCH   2  22
ATOM     22  O   UNL     1     -12.138   5.394  23.576  1.00  0.00    -0.502 OA
ATOM     23  H   UNL     1     -12.408   6.334  23.318  1.00  0.00     0.293 HD
ENDBRANCH   2  22
BRANCH   6  24
ATOM     24  O   UNL     1     -16.956   4.344  21.563  1.00  0.00    -0.507 OA
ATOM     25  H   UNL     1     -17.738   4.391  20.928  1.00  0.00     0.293 HD
ENDBRANCH   6  24
BRANCH   8  26
ATOM     26  O   UNL     1     -16.777  -0.452  21.410  1.00  0.00    -0.508 OA
ATOM     27  H   UNL     1     -17.786  -0.524  21.349  1.00  0.00     0.293 HD
ENDBRANCH   8  26
TORSDOF 6
ENDMDL
MODEL 9
REMARK VINA RESULT:    -5.490      2.174      3.959
REMARK INTER + INTRA:          -6.906
REMARK INTER:                  -6.882
REMARK INTRA:                  -0.024
REMARK UNBOUND:                -0.293
REMARK SMILES O=c1c(O)c(-c2ccc(O)c(O)c2)oc2cc(O)cc(O)c12
REMARK SMILES IDX 5 1 3 2 2 3 1 4 22 5 20 6 19 7 17 8 16 9 15 10 14 11 6 12
REMARK SMILES IDX 7 13 8 14 9 15 13 16 11 17 10 18 12 20 4 22 21 24 18 26
REMARK H PARENT 10 19 12 21 4 23 21 25 18 27
REMARK Flexibility Score: inf
ROOT
ATOM      1  C   UNL     1     -14.284   2.329  23.044  1.00  0.00     0.180 A 
ATOM      2  C   UNL     1     -13.981   3.594  23.577  1.00  0.00     0.208 A 
ATOM      3  C   UNL     1     -12.779   4.218  23.209  1.00  0.00     0.238 A 
ATOM      4  O   UNL     1     -12.538   5.373  23.646  1.00  0.00    -0.285 OA
ATOM      5  C   UNL     1     -11.888   3.564  22.324  1.00  0.00     0.111 A 
ATOM      6  C   UNL     1     -10.624   4.085  21.914  1.00  0.00     0.134 A 
ATOM      7  C   UNL     1      -9.885   3.412  20.933  1.00  0.00     0.093 A 
ATOM      8  C   UNL     1     -10.333   2.202  20.396  1.00  0.00     0.123 A 
ATOM      9  C   UNL     1     -11.537   1.656  20.834  1.00  0.00     0.094 A 
ATOM     10  C   UNL     1     -12.314   2.322  21.784  1.00  0.00     0.146 A 
ATOM     11  O   UNL     1     -13.460   1.771  22.166  1.00  0.00    -0.452 OA
ENDROOT
BRANCH   1  12
ATOM     12  C   UNL     1     -15.520   1.598  23.406  1.00  0.00     0.025 A 
ATOM     13  C   UNL     1     -15.828   1.389  24.761  1.00  0.00     0.016 A 
ATOM     14  C   UNL     1     -16.999   0.719  25.125  1.00  0.00     0.051 A 
ATOM     15  C   UNL     1     -17.887   0.264  24.142  1.00  0.00     0.157 A 
ATOM     16  C   UNL     1     -16.425   1.157  22.423  1.00  0.00     0.062 A 
ATOM     17  C   UNL     1     -17.602   0.487  22.789  1.00  0.00     0.158 A 
BRANCH  15  18
ATOM     18  O   UNL     1     -19.055  -0.405  24.501  1.00  0.00    -0.504 OA
ATOM     19  H   UNL     1     -19.669  -0.813  23.805  1.00  0.00     0.293 HD
ENDBRANCH  15  18
BRANCH  17  20
ATOM     20  O   UNL     1     -18.494   0.046  21.814  1.00  0.00    -0.504 OA
ATOM     21  H   UNL     1     -19.404   0.476  21.694  1.00  0.00     0.293 HD
ENDBRANCH  17  20
ENDBRANCH   1  12
BRANCH   2  22
ATOM     22  O   UNL     1     -14.884   4.232  24.432  1.00  0.00    -0.502 OA
ATOM     23  H   UNL     1     -15.864   4.343  24.204  1.00  0.00     0.293 HD
ENDBRANCH   2  22
BRANCH   6  24
ATOM     24  O   UNL     1     -10.042   5.236  22.453  1.00  0.00    -0.507 OA
ATOM     25  H   UNL     1     -10.464   6.152  22.440  1.00  0.00     0.293 HD
ENDBRANCH   6  24
BRANCH   8  26
ATOM     26  O   UNL     1      -9.584   1.531  19.433  1.00  0.00    -0.508 OA
ATOM     27  H   UNL     1      -9.233   2.005  18.609  1.00  0.00     0.293 HD
ENDBRANCH   8  26
TORSDOF 6
ENDMDL
