MODEL 1
REMARK VINA RESULT:    12.745      0.000      0.000
REMARK INTER + INTRA:          27.700
REMARK INTER:                  29.138
REMARK INTRA:                  -1.438
REMARK UNBOUND:                -1.438
REMARK SMILES CCCCCCCCCCCCCCCCCCCCCCCC(=O)[O-]
REMARK SMILES IDX 13 1 14 2 15 3 16 4 17 5 18 6 19 7 20 8 21 9 22 10 23 11
REMARK SMILES IDX 24 12 25 13 26 14 12 15 11 16 10 17 9 18 8 19 7 20 6 21 5 22
REMARK SMILES IDX 4 23 3 24 2 25 1 26
REMARK H PARENT
REMARK Flexibility Score: inf
ROOT
ATOM      1  C   UNL     1      34.876  13.373  40.901  1.00  0.00     0.000 C 
ENDROOT
BRANCH   1   2
ATOM      2  C   UNL     1      34.290  12.066  40.323  1.00  0.00     0.000 C 
BRANCH   2   3
ATOM      3  C   UNL     1      33.189  11.474  41.220  1.00  0.00     0.000 C 
BRANCH   3   4
ATOM      4  C   UNL     1      32.527  10.221  40.619  1.00  0.00     0.000 C 
BRANCH   4   5
ATOM      5  C   UNL     1      33.415   9.400  39.666  1.00  0.00     0.000 C 
BRANCH   5   6
ATOM      6  C   UNL     1      34.336   8.413  40.401  1.00  0.00     0.000 C 
BRANCH   6   7
ATOM      7  C   UNL     1      34.197   6.971  39.883  1.00  0.00     0.000 C 
BRANCH   7   8
ATOM      8  C   UNL     1      34.118   5.914  41.005  1.00  0.00     0.000 C 
BRANCH   8   9
ATOM      9  C   UNL     1      32.860   5.034  40.886  1.00  0.00     0.000 C 
BRANCH   9  10
ATOM     10  C   UNL     1      31.746   5.447  41.868  1.00  0.00     0.006 C 
BRANCH  10  11
ATOM     11  C   UNL     1      30.341   4.980  41.446  1.00  0.00     0.053 C 
BRANCH  11  12
ATOM     12  C   UNL     1      29.255   5.854  41.992  1.00  0.00     0.041 C 
ATOM     13  O   UNL     1      29.084   7.016  41.536  1.00  0.00    -0.550 OA
ATOM     14  O   UNL     1      28.422   5.382  43.000  1.00  0.00    -0.550 OA
ENDBRANCH  11  12
ENDBRANCH  10  11
ENDBRANCH   9  10
ENDBRANCH   8   9
ENDBRANCH   7   8
ENDBRANCH   6   7
ENDBRANCH   5   6
ENDBRANCH   4   5
ENDBRANCH   3   4
ENDBRANCH   2   3
ENDBRANCH   1   2
BRANCH   1  15
ATOM     15  C   UNL     1      35.008  13.373  42.437  1.00  0.00     0.000 C 
BRANCH  15  16
ATOM     16  C   UNL     1      36.353  13.888  42.977  1.00  0.00     0.000 C 
BRANCH  16  17
ATOM     17  C   UNL     1      36.197  15.105  43.906  1.00  0.00     0.000 C 
BRANCH  17  18
ATOM     18  C   UNL     1      34.894  15.878  43.650  1.00  0.00    -0.000 C 
BRANCH  18  19
ATOM     19  C   UNL     1      35.091  17.402  43.687  1.00  0.00    -0.000 C 
BRANCH  19  20
ATOM     20  C   UNL     1      35.011  18.001  42.274  1.00  0.00    -0.000 C 
BRANCH  20  21
ATOM     21  C   UNL     1      33.828  17.453  41.462  1.00  0.00    -0.000 C 
BRANCH  21  22
ATOM     22  C   UNL     1      34.137  17.352  39.957  1.00  0.00    -0.000 C 
BRANCH  22  23
ATOM     23  C   UNL     1      33.275  18.304  39.112  1.00  0.00    -0.000 C 
BRANCH  23  24
ATOM     24  C   UNL     1      32.155  17.572  38.352  1.00  0.00    -0.000 C 
BRANCH  24  25
ATOM     25  C   UNL     1      31.478  18.467  37.300  1.00  0.00    -0.003 C 
ATOM     26  C   UNL     1      30.838  19.716  37.907  1.00  0.00     0.004 C 
ENDBRANCH  24  25
ENDBRANCH  23  24
ENDBRANCH  22  23
ENDBRANCH  21  22
ENDBRANCH  20  21
ENDBRANCH  19  20
ENDBRANCH  18  19
ENDBRANCH  17  18
ENDBRANCH  16  17
ENDBRANCH  15  16
ENDBRANCH   1  15
TORSDOF 22
ENDMDL
MODEL 2
REMARK VINA RESULT:    12.924      0.619      1.014
REMARK INTER + INTRA:          28.109
REMARK INTER:                  29.283
REMARK INTRA:                  -1.174
REMARK UNBOUND:                -1.438
REMARK SMILES CCCCCCCCCCCCCCCCCCCCCCCC(=O)[O-]
REMARK SMILES IDX 13 1 14 2 15 3 16 4 17 5 18 6 19 7 20 8 21 9 22 10 23 11
REMARK SMILES IDX 24 12 25 13 26 14 12 15 11 16 10 17 9 18 8 19 7 20 6 21 5 22
REMARK SMILES IDX 4 23 3 24 2 25 1 26
REMARK H PARENT
REMARK Flexibility Score: inf
ROOT
ATOM      1  C   UNL     1      34.242  12.528  40.737  1.00  0.00     0.000 C 
ENDROOT
BRANCH   1   2
ATOM      2  C   UNL     1      33.743  11.339  41.585  1.00  0.00     0.000 C 
BRANCH   2   3
ATOM      3  C   UNL     1      32.518  10.649  40.958  1.00  0.00     0.000 C 
BRANCH   3   4
ATOM      4  C   UNL     1      32.848   9.894  39.658  1.00  0.00     0.000 C 
BRANCH   4   5
ATOM      5  C   UNL     1      34.250   9.260  39.602  1.00  0.00     0.000 C 
BRANCH   5   6
ATOM      6  C   UNL     1      34.442   8.132  40.628  1.00  0.00     0.000 C 
BRANCH   6   7
ATOM      7  C   UNL     1      34.115   6.743  40.053  1.00  0.00     0.000 C 
BRANCH   7   8
ATOM      8  C   UNL     1      34.011   5.637  41.124  1.00  0.00     0.000 C 
BRANCH   8   9
ATOM      9  C   UNL     1      32.707   4.828  40.998  1.00  0.00     0.000 C 
BRANCH   9  10
ATOM     10  C   UNL     1      31.446   5.682  41.232  1.00  0.00     0.006 C 
BRANCH  10  11
ATOM     11  C   UNL     1      30.272   4.903  41.851  1.00  0.00     0.053 C 
BRANCH  11  12
ATOM     12  C   UNL     1      29.104   5.782  42.177  1.00  0.00     0.041 C 
ATOM     13  O   UNL     1      28.216   5.388  42.978  1.00  0.00    -0.550 OA
ATOM     14  O   UNL     1      29.001   7.044  41.603  1.00  0.00    -0.550 OA
ENDBRANCH  11  12
ENDBRANCH  10  11
ENDBRANCH   9  10
ENDBRANCH   8   9
ENDBRANCH   7   8
ENDBRANCH   6   7
ENDBRANCH   5   6
ENDBRANCH   4   5
ENDBRANCH   3   4
ENDBRANCH   2   3
ENDBRANCH   1   2
BRANCH   1  15
ATOM     15  C   UNL     1      35.523  13.192  41.283  1.00  0.00     0.000 C 
BRANCH  15  16
ATOM     16  C   UNL     1      35.632  13.242  42.815  1.00  0.00     0.000 C 
BRANCH  16  17
ATOM     17  C   UNL     1      36.063  14.623  43.339  1.00  0.00     0.000 C 
BRANCH  17  18
ATOM     18  C   UNL     1      34.866  15.512  43.709  1.00  0.00    -0.000 C 
BRANCH  18  19
ATOM     19  C   UNL     1      35.286  16.934  44.114  1.00  0.00    -0.000 C 
BRANCH  19  20
ATOM     20  C   UNL     1      35.199  17.895  42.918  1.00  0.00    -0.000 C 
BRANCH  20  21
ATOM     21  C   UNL     1      34.013  17.584  41.991  1.00  0.00    -0.000 C 
BRANCH  21  22
ATOM     22  C   UNL     1      34.279  17.992  40.531  1.00  0.00    -0.000 C 
BRANCH  22  23
ATOM     23  C   UNL     1      33.256  17.388  39.554  1.00  0.00    -0.000 C 
BRANCH  23  24
ATOM     24  C   UNL     1      33.084  18.234  38.280  1.00  0.00    -0.000 C 
BRANCH  24  25
ATOM     25  C   UNL     1      31.737  17.977  37.584  1.00  0.00    -0.003 C 
ATOM     26  C   UNL     1      30.789  19.173  37.665  1.00  0.00     0.004 C 
ENDBRANCH  24  25
ENDBRANCH  23  24
ENDBRANCH  22  23
ENDBRANCH  21  22
ENDBRANCH  20  21
ENDBRANCH  19  20
ENDBRANCH  18  19
ENDBRANCH  17  18
ENDBRANCH  16  17
ENDBRANCH  15  16
ENDBRANCH   1  15
TORSDOF 22
ENDMDL
MODEL 3
REMARK VINA RESULT:    13.018      3.546     10.596
REMARK INTER + INTRA:          28.324
REMARK INTER:                  29.898
REMARK INTRA:                  -1.574
REMARK UNBOUND:                -1.438
REMARK SMILES CCCCCCCCCCCCCCCCCCCCCCCC(=O)[O-]
REMARK SMILES IDX 13 1 14 2 15 3 16 4 17 5 18 6 19 7 20 8 21 9 22 10 23 11
REMARK SMILES IDX 24 12 25 13 26 14 12 15 11 16 10 17 9 18 8 19 7 20 6 21 5 22
REMARK SMILES IDX 4 23 3 24 2 25 1 26
REMARK H PARENT
REMARK Flexibility Score: inf
ROOT
ATOM      1  C   UNL     1      33.827  12.635  40.780  1.00  0.00     0.000 C 
ENDROOT
BRANCH   1   2
ATOM      2  C   UNL     1      35.255  13.091  41.150  1.00  0.00     0.000 C 
BRANCH   2   3
ATOM      3  C   UNL     1      35.551  12.921  42.650  1.00  0.00     0.000 C 
BRANCH   3   4
ATOM      4  C   UNL     1      35.922  14.242  43.348  1.00  0.00     0.000 C 
BRANCH   4   5
ATOM      5  C   UNL     1      34.832  15.329  43.322  1.00  0.00     0.000 C 
BRANCH   5   6
ATOM      6  C   UNL     1      35.384  16.743  43.565  1.00  0.00     0.000 C 
BRANCH   6   7
ATOM      7  C   UNL     1      34.673  17.813  42.718  1.00  0.00     0.000 C 
BRANCH   7   8
ATOM      8  C   UNL     1      34.016  17.255  41.438  1.00  0.00     0.000 C 
BRANCH   8   9
ATOM      9  C   UNL     1      34.193  18.201  40.235  1.00  0.00     0.000 C 
BRANCH   9  10
ATOM     10  C   UNL     1      33.262  17.853  39.057  1.00  0.00     0.006 C 
BRANCH  10  11
ATOM     11  C   UNL     1      32.003  18.733  38.979  1.00  0.00     0.053 C 
BRANCH  11  12
ATOM     12  C   UNL     1      31.312  18.636  37.654  1.00  0.00     0.041 C 
ATOM     13  O   UNL     1      31.027  19.679  37.007  1.00  0.00    -0.550 OA
ATOM     14  O   UNL     1      30.991  17.391  37.126  1.00  0.00    -0.550 OA
ENDBRANCH  11  12
ENDBRANCH  10  11
ENDBRANCH   9  10
ENDBRANCH   8   9
ENDBRANCH   7   8
ENDBRANCH   6   7
ENDBRANCH   5   6
ENDBRANCH   4   5
ENDBRANCH   3   4
ENDBRANCH   2   3
ENDBRANCH   1   2
BRANCH   1  15
ATOM     15  C   UNL     1      33.235  11.589  41.746  1.00  0.00     0.000 C 
BRANCH  15  16
ATOM     16  C   UNL     1      32.629  10.346  41.074  1.00  0.00     0.000 C 
BRANCH  16  17
ATOM     17  C   UNL     1      33.060  10.192  39.605  1.00  0.00     0.000 C 
BRANCH  17  18
ATOM     18  C   UNL     1      34.275   9.265  39.442  1.00  0.00    -0.000 C 
BRANCH  18  19
ATOM     19  C   UNL     1      34.337   8.173  40.521  1.00  0.00    -0.000 C 
BRANCH  19  20
ATOM     20  C   UNL     1      33.955   6.802  39.939  1.00  0.00    -0.000 C 
BRANCH  20  21
ATOM     21  C   UNL     1      33.938   5.691  41.000  1.00  0.00    -0.000 C 
BRANCH  21  22
ATOM     22  C   UNL     1      32.615   4.903  41.013  1.00  0.00    -0.000 C 
BRANCH  22  23
ATOM     23  C   UNL     1      31.489   5.654  41.743  1.00  0.00    -0.000 C 
BRANCH  23  24
ATOM     24  C   UNL     1      30.166   4.867  41.758  1.00  0.00    -0.000 C 
BRANCH  24  25
ATOM     25  C   UNL     1      28.970   5.741  42.171  1.00  0.00    -0.003 C 
ATOM     26  C   UNL     1      28.975   7.112  41.495  1.00  0.00     0.004 C 
ENDBRANCH  24  25
ENDBRANCH  23  24
ENDBRANCH  22  23
ENDBRANCH  21  22
ENDBRANCH  20  21
ENDBRANCH  19  20
ENDBRANCH  18  19
ENDBRANCH  17  18
ENDBRANCH  16  17
ENDBRANCH  15  16
ENDBRANCH   1  15
TORSDOF 22
ENDMDL
MODEL 4
REMARK VINA RESULT:    13.735      0.926      2.554
REMARK INTER + INTRA:          29.962
REMARK INTER:                  31.755
REMARK INTRA:                  -1.793
REMARK UNBOUND:                -1.438
REMARK SMILES CCCCCCCCCCCCCCCCCCCCCCCC(=O)[O-]
REMARK SMILES IDX 13 1 14 2 15 3 16 4 17 5 18 6 19 7 20 8 21 9 22 10 23 11
REMARK SMILES IDX 24 12 25 13 26 14 12 15 11 16 10 17 9 18 8 19 7 20 6 21 5 22
REMARK SMILES IDX 4 23 3 24 2 25 1 26
REMARK H PARENT
REMARK Flexibility Score: inf
ROOT
ATOM      1  C   UNL     1      32.801  11.012  40.997  1.00  0.00     0.000 C 
ENDROOT
BRANCH   1   2
ATOM      2  C   UNL     1      32.640   9.695  40.206  1.00  0.00     0.000 C 
BRANCH   2   3
ATOM      3  C   UNL     1      33.835   9.425  39.275  1.00  0.00     0.000 C 
BRANCH   3   4
ATOM      4  C   UNL     1      35.105   8.990  40.029  1.00  0.00     0.000 C 
BRANCH   4   5
ATOM      5  C   UNL     1      34.862   8.300  41.384  1.00  0.00     0.000 C 
BRANCH   5   6
ATOM      6  C   UNL     1      35.745   7.060  41.596  1.00  0.00     0.000 C 
BRANCH   6   7
ATOM      7  C   UNL     1      34.984   5.742  41.370  1.00  0.00     0.000 C 
BRANCH   7   8
ATOM      8  C   UNL     1      33.496   5.938  41.008  1.00  0.00     0.000 C 
BRANCH   8   9
ATOM      9  C   UNL     1      32.702   4.621  41.080  1.00  0.00     0.000 C 
BRANCH   9  10
ATOM     10  C   UNL     1      31.178   4.836  41.002  1.00  0.00     0.006 C 
BRANCH  10  11
ATOM     11  C   UNL     1      30.579   5.506  42.252  1.00  0.00     0.053 C 
BRANCH  11  12
ATOM     12  C   UNL     1      29.203   6.047  42.013  1.00  0.00     0.041 C 
ATOM     13  O   UNL     1      28.190   5.349  42.283  1.00  0.00    -0.550 OA
ATOM     14  O   UNL     1      29.039   7.328  41.499  1.00  0.00    -0.550 OA
ENDBRANCH  11  12
ENDBRANCH  10  11
ENDBRANCH   9  10
ENDBRANCH   8   9
ENDBRANCH   7   8
ENDBRANCH   6   7
ENDBRANCH   5   6
ENDBRANCH   4   5
ENDBRANCH   3   4
ENDBRANCH   2   3
ENDBRANCH   1   2
BRANCH   1  15
ATOM     15  C   UNL     1      33.271  12.203  40.138  1.00  0.00     0.000 C 
BRANCH  15  16
ATOM     16  C   UNL     1      34.654  12.767  40.502  1.00  0.00     0.000 C 
BRANCH  16  17
ATOM     17  C   UNL     1      34.964  12.667  42.005  1.00  0.00     0.000 C 
BRANCH  17  18
ATOM     18  C   UNL     1      36.318  13.296  42.371  1.00  0.00    -0.000 C 
BRANCH  18  19
ATOM     19  C   UNL     1      36.192  14.393  43.440  1.00  0.00    -0.000 C 
BRANCH  19  20
ATOM     20  C   UNL     1      34.787  15.016  43.427  1.00  0.00    -0.000 C 
BRANCH  20  21
ATOM     21  C   UNL     1      34.787  16.490  43.859  1.00  0.00    -0.000 C 
BRANCH  21  22
ATOM     22  C   UNL     1      34.899  17.457  42.666  1.00  0.00    -0.000 C 
BRANCH  22  23
ATOM     23  C   UNL     1      33.962  17.077  41.508  1.00  0.00    -0.000 C 
BRANCH  23  24
ATOM     24  C   UNL     1      33.927  18.143  40.399  1.00  0.00    -0.000 C 
BRANCH  24  25
ATOM     25  C   UNL     1      33.472  17.569  39.047  1.00  0.00    -0.003 C 
ATOM     26  C   UNL     1      32.304  18.345  38.436  1.00  0.00     0.004 C 
ENDBRANCH  24  25
ENDBRANCH  23  24
ENDBRANCH  22  23
ENDBRANCH  21  22
ENDBRANCH  20  21
ENDBRANCH  19  20
ENDBRANCH  18  19
ENDBRANCH  17  18
ENDBRANCH  16  17
ENDBRANCH  15  16
ENDBRANCH   1  15
TORSDOF 22
ENDMDL
MODEL 5
REMARK VINA RESULT:    13.739      1.470      2.108
REMARK INTER + INTRA:          29.972
REMARK INTER:                  31.113
REMARK INTRA:                  -1.141
REMARK UNBOUND:                -1.438
REMARK SMILES CCCCCCCCCCCCCCCCCCCCCCCC(=O)[O-]
REMARK SMILES IDX 13 1 14 2 15 3 16 4 17 5 18 6 19 7 20 8 21 9 22 10 23 11
REMARK SMILES IDX 24 12 25 13 26 14 12 15 11 16 10 17 9 18 8 19 7 20 6 21 5 22
REMARK SMILES IDX 4 23 3 24 2 25 1 26
REMARK H PARENT
REMARK Flexibility Score: inf
ROOT
ATOM      1  C   UNL     1      35.295  13.614  42.513  1.00  0.00     0.000 C 
ENDROOT
BRANCH   1   2
ATOM      2  C   UNL     1      35.592  12.868  41.195  1.00  0.00     0.000 C 
BRANCH   2   3
ATOM      3  C   UNL     1      34.503  13.103  40.133  1.00  0.00     0.000 C 
BRANCH   3   4
ATOM      4  C   UNL     1      33.220  12.291  40.392  1.00  0.00     0.000 C 
BRANCH   4   5
ATOM      5  C   UNL     1      33.370  11.121  41.382  1.00  0.00     0.000 C 
BRANCH   5   6
ATOM      6  C   UNL     1      33.900   9.838  40.723  1.00  0.00     0.000 C 
BRANCH   6   7
ATOM      7  C   UNL     1      33.010   9.351  39.567  1.00  0.00     0.000 C 
BRANCH   7   8
ATOM      8  C   UNL     1      31.507   9.307  39.918  1.00  0.00     0.000 C 
BRANCH   8   9
ATOM      9  C   UNL     1      31.150   8.088  40.788  1.00  0.00     0.000 C 
BRANCH   9  10
ATOM     10  C   UNL     1      29.666   8.063  41.205  1.00  0.00     0.006 C 
BRANCH  10  11
ATOM     11  C   UNL     1      28.994   6.690  41.033  1.00  0.00     0.053 C 
BRANCH  11  12
ATOM     12  C   UNL     1      29.446   5.694  42.056  1.00  0.00     0.041 C 
ATOM     13  O   UNL     1      28.709   5.412  43.038  1.00  0.00    -0.550 OA
ATOM     14  O   UNL     1      30.679   5.068  41.920  1.00  0.00    -0.550 OA
ENDBRANCH  11  12
ENDBRANCH  10  11
ENDBRANCH   9  10
ENDBRANCH   8   9
ENDBRANCH   7   8
ENDBRANCH   6   7
ENDBRANCH   5   6
ENDBRANCH   4   5
ENDBRANCH   3   4
ENDBRANCH   2   3
ENDBRANCH   1   2
BRANCH   1  15
ATOM     15  C   UNL     1      36.552  13.949  43.340  1.00  0.00     0.000 C 
BRANCH  15  16
ATOM     16  C   UNL     1      36.601  15.377  43.909  1.00  0.00     0.000 C 
BRANCH  16  17
ATOM     17  C   UNL     1      35.305  16.165  43.656  1.00  0.00     0.000 C 
BRANCH  17  18
ATOM     18  C   UNL     1      35.512  17.685  43.753  1.00  0.00    -0.000 C 
BRANCH  18  19
ATOM     19  C   UNL     1      34.839  18.450  42.603  1.00  0.00    -0.000 C 
BRANCH  19  20
ATOM     20  C   UNL     1      34.151  17.482  41.627  1.00  0.00    -0.000 C 
BRANCH  20  21
ATOM     21  C   UNL     1      33.216  18.198  40.640  1.00  0.00    -0.000 C 
BRANCH  21  22
ATOM     22  C   UNL     1      33.646  18.012  39.174  1.00  0.00    -0.000 C 
BRANCH  22  23
ATOM     23  C   UNL     1      32.588  17.272  38.337  1.00  0.00    -0.000 C 
BRANCH  23  24
ATOM     24  C   UNL     1      32.040  18.130  37.184  1.00  0.00    -0.000 C 
BRANCH  24  25
ATOM     25  C   UNL     1      30.793  18.932  37.591  1.00  0.00    -0.003 C 
ATOM     26  C   UNL     1      31.134  20.305  38.170  1.00  0.00     0.004 C 
ENDBRANCH  24  25
ENDBRANCH  23  24
ENDBRANCH  22  23
ENDBRANCH  21  22
ENDBRANCH  20  21
ENDBRANCH  19  20
ENDBRANCH  18  19
ENDBRANCH  17  18
ENDBRANCH  16  17
ENDBRANCH  15  16
ENDBRANCH   1  15
TORSDOF 22
ENDMDL
MODEL 6
REMARK VINA RESULT:    13.836      3.810     10.594
REMARK INTER + INTRA:          30.193
REMARK INTER:                  31.650
REMARK INTRA:                  -1.457
REMARK UNBOUND:                -1.438
REMARK SMILES CCCCCCCCCCCCCCCCCCCCCCCC(=O)[O-]
REMARK SMILES IDX 13 1 14 2 15 3 16 4 17 5 18 6 19 7 20 8 21 9 22 10 23 11
REMARK SMILES IDX 24 12 25 13 26 14 12 15 11 16 10 17 9 18 8 19 7 20 6 21 5 22
REMARK SMILES IDX 4 23 3 24 2 25 1 26
REMARK H PARENT
REMARK Flexibility Score: inf
ROOT
ATOM      1  C   UNL     1      34.469  13.052  40.459  1.00  0.00     0.000 C 
ENDROOT
BRANCH   1   2
ATOM      2  C   UNL     1      35.716  13.029  41.370  1.00  0.00     0.000 C 
BRANCH   2   3
ATOM      3  C   UNL     1      35.387  13.435  42.818  1.00  0.00     0.000 C 
BRANCH   3   4
ATOM      4  C   UNL     1      36.508  14.251  43.487  1.00  0.00     0.000 C 
BRANCH   4   5
ATOM      5  C   UNL     1      36.211  15.751  43.670  1.00  0.00     0.000 C 
BRANCH   5   6
ATOM      6  C   UNL     1      34.735  16.107  43.429  1.00  0.00     0.000 C 
BRANCH   6   7
ATOM      7  C   UNL     1      34.557  17.466  42.731  1.00  0.00     0.000 C 
BRANCH   7   8
ATOM      8  C   UNL     1      33.647  17.408  41.485  1.00  0.00     0.000 C 
BRANCH   8   9
ATOM      9  C   UNL     1      34.454  17.253  40.183  1.00  0.00     0.000 C 
BRANCH   9  10
ATOM     10  C   UNL     1      33.836  18.023  39.000  1.00  0.00     0.006 C 
BRANCH  10  11
ATOM     11  C   UNL     1      32.324  18.271  39.140  1.00  0.00     0.053 C 
BRANCH  11  12
ATOM     12  C   UNL     1      31.670  18.606  37.835  1.00  0.00     0.041 C 
ATOM     13  O   UNL     1      31.788  17.833  36.848  1.00  0.00    -0.550 OA
ATOM     14  O   UNL     1      30.922  19.771  37.711  1.00  0.00    -0.550 OA
ENDBRANCH  11  12
ENDBRANCH  10  11
ENDBRANCH   9  10
ENDBRANCH   8   9
ENDBRANCH   7   8
ENDBRANCH   6   7
ENDBRANCH   5   6
ENDBRANCH   4   5
ENDBRANCH   3   4
ENDBRANCH   2   3
ENDBRANCH   1   2
BRANCH   1  15
ATOM     15  C   UNL     1      33.368  12.058  40.879  1.00  0.00     0.000 C 
BRANCH  15  16
ATOM     16  C   UNL     1      33.875  10.701  41.396  1.00  0.00     0.000 C 
BRANCH  16  17
ATOM     17  C   UNL     1      33.946   9.630  40.293  1.00  0.00     0.000 C 
BRANCH  17  18
ATOM     18  C   UNL     1      32.584   9.378  39.628  1.00  0.00    -0.000 C 
BRANCH  18  19
ATOM     19  C   UNL     1      31.420   9.409  40.631  1.00  0.00    -0.000 C 
BRANCH  19  20
ATOM     20  C   UNL     1      30.286   8.471  40.187  1.00  0.00    -0.000 C 
BRANCH  20  21
ATOM     21  C   UNL     1      29.398   8.017  41.356  1.00  0.00    -0.000 C 
BRANCH  21  22
ATOM     22  C   UNL     1      28.820   6.606  41.148  1.00  0.00    -0.000 C 
BRANCH  22  23
ATOM     23  C   UNL     1      28.957   5.721  42.399  1.00  0.00    -0.000 C 
BRANCH  23  24
ATOM     24  C   UNL     1      30.292   4.957  42.439  1.00  0.00    -0.000 C 
BRANCH  24  25
ATOM     25  C   UNL     1      30.946   4.846  41.052  1.00  0.00    -0.003 C 
ATOM     26  C   UNL     1      32.474   4.862  41.114  1.00  0.00     0.004 C 
ENDBRANCH  24  25
ENDBRANCH  23  24
ENDBRANCH  22  23
ENDBRANCH  21  22
ENDBRANCH  20  21
ENDBRANCH  19  20
ENDBRANCH  18  19
ENDBRANCH  17  18
ENDBRANCH  16  17
ENDBRANCH  15  16
ENDBRANCH   1  15
TORSDOF 22
ENDMDL
MODEL 7
REMARK VINA RESULT:    13.923      4.458     10.394
REMARK INTER + INTRA:          30.392
REMARK INTER:                  31.952
REMARK INTRA:                  -1.561
REMARK UNBOUND:                -1.438
REMARK SMILES CCCCCCCCCCCCCCCCCCCCCCCC(=O)[O-]
REMARK SMILES IDX 13 1 14 2 15 3 16 4 17 5 18 6 19 7 20 8 21 9 22 10 23 11
REMARK SMILES IDX 24 12 25 13 26 14 12 15 11 16 10 17 9 18 8 19 7 20 6 21 5 22
REMARK SMILES IDX 4 23 3 24 2 25 1 26
REMARK H PARENT
REMARK Flexibility Score: inf
ROOT
ATOM      1  C   UNL     1      35.071  13.040  40.894  1.00  0.00     0.000 C 
ENDROOT
BRANCH   1   2
ATOM      2  C   UNL     1      34.975  13.268  42.418  1.00  0.00     0.000 C 
BRANCH   2   3
ATOM      3  C   UNL     1      36.325  13.681  43.031  1.00  0.00     0.000 C 
BRANCH   3   4
ATOM      4  C   UNL     1      36.286  15.065  43.705  1.00  0.00     0.000 C 
BRANCH   4   5
ATOM      5  C   UNL     1      34.939  15.805  43.612  1.00  0.00     0.000 C 
BRANCH   5   6
ATOM      6  C   UNL     1      35.088  17.334  43.635  1.00  0.00     0.000 C 
BRANCH   6   7
ATOM      7  C   UNL     1      34.892  17.972  42.250  1.00  0.00     0.000 C 
BRANCH   7   8
ATOM      8  C   UNL     1      33.667  17.428  41.483  1.00  0.00     0.000 C 
BRANCH   8   9
ATOM      9  C   UNL     1      34.014  17.041  40.034  1.00  0.00     0.000 C 
BRANCH   9  10
ATOM     10  C   UNL     1      33.762  18.184  39.032  1.00  0.00     0.006 C 
BRANCH  10  11
ATOM     11  C   UNL     1      32.347  18.784  39.115  1.00  0.00     0.053 C 
BRANCH  11  12
ATOM     12  C   UNL     1      31.588  18.653  37.831  1.00  0.00     0.041 C 
ATOM     13  O   UNL     1      31.857  17.723  37.025  1.00  0.00    -0.550 OA
ATOM     14  O   UNL     1      30.575  19.554  37.527  1.00  0.00    -0.550 OA
ENDBRANCH  11  12
ENDBRANCH  10  11
ENDBRANCH   9  10
ENDBRANCH   8   9
ENDBRANCH   7   8
ENDBRANCH   6   7
ENDBRANCH   5   6
ENDBRANCH   4   5
ENDBRANCH   3   4
ENDBRANCH   2   3
ENDBRANCH   1   2
BRANCH   1  15
ATOM     15  C   UNL     1      33.768  12.518  40.256  1.00  0.00     0.000 C 
BRANCH  15  16
ATOM     16  C   UNL     1      33.174  11.263  40.916  1.00  0.00     0.000 C 
BRANCH  16  17
ATOM     17  C   UNL     1      33.778   9.957  40.370  1.00  0.00     0.000 C 
BRANCH  17  18
ATOM     18  C   UNL     1      32.945   9.356  39.227  1.00  0.00    -0.000 C 
BRANCH  18  19
ATOM     19  C   UNL     1      31.433   9.509  39.451  1.00  0.00    -0.000 C 
BRANCH  19  20
ATOM     20  C   UNL     1      30.676   9.512  38.113  1.00  0.00    -0.000 C 
BRANCH  20  21
ATOM     21  C   UNL     1      29.460   8.573  38.117  1.00  0.00    -0.000 C 
BRANCH  21  22
ATOM     22  C   UNL     1      28.184   9.253  37.588  1.00  0.00    -0.000 C 
BRANCH  22  23
ATOM     23  C   UNL     1      27.403   8.362  36.608  1.00  0.00    -0.000 C 
BRANCH  23  24
ATOM     24  C   UNL     1      28.142   7.052  36.281  1.00  0.00    -0.000 C 
BRANCH  24  25
ATOM     25  C   UNL     1      27.233   5.819  36.411  1.00  0.00    -0.003 C 
ATOM     26  C   UNL     1      27.919   4.649  37.117  1.00  0.00     0.004 C 
ENDBRANCH  24  25
ENDBRANCH  23  24
ENDBRANCH  22  23
ENDBRANCH  21  22
ENDBRANCH  20  21
ENDBRANCH  19  20
ENDBRANCH  18  19
ENDBRANCH  17  18
ENDBRANCH  16  17
ENDBRANCH  15  16
ENDBRANCH   1  15
TORSDOF 22
ENDMDL
MODEL 8
REMARK VINA RESULT:    14.036      3.992     10.320
REMARK INTER + INTRA:          30.651
REMARK INTER:                  31.631
REMARK INTRA:                  -0.979
REMARK UNBOUND:                -1.438
REMARK SMILES CCCCCCCCCCCCCCCCCCCCCCCC(=O)[O-]
REMARK SMILES IDX 13 1 14 2 15 3 16 4 17 5 18 6 19 7 20 8 21 9 22 10 23 11
REMARK SMILES IDX 24 12 25 13 26 14 12 15 11 16 10 17 9 18 8 19 7 20 6 21 5 22
REMARK SMILES IDX 4 23 3 24 2 25 1 26
REMARK H PARENT
REMARK Flexibility Score: inf
ROOT
ATOM      1  C   UNL     1      35.232  13.476  42.528  1.00  0.00     0.000 C 
ENDROOT
BRANCH   1   2
ATOM      2  C   UNL     1      36.469  13.678  43.431  1.00  0.00     0.000 C 
BRANCH   2   3
ATOM      3  C   UNL     1      36.700  15.159  43.780  1.00  0.00     0.000 C 
BRANCH   3   4
ATOM      4  C   UNL     1      35.399  15.982  43.819  1.00  0.00     0.000 C 
BRANCH   4   5
ATOM      5  C   UNL     1      35.572  17.469  44.180  1.00  0.00     0.000 C 
BRANCH   5   6
ATOM      6  C   UNL     1      35.165  18.416  43.041  1.00  0.00     0.000 C 
BRANCH   6   7
ATOM      7  C   UNL     1      34.239  17.747  42.011  1.00  0.00     0.000 C 
BRANCH   7   8
ATOM      8  C   UNL     1      34.523  18.170  40.554  1.00  0.00     0.000 C 
BRANCH   8   9
ATOM      9  C   UNL     1      33.673  17.379  39.544  1.00  0.00     0.000 C 
BRANCH   9  10
ATOM     10  C   UNL     1      33.078  18.269  38.435  1.00  0.00     0.006 C 
BRANCH  10  11
ATOM     11  C   UNL     1      31.704  17.795  37.927  1.00  0.00     0.053 C 
BRANCH  11  12
ATOM     12  C   UNL     1      30.779  18.932  37.622  1.00  0.00     0.041 C 
ATOM     13  O   UNL     1      29.784  18.758  36.869  1.00  0.00    -0.550 OA
ATOM     14  O   UNL     1      31.008  20.185  38.179  1.00  0.00    -0.550 OA
ENDBRANCH  11  12
ENDBRANCH  10  11
ENDBRANCH   9  10
ENDBRANCH   8   9
ENDBRANCH   7   8
ENDBRANCH   6   7
ENDBRANCH   5   6
ENDBRANCH   4   5
ENDBRANCH   3   4
ENDBRANCH   2   3
ENDBRANCH   1   2
BRANCH   1  15
ATOM     15  C   UNL     1      35.559  12.884  41.142  1.00  0.00     0.000 C 
BRANCH  15  16
ATOM     16  C   UNL     1      34.485  13.109  40.065  1.00  0.00     0.000 C 
BRANCH  16  17
ATOM     17  C   UNL     1      33.239  12.229  40.270  1.00  0.00     0.000 C 
BRANCH  17  18
ATOM     18  C   UNL     1      33.548  10.946  41.059  1.00  0.00    -0.000 C 
BRANCH  18  19
ATOM     19  C   UNL     1      34.062   9.809  40.163  1.00  0.00    -0.000 C 
BRANCH  19  20
ATOM     20  C   UNL     1      32.923   8.848  39.786  1.00  0.00    -0.000 C 
BRANCH  20  21
ATOM     21  C   UNL     1      31.532   9.443  40.056  1.00  0.00    -0.000 C 
BRANCH  21  22
ATOM     22  C   UNL     1      30.790   8.721  41.195  1.00  0.00    -0.000 C 
BRANCH  22  23
ATOM     23  C   UNL     1      29.728   7.736  40.678  1.00  0.00    -0.000 C 
BRANCH  23  24
ATOM     24  C   UNL     1      28.988   7.011  41.815  1.00  0.00    -0.000 C 
BRANCH  24  25
ATOM     25  C   UNL     1      29.263   5.498  41.822  1.00  0.00    -0.003 C 
ATOM     26  C   UNL     1      30.755   5.167  41.839  1.00  0.00     0.004 C 
ENDBRANCH  24  25
ENDBRANCH  23  24
ENDBRANCH  22  23
ENDBRANCH  21  22
ENDBRANCH  20  21
ENDBRANCH  19  20
ENDBRANCH  18  19
ENDBRANCH  17  18
ENDBRANCH  16  17
ENDBRANCH  15  16
ENDBRANCH   1  15
TORSDOF 22
ENDMDL
MODEL 9
REMARK VINA RESULT:    14.840      2.970      5.520
REMARK INTER + INTRA:          32.488
REMARK INTER:                  34.145
REMARK INTRA:                  -1.658
REMARK UNBOUND:                -1.438
REMARK SMILES CCCCCCCCCCCCCCCCCCCCCCCC(=O)[O-]
REMARK SMILES IDX 13 1 14 2 15 3 16 4 17 5 18 6 19 7 20 8 21 9 22 10 23 11
REMARK SMILES IDX 24 12 25 13 26 14 12 15 11 16 10 17 9 18 8 19 7 20 6 21 5 22
REMARK SMILES IDX 4 23 3 24 2 25 1 26
REMARK H PARENT
REMARK Flexibility Score: inf
ROOT
ATOM      1  C   UNL     1      31.831   9.881  38.826  1.00  0.00     0.000 C 
ENDROOT
BRANCH   1   2
ATOM      2  C   UNL     1      30.488   9.121  38.888  1.00  0.00     0.000 C 
BRANCH   2   3
ATOM      3  C   UNL     1      29.752   9.127  37.536  1.00  0.00     0.000 C 
BRANCH   3   4
ATOM      4  C   UNL     1      28.221   9.045  37.680  1.00  0.00     0.000 C 
BRANCH   4   5
ATOM      5  C   UNL     1      27.493   8.298  36.547  1.00  0.00     0.000 C 
BRANCH   5   6
ATOM      6  C   UNL     1      28.144   6.950  36.198  1.00  0.00     0.000 C 
BRANCH   6   7
ATOM      7  C   UNL     1      27.140   5.785  36.202  1.00  0.00     0.000 C 
BRANCH   7   8
ATOM      8  C   UNL     1      27.527   4.635  37.156  1.00  0.00     0.000 C 
BRANCH   8   9
ATOM      9  C   UNL     1      28.732   4.998  38.044  1.00  0.00     0.000 C 
BRANCH   9  10
ATOM     10  C   UNL     1      28.321   5.421  39.468  1.00  0.00     0.006 C 
BRANCH  10  11
ATOM     11  C   UNL     1      29.458   5.319  40.500  1.00  0.00     0.053 C 
BRANCH  11  12
ATOM     12  C   UNL     1      29.177   6.098  41.747  1.00  0.00     0.041 C 
ATOM     13  O   UNL     1      28.919   5.500  42.826  1.00  0.00    -0.550 OA
ATOM     14  O   UNL     1      29.210   7.487  41.722  1.00  0.00    -0.550 OA
ENDBRANCH  11  12
ENDBRANCH  10  11
ENDBRANCH   9  10
ENDBRANCH   8   9
ENDBRANCH   7   8
ENDBRANCH   6   7
ENDBRANCH   5   6
ENDBRANCH   4   5
ENDBRANCH   3   4
ENDBRANCH   2   3
ENDBRANCH   1   2
BRANCH   1  15
ATOM     15  C   UNL     1      33.011   9.118  39.460  1.00  0.00     0.000 C 
BRANCH  15  16
ATOM     16  C   UNL     1      33.893   9.948  40.407  1.00  0.00     0.000 C 
BRANCH  16  17
ATOM     17  C   UNL     1      33.166  11.179  40.976  1.00  0.00     0.000 C 
BRANCH  17  18
ATOM     18  C   UNL     1      33.526  12.473  40.229  1.00  0.00    -0.000 C 
BRANCH  18  19
ATOM     19  C   UNL     1      34.824  13.114  40.744  1.00  0.00    -0.000 C 
BRANCH  19  20
ATOM     20  C   UNL     1      34.852  13.139  42.281  1.00  0.00    -0.000 C 
BRANCH  20  21
ATOM     21  C   UNL     1      36.254  13.422  42.844  1.00  0.00    -0.000 C 
BRANCH  21  22
ATOM     22  C   UNL     1      36.381  14.839  43.433  1.00  0.00    -0.000 C 
BRANCH  22  23
ATOM     23  C   UNL     1      35.083  15.317  44.105  1.00  0.00    -0.000 C 
BRANCH  23  24
ATOM     24  C   UNL     1      34.670  16.730  43.657  1.00  0.00    -0.000 C 
BRANCH  24  25
ATOM     25  C   UNL     1      35.881  17.646  43.415  1.00  0.00    -0.003 C 
ATOM     26  C   UNL     1      35.508  19.128  43.390  1.00  0.00     0.004 C 
ENDBRANCH  24  25
ENDBRANCH  23  24
ENDBRANCH  22  23
ENDBRANCH  21  22
ENDBRANCH  20  21
ENDBRANCH  19  20
ENDBRANCH  18  19
ENDBRANCH  17  18
ENDBRANCH  16  17
ENDBRANCH  15  16
ENDBRANCH   1  15
TORSDOF 22
ENDMDL
