MODEL 1
REMARK VINA RESULT:    -4.600      0.000      0.000
REMARK INTER + INTRA:         -11.675
REMARK INTER:                  -9.978
REMARK INTRA:                  -1.697
REMARK UNBOUND:                -1.697
REMARK SMILES CCCCCCCCCCCCCCCCCCCCCC(=O)[O-]
REMARK SMILES IDX 12 1 11 2 10 3 9 4 8 5 7 6 6 7 5 8 4 9 3 10 2 11 1 12 13 13
REMARK SMILES IDX 14 14 15 15 16 16 17 17 18 18 19 19 20 20 21 21 22 22 23 23
REMARK SMILES IDX 24 24
REMARK H PARENT
REMARK Flexibility Score: inf
ROOT
ATOM      1  C   UNL     1      15.033  22.922 -12.707  1.00  0.00     0.000 C 
ENDROOT
BRANCH   1   2
ATOM      2  C   UNL     1      16.232  21.987 -12.953  1.00  0.00     0.000 C 
BRANCH   2   3
ATOM      3  C   UNL     1      16.155  20.694 -12.124  1.00  0.00     0.000 C 
BRANCH   3   4
ATOM      4  C   UNL     1      17.441  19.855 -12.218  1.00  0.00    -0.000 C 
BRANCH   4   5
ATOM      5  C   UNL     1      18.193  20.069 -13.546  1.00  0.00    -0.000 C 
BRANCH   5   6
ATOM      6  C   UNL     1      19.333  19.055 -13.753  1.00  0.00    -0.000 C 
BRANCH   6   7
ATOM      7  C   UNL     1      18.896  17.580 -13.690  1.00  0.00    -0.000 C 
BRANCH   7   8
ATOM      8  C   UNL     1      20.002  16.658 -13.150  1.00  0.00    -0.000 C 
BRANCH   8   9
ATOM      9  C   UNL     1      20.903  17.347 -12.111  1.00  0.00    -0.000 C 
BRANCH   9  10
ATOM     10  C   UNL     1      20.389  17.216 -10.663  1.00  0.00    -0.000 C 
BRANCH  10  11
ATOM     11  C   UNL     1      21.532  17.250  -9.639  1.00  0.00    -0.003 C 
ATOM     12  C   UNL     1      22.875  16.943 -10.298  1.00  0.00     0.004 C 
ENDBRANCH  10  11
ENDBRANCH   9  10
ENDBRANCH   8   9
ENDBRANCH   7   8
ENDBRANCH   6   7
ENDBRANCH   5   6
ENDBRANCH   4   5
ENDBRANCH   3   4
ENDBRANCH   2   3
ENDBRANCH   1   2
BRANCH   1  13
ATOM     13  C   UNL     1      14.441  23.574 -13.973  1.00  0.00     0.000 C 
BRANCH  13  14
ATOM     14  C   UNL     1      12.905  23.721 -13.984  1.00  0.00     0.000 C 
BRANCH  14  15
ATOM     15  C   UNL     1      12.156  22.765 -13.042  1.00  0.00     0.000 C 
BRANCH  15  16
ATOM     16  C   UNL     1      11.498  23.488 -11.855  1.00  0.00     0.000 C 
BRANCH  16  17
ATOM     17  C   UNL     1      11.732  25.015 -11.904  1.00  0.00     0.000 C 
BRANCH  17  18
ATOM     18  C   UNL     1      12.429  25.574 -10.649  1.00  0.00     0.000 C 
BRANCH  18  19
ATOM     19  C   UNL     1      13.966  25.606 -10.726  1.00  0.00     0.000 C 
BRANCH  19  20
ATOM     20  C   UNL     1      14.617  26.007  -9.394  1.00  0.00     0.006 C 
BRANCH  20  21
ATOM     21  C   UNL     1      13.570  26.120  -8.281  1.00  0.00     0.053 C 
BRANCH  21  22
ATOM     22  C   UNL     1      14.208  25.990  -6.932  1.00  0.00     0.041 C 
ATOM     23  O   UNL     1      15.410  26.325  -6.762  1.00  0.00    -0.550 OA
ATOM     24  O   UNL     1      13.474  25.496  -5.859  1.00  0.00    -0.550 OA
ENDBRANCH  21  22
ENDBRANCH  20  21
ENDBRANCH  19  20
ENDBRANCH  18  19
ENDBRANCH  17  18
ENDBRANCH  16  17
ENDBRANCH  15  16
ENDBRANCH  14  15
ENDBRANCH  13  14
ENDBRANCH   1  13
TORSDOF 20
ENDMDL
MODEL 2
REMARK VINA RESULT:    -4.507      4.013     10.300
REMARK INTER + INTRA:         -11.473
REMARK INTER:                  -9.774
REMARK INTRA:                  -1.699
REMARK UNBOUND:                -1.697
REMARK SMILES CCCCCCCCCCCCCCCCCCCCCC(=O)[O-]
REMARK SMILES IDX 12 1 11 2 10 3 9 4 8 5 7 6 6 7 5 8 4 9 3 10 2 11 1 12 13 13
REMARK SMILES IDX 14 14 15 15 16 16 17 17 18 18 19 19 20 20 21 21 22 22 23 23
REMARK SMILES IDX 24 24
REMARK H PARENT
REMARK Flexibility Score: inf
ROOT
ATOM      1  C   UNL     1      15.454  21.108 -12.005  1.00  0.00     0.000 C 
ENDROOT
BRANCH   1   2
ATOM      2  C   UNL     1      15.602  22.469 -12.712  1.00  0.00     0.000 C 
BRANCH   2   3
ATOM      3  C   UNL     1      14.297  23.282 -12.714  1.00  0.00     0.000 C 
BRANCH   3   4
ATOM      4  C   UNL     1      13.047  22.393 -12.589  1.00  0.00    -0.000 C 
BRANCH   4   5
ATOM      5  C   UNL     1      12.006  22.675 -13.688  1.00  0.00    -0.000 C 
BRANCH   5   6
ATOM      6  C   UNL     1      10.840  23.551 -13.192  1.00  0.00    -0.000 C 
BRANCH   6   7
ATOM      7  C   UNL     1      11.058  25.065 -13.369  1.00  0.00    -0.000 C 
BRANCH   7   8
ATOM      8  C   UNL     1      11.502  25.755 -12.068  1.00  0.00    -0.000 C 
BRANCH   8   9
ATOM      9  C   UNL     1      11.165  24.935 -10.810  1.00  0.00    -0.000 C 
BRANCH   9  10
ATOM     10  C   UNL     1      10.785  25.801  -9.591  1.00  0.00    -0.000 C 
BRANCH  10  11
ATOM     11  C   UNL     1       9.298  25.668  -9.230  1.00  0.00    -0.003 C 
ATOM     12  C   UNL     1       8.460  25.319 -10.457  1.00  0.00     0.004 C 
ENDBRANCH  10  11
ENDBRANCH   9  10
ENDBRANCH   8   9
ENDBRANCH   7   8
ENDBRANCH   6   7
ENDBRANCH   5   6
ENDBRANCH   4   5
ENDBRANCH   3   4
ENDBRANCH   2   3
ENDBRANCH   1   2
BRANCH   1  13
ATOM     13  C   UNL     1      16.647  20.147 -12.178  1.00  0.00     0.000 C 
BRANCH  13  14
ATOM     14  C   UNL     1      17.656  20.537 -13.278  1.00  0.00     0.000 C 
BRANCH  14  15
ATOM     15  C   UNL     1      18.177  19.364 -14.124  1.00  0.00     0.000 C 
BRANCH  15  16
ATOM     16  C   UNL     1      19.548  18.850 -13.654  1.00  0.00     0.000 C 
BRANCH  16  17
ATOM     17  C   UNL     1      19.512  17.348 -13.293  1.00  0.00     0.000 C 
BRANCH  17  18
ATOM     18  C   UNL     1      19.230  17.076 -11.802  1.00  0.00     0.000 C 
BRANCH  18  19
ATOM     19  C   UNL     1      19.538  18.257 -10.863  1.00  0.00     0.000 C 
BRANCH  19  20
ATOM     20  C   UNL     1      20.789  18.020 -10.005  1.00  0.00     0.006 C 
BRANCH  20  21
ATOM     21  C   UNL     1      21.255  16.562 -10.102  1.00  0.00     0.053 C 
BRANCH  21  22
ATOM     22  C   UNL     1      22.225  16.239  -9.008  1.00  0.00     0.041 C 
ATOM     23  O   UNL     1      23.465  16.278  -9.224  1.00  0.00    -0.550 OA
ATOM     24  O   UNL     1      21.758  15.893  -7.744  1.00  0.00    -0.550 OA
ENDBRANCH  21  22
ENDBRANCH  20  21
ENDBRANCH  19  20
ENDBRANCH  18  19
ENDBRANCH  17  18
ENDBRANCH  16  17
ENDBRANCH  15  16
ENDBRANCH  14  15
ENDBRANCH  13  14
ENDBRANCH   1  13
TORSDOF 20
ENDMDL
MODEL 3
REMARK VINA RESULT:    -4.452      3.603      9.478
REMARK INTER + INTRA:         -11.355
REMARK INTER:                  -8.952
REMARK INTRA:                  -2.403
REMARK UNBOUND:                -1.697
REMARK SMILES CCCCCCCCCCCCCCCCCCCCCC(=O)[O-]
REMARK SMILES IDX 12 1 11 2 10 3 9 4 8 5 7 6 6 7 5 8 4 9 3 10 2 11 1 12 13 13
REMARK SMILES IDX 14 14 15 15 16 16 17 17 18 18 19 19 20 20 21 21 22 22 23 23
REMARK SMILES IDX 24 24
REMARK H PARENT
REMARK Flexibility Score: inf
ROOT
ATOM      1  C   UNL     1      14.249  23.326 -12.749  1.00  0.00     0.000 C 
ENDROOT
BRANCH   1   2
ATOM      2  C   UNL     1      12.968  22.484 -12.592  1.00  0.00     0.000 C 
BRANCH   2   3
ATOM      3  C   UNL     1      11.955  22.727 -13.724  1.00  0.00     0.000 C 
BRANCH   3   4
ATOM      4  C   UNL     1      10.857  23.730 -13.329  1.00  0.00    -0.000 C 
BRANCH   4   5
ATOM      5  C   UNL     1      11.155  25.159 -13.820  1.00  0.00    -0.000 C 
BRANCH   5   6
ATOM      6  C   UNL     1      11.677  26.076 -12.699  1.00  0.00    -0.000 C 
BRANCH   6   7
ATOM      7  C   UNL     1      11.357  25.588 -11.274  1.00  0.00    -0.000 C 
BRANCH   7   8
ATOM      8  C   UNL     1      12.546  25.750 -10.312  1.00  0.00    -0.000 C 
BRANCH   8   9
ATOM      9  C   UNL     1      13.695  26.576 -10.915  1.00  0.00    -0.000 C 
BRANCH   9  10
ATOM     10  C   UNL     1      15.093  26.138 -10.428  1.00  0.00    -0.000 C 
BRANCH  10  11
ATOM     11  C   UNL     1      16.146  26.228 -11.541  1.00  0.00    -0.003 C 
ATOM     12  C   UNL     1      15.544  26.786 -12.829  1.00  0.00     0.004 C 
ENDBRANCH  10  11
ENDBRANCH   9  10
ENDBRANCH   8   9
ENDBRANCH   7   8
ENDBRANCH   6   7
ENDBRANCH   5   6
ENDBRANCH   4   5
ENDBRANCH   3   4
ENDBRANCH   2   3
ENDBRANCH   1   2
BRANCH   1  13
ATOM     13  C   UNL     1      15.569  22.540 -12.620  1.00  0.00     0.000 C 
BRANCH  13  14
ATOM     14  C   UNL     1      15.455  21.167 -11.926  1.00  0.00     0.000 C 
BRANCH  14  15
ATOM     15  C   UNL     1      16.592  20.183 -12.246  1.00  0.00     0.000 C 
BRANCH  15  16
ATOM     16  C   UNL     1      17.478  20.651 -13.413  1.00  0.00     0.000 C 
BRANCH  16  17
ATOM     17  C   UNL     1      18.875  19.992 -13.381  1.00  0.00     0.000 C 
BRANCH  17  18
ATOM     18  C   UNL     1      19.003  18.863 -12.340  1.00  0.00     0.000 C 
BRANCH  18  19
ATOM     19  C   UNL     1      19.468  17.511 -12.912  1.00  0.00     0.000 C 
BRANCH  19  20
ATOM     20  C   UNL     1      19.462  16.391 -11.861  1.00  0.00     0.006 C 
BRANCH  20  21
ATOM     21  C   UNL     1      20.889  16.028 -11.435  1.00  0.00     0.053 C 
BRANCH  21  22
ATOM     22  C   UNL     1      21.169  16.507 -10.044  1.00  0.00     0.041 C 
ATOM     23  O   UNL     1      21.442  17.719  -9.831  1.00  0.00    -0.550 OA
ATOM     24  O   UNL     1      21.128  15.614  -8.978  1.00  0.00    -0.550 OA
ENDBRANCH  21  22
ENDBRANCH  20  21
ENDBRANCH  19  20
ENDBRANCH  18  19
ENDBRANCH  17  18
ENDBRANCH  16  17
ENDBRANCH  15  16
ENDBRANCH  14  15
ENDBRANCH  13  14
ENDBRANCH   1  13
TORSDOF 20
ENDMDL
MODEL 4
REMARK VINA RESULT:    -4.451      1.132      2.058
REMARK INTER + INTRA:         -11.353
REMARK INTER:                  -9.653
REMARK INTRA:                  -1.700
REMARK UNBOUND:                -1.697
REMARK SMILES CCCCCCCCCCCCCCCCCCCCCC(=O)[O-]
REMARK SMILES IDX 12 1 11 2 10 3 9 4 8 5 7 6 6 7 5 8 4 9 3 10 2 11 1 12 13 13
REMARK SMILES IDX 14 14 15 15 16 16 17 17 18 18 19 19 20 20 21 21 22 22 23 23
REMARK SMILES IDX 24 24
REMARK H PARENT
REMARK Flexibility Score: inf
ROOT
ATOM      1  C   UNL     1      16.850  21.247 -12.266  1.00  0.00     0.000 C 
ENDROOT
BRANCH   1   2
ATOM      2  C   UNL     1      16.747  19.743 -12.579  1.00  0.00     0.000 C 
BRANCH   2   3
ATOM      3  C   UNL     1      17.520  19.347 -13.849  1.00  0.00     0.000 C 
BRANCH   3   4
ATOM      4  C   UNL     1      18.963  19.879 -13.852  1.00  0.00    -0.000 C 
BRANCH   4   5
ATOM      5  C   UNL     1      19.992  18.804 -13.453  1.00  0.00    -0.000 C 
BRANCH   5   6
ATOM      6  C   UNL     1      19.340  17.445 -13.140  1.00  0.00    -0.000 C 
BRANCH   6   7
ATOM      7  C   UNL     1      19.292  17.089 -11.643  1.00  0.00    -0.000 C 
BRANCH   7   8
ATOM      8  C   UNL     1      20.021  18.123 -10.766  1.00  0.00    -0.000 C 
BRANCH   8   9
ATOM      9  C   UNL     1      21.060  17.486  -9.828  1.00  0.00    -0.000 C 
BRANCH   9  10
ATOM     10  C   UNL     1      22.461  17.348 -10.459  1.00  0.00    -0.000 C 
BRANCH  10  11
ATOM     11  C   UNL     1      23.345  16.354  -9.693  1.00  0.00    -0.003 C 
ATOM     12  C   UNL     1      22.564  15.099  -9.312  1.00  0.00     0.004 C 
ENDBRANCH  10  11
ENDBRANCH   9  10
ENDBRANCH   8   9
ENDBRANCH   7   8
ENDBRANCH   6   7
ENDBRANCH   5   6
ENDBRANCH   4   5
ENDBRANCH   3   4
ENDBRANCH   2   3
ENDBRANCH   1   2
BRANCH   1  13
ATOM     13  C   UNL     1      15.618  22.085 -12.664  1.00  0.00     0.000 C 
BRANCH  13  14
ATOM     14  C   UNL     1      14.289  21.658 -12.007  1.00  0.00     0.000 C 
BRANCH  14  15
ATOM     15  C   UNL     1      13.042  22.383 -12.539  1.00  0.00     0.000 C 
BRANCH  15  16
ATOM     16  C   UNL     1      13.384  23.552 -13.477  1.00  0.00     0.000 C 
BRANCH  16  17
ATOM     17  C   UNL     1      13.004  24.919 -12.862  1.00  0.00     0.000 C 
BRANCH  17  18
ATOM     18  C   UNL     1      14.188  25.649 -12.198  1.00  0.00     0.000 C 
BRANCH  18  19
ATOM     19  C   UNL     1      14.370  25.349 -10.700  1.00  0.00     0.000 C 
BRANCH  19  20
ATOM     20  C   UNL     1      14.125  26.580  -9.815  1.00  0.00     0.006 C 
BRANCH  20  21
ATOM     21  C   UNL     1      14.850  26.446  -8.471  1.00  0.00     0.053 C 
BRANCH  21  22
ATOM     22  C   UNL     1      13.913  25.964  -7.406  1.00  0.00     0.041 C 
ATOM     23  O   UNL     1      14.310  25.844  -6.216  1.00  0.00    -0.550 OA
ATOM     24  O   UNL     1      12.598  25.646  -7.728  1.00  0.00    -0.550 OA
ENDBRANCH  21  22
ENDBRANCH  20  21
ENDBRANCH  19  20
ENDBRANCH  18  19
ENDBRANCH  17  18
ENDBRANCH  16  17
ENDBRANCH  15  16
ENDBRANCH  14  15
ENDBRANCH  13  14
ENDBRANCH   1  13
TORSDOF 20
ENDMDL
MODEL 5
REMARK VINA RESULT:    -4.451      1.530      2.304
REMARK INTER + INTRA:         -11.352
REMARK INTER:                 -10.133
REMARK INTRA:                  -1.219
REMARK UNBOUND:                -1.697
REMARK SMILES CCCCCCCCCCCCCCCCCCCCCC(=O)[O-]
REMARK SMILES IDX 12 1 11 2 10 3 9 4 8 5 7 6 6 7 5 8 4 9 3 10 2 11 1 12 13 13
REMARK SMILES IDX 14 14 15 15 16 16 17 17 18 18 19 19 20 20 21 21 22 22 23 23
REMARK SMILES IDX 24 24
REMARK H PARENT
REMARK Flexibility Score: inf
ROOT
ATOM      1  C   UNL     1      14.900  21.442 -11.928  1.00  0.00     0.000 C 
ENDROOT
BRANCH   1   2
ATOM      2  C   UNL     1      15.927  20.307 -12.098  1.00  0.00     0.000 C 
BRANCH   2   3
ATOM      3  C   UNL     1      17.170  20.746 -12.892  1.00  0.00     0.000 C 
BRANCH   3   4
ATOM      4  C   UNL     1      17.851  19.573 -13.618  1.00  0.00    -0.000 C 
BRANCH   4   5
ATOM      5  C   UNL     1      19.120  19.084 -12.896  1.00  0.00    -0.000 C 
BRANCH   5   6
ATOM      6  C   UNL     1      18.809  18.129 -11.729  1.00  0.00    -0.000 C 
BRANCH   6   7
ATOM      7  C   UNL     1      19.812  18.198 -10.562  1.00  0.00    -0.000 C 
BRANCH   7   8
ATOM      8  C   UNL     1      21.077  17.361 -10.819  1.00  0.00    -0.000 C 
BRANCH   8   9
ATOM      9  C   UNL     1      21.840  17.016  -9.529  1.00  0.00    -0.000 C 
BRANCH   9  10
ATOM     10  C   UNL     1      21.867  15.507  -9.211  1.00  0.00    -0.000 C 
BRANCH  10  11
ATOM     11  C   UNL     1      22.565  15.211  -7.876  1.00  0.00    -0.003 C 
ATOM     12  C   UNL     1      21.856  14.092  -7.117  1.00  0.00     0.004 C 
ENDBRANCH  10  11
ENDBRANCH   9  10
ENDBRANCH   8   9
ENDBRANCH   7   8
ENDBRANCH   6   7
ENDBRANCH   5   6
ENDBRANCH   4   5
ENDBRANCH   3   4
ENDBRANCH   2   3
ENDBRANCH   1   2
BRANCH   1  13
ATOM     13  C   UNL     1      15.211  22.730 -12.716  1.00  0.00     0.000 C 
BRANCH  13  14
ATOM     14  C   UNL     1      14.082  23.782 -12.736  1.00  0.00     0.000 C 
BRANCH  14  15
ATOM     15  C   UNL     1      13.039  23.592 -13.849  1.00  0.00     0.000 C 
BRANCH  15  16
ATOM     16  C   UNL     1      11.786  22.840 -13.372  1.00  0.00     0.000 C 
BRANCH  16  17
ATOM     17  C   UNL     1      11.444  23.158 -11.898  1.00  0.00     0.000 C 
BRANCH  17  18
ATOM     18  C   UNL     1      10.611  24.442 -11.719  1.00  0.00     0.000 C 
BRANCH  18  19
ATOM     19  C   UNL     1      10.976  25.277 -10.478  1.00  0.00     0.000 C 
BRANCH  19  20
ATOM     20  C   UNL     1      12.397  25.855 -10.550  1.00  0.00     0.006 C 
BRANCH  20  21
ATOM     21  C   UNL     1      12.757  26.594  -9.256  1.00  0.00     0.053 C 
BRANCH  21  22
ATOM     22  C   UNL     1      13.998  26.021  -8.643  1.00  0.00     0.041 C 
ATOM     23  O   UNL     1      15.107  26.131  -9.230  1.00  0.00    -0.550 OA
ATOM     24  O   UNL     1      13.929  25.364  -7.419  1.00  0.00    -0.550 OA
ENDBRANCH  21  22
ENDBRANCH  20  21
ENDBRANCH  19  20
ENDBRANCH  18  19
ENDBRANCH  17  18
ENDBRANCH  16  17
ENDBRANCH  15  16
ENDBRANCH  14  15
ENDBRANCH  13  14
ENDBRANCH   1  13
TORSDOF 20
ENDMDL
MODEL 6
REMARK VINA RESULT:    -4.410      3.375     10.226
REMARK INTER + INTRA:         -11.263
REMARK INTER:                  -9.658
REMARK INTRA:                  -1.605
REMARK UNBOUND:                -1.697
REMARK SMILES CCCCCCCCCCCCCCCCCCCCCC(=O)[O-]
REMARK SMILES IDX 12 1 11 2 10 3 9 4 8 5 7 6 6 7 5 8 4 9 3 10 2 11 1 12 13 13
REMARK SMILES IDX 14 14 15 15 16 16 17 17 18 18 19 19 20 20 21 21 22 22 23 23
REMARK SMILES IDX 24 24
REMARK H PARENT
REMARK Flexibility Score: inf
ROOT
ATOM      1  C   UNL     1      14.755  23.065 -12.500  1.00  0.00     0.000 C 
ENDROOT
BRANCH   1   2
ATOM      2  C   UNL     1      13.396  23.678 -12.890  1.00  0.00     0.000 C 
BRANCH   2   3
ATOM      3  C   UNL     1      12.261  22.640 -12.912  1.00  0.00     0.000 C 
BRANCH   3   4
ATOM      4  C   UNL     1      11.029  23.095 -12.111  1.00  0.00    -0.000 C 
BRANCH   4   5
ATOM      5  C   UNL     1      11.261  24.426 -11.371  1.00  0.00    -0.000 C 
BRANCH   5   6
ATOM      6  C   UNL     1      10.280  25.529 -11.811  1.00  0.00    -0.000 C 
BRANCH   6   7
ATOM      7  C   UNL     1       9.946  26.560 -10.718  1.00  0.00    -0.000 C 
BRANCH   7   8
ATOM      8  C   UNL     1       8.917  26.033  -9.703  1.00  0.00    -0.000 C 
BRANCH   8   9
ATOM      9  C   UNL     1       9.543  25.687  -8.341  1.00  0.00    -0.000 C 
BRANCH   9  10
ATOM     10  C   UNL     1      10.733  26.591  -7.959  1.00  0.00    -0.000 C 
BRANCH  10  11
ATOM     11  C   UNL     1      10.617  27.123  -6.523  1.00  0.00    -0.003 C 
ATOM     12  C   UNL     1      11.020  26.059  -5.505  1.00  0.00     0.004 C 
ENDBRANCH  10  11
ENDBRANCH   9  10
ENDBRANCH   8   9
ENDBRANCH   7   8
ENDBRANCH   6   7
ENDBRANCH   5   6
ENDBRANCH   4   5
ENDBRANCH   3   4
ENDBRANCH   2   3
ENDBRANCH   1   2
BRANCH   1  13
ATOM     13  C   UNL     1      14.690  21.624 -11.954  1.00  0.00     0.000 C 
BRANCH  13  14
ATOM     14  C   UNL     1      15.940  20.761 -12.217  1.00  0.00     0.000 C 
BRANCH  14  15
ATOM     15  C   UNL     1      17.060  21.464 -13.001  1.00  0.00     0.000 C 
BRANCH  15  16
ATOM     16  C   UNL     1      18.178  20.503 -13.439  1.00  0.00     0.000 C 
BRANCH  16  17
ATOM     17  C   UNL     1      17.617  19.200 -14.050  1.00  0.00     0.000 C 
BRANCH  17  18
ATOM     18  C   UNL     1      18.602  18.016 -13.993  1.00  0.00     0.000 C 
BRANCH  18  19
ATOM     19  C   UNL     1      20.074  18.413 -13.779  1.00  0.00     0.000 C 
BRANCH  19  20
ATOM     20  C   UNL     1      20.797  17.491 -12.786  1.00  0.00     0.006 C 
BRANCH  20  21
ATOM     21  C   UNL     1      19.818  16.915 -11.756  1.00  0.00     0.053 C 
BRANCH  21  22
ATOM     22  C   UNL     1      19.738  17.796 -10.547  1.00  0.00     0.041 C 
ATOM     23  O   UNL     1      20.553  17.650  -9.598  1.00  0.00    -0.550 OA
ATOM     24  O   UNL     1      18.759  18.781 -10.467  1.00  0.00    -0.550 OA
ENDBRANCH  21  22
ENDBRANCH  20  21
ENDBRANCH  19  20
ENDBRANCH  18  19
ENDBRANCH  17  18
ENDBRANCH  16  17
ENDBRANCH  15  16
ENDBRANCH  14  15
ENDBRANCH  13  14
ENDBRANCH   1  13
TORSDOF 20
ENDMDL
MODEL 7
REMARK VINA RESULT:    -4.370     10.811     12.067
REMARK INTER + INTRA:         -11.177
REMARK INTER:                  -8.474
REMARK INTRA:                  -2.703
REMARK UNBOUND:                -1.697
REMARK SMILES CCCCCCCCCCCCCCCCCCCCCC(=O)[O-]
REMARK SMILES IDX 12 1 11 2 10 3 9 4 8 5 7 6 6 7 5 8 4 9 3 10 2 11 1 12 13 13
REMARK SMILES IDX 14 14 15 15 16 16 17 17 18 18 19 19 20 20 21 21 22 22 23 23
REMARK SMILES IDX 24 24
REMARK H PARENT
REMARK Flexibility Score: inf
ROOT
ATOM      1  C   UNL     1       8.711  13.688  -9.153  1.00  0.00     0.000 C 
ENDROOT
BRANCH   1   2
ATOM      2  C   UNL     1       8.721  12.455 -10.077  1.00  0.00     0.000 C 
BRANCH   2   3
ATOM      3  C   UNL     1       9.984  12.380 -10.952  1.00  0.00     0.000 C 
BRANCH   3   4
ATOM      4  C   UNL     1      11.161  13.173 -10.360  1.00  0.00    -0.000 C 
BRANCH   4   5
ATOM      5  C   UNL     1      12.514  12.463 -10.556  1.00  0.00    -0.000 C 
BRANCH   5   6
ATOM      6  C   UNL     1      12.719  11.295  -9.574  1.00  0.00    -0.000 C 
BRANCH   6   7
ATOM      7  C   UNL     1      13.474  11.669  -8.285  1.00  0.00    -0.000 C 
BRANCH   7   8
ATOM      8  C   UNL     1      12.526  11.975  -7.113  1.00  0.00    -0.000 C 
BRANCH   8   9
ATOM      9  C   UNL     1      11.255  11.108  -7.127  1.00  0.00    -0.000 C 
BRANCH   9  10
ATOM     10  C   UNL     1      10.157  11.604  -6.164  1.00  0.00    -0.000 C 
BRANCH  10  11
ATOM     11  C   UNL     1       9.129  10.508  -5.848  1.00  0.00    -0.003 C 
ATOM     12  C   UNL     1       7.970  10.534  -6.841  1.00  0.00     0.004 C 
ENDBRANCH  10  11
ENDBRANCH   9  10
ENDBRANCH   8   9
ENDBRANCH   7   8
ENDBRANCH   6   7
ENDBRANCH   5   6
ENDBRANCH   4   5
ENDBRANCH   3   4
ENDBRANCH   2   3
ENDBRANCH   1   2
BRANCH   1  13
ATOM     13  C   UNL     1       8.167  14.981  -9.793  1.00  0.00     0.000 C 
BRANCH  13  14
ATOM     14  C   UNL     1       7.505  14.806 -11.175  1.00  0.00     0.000 C 
BRANCH  14  15
ATOM     15  C   UNL     1       5.974  14.948 -11.183  1.00  0.00     0.000 C 
BRANCH  15  16
ATOM     16  C   UNL     1       5.255  13.705 -10.633  1.00  0.00     0.000 C 
BRANCH  16  17
ATOM     17  C   UNL     1       4.291  14.056  -9.477  1.00  0.00     0.000 C 
BRANCH  17  18
ATOM     18  C   UNL     1       4.983  14.154  -8.104  1.00  0.00     0.000 C 
BRANCH  18  19
ATOM     19  C   UNL     1       4.597  15.393  -7.276  1.00  0.00     0.000 C 
BRANCH  19  20
ATOM     20  C   UNL     1       4.956  16.710  -7.980  1.00  0.00     0.006 C 
BRANCH  20  21
ATOM     21  C   UNL     1       4.996  17.874  -6.983  1.00  0.00     0.053 C 
BRANCH  21  22
ATOM     22  C   UNL     1       6.255  17.840  -6.173  1.00  0.00     0.041 C 
ATOM     23  O   UNL     1       6.253  18.236  -4.977  1.00  0.00    -0.550 OA
ATOM     24  O   UNL     1       7.435  17.370  -6.740  1.00  0.00    -0.550 OA
ENDBRANCH  21  22
ENDBRANCH  20  21
ENDBRANCH  19  20
ENDBRANCH  18  19
ENDBRANCH  17  18
ENDBRANCH  16  17
ENDBRANCH  15  16
ENDBRANCH  14  15
ENDBRANCH  13  14
ENDBRANCH   1  13
TORSDOF 20
ENDMDL
MODEL 8
REMARK VINA RESULT:    -4.369     11.449     12.719
REMARK INTER + INTRA:         -11.173
REMARK INTER:                  -8.058
REMARK INTRA:                  -3.115
REMARK UNBOUND:                -1.697
REMARK SMILES CCCCCCCCCCCCCCCCCCCCCC(=O)[O-]
REMARK SMILES IDX 12 1 11 2 10 3 9 4 8 5 7 6 6 7 5 8 4 9 3 10 2 11 1 12 13 13
REMARK SMILES IDX 14 14 15 15 16 16 17 17 18 18 19 19 20 20 21 21 22 22 23 23
REMARK SMILES IDX 24 24
REMARK H PARENT
REMARK Flexibility Score: inf
ROOT
ATOM      1  C   UNL     1       9.500  12.627  -8.510  1.00  0.00     0.000 C 
ENDROOT
BRANCH   1   2
ATOM      2  C   UNL     1       8.989  11.207  -8.201  1.00  0.00     0.000 C 
BRANCH   2   3
ATOM      3  C   UNL     1       8.031  11.170  -6.999  1.00  0.00     0.000 C 
BRANCH   3   4
ATOM      4  C   UNL     1       8.007   9.797  -6.305  1.00  0.00    -0.000 C 
BRANCH   4   5
ATOM      5  C   UNL     1       9.387   9.383  -5.761  1.00  0.00    -0.000 C 
BRANCH   5   6
ATOM      6  C   UNL     1       9.778  10.149  -4.484  1.00  0.00    -0.000 C 
BRANCH   6   7
ATOM      7  C   UNL     1      11.282  10.451  -4.355  1.00  0.00    -0.000 C 
BRANCH   7   8
ATOM      8  C   UNL     1      11.631  11.897  -4.747  1.00  0.00    -0.000 C 
BRANCH   8   9
ATOM      9  C   UNL     1      12.193  12.012  -6.174  1.00  0.00    -0.000 C 
BRANCH   9  10
ATOM     10  C   UNL     1      12.762  10.687  -6.723  1.00  0.00    -0.000 C 
BRANCH  10  11
ATOM     11  C   UNL     1      12.642  10.597  -8.251  1.00  0.00    -0.003 C 
ATOM     12  C   UNL     1      13.179  11.858  -8.924  1.00  0.00     0.004 C 
ENDBRANCH  10  11
ENDBRANCH   9  10
ENDBRANCH   8   9
ENDBRANCH   7   8
ENDBRANCH   6   7
ENDBRANCH   5   6
ENDBRANCH   4   5
ENDBRANCH   3   4
ENDBRANCH   2   3
ENDBRANCH   1   2
BRANCH   1  13
ATOM     13  C   UNL     1       9.531  13.000 -10.006  1.00  0.00     0.000 C 
BRANCH  13  14
ATOM     14  C   UNL     1       9.101  14.445 -10.335  1.00  0.00     0.000 C 
BRANCH  14  15
ATOM     15  C   UNL     1       7.718  14.847  -9.798  1.00  0.00     0.000 C 
BRANCH  15  16
ATOM     16  C   UNL     1       6.578  14.002 -10.390  1.00  0.00     0.000 C 
BRANCH  16  17
ATOM     17  C   UNL     1       5.553  13.576  -9.314  1.00  0.00     0.000 C 
BRANCH  17  18
ATOM     18  C   UNL     1       5.872  14.118  -7.907  1.00  0.00     0.000 C 
BRANCH  18  19
ATOM     19  C   UNL     1       4.836  15.112  -7.351  1.00  0.00     0.000 C 
BRANCH  19  20
ATOM     20  C   UNL     1       4.960  16.508  -7.977  1.00  0.00     0.006 C 
BRANCH  20  21
ATOM     21  C   UNL     1       4.822  17.603  -6.912  1.00  0.00     0.053 C 
BRANCH  21  22
ATOM     22  C   UNL     1       6.117  17.809  -6.189  1.00  0.00     0.041 C 
ATOM     23  O   UNL     1       7.213  17.636  -6.784  1.00  0.00    -0.550 OA
ATOM     24  O   UNL     1       6.113  18.194  -4.852  1.00  0.00    -0.550 OA
ENDBRANCH  21  22
ENDBRANCH  20  21
ENDBRANCH  19  20
ENDBRANCH  18  19
ENDBRANCH  17  18
ENDBRANCH  16  17
ENDBRANCH  15  16
ENDBRANCH  14  15
ENDBRANCH  13  14
ENDBRANCH   1  13
TORSDOF 20
ENDMDL
MODEL 9
REMARK VINA RESULT:    -4.285     10.680     11.979
REMARK INTER + INTRA:         -10.991
REMARK INTER:                  -8.574
REMARK INTRA:                  -2.416
REMARK UNBOUND:                -1.697
REMARK SMILES CCCCCCCCCCCCCCCCCCCCCC(=O)[O-]
REMARK SMILES IDX 12 1 11 2 10 3 9 4 8 5 7 6 6 7 5 8 4 9 3 10 2 11 1 12 13 13
REMARK SMILES IDX 14 14 15 15 16 16 17 17 18 18 19 19 20 20 21 21 22 22 23 23
REMARK SMILES IDX 24 24
REMARK H PARENT
REMARK Flexibility Score: inf
ROOT
ATOM      1  C   UNL     1      11.636  12.846 -10.295  1.00  0.00     0.000 C 
ENDROOT
BRANCH   1   2
ATOM      2  C   UNL     1      12.039  12.041  -9.045  1.00  0.00     0.000 C 
BRANCH   2   3
ATOM      3  C   UNL     1      11.207  10.759  -8.871  1.00  0.00     0.000 C 
BRANCH   3   4
ATOM      4  C   UNL     1      11.044  10.356  -7.395  1.00  0.00    -0.000 C 
BRANCH   4   5
ATOM      5  C   UNL     1      10.683  11.550  -6.491  1.00  0.00    -0.000 C 
BRANCH   5   6
ATOM      6  C   UNL     1      11.600  11.661  -5.259  1.00  0.00    -0.000 C 
BRANCH   6   7
ATOM      7  C   UNL     1      12.832  10.738  -5.295  1.00  0.00    -0.000 C 
BRANCH   7   8
ATOM      8  C   UNL     1      14.113  11.477  -5.719  1.00  0.00    -0.000 C 
BRANCH   8   9
ATOM      9  C   UNL     1      14.051  12.989  -5.442  1.00  0.00    -0.000 C 
BRANCH   9  10
ATOM     10  C   UNL     1      14.996  13.449  -4.312  1.00  0.00    -0.000 C 
BRANCH  10  11
ATOM     11  C   UNL     1      14.934  12.518  -3.092  1.00  0.00    -0.003 C 
ATOM     12  C   UNL     1      13.925  13.021  -2.063  1.00  0.00     0.004 C 
ENDBRANCH  10  11
ENDBRANCH   9  10
ENDBRANCH   8   9
ENDBRANCH   7   8
ENDBRANCH   6   7
ENDBRANCH   5   6
ENDBRANCH   4   5
ENDBRANCH   3   4
ENDBRANCH   2   3
ENDBRANCH   1   2
BRANCH   1  13
ATOM     13  C   UNL     1      10.409  13.762 -10.116  1.00  0.00     0.000 C 
BRANCH  13  14
ATOM     14  C   UNL     1       9.090  13.224 -10.706  1.00  0.00     0.000 C 
BRANCH  14  15
ATOM     15  C   UNL     1       8.160  12.534  -9.694  1.00  0.00     0.000 C 
BRANCH  15  16
ATOM     16  C   UNL     1       8.063  13.291  -8.359  1.00  0.00     0.000 C 
BRANCH  16  17
ATOM     17  C   UNL     1       6.617  13.743  -8.052  1.00  0.00     0.000 C 
BRANCH  17  18
ATOM     18  C   UNL     1       5.982  14.588  -9.174  1.00  0.00     0.000 C 
BRANCH  18  19
ATOM     19  C   UNL     1       4.932  15.607  -8.696  1.00  0.00     0.000 C 
BRANCH  19  20
ATOM     20  C   UNL     1       4.853  15.702  -7.166  1.00  0.00     0.006 C 
BRANCH  20  21
ATOM     21  C   UNL     1       4.843  17.164  -6.704  1.00  0.00     0.053 C 
BRANCH  21  22
ATOM     22  C   UNL     1       6.175  17.555  -6.143  1.00  0.00     0.041 C 
ATOM     23  O   UNL     1       6.261  18.034  -4.981  1.00  0.00    -0.550 OA
ATOM     24  O   UNL     1       7.327  17.390  -6.906  1.00  0.00    -0.550 OA
ENDBRANCH  21  22
ENDBRANCH  20  21
ENDBRANCH  19  20
ENDBRANCH  18  19
ENDBRANCH  17  18
ENDBRANCH  16  17
ENDBRANCH  15  16
ENDBRANCH  14  15
ENDBRANCH  13  14
ENDBRANCH   1  13
TORSDOF 20
ENDMDL
