MODEL 1
REMARK VINA RESULT:    -5.354      0.000      0.000
REMARK INTER + INTRA:          -6.706
REMARK INTER:                  -6.450
REMARK INTRA:                  -0.256
REMARK UNBOUND:                -0.256
REMARK SMILES O=c1c(O)c(-c2ccc(O)c(O)c2)oc2cc(O)cc(O)c12
REMARK SMILES IDX 5 1 3 2 2 3 1 4 22 5 20 6 19 7 17 8 16 9 15 10 14 11 6 12
REMARK SMILES IDX 7 13 8 14 9 15 13 16 11 17 10 18 12 20 4 22 21 24 18 26
REMARK H PARENT 10 19 12 21 4 23 21 25 18 27
REMARK Flexibility Score: inf
ROOT
ATOM      1  C   UNL     1     110.415 108.325 113.198  1.00  0.00     0.180 A 
ATOM      2  C   UNL     1     109.658 107.319 113.823  1.00  0.00     0.208 A 
ATOM      3  C   UNL     1     108.264 107.467 113.903  1.00  0.00     0.238 A 
ATOM      4  O   UNL     1     107.597 106.590 114.511  1.00  0.00    -0.285 OA
ATOM      5  C   UNL     1     107.644 108.610 113.342  1.00  0.00     0.111 A 
ATOM      6  C   UNL     1     106.236 108.844 113.331  1.00  0.00     0.134 A 
ATOM      7  C   UNL     1     105.743 110.069 112.866  1.00  0.00     0.093 A 
ATOM      8  C   UNL     1     106.603 111.043 112.352  1.00  0.00     0.123 A 
ATOM      9  C   UNL     1     107.973 110.800 112.305  1.00  0.00     0.094 A 
ATOM     10  C   UNL     1     108.498 109.602 112.795  1.00  0.00     0.146 A 
ATOM     11  O   UNL     1     109.812 109.415 112.741  1.00  0.00    -0.452 OA
ENDROOT
BRANCH   1  12
ATOM     12  C   UNL     1     111.886 108.228 113.053  1.00  0.00     0.025 A 
ATOM     13  C   UNL     1     112.431 107.330 112.121  1.00  0.00     0.016 A 
ATOM     14  C   UNL     1     113.816 107.207 111.982  1.00  0.00     0.051 A 
ATOM     15  C   UNL     1     114.675 107.968 112.784  1.00  0.00     0.157 A 
ATOM     16  C   UNL     1     112.754 108.976 113.870  1.00  0.00     0.062 A 
ATOM     17  C   UNL     1     114.144 108.851 113.733  1.00  0.00     0.158 A 
BRANCH  15  18
ATOM     18  O   UNL     1     116.057 107.850 112.647  1.00  0.00    -0.504 OA
ATOM     19  H   UNL     1     116.476 107.466 111.808  1.00  0.00     0.293 HD
ENDBRANCH  15  18
BRANCH  17  20
ATOM     20  O   UNL     1     115.003 109.597 114.538  1.00  0.00    -0.504 OA
ATOM     21  H   UNL     1     115.954 109.797 114.255  1.00  0.00     0.293 HD
ENDBRANCH  17  20
ENDBRANCH   1  12
BRANCH   2  22
ATOM     22  O   UNL     1     110.293 106.210 114.389  1.00  0.00    -0.502 OA
ATOM     23  H   UNL     1     109.886 105.680 115.150  1.00  0.00     0.293 HD
ENDBRANCH   2  22
BRANCH   6  24
ATOM     24  O   UNL     1     105.285 107.901 113.734  1.00  0.00    -0.507 OA
ATOM     25  H   UNL     1     104.903 107.180 113.142  1.00  0.00     0.293 HD
ENDBRANCH   6  24
BRANCH   8  26
ATOM     26  O   UNL     1     106.103 112.253 111.878  1.00  0.00    -0.508 OA
ATOM     27  H   UNL     1     105.395 112.771 112.387  1.00  0.00     0.293 HD
ENDBRANCH   8  26
TORSDOF 6
ENDMDL
MODEL 2
REMARK VINA RESULT:    -5.264      1.645      2.105
REMARK INTER + INTRA:          -6.597
REMARK INTER:                  -6.371
REMARK INTRA:                  -0.226
REMARK UNBOUND:                -0.256
REMARK SMILES O=c1c(O)c(-c2ccc(O)c(O)c2)oc2cc(O)cc(O)c12
REMARK SMILES IDX 5 1 3 2 2 3 1 4 22 5 20 6 19 7 17 8 16 9 15 10 14 11 6 12
REMARK SMILES IDX 7 13 8 14 9 15 13 16 11 17 10 18 12 20 4 22 21 24 18 26
REMARK H PARENT 10 19 12 21 4 23 21 25 18 27
REMARK Flexibility Score: inf
ROOT
ATOM      1  C   UNL     1     110.944 107.953 114.536  1.00  0.00     0.180 A 
ATOM      2  C   UNL     1     110.640 107.543 115.845  1.00  0.00     0.208 A 
ATOM      3  C   UNL     1     109.293 107.447 116.233  1.00  0.00     0.238 A 
ATOM      4  O   UNL     1     109.028 107.133 117.422  1.00  0.00    -0.285 OA
ATOM      5  C   UNL     1     108.270 107.747 115.302  1.00  0.00     0.111 A 
ATOM      6  C   UNL     1     106.872 107.646 115.574  1.00  0.00     0.134 A 
ATOM      7  C   UNL     1     105.949 108.093 114.622  1.00  0.00     0.093 A 
ATOM      8  C   UNL     1     106.371 108.577 113.381  1.00  0.00     0.123 A 
ATOM      9  C   UNL     1     107.731 108.624 113.083  1.00  0.00     0.094 A 
ATOM     10  C   UNL     1     108.678 108.220 114.028  1.00  0.00     0.146 A 
ATOM     11  O   UNL     1     109.964 108.291 113.707  1.00  0.00    -0.452 OA
ENDROOT
BRANCH   1  12
ATOM     12  C   UNL     1     112.338 108.054 114.046  1.00  0.00     0.025 A 
ATOM     13  C   UNL     1     112.829 107.087 113.154  1.00  0.00     0.016 A 
ATOM     14  C   UNL     1     114.147 107.150 112.695  1.00  0.00     0.051 A 
ATOM     15  C   UNL     1     114.998 108.171 113.134  1.00  0.00     0.157 A 
ATOM     16  C   UNL     1     113.204 109.066 114.499  1.00  0.00     0.062 A 
ATOM     17  C   UNL     1     114.527 109.129 114.041  1.00  0.00     0.158 A 
BRANCH  15  18
ATOM     18  O   UNL     1     116.314 108.239 112.678  1.00  0.00    -0.504 OA
ATOM     19  H   UNL     1     117.068 108.552 113.279  1.00  0.00     0.293 HD
ENDBRANCH  15  18
BRANCH  17  20
ATOM     20  O   UNL     1     115.382 110.136 114.487  1.00  0.00    -0.504 OA
ATOM     21  H   UNL     1     115.423 111.038 114.027  1.00  0.00     0.293 HD
ENDBRANCH  17  20
ENDBRANCH   1  12
BRANCH   2  22
ATOM     22  O   UNL     1     111.667 107.274 116.754  1.00  0.00    -0.502 OA
ATOM     23  H   UNL     1     111.830 107.845 117.575  1.00  0.00     0.293 HD
ENDBRANCH   2  22
BRANCH   6  24
ATOM     24  O   UNL     1     106.343 107.092 116.744  1.00  0.00    -0.507 OA
ATOM     25  H   UNL     1     106.187 106.107 116.893  1.00  0.00     0.293 HD
ENDBRANCH   6  24
BRANCH   8  26
ATOM     26  O   UNL     1     105.445 109.005 112.433  1.00  0.00    -0.508 OA
ATOM     27  H   UNL     1     105.630 108.929 111.439  1.00  0.00     0.293 HD
ENDBRANCH   8  26
TORSDOF 6
ENDMDL
MODEL 3
REMARK VINA RESULT:    -5.037      3.062      7.920
REMARK INTER + INTRA:          -6.323
REMARK INTER:                  -6.000
REMARK INTRA:                  -0.323
REMARK UNBOUND:                -0.256
REMARK SMILES O=c1c(O)c(-c2ccc(O)c(O)c2)oc2cc(O)cc(O)c12
REMARK SMILES IDX 5 1 3 2 2 3 1 4 22 5 20 6 19 7 17 8 16 9 15 10 14 11 6 12
REMARK SMILES IDX 7 13 8 14 9 15 13 16 11 17 10 18 12 20 4 22 21 24 18 26
REMARK H PARENT 10 19 12 21 4 23 21 25 18 27
REMARK Flexibility Score: inf
ROOT
ATOM      1  C   UNL     1     113.101 108.010 114.352  1.00  0.00     0.180 A 
ATOM      2  C   UNL     1     114.075 108.019 113.338  1.00  0.00     0.208 A 
ATOM      3  C   UNL     1     115.149 107.118 113.418  1.00  0.00     0.238 A 
ATOM      4  O   UNL     1     116.046 107.167 112.537  1.00  0.00    -0.285 OA
ATOM      5  C   UNL     1     115.226 106.208 114.501  1.00  0.00     0.111 A 
ATOM      6  C   UNL     1     116.248 105.225 114.661  1.00  0.00     0.134 A 
ATOM      7  C   UNL     1     116.298 104.467 115.837  1.00  0.00     0.093 A 
ATOM      8  C   UNL     1     115.325 104.611 116.830  1.00  0.00     0.123 A 
ATOM      9  C   UNL     1     114.291 105.527 116.655  1.00  0.00     0.094 A 
ATOM     10  C   UNL     1     114.234 106.324 115.509  1.00  0.00     0.146 A 
ATOM     11  O   UNL     1     113.236 107.192 115.387  1.00  0.00    -0.452 OA
ENDROOT
BRANCH   1  12
ATOM     12  C   UNL     1     111.927 108.913 114.323  1.00  0.00     0.025 A 
ATOM     13  C   UNL     1     111.941 110.088 115.092  1.00  0.00     0.016 A 
ATOM     14  C   UNL     1     110.836 110.944 115.097  1.00  0.00     0.051 A 
ATOM     15  C   UNL     1     109.697 110.629 114.346  1.00  0.00     0.157 A 
ATOM     16  C   UNL     1     110.773 108.592 113.586  1.00  0.00     0.062 A 
ATOM     17  C   UNL     1     109.664 109.449 113.592  1.00  0.00     0.158 A 
BRANCH  15  18
ATOM     18  O   UNL     1     108.593 111.480 114.346  1.00  0.00    -0.504 OA
ATOM     19  H   UNL     1     108.091 111.698 115.199  1.00  0.00     0.293 HD
ENDBRANCH  15  18
BRANCH  17  20
ATOM     20  O   UNL     1     108.522 109.132 112.856  1.00  0.00    -0.504 OA
ATOM     21  H   UNL     1     107.921 109.853 112.476  1.00  0.00     0.293 HD
ENDBRANCH  17  20
ENDBRANCH   1  12
BRANCH   2  22
ATOM     22  O   UNL     1     113.991 108.940 112.290  1.00  0.00    -0.502 OA
ATOM     23  H   UNL     1     114.469 109.833 112.311  1.00  0.00     0.293 HD
ENDBRANCH   2  22
BRANCH   6  24
ATOM     24  O   UNL     1     117.213 104.936 113.691  1.00  0.00    -0.507 OA
ATOM     25  H   UNL     1     117.049 104.952 112.696  1.00  0.00     0.293 HD
ENDBRANCH   6  24
BRANCH   8  26
ATOM     26  O   UNL     1     115.374 103.842 117.989  1.00  0.00    -0.508 OA
ATOM     27  H   UNL     1     116.206 103.324 118.248  1.00  0.00     0.293 HD
ENDBRANCH   8  26
TORSDOF 6
ENDMDL
MODEL 4
REMARK VINA RESULT:    -4.935      1.850      6.610
REMARK INTER + INTRA:          -6.200
REMARK INTER:                  -5.895
REMARK INTRA:                  -0.305
REMARK UNBOUND:                -0.256
REMARK SMILES O=c1c(O)c(-c2ccc(O)c(O)c2)oc2cc(O)cc(O)c12
REMARK SMILES IDX 5 1 3 2 2 3 1 4 22 5 20 6 19 7 17 8 16 9 15 10 14 11 6 12
REMARK SMILES IDX 7 13 8 14 9 15 13 16 11 17 10 18 12 20 4 22 21 24 18 26
REMARK H PARENT 10 19 12 21 4 23 21 25 18 27
REMARK Flexibility Score: inf
ROOT
ATOM      1  C   UNL     1     110.461 108.906 113.981  1.00  0.00     0.180 A 
ATOM      2  C   UNL     1     110.237 107.946 114.984  1.00  0.00     0.208 A 
ATOM      3  C   UNL     1     111.300 107.122 115.388  1.00  0.00     0.238 A 
ATOM      4  O   UNL     1     111.080 106.229 116.246  1.00  0.00    -0.285 OA
ATOM      5  C   UNL     1     112.577 107.280 114.796  1.00  0.00     0.111 A 
ATOM      6  C   UNL     1     113.735 106.527 115.156  1.00  0.00     0.134 A 
ATOM      7  C   UNL     1     114.914 106.676 114.415  1.00  0.00     0.093 A 
ATOM      8  C   UNL     1     114.995 107.597 113.367  1.00  0.00     0.123 A 
ATOM      9  C   UNL     1     113.887 108.378 113.047  1.00  0.00     0.094 A 
ATOM     10  C   UNL     1     112.686 108.227 113.745  1.00  0.00     0.146 A 
ATOM     11  O   UNL     1     111.651 108.985 113.400  1.00  0.00    -0.452 OA
ENDROOT
BRANCH   1  12
ATOM     12  C   UNL     1     109.397 109.827 113.521  1.00  0.00     0.025 A 
ATOM     13  C   UNL     1     108.487 109.397 112.541  1.00  0.00     0.016 A 
ATOM     14  C   UNL     1     107.488 110.257 112.078  1.00  0.00     0.051 A 
ATOM     15  C   UNL     1     107.393 111.562 112.575  1.00  0.00     0.157 A 
ATOM     16  C   UNL     1     109.309 111.145 114.004  1.00  0.00     0.062 A 
ATOM     17  C   UNL     1     108.308 112.009 113.537  1.00  0.00     0.158 A 
BRANCH  15  18
ATOM     18  O   UNL     1     106.397 112.422 112.117  1.00  0.00    -0.504 OA
ATOM     19  H   UNL     1     106.241 112.574 111.127  1.00  0.00     0.293 HD
ENDBRANCH  15  18
BRANCH  17  20
ATOM     20  O   UNL     1     108.219 113.314 114.020  1.00  0.00    -0.504 OA
ATOM     21  H   UNL     1     107.331 113.798 114.078  1.00  0.00     0.293 HD
ENDBRANCH  17  20
ENDBRANCH   1  12
BRANCH   2  22
ATOM     22  O   UNL     1     108.963 107.793 115.538  1.00  0.00    -0.502 OA
ATOM     23  H   UNL     1     108.264 107.182 115.133  1.00  0.00     0.293 HD
ENDBRANCH   2  22
BRANCH   6  24
ATOM     24  O   UNL     1     113.788 105.649 116.243  1.00  0.00    -0.507 OA
ATOM     25  H   UNL     1     113.035 105.496 116.895  1.00  0.00     0.293 HD
ENDBRANCH   6  24
BRANCH   8  26
ATOM     26  O   UNL     1     116.175 107.750 112.645  1.00  0.00    -0.508 OA
ATOM     27  H   UNL     1     116.245 107.462 111.675  1.00  0.00     0.293 HD
ENDBRANCH   8  26
TORSDOF 6
ENDMDL
MODEL 5
REMARK VINA RESULT:    -4.911      2.399      7.800
REMARK INTER + INTRA:          -6.172
REMARK INTER:                  -6.064
REMARK INTRA:                  -0.108
REMARK UNBOUND:                -0.256
REMARK SMILES O=c1c(O)c(-c2ccc(O)c(O)c2)oc2cc(O)cc(O)c12
REMARK SMILES IDX 5 1 3 2 2 3 1 4 22 5 20 6 19 7 17 8 16 9 15 10 14 11 6 12
REMARK SMILES IDX 7 13 8 14 9 15 13 16 11 17 10 18 12 20 4 22 21 24 18 26
REMARK H PARENT 10 19 12 21 4 23 21 25 18 27
REMARK Flexibility Score: inf
ROOT
ATOM      1  C   UNL     1     107.147 109.274 114.323  1.00  0.00     0.180 A 
ATOM      2  C   UNL     1     107.975 110.410 114.310  1.00  0.00     0.208 A 
ATOM      3  C   UNL     1     109.363 110.242 114.436  1.00  0.00     0.238 A 
ATOM      4  O   UNL     1     110.094 111.265 114.480  1.00  0.00    -0.285 OA
ATOM      5  C   UNL     1     109.907 108.939 114.555  1.00  0.00     0.111 A 
ATOM      6  C   UNL     1     111.301 108.650 114.649  1.00  0.00     0.134 A 
ATOM      7  C   UNL     1     111.719 107.336 114.894  1.00  0.00     0.093 A 
ATOM      8  C   UNL     1     110.795 106.292 114.986  1.00  0.00     0.123 A 
ATOM      9  C   UNL     1     109.435 106.557 114.837  1.00  0.00     0.094 A 
ATOM     10  C   UNL     1     108.986 107.863 114.627  1.00  0.00     0.146 A 
ATOM     11  O   UNL     1     107.681 108.072 114.502  1.00  0.00    -0.452 OA
ENDROOT
BRANCH   1  12
ATOM     12  C   UNL     1     105.677 109.369 114.170  1.00  0.00     0.025 A 
ATOM     13  C   UNL     1     104.926 110.064 115.132  1.00  0.00     0.016 A 
ATOM     14  C   UNL     1     103.535 110.149 115.018  1.00  0.00     0.051 A 
ATOM     15  C   UNL     1     102.876 109.528 113.951  1.00  0.00     0.157 A 
ATOM     16  C   UNL     1     105.007 108.731 113.110  1.00  0.00     0.062 A 
ATOM     17  C   UNL     1     103.612 108.814 112.997  1.00  0.00     0.158 A 
BRANCH  15  18
ATOM     18  O   UNL     1     101.489 109.612 113.833  1.00  0.00    -0.504 OA
ATOM     19  H   UNL     1     100.882 109.527 114.640  1.00  0.00     0.293 HD
ENDBRANCH  15  18
BRANCH  17  20
ATOM     20  O   UNL     1     102.950 108.186 111.943  1.00  0.00    -0.504 OA
ATOM     21  H   UNL     1     103.356 107.394 111.459  1.00  0.00     0.293 HD
ENDBRANCH  17  20
ENDBRANCH   1  12
BRANCH   2  22
ATOM     22  O   UNL     1     107.415 111.687 114.214  1.00  0.00    -0.502 OA
ATOM     23  H   UNL     1     107.970 112.531 114.288  1.00  0.00     0.293 HD
ENDBRANCH   2  22
BRANCH   6  24
ATOM     24  O   UNL     1     112.310 109.603 114.480  1.00  0.00    -0.507 OA
ATOM     25  H   UNL     1     113.296 109.396 114.446  1.00  0.00     0.293 HD
ENDBRANCH   6  24
BRANCH   8  26
ATOM     26  O   UNL     1     111.219 104.985 115.215  1.00  0.00    -0.508 OA
ATOM     27  H   UNL     1     112.182 104.706 115.063  1.00  0.00     0.293 HD
ENDBRANCH   8  26
TORSDOF 6
ENDMDL
MODEL 6
REMARK VINA RESULT:    -4.881      2.280      3.759
REMARK INTER + INTRA:          -6.135
REMARK INTER:                  -5.802
REMARK INTRA:                  -0.333
REMARK UNBOUND:                -0.256
REMARK SMILES O=c1c(O)c(-c2ccc(O)c(O)c2)oc2cc(O)cc(O)c12
REMARK SMILES IDX 5 1 3 2 2 3 1 4 22 5 20 6 19 7 17 8 16 9 15 10 14 11 6 12
REMARK SMILES IDX 7 13 8 14 9 15 13 16 11 17 10 18 12 20 4 22 21 24 18 26
REMARK H PARENT 10 19 12 21 4 23 21 25 18 27
REMARK Flexibility Score: inf
ROOT
ATOM      1  C   UNL     1     112.266 107.667 114.336  1.00  0.00     0.180 A 
ATOM      2  C   UNL     1     112.274 109.054 114.565  1.00  0.00     0.208 A 
ATOM      3  C   UNL     1     111.058 109.708 114.827  1.00  0.00     0.238 A 
ATOM      4  O   UNL     1     111.065 110.957 114.977  1.00  0.00    -0.285 OA
ATOM      5  C   UNL     1     109.854 108.964 114.874  1.00  0.00     0.111 A 
ATOM      6  C   UNL     1     108.572 109.516 115.170  1.00  0.00     0.134 A 
ATOM      7  C   UNL     1     107.432 108.712 115.060  1.00  0.00     0.093 A 
ATOM      8  C   UNL     1     107.534 107.358 114.728  1.00  0.00     0.123 A 
ATOM      9  C   UNL     1     108.787 106.797 114.495  1.00  0.00     0.094 A 
ATOM     10  C   UNL     1     109.940 107.582 114.561  1.00  0.00     0.146 A 
ATOM     11  O   UNL     1     111.114 107.009 114.322  1.00  0.00    -0.452 OA
ENDROOT
BRANCH   1  12
ATOM     12  C   UNL     1     113.509 106.905 114.079  1.00  0.00     0.025 A 
ATOM     13  C   UNL     1     113.900 106.648 112.755  1.00  0.00     0.016 A 
ATOM     14  C   UNL     1     115.059 105.913 112.488  1.00  0.00     0.051 A 
ATOM     15  C   UNL     1     115.833 105.411 113.541  1.00  0.00     0.157 A 
ATOM     16  C   UNL     1     114.280 106.382 115.133  1.00  0.00     0.062 A 
ATOM     17  C   UNL     1     115.441 105.642 114.866  1.00  0.00     0.158 A 
BRANCH  15  18
ATOM     18  O   UNL     1     116.990 104.680 113.280  1.00  0.00    -0.504 OA
ATOM     19  H   UNL     1     117.798 105.105 112.840  1.00  0.00     0.293 HD
ENDBRANCH  15  18
BRANCH  17  20
ATOM     20  O   UNL     1     116.207 105.129 115.912  1.00  0.00    -0.504 OA
ATOM     21  H   UNL     1     116.125 104.163 116.204  1.00  0.00     0.293 HD
ENDBRANCH  17  20
ENDBRANCH   1  12
BRANCH   2  22
ATOM     22  O   UNL     1     113.470 109.772 114.492  1.00  0.00    -0.502 OA
ATOM     23  H   UNL     1     114.287 109.419 114.009  1.00  0.00     0.293 HD
ENDBRANCH   2  22
BRANCH   6  24
ATOM     24  O   UNL     1     108.369 110.831 115.601  1.00  0.00    -0.507 OA
ATOM     25  H   UNL     1     108.261 111.109 116.564  1.00  0.00     0.293 HD
ENDBRANCH   6  24
BRANCH   8  26
ATOM     26  O   UNL     1     106.395 106.561 114.636  1.00  0.00    -0.508 OA
ATOM     27  H   UNL     1     105.746 106.651 113.862  1.00  0.00     0.293 HD
ENDBRANCH   8  26
TORSDOF 6
ENDMDL
MODEL 7
REMARK VINA RESULT:    -4.867      2.018      3.296
REMARK INTER + INTRA:          -6.119
REMARK INTER:                  -5.991
REMARK INTRA:                  -0.128
REMARK UNBOUND:                -0.256
REMARK SMILES O=c1c(O)c(-c2ccc(O)c(O)c2)oc2cc(O)cc(O)c12
REMARK SMILES IDX 5 1 3 2 2 3 1 4 22 5 20 6 19 7 17 8 16 9 15 10 14 11 6 12
REMARK SMILES IDX 7 13 8 14 9 15 13 16 11 17 10 18 12 20 4 22 21 24 18 26
REMARK H PARENT 10 19 12 21 4 23 21 25 18 27
REMARK Flexibility Score: inf
ROOT
ATOM      1  C   UNL     1     110.653 108.137 114.148  1.00  0.00     0.180 A 
ATOM      2  C   UNL     1     109.627 108.396 113.223  1.00  0.00     0.208 A 
ATOM      3  C   UNL     1     108.295 108.403 113.668  1.00  0.00     0.238 A 
ATOM      4  O   UNL     1     107.377 108.582 112.826  1.00  0.00    -0.285 OA
ATOM      5  C   UNL     1     108.007 108.168 115.035  1.00  0.00     0.111 A 
ATOM      6  C   UNL     1     106.698 108.191 115.602  1.00  0.00     0.134 A 
ATOM      7  C   UNL     1     106.519 107.815 116.939  1.00  0.00     0.093 A 
ATOM      8  C   UNL     1     107.609 107.479 117.746  1.00  0.00     0.123 A 
ATOM      9  C   UNL     1     108.897 107.511 117.216  1.00  0.00     0.094 A 
ATOM     10  C   UNL     1     109.104 107.847 115.876  1.00  0.00     0.146 A 
ATOM     11  O   UNL     1     110.347 107.855 115.408  1.00  0.00    -0.452 OA
ENDROOT
BRANCH   1  12
ATOM     12  C   UNL     1     112.082 108.138 113.760  1.00  0.00     0.025 A 
ATOM     13  C   UNL     1     112.550 107.178 112.848  1.00  0.00     0.016 A 
ATOM     14  C   UNL     1     113.899 107.147 112.482  1.00  0.00     0.051 A 
ATOM     15  C   UNL     1     114.801 108.065 113.036  1.00  0.00     0.157 A 
ATOM     16  C   UNL     1     112.995 109.044 114.327  1.00  0.00     0.062 A 
ATOM     17  C   UNL     1     114.349 109.013 113.963  1.00  0.00     0.158 A 
BRANCH  15  18
ATOM     18  O   UNL     1     116.146 108.039 112.673  1.00  0.00    -0.504 OA
ATOM     19  H   UNL     1     116.651 107.166 112.569  1.00  0.00     0.293 HD
ENDBRANCH  15  18
BRANCH  17  20
ATOM     20  O   UNL     1     115.252 109.916 114.522  1.00  0.00    -0.504 OA
ATOM     21  H   UNL     1     115.925 110.413 113.951  1.00  0.00     0.293 HD
ENDBRANCH  17  20
ENDBRANCH   1  12
BRANCH   2  22
ATOM     22  O   UNL     1     109.931 108.604 111.875  1.00  0.00    -0.502 OA
ATOM     23  H   UNL     1     110.426 107.918 111.318  1.00  0.00     0.293 HD
ENDBRANCH   2  22
BRANCH   6  24
ATOM     24  O   UNL     1     105.554 108.599 114.910  1.00  0.00    -0.507 OA
ATOM     25  H   UNL     1     105.358 108.381 113.946  1.00  0.00     0.293 HD
ENDBRANCH   6  24
BRANCH   8  26
ATOM     26  O   UNL     1     107.423 107.121 119.079  1.00  0.00    -0.508 OA
ATOM     27  H   UNL     1     106.973 107.746 119.738  1.00  0.00     0.293 HD
ENDBRANCH   8  26
TORSDOF 6
ENDMDL
MODEL 8
REMARK VINA RESULT:    -4.716      1.844      7.490
REMARK INTER + INTRA:          -5.936
REMARK INTER:                  -5.624
REMARK INTRA:                  -0.312
REMARK UNBOUND:                -0.256
REMARK SMILES O=c1c(O)c(-c2ccc(O)c(O)c2)oc2cc(O)cc(O)c12
REMARK SMILES IDX 5 1 3 2 2 3 1 4 22 5 20 6 19 7 17 8 16 9 15 10 14 11 6 12
REMARK SMILES IDX 7 13 8 14 9 15 13 16 11 17 10 18 12 20 4 22 21 24 18 26
REMARK H PARENT 10 19 12 21 4 23 21 25 18 27
REMARK Flexibility Score: inf
ROOT
ATOM      1  C   UNL     1     111.377 107.498 113.344  1.00  0.00     0.180 A 
ATOM      2  C   UNL     1     112.288 108.519 113.668  1.00  0.00     0.208 A 
ATOM      3  C   UNL     1     113.663 108.276 113.521  1.00  0.00     0.238 A 
ATOM      4  O   UNL     1     114.475 109.173 113.864  1.00  0.00    -0.285 OA
ATOM      5  C   UNL     1     114.109 107.021 113.038  1.00  0.00     0.111 A 
ATOM      6  C   UNL     1     115.476 106.680 112.813  1.00  0.00     0.134 A 
ATOM      7  C   UNL     1     115.811 105.368 112.457  1.00  0.00     0.093 A 
ATOM      8  C   UNL     1     114.822 104.401 112.255  1.00  0.00     0.123 A 
ATOM      9  C   UNL     1     113.480 104.741 112.415  1.00  0.00     0.094 A 
ATOM     10  C   UNL     1     113.118 106.033 112.805  1.00  0.00     0.146 A 
ATOM     11  O   UNL     1     111.828 106.312 112.956  1.00  0.00    -0.452 OA
ENDROOT
BRANCH   1  12
ATOM     12  C   UNL     1     109.912 107.688 113.448  1.00  0.00     0.025 A 
ATOM     13  C   UNL     1     109.221 108.319 112.401  1.00  0.00     0.016 A 
ATOM     14  C   UNL     1     107.841 108.527 112.487  1.00  0.00     0.051 A 
ATOM     15  C   UNL     1     107.137 108.122 113.627  1.00  0.00     0.157 A 
ATOM     16  C   UNL     1     109.203 107.301 114.600  1.00  0.00     0.062 A 
ATOM     17  C   UNL     1     107.819 107.511 114.688  1.00  0.00     0.158 A 
BRANCH  15  18
ATOM     18  O   UNL     1     105.761 108.326 113.717  1.00  0.00    -0.504 OA
ATOM     19  H   UNL     1     105.196 107.834 114.399  1.00  0.00     0.293 HD
ENDBRANCH  15  18
BRANCH  17  20
ATOM     20  O   UNL     1     107.116 107.122 115.827  1.00  0.00    -0.504 OA
ATOM     21  H   UNL     1     106.737 106.188 115.921  1.00  0.00     0.293 HD
ENDBRANCH  17  20
ENDBRANCH   1  12
BRANCH   2  22
ATOM     22  O   UNL     1     111.827 109.741 114.164  1.00  0.00    -0.502 OA
ATOM     23  H   UNL     1     110.887 109.862 114.523  1.00  0.00     0.293 HD
ENDBRANCH   2  22
BRANCH   6  24
ATOM     24  O   UNL     1     116.533 107.592 112.896  1.00  0.00    -0.507 OA
ATOM     25  H   UNL     1     116.466 108.571 112.665  1.00  0.00     0.293 HD
ENDBRANCH   6  24
BRANCH   8  26
ATOM     26  O   UNL     1     115.162 103.102 111.887  1.00  0.00    -0.508 OA
ATOM     27  H   UNL     1     114.576 102.556 111.266  1.00  0.00     0.293 HD
ENDBRANCH   8  26
TORSDOF 6
ENDMDL
MODEL 9
REMARK VINA RESULT:    -4.680      9.770     11.978
REMARK INTER + INTRA:          -5.893
REMARK INTER:                  -5.559
REMARK INTRA:                  -0.334
REMARK UNBOUND:                -0.256
REMARK SMILES O=c1c(O)c(-c2ccc(O)c(O)c2)oc2cc(O)cc(O)c12
REMARK SMILES IDX 5 1 3 2 2 3 1 4 22 5 20 6 19 7 17 8 16 9 15 10 14 11 6 12
REMARK SMILES IDX 7 13 8 14 9 15 13 16 11 17 10 18 12 20 4 22 21 24 18 26
REMARK H PARENT 10 19 12 21 4 23 21 25 18 27
REMARK Flexibility Score: inf
ROOT
ATOM      1  C   UNL     1     100.948 109.760 119.436  1.00  0.00     0.180 A 
ATOM      2  C   UNL     1     100.562 111.078 119.735  1.00  0.00     0.208 A 
ATOM      3  C   UNL     1     100.364 111.985 118.681  1.00  0.00     0.238 A 
ATOM      4  O   UNL     1     100.073 113.177 118.956  1.00  0.00    -0.285 OA
ATOM      5  C   UNL     1     100.537 111.557 117.342  1.00  0.00     0.111 A 
ATOM      6  C   UNL     1     100.324 112.379 116.195  1.00  0.00     0.134 A 
ATOM      7  C   UNL     1     100.651 111.890 114.925  1.00  0.00     0.093 A 
ATOM      8  C   UNL     1     101.123 110.586 114.753  1.00  0.00     0.123 A 
ATOM      9  C   UNL     1     101.278 109.757 115.861  1.00  0.00     0.094 A 
ATOM     10  C   UNL     1     100.994 110.228 117.146  1.00  0.00     0.146 A 
ATOM     11  O   UNL     1     101.166 109.407 118.175  1.00  0.00    -0.452 OA
ENDROOT
BRANCH   1  12
ATOM     12  C   UNL     1     101.151 108.741 120.491  1.00  0.00     0.025 A 
ATOM     13  C   UNL     1     102.442 108.519 120.999  1.00  0.00     0.016 A 
ATOM     14  C   UNL     1     102.660 107.548 121.980  1.00  0.00     0.051 A 
ATOM     15  C   UNL     1     101.595 106.775 122.456  1.00  0.00     0.157 A 
ATOM     16  C   UNL     1     100.088 107.947 120.959  1.00  0.00     0.062 A 
ATOM     17  C   UNL     1     100.307 106.972 121.942  1.00  0.00     0.158 A 
BRANCH  15  18
ATOM     18  O   UNL     1     101.807 105.807 123.436  1.00  0.00    -0.504 OA
ATOM     19  H   UNL     1     101.041 105.424 123.978  1.00  0.00     0.293 HD
ENDBRANCH  15  18
BRANCH  17  20
ATOM     20  O   UNL     1      99.251 106.190 122.409  1.00  0.00    -0.504 OA
ATOM     21  H   UNL     1      98.414 106.045 121.856  1.00  0.00     0.293 HD
ENDBRANCH  17  20
ENDBRANCH   1  12
BRANCH   2  22
ATOM     22  O   UNL     1     100.419 111.484 121.064  1.00  0.00    -0.502 OA
ATOM     23  H   UNL     1     100.240 112.447 121.322  1.00  0.00     0.293 HD
ENDBRANCH   2  22
BRANCH   6  24
ATOM     24  O   UNL     1      99.771 113.662 116.246  1.00  0.00    -0.507 OA
ATOM     25  H   UNL     1      98.954 113.956 115.734  1.00  0.00     0.293 HD
ENDBRANCH   6  24
BRANCH   8  26
ATOM     26  O   UNL     1     101.432 110.103 113.485  1.00  0.00    -0.508 OA
ATOM     27  H   UNL     1     100.785 110.196 112.710  1.00  0.00     0.293 HD
ENDBRANCH   8  26
TORSDOF 6
ENDMDL
