MODEL 1
REMARK VINA RESULT:    -3.479      0.000      0.000
REMARK INTER + INTRA:         -10.714
REMARK INTER:                  -7.548
REMARK INTRA:                  -3.167
REMARK UNBOUND:                -3.167
REMARK SMILES CCCCCCCCCCCCCCCCCCCCCC(=O)[O-]
REMARK SMILES IDX 12 1 11 2 10 3 9 4 8 5 7 6 6 7 5 8 4 9 3 10 2 11 1 12 13 13
REMARK SMILES IDX 14 14 15 15 16 16 17 17 18 18 19 19 20 20 21 21 22 22 23 23
REMARK SMILES IDX 24 24
REMARK H PARENT
REMARK Flexibility Score: inf
ROOT
ATOM      1  C   UNL     1      45.115  23.193  74.890  1.00  0.00     0.000 C 
ENDROOT
BRANCH   1   2
ATOM      2  C   UNL     1      46.611  23.076  74.542  1.00  0.00     0.000 C 
BRANCH   2   3
ATOM      3  C   UNL     1      46.931  21.820  73.711  1.00  0.00     0.000 C 
BRANCH   3   4
ATOM      4  C   UNL     1      47.774  20.796  74.488  1.00  0.00    -0.000 C 
BRANCH   4   5
ATOM      5  C   UNL     1      48.212  21.319  75.868  1.00  0.00    -0.000 C 
BRANCH   5   6
ATOM      6  C   UNL     1      47.740  20.417  77.024  1.00  0.00    -0.000 C 
BRANCH   6   7
ATOM      7  C   UNL     1      46.471  19.587  76.738  1.00  0.00    -0.000 C 
BRANCH   7   8
ATOM      8  C   UNL     1      45.665  19.164  77.981  1.00  0.00    -0.000 C 
BRANCH   8   9
ATOM      9  C   UNL     1      44.494  20.112  78.285  1.00  0.00    -0.000 C 
BRANCH   9  10
ATOM     10  C   UNL     1      44.885  21.259  79.232  1.00  0.00    -0.000 C 
BRANCH  10  11
ATOM     11  C   UNL     1      45.126  22.604  78.513  1.00  0.00    -0.003 C 
ATOM     12  C   UNL     1      43.952  23.569  78.679  1.00  0.00     0.004 C 
ENDBRANCH  10  11
ENDBRANCH   9  10
ENDBRANCH   8   9
ENDBRANCH   7   8
ENDBRANCH   6   7
ENDBRANCH   5   6
ENDBRANCH   4   5
ENDBRANCH   3   4
ENDBRANCH   2   3
ENDBRANCH   1   2
BRANCH   1  13
ATOM     13  C   UNL     1      44.235  22.033  74.382  1.00  0.00     0.000 C 
BRANCH  13  14
ATOM     14  C   UNL     1      43.153  21.557  75.371  1.00  0.00     0.000 C 
BRANCH  14  15
ATOM     15  C   UNL     1      41.758  21.394  74.729  1.00  0.00     0.000 C 
BRANCH  15  16
ATOM     16  C   UNL     1      40.625  21.443  75.769  1.00  0.00     0.000 C 
BRANCH  16  17
ATOM     17  C   UNL     1      40.919  22.407  76.933  1.00  0.00     0.000 C 
BRANCH  17  18
ATOM     18  C   UNL     1      40.438  21.930  78.317  1.00  0.00     0.000 C 
BRANCH  18  19
ATOM     19  C   UNL     1      41.033  20.571  78.726  1.00  0.00     0.000 C 
BRANCH  19  20
ATOM     20  C   UNL     1      39.993  19.638  79.368  1.00  0.00     0.006 C 
BRANCH  20  21
ATOM     21  C   UNL     1      38.869  20.401  80.082  1.00  0.00     0.053 C 
BRANCH  21  22
ATOM     22  C   UNL     1      37.902  19.445  80.708  1.00  0.00     0.041 C 
ATOM     23  O   UNL     1      37.371  19.716  81.818  1.00  0.00    -0.550 OA
ATOM     24  O   UNL     1      37.605  18.243  80.078  1.00  0.00    -0.550 OA
ENDBRANCH  21  22
ENDBRANCH  20  21
ENDBRANCH  19  20
ENDBRANCH  18  19
ENDBRANCH  17  18
ENDBRANCH  16  17
ENDBRANCH  15  16
ENDBRANCH  14  15
ENDBRANCH  13  14
ENDBRANCH   1  13
TORSDOF 20
ENDMDL
MODEL 2
REMARK VINA RESULT:    -3.473     15.622     17.699
REMARK INTER + INTRA:         -10.700
REMARK INTER:                  -8.300
REMARK INTRA:                  -2.400
REMARK UNBOUND:                -3.167
REMARK SMILES CCCCCCCCCCCCCCCCCCCCCC(=O)[O-]
REMARK SMILES IDX 12 1 11 2 10 3 9 4 8 5 7 6 6 7 5 8 4 9 3 10 2 11 1 12 13 13
REMARK SMILES IDX 14 14 15 15 16 16 17 17 18 18 19 19 20 20 21 21 22 22 23 23
REMARK SMILES IDX 24 24
REMARK H PARENT
REMARK Flexibility Score: inf
ROOT
ATOM      1  C   UNL     1      50.968  34.584  85.967  1.00  0.00     0.000 C 
ENDROOT
BRANCH   1   2
ATOM      2  C   UNL     1      52.481  34.735  86.215  1.00  0.00     0.000 C 
BRANCH   2   3
ATOM      3  C   UNL     1      52.797  35.598  87.449  1.00  0.00     0.000 C 
BRANCH   3   4
ATOM      4  C   UNL     1      54.184  35.298  88.041  1.00  0.00    -0.000 C 
BRANCH   4   5
ATOM      5  C   UNL     1      54.530  33.799  88.000  1.00  0.00    -0.000 C 
BRANCH   5   6
ATOM      6  C   UNL     1      54.005  33.032  89.229  1.00  0.00    -0.000 C 
BRANCH   6   7
ATOM      7  C   UNL     1      52.953  31.945  88.928  1.00  0.00    -0.000 C 
BRANCH   7   8
ATOM      8  C   UNL     1      51.493  32.344  89.212  1.00  0.00    -0.000 C 
BRANCH   8   9
ATOM      9  C   UNL     1      50.577  31.132  89.448  1.00  0.00    -0.000 C 
BRANCH   9  10
ATOM     10  C   UNL     1      49.994  31.093  90.871  1.00  0.00    -0.000 C 
BRANCH  10  11
ATOM     11  C   UNL     1      51.061  31.193  91.982  1.00  0.00    -0.003 C 
ATOM     12  C   UNL     1      50.880  32.439  92.850  1.00  0.00     0.004 C 
ENDBRANCH  10  11
ENDBRANCH   9  10
ENDBRANCH   8   9
ENDBRANCH   7   8
ENDBRANCH   6   7
ENDBRANCH   5   6
ENDBRANCH   4   5
ENDBRANCH   3   4
ENDBRANCH   2   3
ENDBRANCH   1   2
BRANCH   1  13
ATOM     13  C   UNL     1      50.066  35.331  86.970  1.00  0.00     0.000 C 
BRANCH  13  14
ATOM     14  C   UNL     1      48.603  34.848  87.012  1.00  0.00     0.000 C 
BRANCH  14  15
ATOM     15  C   UNL     1      48.449  33.324  86.816  1.00  0.00     0.000 C 
BRANCH  15  16
ATOM     16  C   UNL     1      47.918  32.621  88.077  1.00  0.00     0.000 C 
BRANCH  16  17
ATOM     17  C   UNL     1      47.163  31.316  87.765  1.00  0.00     0.000 C 
BRANCH  17  18
ATOM     18  C   UNL     1      46.454  30.665  88.968  1.00  0.00     0.000 C 
BRANCH  18  19
ATOM     19  C   UNL     1      45.622  31.664  89.790  1.00  0.00     0.000 C 
BRANCH  19  20
ATOM     20  C   UNL     1      45.667  31.371  91.299  1.00  0.00     0.006 C 
BRANCH  20  21
ATOM     21  C   UNL     1      44.280  31.413  91.955  1.00  0.00     0.053 C 
BRANCH  21  22
ATOM     22  C   UNL     1      43.832  30.034  92.325  1.00  0.00     0.041 C 
ATOM     23  O   UNL     1      44.613  29.256  92.935  1.00  0.00    -0.550 OA
ATOM     24  O   UNL     1      42.562  29.596  91.972  1.00  0.00    -0.550 OA
ENDBRANCH  21  22
ENDBRANCH  20  21
ENDBRANCH  19  20
ENDBRANCH  18  19
ENDBRANCH  17  18
ENDBRANCH  16  17
ENDBRANCH  15  16
ENDBRANCH  14  15
ENDBRANCH  13  14
ENDBRANCH   1  13
TORSDOF 20
ENDMDL
MODEL 3
REMARK VINA RESULT:    -3.446     15.094     17.884
REMARK INTER + INTRA:         -10.641
REMARK INTER:                  -6.758
REMARK INTRA:                  -3.883
REMARK UNBOUND:                -3.167
REMARK SMILES CCCCCCCCCCCCCCCCCCCCCC(=O)[O-]
REMARK SMILES IDX 12 1 11 2 10 3 9 4 8 5 7 6 6 7 5 8 4 9 3 10 2 11 1 12 13 13
REMARK SMILES IDX 14 14 15 15 16 16 17 17 18 18 19 19 20 20 21 21 22 22 23 23
REMARK SMILES IDX 24 24
REMARK H PARENT
REMARK Flexibility Score: inf
ROOT
ATOM      1  C   UNL     1      47.541  31.404  86.523  1.00  0.00     0.000 C 
ENDROOT
BRANCH   1   2
ATOM      2  C   UNL     1      48.986  31.883  86.757  1.00  0.00     0.000 C 
BRANCH   2   3
ATOM      3  C   UNL     1      49.062  33.111  87.682  1.00  0.00     0.000 C 
BRANCH   3   4
ATOM      4  C   UNL     1      48.677  34.416  86.966  1.00  0.00    -0.000 C 
BRANCH   4   5
ATOM      5  C   UNL     1      49.699  35.542  87.206  1.00  0.00    -0.000 C 
BRANCH   5   6
ATOM      6  C   UNL     1      51.088  35.011  87.607  1.00  0.00    -0.000 C 
BRANCH   6   7
ATOM      7  C   UNL     1      52.164  35.077  86.502  1.00  0.00    -0.000 C 
BRANCH   7   8
ATOM      8  C   UNL     1      52.327  33.795  85.664  1.00  0.00    -0.000 C 
BRANCH   8   9
ATOM      9  C   UNL     1      51.969  34.000  84.183  1.00  0.00    -0.000 C 
BRANCH   9  10
ATOM     10  C   UNL     1      50.579  33.448  83.824  1.00  0.00    -0.000 C 
BRANCH  10  11
ATOM     11  C   UNL     1      49.548  34.541  83.471  1.00  0.00    -0.003 C 
ATOM     12  C   UNL     1      48.284  33.963  82.835  1.00  0.00     0.004 C 
ENDBRANCH  10  11
ENDBRANCH   9  10
ENDBRANCH   8   9
ENDBRANCH   7   8
ENDBRANCH   6   7
ENDBRANCH   5   6
ENDBRANCH   4   5
ENDBRANCH   3   4
ENDBRANCH   2   3
ENDBRANCH   1   2
BRANCH   1  13
ATOM     13  C   UNL     1      47.247  29.966  86.997  1.00  0.00     0.000 C 
BRANCH  13  14
ATOM     14  C   UNL     1      46.444  29.866  88.308  1.00  0.00     0.000 C 
BRANCH  14  15
ATOM     15  C   UNL     1      46.022  31.237  88.881  1.00  0.00     0.000 C 
BRANCH  15  16
ATOM     16  C   UNL     1      46.754  31.574  90.192  1.00  0.00     0.000 C 
BRANCH  16  17
ATOM     17  C   UNL     1      47.793  30.510  90.592  1.00  0.00     0.000 C 
BRANCH  17  18
ATOM     18  C   UNL     1      49.236  31.026  90.743  1.00  0.00     0.000 C 
BRANCH  18  19
ATOM     19  C   UNL     1      50.273  30.130  90.044  1.00  0.00     0.000 C 
BRANCH  19  20
ATOM     20  C   UNL     1      51.445  30.931  89.453  1.00  0.00     0.006 C 
BRANCH  20  21
ATOM     21  C   UNL     1      51.701  32.250  90.195  1.00  0.00     0.053 C 
BRANCH  21  22
ATOM     22  C   UNL     1      53.105  32.715  89.968  1.00  0.00     0.041 C 
ATOM     23  O   UNL     1      53.773  33.202  90.919  1.00  0.00    -0.550 OA
ATOM     24  O   UNL     1      53.669  32.637  88.701  1.00  0.00    -0.550 OA
ENDBRANCH  21  22
ENDBRANCH  20  21
ENDBRANCH  19  20
ENDBRANCH  18  19
ENDBRANCH  17  18
ENDBRANCH  16  17
ENDBRANCH  15  16
ENDBRANCH  14  15
ENDBRANCH  13  14
ENDBRANCH   1  13
TORSDOF 20
ENDMDL
MODEL 4
REMARK VINA RESULT:    -3.444     15.994     17.948
REMARK INTER + INTRA:         -10.638
REMARK INTER:                  -7.344
REMARK INTRA:                  -3.294
REMARK UNBOUND:                -3.167
REMARK SMILES CCCCCCCCCCCCCCCCCCCCCC(=O)[O-]
REMARK SMILES IDX 12 1 11 2 10 3 9 4 8 5 7 6 6 7 5 8 4 9 3 10 2 11 1 12 13 13
REMARK SMILES IDX 14 14 15 15 16 16 17 17 18 18 19 19 20 20 21 21 22 22 23 23
REMARK SMILES IDX 24 24
REMARK H PARENT
REMARK Flexibility Score: inf
ROOT
ATOM      1  C   UNL     1      46.040  31.598  89.380  1.00  0.00     0.000 C 
ENDROOT
BRANCH   1   2
ATOM      2  C   UNL     1      47.243  32.341  88.769  1.00  0.00     0.000 C 
BRANCH   2   3
ATOM      3  C   UNL     1      47.726  31.707  87.452  1.00  0.00     0.000 C 
BRANCH   3   4
ATOM      4  C   UNL     1      48.689  32.619  86.674  1.00  0.00    -0.000 C 
BRANCH   4   5
ATOM      5  C   UNL     1      48.624  34.082  87.145  1.00  0.00    -0.000 C 
BRANCH   5   6
ATOM      6  C   UNL     1      49.729  34.958  86.524  1.00  0.00    -0.000 C 
BRANCH   6   7
ATOM      7  C   UNL     1      50.291  34.455  85.178  1.00  0.00    -0.000 C 
BRANCH   7   8
ATOM      8  C   UNL     1      51.818  34.255  85.135  1.00  0.00    -0.000 C 
BRANCH   8   9
ATOM      9  C   UNL     1      52.545  34.952  86.296  1.00  0.00    -0.000 C 
BRANCH   9  10
ATOM     10  C   UNL     1      53.355  33.975  87.165  1.00  0.00    -0.000 C 
BRANCH  10  11
ATOM     11  C   UNL     1      52.563  33.404  88.361  1.00  0.00    -0.003 C 
ATOM     12  C   UNL     1      51.986  32.019  88.067  1.00  0.00     0.004 C 
ENDBRANCH  10  11
ENDBRANCH   9  10
ENDBRANCH   8   9
ENDBRANCH   7   8
ENDBRANCH   6   7
ENDBRANCH   5   6
ENDBRANCH   4   5
ENDBRANCH   3   4
ENDBRANCH   2   3
ENDBRANCH   1   2
BRANCH   1  13
ATOM     13  C   UNL     1      45.997  31.585  90.921  1.00  0.00     0.000 C 
BRANCH  13  14
ATOM     14  C   UNL     1      44.651  31.148  91.530  1.00  0.00     0.000 C 
BRANCH  14  15
ATOM     15  C   UNL     1      44.474  29.615  91.604  1.00  0.00     0.000 C 
BRANCH  15  16
ATOM     16  C   UNL     1      45.808  28.881  91.827  1.00  0.00     0.000 C 
BRANCH  16  17
ATOM     17  C   UNL     1      46.186  27.952  90.658  1.00  0.00     0.000 C 
BRANCH  17  18
ATOM     18  C   UNL     1      47.545  28.249  89.997  1.00  0.00     0.000 C 
BRANCH  18  19
ATOM     19  C   UNL     1      48.558  28.889  90.963  1.00  0.00     0.000 C 
BRANCH  19  20
ATOM     20  C   UNL     1      49.551  29.820  90.248  1.00  0.00     0.006 C 
BRANCH  20  21
ATOM     21  C   UNL     1      49.795  31.130  91.010  1.00  0.00     0.053 C 
BRANCH  21  22
ATOM     22  C   UNL     1      51.148  31.119  91.651  1.00  0.00     0.041 C 
ATOM     23  O   UNL     1      51.952  30.178  91.419  1.00  0.00    -0.550 OA
ATOM     24  O   UNL     1      51.512  32.136  92.524  1.00  0.00    -0.550 OA
ENDBRANCH  21  22
ENDBRANCH  20  21
ENDBRANCH  19  20
ENDBRANCH  18  19
ENDBRANCH  17  18
ENDBRANCH  16  17
ENDBRANCH  15  16
ENDBRANCH  14  15
ENDBRANCH  13  14
ENDBRANCH   1  13
TORSDOF 20
ENDMDL
MODEL 5
REMARK VINA RESULT:    -3.409     15.622     17.504
REMARK INTER + INTRA:         -10.561
REMARK INTER:                  -6.499
REMARK INTRA:                  -4.062
REMARK UNBOUND:                -3.167
REMARK SMILES CCCCCCCCCCCCCCCCCCCCCC(=O)[O-]
REMARK SMILES IDX 12 1 11 2 10 3 9 4 8 5 7 6 6 7 5 8 4 9 3 10 2 11 1 12 13 13
REMARK SMILES IDX 14 14 15 15 16 16 17 17 18 18 19 19 20 20 21 21 22 22 23 23
REMARK SMILES IDX 24 24
REMARK H PARENT
REMARK Flexibility Score: inf
ROOT
ATOM      1  C   UNL     1      51.647  31.443  87.173  1.00  0.00     0.000 C 
ENDROOT
BRANCH   1   2
ATOM      2  C   UNL     1      51.889  31.920  85.728  1.00  0.00     0.000 C 
BRANCH   2   3
ATOM      3  C   UNL     1      53.243  32.630  85.556  1.00  0.00     0.000 C 
BRANCH   3   4
ATOM      4  C   UNL     1      53.121  34.161  85.622  1.00  0.00    -0.000 C 
BRANCH   4   5
ATOM      5  C   UNL     1      53.477  34.721  87.010  1.00  0.00    -0.000 C 
BRANCH   5   6
ATOM      6  C   UNL     1      52.238  35.166  87.809  1.00  0.00    -0.000 C 
BRANCH   6   7
ATOM      7  C   UNL     1      50.962  35.400  86.973  1.00  0.00    -0.000 C 
BRANCH   7   8
ATOM      8  C   UNL     1      49.709  34.647  87.458  1.00  0.00    -0.000 C 
BRANCH   8   9
ATOM      9  C   UNL     1      48.959  33.938  86.319  1.00  0.00    -0.000 C 
BRANCH   9  10
ATOM     10  C   UNL     1      48.987  34.732  85.002  1.00  0.00    -0.000 C 
BRANCH  10  11
ATOM     11  C   UNL     1      49.336  33.874  83.767  1.00  0.00    -0.003 C 
ATOM     12  C   UNL     1      50.511  34.448  82.974  1.00  0.00     0.004 C 
ENDBRANCH  10  11
ENDBRANCH   9  10
ENDBRANCH   8   9
ENDBRANCH   7   8
ENDBRANCH   6   7
ENDBRANCH   5   6
ENDBRANCH   4   5
ENDBRANCH   3   4
ENDBRANCH   2   3
ENDBRANCH   1   2
BRANCH   1  13
ATOM     13  C   UNL     1      52.925  31.142  87.981  1.00  0.00     0.000 C 
BRANCH  13  14
ATOM     14  C   UNL     1      52.975  31.786  89.380  1.00  0.00     0.000 C 
BRANCH  14  15
ATOM     15  C   UNL     1      51.591  32.220  89.911  1.00  0.00     0.000 C 
BRANCH  15  16
ATOM     16  C   UNL     1      51.014  31.220  90.928  1.00  0.00     0.000 C 
BRANCH  16  17
ATOM     17  C   UNL     1      49.480  31.103  90.852  1.00  0.00     0.000 C 
BRANCH  17  18
ATOM     18  C   UNL     1      48.943  30.278  89.667  1.00  0.00     0.000 C 
BRANCH  18  19
ATOM     19  C   UNL     1      48.314  31.146  88.564  1.00  0.00     0.000 C 
BRANCH  19  20
ATOM     20  C   UNL     1      47.097  31.944  89.059  1.00  0.00     0.006 C 
BRANCH  20  21
ATOM     21  C   UNL     1      45.869  31.059  89.315  1.00  0.00     0.053 C 
BRANCH  21  22
ATOM     22  C   UNL     1      45.486  31.099  90.761  1.00  0.00     0.041 C 
ATOM     23  O   UNL     1      45.978  31.974  91.524  1.00  0.00    -0.550 OA
ATOM     24  O   UNL     1      44.606  30.155  91.275  1.00  0.00    -0.550 OA
ENDBRANCH  21  22
ENDBRANCH  20  21
ENDBRANCH  19  20
ENDBRANCH  18  19
ENDBRANCH  17  18
ENDBRANCH  16  17
ENDBRANCH  15  16
ENDBRANCH  14  15
ENDBRANCH  13  14
ENDBRANCH   1  13
TORSDOF 20
ENDMDL
MODEL 6
REMARK VINA RESULT:    -3.390     15.384     17.944
REMARK INTER + INTRA:         -10.520
REMARK INTER:                  -6.751
REMARK INTRA:                  -3.769
REMARK UNBOUND:                -3.167
REMARK SMILES CCCCCCCCCCCCCCCCCCCCCC(=O)[O-]
REMARK SMILES IDX 12 1 11 2 10 3 9 4 8 5 7 6 6 7 5 8 4 9 3 10 2 11 1 12 13 13
REMARK SMILES IDX 14 14 15 15 16 16 17 17 18 18 19 19 20 20 21 21 22 22 23 23
REMARK SMILES IDX 24 24
REMARK H PARENT
REMARK Flexibility Score: inf
ROOT
ATOM      1  C   UNL     1      53.491  34.151  86.082  1.00  0.00     0.000 C 
ENDROOT
BRANCH   1   2
ATOM      2  C   UNL     1      52.630  35.298  86.643  1.00  0.00     0.000 C 
BRANCH   2   3
ATOM      3  C   UNL     1      51.464  34.796  87.513  1.00  0.00     0.000 C 
BRANCH   3   4
ATOM      4  C   UNL     1      50.244  35.729  87.465  1.00  0.00    -0.000 C 
BRANCH   4   5
ATOM      5  C   UNL     1      49.016  35.059  86.822  1.00  0.00    -0.000 C 
BRANCH   5   6
ATOM      6  C   UNL     1      48.600  33.762  87.541  1.00  0.00    -0.000 C 
BRANCH   6   7
ATOM      7  C   UNL     1      48.525  32.506  86.647  1.00  0.00    -0.000 C 
BRANCH   7   8
ATOM      8  C   UNL     1      49.752  31.578  86.709  1.00  0.00    -0.000 C 
BRANCH   8   9
ATOM      9  C   UNL     1      50.708  31.770  85.520  1.00  0.00    -0.000 C 
BRANCH   9  10
ATOM     10  C   UNL     1      50.016  32.387  84.292  1.00  0.00    -0.000 C 
BRANCH  10  11
ATOM     11  C   UNL     1      50.673  33.695  83.802  1.00  0.00    -0.003 C 
ATOM     12  C   UNL     1      49.654  34.672  83.214  1.00  0.00     0.004 C 
ENDBRANCH  10  11
ENDBRANCH   9  10
ENDBRANCH   8   9
ENDBRANCH   7   8
ENDBRANCH   6   7
ENDBRANCH   5   6
ENDBRANCH   4   5
ENDBRANCH   3   4
ENDBRANCH   2   3
ENDBRANCH   1   2
BRANCH   1  13
ATOM     13  C   UNL     1      54.291  33.362  87.136  1.00  0.00     0.000 C 
BRANCH  13  14
ATOM     14  C   UNL     1      54.165  31.829  87.035  1.00  0.00     0.000 C 
BRANCH  14  15
ATOM     15  C   UNL     1      53.276  31.208  88.134  1.00  0.00     0.000 C 
BRANCH  15  16
ATOM     16  C   UNL     1      53.587  31.775  89.530  1.00  0.00     0.000 C 
BRANCH  16  17
ATOM     17  C   UNL     1      52.344  32.341  90.240  1.00  0.00     0.000 C 
BRANCH  17  18
ATOM     18  C   UNL     1      52.054  31.745  91.631  1.00  0.00     0.000 C 
BRANCH  18  19
ATOM     19  C   UNL     1      50.819  30.828  91.649  1.00  0.00     0.000 C 
BRANCH  19  20
ATOM     20  C   UNL     1      49.590  31.477  90.994  1.00  0.00     0.006 C 
BRANCH  20  21
ATOM     21  C   UNL     1      48.742  30.478  90.195  1.00  0.00     0.053 C 
BRANCH  21  22
ATOM     22  C   UNL     1      47.284  30.747  90.399  1.00  0.00     0.041 C 
ATOM     23  O   UNL     1      46.585  29.961  91.092  1.00  0.00    -0.550 OA
ATOM     24  O   UNL     1      46.689  31.851  89.801  1.00  0.00    -0.550 OA
ENDBRANCH  21  22
ENDBRANCH  20  21
ENDBRANCH  19  20
ENDBRANCH  18  19
ENDBRANCH  17  18
ENDBRANCH  16  17
ENDBRANCH  15  16
ENDBRANCH  14  15
ENDBRANCH  13  14
ENDBRANCH   1  13
TORSDOF 20
ENDMDL
MODEL 7
REMARK VINA RESULT:    -3.366      1.366      2.525
REMARK INTER + INTRA:         -10.467
REMARK INTER:                  -7.971
REMARK INTRA:                  -2.496
REMARK UNBOUND:                -3.167
REMARK SMILES CCCCCCCCCCCCCCCCCCCCCC(=O)[O-]
REMARK SMILES IDX 12 1 11 2 10 3 9 4 8 5 7 6 6 7 5 8 4 9 3 10 2 11 1 12 13 13
REMARK SMILES IDX 14 14 15 15 16 16 17 17 18 18 19 19 20 20 21 21 22 22 23 23
REMARK SMILES IDX 24 24
REMARK H PARENT
REMARK Flexibility Score: inf
ROOT
ATOM      1  C   UNL     1      44.419  21.438  73.739  1.00  0.00     0.000 C 
ENDROOT
BRANCH   1   2
ATOM      2  C   UNL     1      45.779  22.139  73.560  1.00  0.00     0.000 C 
BRANCH   2   3
ATOM      3  C   UNL     1      46.900  21.165  73.158  1.00  0.00     0.000 C 
BRANCH   3   4
ATOM      4  C   UNL     1      47.547  20.474  74.369  1.00  0.00    -0.000 C 
BRANCH   4   5
ATOM      5  C   UNL     1      48.483  21.412  75.152  1.00  0.00    -0.000 C 
BRANCH   5   6
ATOM      6  C   UNL     1      47.966  21.721  76.570  1.00  0.00    -0.000 C 
BRANCH   6   7
ATOM      7  C   UNL     1      48.549  20.837  77.692  1.00  0.00    -0.000 C 
BRANCH   7   8
ATOM      8  C   UNL     1      47.556  19.856  78.342  1.00  0.00    -0.000 C 
BRANCH   8   9
ATOM      9  C   UNL     1      46.088  20.231  78.083  1.00  0.00    -0.000 C 
BRANCH   9  10
ATOM     10  C   UNL     1      45.241  19.037  77.612  1.00  0.00    -0.000 C 
BRANCH  10  11
ATOM     11  C   UNL     1      45.892  18.224  76.473  1.00  0.00    -0.003 C 
ATOM     12  C   UNL     1      45.831  16.717  76.727  1.00  0.00     0.004 C 
ENDBRANCH  10  11
ENDBRANCH   9  10
ENDBRANCH   8   9
ENDBRANCH   7   8
ENDBRANCH   6   7
ENDBRANCH   5   6
ENDBRANCH   4   5
ENDBRANCH   3   4
ENDBRANCH   2   3
ENDBRANCH   1   2
BRANCH   1  13
ATOM     13  C   UNL     1      43.790  21.583  75.139  1.00  0.00     0.000 C 
BRANCH  13  14
ATOM     14  C   UNL     1      42.318  22.041  75.146  1.00  0.00     0.000 C 
BRANCH  14  15
ATOM     15  C   UNL     1      41.617  21.851  76.509  1.00  0.00     0.000 C 
BRANCH  15  16
ATOM     16  C   UNL     1      42.615  21.587  77.649  1.00  0.00     0.000 C 
BRANCH  16  17
ATOM     17  C   UNL     1      42.232  22.299  78.960  1.00  0.00     0.000 C 
BRANCH  17  18
ATOM     18  C   UNL     1      41.813  21.368  80.114  1.00  0.00     0.000 C 
BRANCH  18  19
ATOM     19  C   UNL     1      41.430  19.955  79.639  1.00  0.00     0.000 C 
BRANCH  19  20
ATOM     20  C   UNL     1      39.966  19.602  79.950  1.00  0.00     0.006 C 
BRANCH  20  21
ATOM     21  C   UNL     1      39.024  20.808  79.831  1.00  0.00     0.053 C 
BRANCH  21  22
ATOM     22  C   UNL     1      37.806  20.608  80.677  1.00  0.00     0.041 C 
ATOM     23  O   UNL     1      37.059  19.611  80.486  1.00  0.00    -0.550 OA
ATOM     24  O   UNL     1      37.480  21.534  81.659  1.00  0.00    -0.550 OA
ENDBRANCH  21  22
ENDBRANCH  20  21
ENDBRANCH  19  20
ENDBRANCH  18  19
ENDBRANCH  17  18
ENDBRANCH  16  17
ENDBRANCH  15  16
ENDBRANCH  14  15
ENDBRANCH  13  14
ENDBRANCH   1  13
TORSDOF 20
ENDMDL
MODEL 8
REMARK VINA RESULT:    -3.350      4.064      7.556
REMARK INTER + INTRA:         -10.433
REMARK INTER:                  -7.025
REMARK INTRA:                  -3.409
REMARK UNBOUND:                -3.167
REMARK SMILES CCCCCCCCCCCCCCCCCCCCCC(=O)[O-]
REMARK SMILES IDX 12 1 11 2 10 3 9 4 8 5 7 6 6 7 5 8 4 9 3 10 2 11 1 12 13 13
REMARK SMILES IDX 14 14 15 15 16 16 17 17 18 18 19 19 20 20 21 21 22 22 23 23
REMARK SMILES IDX 24 24
REMARK H PARENT
REMARK Flexibility Score: inf
ROOT
ATOM      1  C   UNL     1      44.584  21.401  78.907  1.00  0.00     0.000 C 
ENDROOT
BRANCH   1   2
ATOM      2  C   UNL     1      44.449  22.801  78.280  1.00  0.00     0.000 C 
BRANCH   2   3
ATOM      3  C   UNL     1      44.059  22.752  76.793  1.00  0.00     0.000 C 
BRANCH   3   4
ATOM      4  C   UNL     1      42.585  23.119  76.555  1.00  0.00    -0.000 C 
BRANCH   4   5
ATOM      5  C   UNL     1      41.783  21.963  75.933  1.00  0.00    -0.000 C 
BRANCH   5   6
ATOM      6  C   UNL     1      40.736  21.377  76.899  1.00  0.00    -0.000 C 
BRANCH   6   7
ATOM      7  C   UNL     1      40.753  21.963  78.326  1.00  0.00    -0.000 C 
BRANCH   7   8
ATOM      8  C   UNL     1      40.947  20.938  79.458  1.00  0.00    -0.000 C 
BRANCH   8   9
ATOM      9  C   UNL     1      40.059  19.694  79.297  1.00  0.00    -0.000 C 
BRANCH   9  10
ATOM     10  C   UNL     1      39.045  19.532  80.443  1.00  0.00    -0.000 C 
BRANCH  10  11
ATOM     11  C   UNL     1      37.720  20.289  80.212  1.00  0.00    -0.003 C 
ATOM     12  C   UNL     1      37.633  21.573  81.037  1.00  0.00     0.004 C 
ENDBRANCH  10  11
ENDBRANCH   9  10
ENDBRANCH   8   9
ENDBRANCH   7   8
ENDBRANCH   6   7
ENDBRANCH   5   6
ENDBRANCH   4   5
ENDBRANCH   3   4
ENDBRANCH   2   3
ENDBRANCH   1   2
BRANCH   1  13
ATOM     13  C   UNL     1      44.449  20.228  77.915  1.00  0.00     0.000 C 
BRANCH  13  14
ATOM     14  C   UNL     1      45.523  19.132  78.055  1.00  0.00     0.000 C 
BRANCH  14  15
ATOM     15  C   UNL     1      45.996  18.553  76.704  1.00  0.00     0.000 C 
BRANCH  15  16
ATOM     16  C   UNL     1      45.833  19.555  75.547  1.00  0.00     0.000 C 
BRANCH  16  17
ATOM     17  C   UNL     1      47.166  20.189  75.109  1.00  0.00     0.000 C 
BRANCH  17  18
ATOM     18  C   UNL     1      47.371  21.653  75.545  1.00  0.00     0.000 C 
BRANCH  18  19
ATOM     19  C   UNL     1      48.562  21.837  76.500  1.00  0.00     0.000 C 
BRANCH  19  20
ATOM     20  C   UNL     1      48.191  21.572  77.969  1.00  0.00     0.006 C 
BRANCH  20  21
ATOM     21  C   UNL     1      48.942  20.376  78.568  1.00  0.00     0.053 C 
BRANCH  21  22
ATOM     22  C   UNL     1      50.048  20.845  79.461  1.00  0.00     0.041 C 
ATOM     23  O   UNL     1      49.785  21.345  80.587  1.00  0.00    -0.550 OA
ATOM     24  O   UNL     1      51.369  20.754  79.040  1.00  0.00    -0.550 OA
ENDBRANCH  21  22
ENDBRANCH  20  21
ENDBRANCH  19  20
ENDBRANCH  18  19
ENDBRANCH  17  18
ENDBRANCH  16  17
ENDBRANCH  15  16
ENDBRANCH  14  15
ENDBRANCH  13  14
ENDBRANCH   1  13
TORSDOF 20
ENDMDL
MODEL 9
REMARK VINA RESULT:    -3.295     15.011     17.931
REMARK INTER + INTRA:         -10.314
REMARK INTER:                  -6.228
REMARK INTRA:                  -4.086
REMARK UNBOUND:                -3.167
REMARK SMILES CCCCCCCCCCCCCCCCCCCCCC(=O)[O-]
REMARK SMILES IDX 12 1 11 2 10 3 9 4 8 5 7 6 6 7 5 8 4 9 3 10 2 11 1 12 13 13
REMARK SMILES IDX 14 14 15 15 16 16 17 17 18 18 19 19 20 20 21 21 22 22 23 23
REMARK SMILES IDX 24 24
REMARK H PARENT
REMARK Flexibility Score: inf
ROOT
ATOM      1  C   UNL     1      49.488  33.365  87.405  1.00  0.00     0.000 C 
ENDROOT
BRANCH   1   2
ATOM      2  C   UNL     1      48.209  32.515  87.278  1.00  0.00     0.000 C 
BRANCH   2   3
ATOM      3  C   UNL     1      47.510  32.288  88.630  1.00  0.00     0.000 C 
BRANCH   3   4
ATOM      4  C   UNL     1      47.255  30.800  88.922  1.00  0.00    -0.000 C 
BRANCH   4   5
ATOM      5  C   UNL     1      48.456  30.118  89.599  1.00  0.00    -0.000 C 
BRANCH   5   6
ATOM      6  C   UNL     1      48.935  30.866  90.857  1.00  0.00    -0.000 C 
BRANCH   6   7
ATOM      7  C   UNL     1      50.465  30.931  91.044  1.00  0.00    -0.000 C 
BRANCH   7   8
ATOM      8  C   UNL     1      51.190  31.986  90.187  1.00  0.00    -0.000 C 
BRANCH   8   9
ATOM      9  C   UNL     1      52.598  31.542  89.757  1.00  0.00    -0.000 C 
BRANCH   9  10
ATOM     10  C   UNL     1      52.679  31.185  88.262  1.00  0.00    -0.000 C 
BRANCH  10  11
ATOM     11  C   UNL     1      51.681  30.091  87.830  1.00  0.00    -0.003 C 
ATOM     12  C   UNL     1      51.107  30.347  86.436  1.00  0.00     0.004 C 
ENDBRANCH  10  11
ENDBRANCH   9  10
ENDBRANCH   8   9
ENDBRANCH   7   8
ENDBRANCH   6   7
ENDBRANCH   5   6
ENDBRANCH   4   5
ENDBRANCH   3   4
ENDBRANCH   2   3
ENDBRANCH   1   2
BRANCH   1  13
ATOM     13  C   UNL     1      49.291  34.876  87.171  1.00  0.00     0.000 C 
BRANCH  13  14
ATOM     14  C   UNL     1      50.518  35.749  87.497  1.00  0.00     0.000 C 
BRANCH  14  15
ATOM     15  C   UNL     1      51.780  34.933  87.853  1.00  0.00     0.000 C 
BRANCH  15  16
ATOM     16  C   UNL     1      53.005  35.356  87.024  1.00  0.00     0.000 C 
BRANCH  16  17
ATOM     17  C   UNL     1      53.700  34.170  86.330  1.00  0.00     0.000 C 
BRANCH  17  18
ATOM     18  C   UNL     1      52.827  33.396  85.324  1.00  0.00     0.000 C 
BRANCH  18  19
ATOM     19  C   UNL     1      52.408  34.245  84.111  1.00  0.00     0.000 C 
BRANCH  19  20
ATOM     20  C   UNL     1      50.882  34.313  83.935  1.00  0.00     0.006 C 
BRANCH  20  21
ATOM     21  C   UNL     1      50.234  32.926  83.824  1.00  0.00     0.053 C 
BRANCH  21  22
ATOM     22  C   UNL     1      48.766  33.054  83.558  1.00  0.00     0.041 C 
ATOM     23  O   UNL     1      47.989  32.097  83.819  1.00  0.00    -0.550 OA
ATOM     24  O   UNL     1      48.259  34.219  82.997  1.00  0.00    -0.550 OA
ENDBRANCH  21  22
ENDBRANCH  20  21
ENDBRANCH  19  20
ENDBRANCH  18  19
ENDBRANCH  17  18
ENDBRANCH  16  17
ENDBRANCH  15  16
ENDBRANCH  14  15
ENDBRANCH  13  14
ENDBRANCH   1  13
TORSDOF 20
ENDMDL
