MODEL 1
REMARK VINA RESULT:    -2.416      0.000      0.000
REMARK INTER + INTRA:          -5.633
REMARK INTER:                  -4.393
REMARK INTRA:                  -1.240
REMARK UNBOUND:                -1.240
REMARK SMILES CCCCCCCCCCCCCCCC(=O)[O-]
REMARK SMILES IDX 9 1 10 2 11 3 12 4 13 5 14 6 15 7 16 8 17 9 18 10 8 11 7 12
REMARK SMILES IDX 6 13 5 14 4 15 3 16 2 17 1 18
REMARK H PARENT
REMARK Flexibility Score: inf
ROOT
ATOM      1  C   UNL     1      -7.107 -22.539  18.652  1.00  0.00     0.000 C 
ENDROOT
BRANCH   1   2
ATOM      2  C   UNL     1      -8.286 -22.990  19.534  1.00  0.00     0.000 C 
BRANCH   2   3
ATOM      3  C   UNL     1      -7.932 -23.030  21.030  1.00  0.00     0.000 C 
BRANCH   3   4
ATOM      4  C   UNL     1      -9.093 -22.560  21.924  1.00  0.00     0.000 C 
BRANCH   4   5
ATOM      5  C   UNL     1     -10.189 -21.829  21.129  1.00  0.00     0.000 C 
BRANCH   5   6
ATOM      6  C   UNL     1     -10.778 -20.630  21.895  1.00  0.00     0.006 C 
BRANCH   6   7
ATOM      7  C   UNL     1      -9.762 -19.867  22.761  1.00  0.00     0.053 C 
BRANCH   7   8
ATOM      8  C   UNL     1      -9.692 -18.416  22.399  1.00  0.00     0.041 C 
ATOM      9  O   UNL     1     -10.303 -17.986  21.386  1.00  0.00    -0.550 OA
ATOM     10  O   UNL     1      -8.979 -17.532  23.199  1.00  0.00    -0.550 OA
ENDBRANCH   7   8
ENDBRANCH   6   7
ENDBRANCH   5   6
ENDBRANCH   4   5
ENDBRANCH   3   4
ENDBRANCH   2   3
ENDBRANCH   1   2
BRANCH   1  11
ATOM     11  C   UNL     1      -7.133 -23.062  17.202  1.00  0.00     0.000 C 
BRANCH  11  12
ATOM     12  C   UNL     1      -7.071 -21.974  16.116  1.00  0.00    -0.000 C 
BRANCH  12  13
ATOM     13  C   UNL     1      -8.411 -21.785  15.386  1.00  0.00    -0.000 C 
BRANCH  13  14
ATOM     14  C   UNL     1      -8.612 -20.345  14.887  1.00  0.00    -0.000 C 
BRANCH  14  15
ATOM     15  C   UNL     1     -10.032 -20.102  14.345  1.00  0.00    -0.000 C 
BRANCH  15  16
ATOM     16  C   UNL     1     -11.124 -20.532  15.335  1.00  0.00    -0.000 C 
BRANCH  16  17
ATOM     17  C   UNL     1     -11.123 -19.688  16.618  1.00  0.00    -0.003 C 
ATOM     18  C   UNL     1     -10.892 -20.560  17.850  1.00  0.00     0.004 C 
ENDBRANCH  16  17
ENDBRANCH  15  16
ENDBRANCH  14  15
ENDBRANCH  13  14
ENDBRANCH  12  13
ENDBRANCH  11  12
ENDBRANCH   1  11
TORSDOF 14
ENDMDL
MODEL 2
REMARK VINA RESULT:    -1.507      3.494      5.541
REMARK INTER + INTRA:          -3.981
REMARK INTER:                  -3.385
REMARK INTRA:                  -0.595
REMARK UNBOUND:                -1.240
REMARK SMILES CCCCCCCCCCCCCCCC(=O)[O-]
REMARK SMILES IDX 9 1 10 2 11 3 12 4 13 5 14 6 15 7 16 8 17 9 18 10 8 11 7 12
REMARK SMILES IDX 6 13 5 14 4 15 3 16 2 17 1 18
REMARK H PARENT
REMARK Flexibility Score: inf
ROOT
ATOM      1  C   UNL     1      -7.169 -22.048  18.212  1.00  0.00     0.000 C 
ENDROOT
BRANCH   1   2
ATOM      2  C   UNL     1      -8.645 -21.618  18.110  1.00  0.00     0.000 C 
BRANCH   2   3
ATOM      3  C   UNL     1      -9.560 -22.392  19.074  1.00  0.00     0.000 C 
BRANCH   3   4
ATOM      4  C   UNL     1     -10.865 -21.639  19.382  1.00  0.00     0.000 C 
BRANCH   4   5
ATOM      5  C   UNL     1     -10.934 -20.270  18.681  1.00  0.00     0.000 C 
BRANCH   5   6
ATOM      6  C   UNL     1     -10.525 -19.108  19.606  1.00  0.00     0.006 C 
BRANCH   6   7
ATOM      7  C   UNL     1     -10.974 -19.273  21.068  1.00  0.00     0.053 C 
BRANCH   7   8
ATOM      8  C   UNL     1     -10.005 -18.652  22.026  1.00  0.00     0.041 C 
ATOM      9  O   UNL     1      -9.602 -19.300  23.028  1.00  0.00    -0.550 OA
ATOM     10  O   UNL     1      -9.520 -17.371  21.795  1.00  0.00    -0.550 OA
ENDBRANCH   7   8
ENDBRANCH   6   7
ENDBRANCH   5   6
ENDBRANCH   4   5
ENDBRANCH   3   4
ENDBRANCH   2   3
ENDBRANCH   1   2
BRANCH   1  11
ATOM     11  C   UNL     1      -6.728 -23.125  17.200  1.00  0.00     0.000 C 
BRANCH  11  12
ATOM     12  C   UNL     1      -5.262 -23.025  16.742  1.00  0.00    -0.000 C 
BRANCH  12  13
ATOM     13  C   UNL     1      -4.949 -21.696  16.035  1.00  0.00    -0.000 C 
BRANCH  13  14
ATOM     14  C   UNL     1      -3.566 -21.698  15.364  1.00  0.00    -0.000 C 
BRANCH  14  15
ATOM     15  C   UNL     1      -2.604 -22.718  16.000  1.00  0.00    -0.000 C 
BRANCH  15  16
ATOM     16  C   UNL     1      -1.166 -22.188  16.105  1.00  0.00    -0.000 C 
BRANCH  16  17
ATOM     17  C   UNL     1      -0.170 -23.018  15.283  1.00  0.00    -0.003 C 
ATOM     18  C   UNL     1       1.269 -22.708  15.689  1.00  0.00     0.004 C 
ENDBRANCH  16  17
ENDBRANCH  15  16
ENDBRANCH  14  15
ENDBRANCH  13  14
ENDBRANCH  12  13
ENDBRANCH  11  12
ENDBRANCH   1  11
TORSDOF 14
ENDMDL
MODEL 3
REMARK VINA RESULT:    -1.477      6.605      8.974
REMARK INTER + INTRA:          -3.925
REMARK INTER:                  -3.218
REMARK INTRA:                  -0.707
REMARK UNBOUND:                -1.240
REMARK SMILES CCCCCCCCCCCCCCCC(=O)[O-]
REMARK SMILES IDX 9 1 10 2 11 3 12 4 13 5 14 6 15 7 16 8 17 9 18 10 8 11 7 12
REMARK SMILES IDX 6 13 5 14 4 15 3 16 2 17 1 18
REMARK H PARENT
REMARK Flexibility Score: inf
ROOT
ATOM      1  C   UNL     1      -5.656 -22.243  17.757  1.00  0.00     0.000 C 
ENDROOT
BRANCH   1   2
ATOM      2  C   UNL     1      -5.134 -22.723  16.390  1.00  0.00     0.000 C 
BRANCH   2   3
ATOM      3  C   UNL     1      -3.824 -22.032  15.975  1.00  0.00     0.000 C 
BRANCH   3   4
ATOM      4  C   UNL     1      -2.607 -22.968  16.071  1.00  0.00     0.000 C 
BRANCH   4   5
ATOM      5  C   UNL     1      -1.271 -22.206  16.005  1.00  0.00     0.000 C 
BRANCH   5   6
ATOM      6  C   UNL     1      -0.079 -23.125  15.680  1.00  0.00     0.006 C 
BRANCH   6   7
ATOM      7  C   UNL     1       1.279 -22.405  15.616  1.00  0.00     0.053 C 
BRANCH   7   8
ATOM      8  C   UNL     1       2.106 -22.867  14.457  1.00  0.00     0.041 C 
ATOM      9  O   UNL     1       1.572 -23.053  13.332  1.00  0.00    -0.550 OA
ATOM     10  O   UNL     1       3.473 -23.059  14.610  1.00  0.00    -0.550 OA
ENDBRANCH   7   8
ENDBRANCH   6   7
ENDBRANCH   5   6
ENDBRANCH   4   5
ENDBRANCH   3   4
ENDBRANCH   2   3
ENDBRANCH   1   2
BRANCH   1  11
ATOM     11  C   UNL     1      -7.051 -22.771  18.150  1.00  0.00     0.000 C 
BRANCH  11  12
ATOM     12  C   UNL     1      -8.131 -22.627  17.063  1.00  0.00    -0.000 C 
BRANCH  12  13
ATOM     13  C   UNL     1      -9.552 -22.858  17.604  1.00  0.00    -0.000 C 
BRANCH  13  14
ATOM     14  C   UNL     1     -10.164 -21.587  18.212  1.00  0.00    -0.000 C 
BRANCH  14  15
ATOM     15  C   UNL     1     -10.980 -21.877  19.485  1.00  0.00    -0.000 C 
BRANCH  15  16
ATOM     16  C   UNL     1     -10.305 -21.336  20.755  1.00  0.00    -0.000 C 
BRANCH  16  17
ATOM     17  C   UNL     1     -10.071 -22.427  21.809  1.00  0.00    -0.003 C 
ATOM     18  C   UNL     1      -8.600 -22.834  21.862  1.00  0.00     0.004 C 
ENDBRANCH  16  17
ENDBRANCH  15  16
ENDBRANCH  14  15
ENDBRANCH  13  14
ENDBRANCH  12  13
ENDBRANCH  11  12
ENDBRANCH   1  11
TORSDOF 14
ENDMDL
MODEL 4
REMARK VINA RESULT:    -1.341      9.013     11.448
REMARK INTER + INTRA:          -3.679
REMARK INTER:                  -3.203
REMARK INTRA:                  -0.477
REMARK UNBOUND:                -1.240
REMARK SMILES CCCCCCCCCCCCCCCC(=O)[O-]
REMARK SMILES IDX 9 1 10 2 11 3 12 4 13 5 14 6 15 7 16 8 17 9 18 10 8 11 7 12
REMARK SMILES IDX 6 13 5 14 4 15 3 16 2 17 1 18
REMARK H PARENT
REMARK Flexibility Score: inf
ROOT
ATOM      1  C   UNL     1       0.317 -22.182  15.557  1.00  0.00     0.000 C 
ENDROOT
BRANCH   1   2
ATOM      2  C   UNL     1      -0.863 -22.885  16.255  1.00  0.00     0.000 C 
BRANCH   2   3
ATOM      3  C   UNL     1      -2.202 -22.158  16.042  1.00  0.00     0.000 C 
BRANCH   3   4
ATOM      4  C   UNL     1      -3.397 -23.125  15.997  1.00  0.00     0.000 C 
BRANCH   4   5
ATOM      5  C   UNL     1      -4.749 -22.393  16.071  1.00  0.00     0.000 C 
BRANCH   5   6
ATOM      6  C   UNL     1      -5.692 -22.993  17.130  1.00  0.00     0.006 C 
BRANCH   6   7
ATOM      7  C   UNL     1      -7.067 -22.309  17.218  1.00  0.00     0.053 C 
BRANCH   7   8
ATOM      8  C   UNL     1      -7.684 -22.459  18.573  1.00  0.00     0.041 C 
ATOM      9  O   UNL     1      -6.993 -22.869  19.542  1.00  0.00    -0.550 OA
ATOM     10  O   UNL     1      -9.015 -22.114  18.774  1.00  0.00    -0.550 OA
ENDBRANCH   7   8
ENDBRANCH   6   7
ENDBRANCH   5   6
ENDBRANCH   4   5
ENDBRANCH   3   4
ENDBRANCH   2   3
ENDBRANCH   1   2
BRANCH   1  11
ATOM     11  C   UNL     1       1.391 -23.124  14.976  1.00  0.00     0.000 C 
BRANCH  11  12
ATOM     12  C   UNL     1       2.793 -22.972  15.594  1.00  0.00    -0.000 C 
BRANCH  12  13
ATOM     13  C   UNL     1       3.919 -23.109  14.555  1.00  0.00    -0.000 C 
BRANCH  13  14
ATOM     14  C   UNL     1       5.278 -22.637  15.095  1.00  0.00    -0.000 C 
BRANCH  14  15
ATOM     15  C   UNL     1       5.160 -21.945  16.465  1.00  0.00    -0.000 C 
BRANCH  15  16
ATOM     16  C   UNL     1       6.511 -21.828  17.185  1.00  0.00    -0.000 C 
BRANCH  16  17
ATOM     17  C   UNL     1       7.664 -21.502  16.226  1.00  0.00    -0.003 C 
ATOM     18  C   UNL     1       8.830 -22.469  16.419  1.00  0.00     0.004 C 
ENDBRANCH  16  17
ENDBRANCH  15  16
ENDBRANCH  14  15
ENDBRANCH  13  14
ENDBRANCH  12  13
ENDBRANCH  11  12
ENDBRANCH   1  11
TORSDOF 14
ENDMDL
MODEL 5
REMARK VINA RESULT:    -1.285      9.375     11.678
REMARK INTER + INTRA:          -3.576
REMARK INTER:                  -3.124
REMARK INTRA:                  -0.452
REMARK UNBOUND:                -1.240
REMARK SMILES CCCCCCCCCCCCCCCC(=O)[O-]
REMARK SMILES IDX 9 1 10 2 11 3 12 4 13 5 14 6 15 7 16 8 17 9 18 10 8 11 7 12
REMARK SMILES IDX 6 13 5 14 4 15 3 16 2 17 1 18
REMARK H PARENT
REMARK Flexibility Score: inf
ROOT
ATOM      1  C   UNL     1      -0.772 -21.980  16.352  1.00  0.00     0.000 C 
ENDROOT
BRANCH   1   2
ATOM      2  C   UNL     1      -0.138 -23.124  15.540  1.00  0.00     0.000 C 
BRANCH   2   3
ATOM      3  C   UNL     1       1.399 -23.121  15.604  1.00  0.00     0.000 C 
BRANCH   3   4
ATOM      4  C   UNL     1       2.034 -22.275  14.487  1.00  0.00     0.000 C 
BRANCH   4   5
ATOM      5  C   UNL     1       2.849 -23.125  13.496  1.00  0.00     0.000 C 
BRANCH   5   6
ATOM      6  C   UNL     1       4.355 -22.809  13.542  1.00  0.00     0.006 C 
BRANCH   6   7
ATOM      7  C   UNL     1       5.027 -23.107  14.893  1.00  0.00     0.053 C 
BRANCH   7   8
ATOM      8  C   UNL     1       6.438 -22.607  14.942  1.00  0.00     0.041 C 
ATOM      9  O   UNL     1       7.056 -22.565  16.038  1.00  0.00    -0.550 OA
ATOM     10  O   UNL     1       7.080 -22.220  13.773  1.00  0.00    -0.550 OA
ENDBRANCH   7   8
ENDBRANCH   6   7
ENDBRANCH   5   6
ENDBRANCH   4   5
ENDBRANCH   3   4
ENDBRANCH   2   3
ENDBRANCH   1   2
BRANCH   1  11
ATOM     11  C   UNL     1      -2.225 -21.630  15.969  1.00  0.00     0.000 C 
BRANCH  11  12
ATOM     12  C   UNL     1      -3.196 -22.824  15.939  1.00  0.00    -0.000 C 
BRANCH  12  13
ATOM     13  C   UNL     1      -4.341 -22.685  16.956  1.00  0.00    -0.000 C 
BRANCH  13  14
ATOM     14  C   UNL     1      -5.617 -22.102  16.328  1.00  0.00    -0.000 C 
BRANCH  14  15
ATOM     15  C   UNL     1      -6.896 -22.767  16.869  1.00  0.00    -0.000 C 
BRANCH  15  16
ATOM     16  C   UNL     1      -7.247 -22.302  18.291  1.00  0.00    -0.000 C 
BRANCH  16  17
ATOM     17  C   UNL     1      -8.752 -22.061  18.478  1.00  0.00    -0.003 C 
ATOM     18  C   UNL     1      -9.261 -22.730  19.752  1.00  0.00     0.004 C 
ENDBRANCH  16  17
ENDBRANCH  15  16
ENDBRANCH  14  15
ENDBRANCH  13  14
ENDBRANCH  12  13
ENDBRANCH  11  12
ENDBRANCH   1  11
TORSDOF 14
ENDMDL
MODEL 6
REMARK VINA RESULT:    -1.227      6.009      8.338
REMARK INTER + INTRA:          -3.471
REMARK INTER:                  -2.875
REMARK INTRA:                  -0.597
REMARK UNBOUND:                -1.240
REMARK SMILES CCCCCCCCCCCCCCCC(=O)[O-]
REMARK SMILES IDX 9 1 10 2 11 3 12 4 13 5 14 6 15 7 16 8 17 9 18 10 8 11 7 12
REMARK SMILES IDX 6 13 5 14 4 15 3 16 2 17 1 18
REMARK H PARENT
REMARK Flexibility Score: inf
ROOT
ATOM      1  C   UNL     1      -6.031 -22.082  16.433  1.00  0.00     0.000 C 
ENDROOT
BRANCH   1   2
ATOM      2  C   UNL     1      -5.077 -23.091  17.100  1.00  0.00     0.000 C 
BRANCH   2   3
ATOM      3  C   UNL     1      -3.622 -22.940  16.625  1.00  0.00     0.000 C 
BRANCH   3   4
ATOM      4  C   UNL     1      -3.448 -21.797  15.610  1.00  0.00     0.000 C 
BRANCH   4   5
ATOM      5  C   UNL     1      -2.001 -21.275  15.553  1.00  0.00     0.000 C 
BRANCH   5   6
ATOM      6  C   UNL     1      -1.008 -22.199  16.283  1.00  0.00     0.006 C 
BRANCH   6   7
ATOM      7  C   UNL     1      -0.203 -23.125  15.356  1.00  0.00     0.053 C 
BRANCH   7   8
ATOM      8  C   UNL     1       1.219 -22.679  15.212  1.00  0.00     0.041 C 
ATOM      9  O   UNL     1       1.801 -22.099  16.166  1.00  0.00    -0.550 OA
ATOM     10  O   UNL     1       1.912 -22.933  14.035  1.00  0.00    -0.550 OA
ENDBRANCH   7   8
ENDBRANCH   6   7
ENDBRANCH   5   6
ENDBRANCH   4   5
ENDBRANCH   3   4
ENDBRANCH   2   3
ENDBRANCH   1   2
BRANCH   1  11
ATOM     11  C   UNL     1      -7.528 -22.449  16.502  1.00  0.00     0.000 C 
BRANCH  11  12
ATOM     12  C   UNL     1      -8.258 -21.969  17.768  1.00  0.00    -0.000 C 
BRANCH  12  13
ATOM     13  C   UNL     1      -9.501 -22.815  18.095  1.00  0.00    -0.000 C 
BRANCH  13  14
ATOM     14  C   UNL     1     -10.694 -21.958  18.547  1.00  0.00    -0.000 C 
BRANCH  14  15
ATOM     15  C   UNL     1     -10.355 -21.068  19.757  1.00  0.00    -0.000 C 
BRANCH  15  16
ATOM     16  C   UNL     1     -10.867 -19.629  19.593  1.00  0.00    -0.000 C 
BRANCH  16  17
ATOM     17  C   UNL     1     -11.001 -18.895  20.934  1.00  0.00    -0.003 C 
ATOM     18  C   UNL     1      -9.982 -17.763  21.045  1.00  0.00     0.004 C 
ENDBRANCH  16  17
ENDBRANCH  15  16
ENDBRANCH  14  15
ENDBRANCH  13  14
ENDBRANCH  12  13
ENDBRANCH  11  12
ENDBRANCH   1  11
TORSDOF 14
ENDMDL
MODEL 7
REMARK VINA RESULT:    -1.097     11.476     13.689
REMARK INTER + INTRA:          -3.235
REMARK INTER:                  -2.855
REMARK INTRA:                  -0.380
REMARK UNBOUND:                -1.240
REMARK SMILES CCCCCCCCCCCCCCCC(=O)[O-]
REMARK SMILES IDX 9 1 10 2 11 3 12 4 13 5 14 6 15 7 16 8 17 9 18 10 8 11 7 12
REMARK SMILES IDX 6 13 5 14 4 15 3 16 2 17 1 18
REMARK H PARENT
REMARK Flexibility Score: inf
ROOT
ATOM      1  C   UNL     1       1.783 -22.884  14.854  1.00  0.00     0.000 C 
ENDROOT
BRANCH   1   2
ATOM      2  C   UNL     1       3.247 -23.106  15.280  1.00  0.00     0.000 C 
BRANCH   2   3
ATOM      3  C   UNL     1       4.250 -22.786  14.158  1.00  0.00     0.000 C 
BRANCH   3   4
ATOM      4  C   UNL     1       5.699 -23.123  14.548  1.00  0.00     0.000 C 
BRANCH   4   5
ATOM      5  C   UNL     1       6.278 -22.132  15.573  1.00  0.00     0.000 C 
BRANCH   5   6
ATOM      6  C   UNL     1       7.714 -22.489  15.999  1.00  0.00     0.006 C 
BRANCH   6   7
ATOM      7  C   UNL     1       8.756 -22.382  14.873  1.00  0.00     0.053 C 
BRANCH   7   8
ATOM      8  C   UNL     1       8.647 -21.088  14.127  1.00  0.00     0.041 C 
ATOM      9  O   UNL     1       8.829 -19.996  14.725  1.00  0.00    -0.550 OA
ATOM     10  O   UNL     1       8.379 -21.091  12.764  1.00  0.00    -0.550 OA
ENDBRANCH   7   8
ENDBRANCH   6   7
ENDBRANCH   5   6
ENDBRANCH   4   5
ENDBRANCH   3   4
ENDBRANCH   2   3
ENDBRANCH   1   2
BRANCH   1  11
ATOM     11  C   UNL     1       0.757 -22.890  16.006  1.00  0.00     0.000 C 
BRANCH  11  12
ATOM     12  C   UNL     1      -0.713 -23.016  15.567  1.00  0.00    -0.000 C 
BRANCH  12  13
ATOM     13  C   UNL     1      -1.671 -22.209  16.460  1.00  0.00    -0.000 C 
BRANCH  13  14
ATOM     14  C   UNL     1      -3.097 -22.150  15.890  1.00  0.00    -0.000 C 
BRANCH  14  15
ATOM     15  C   UNL     1      -4.126 -22.835  16.807  1.00  0.00    -0.000 C 
BRANCH  15  16
ATOM     16  C   UNL     1      -5.566 -22.384  16.519  1.00  0.00    -0.000 C 
BRANCH  16  17
ATOM     17  C   UNL     1      -6.524 -22.693  17.678  1.00  0.00    -0.003 C 
ATOM     18  C   UNL     1      -7.972 -22.740  17.197  1.00  0.00     0.004 C 
ENDBRANCH  16  17
ENDBRANCH  15  16
ENDBRANCH  14  15
ENDBRANCH  13  14
ENDBRANCH  12  13
ENDBRANCH  11  12
ENDBRANCH   1  11
TORSDOF 14
ENDMDL
MODEL 8
REMARK VINA RESULT:    -0.670      4.882      7.048
REMARK INTER + INTRA:          -2.459
REMARK INTER:                  -1.564
REMARK INTRA:                  -0.895
REMARK UNBOUND:                -1.240
REMARK SMILES CCCCCCCCCCCCCCCC(=O)[O-]
REMARK SMILES IDX 9 1 10 2 11 3 12 4 13 5 14 6 15 7 16 8 17 9 18 10 8 11 7 12
REMARK SMILES IDX 6 13 5 14 4 15 3 16 2 17 1 18
REMARK H PARENT
REMARK Flexibility Score: inf
ROOT
ATOM      1  C   UNL     1      -7.512 -21.266  15.338  1.00  0.00     0.000 C 
ENDROOT
BRANCH   1   2
ATOM      2  C   UNL     1      -7.193 -22.422  16.305  1.00  0.00     0.000 C 
BRANCH   2   3
ATOM      3  C   UNL     1      -6.236 -22.007  17.436  1.00  0.00     0.000 C 
BRANCH   3   4
ATOM      4  C   UNL     1      -5.041 -22.965  17.578  1.00  0.00     0.000 C 
BRANCH   4   5
ATOM      5  C   UNL     1      -4.226 -23.087  16.278  1.00  0.00     0.000 C 
BRANCH   5   6
ATOM      6  C   UNL     1      -2.708 -23.125  16.530  1.00  0.00     0.006 C 
BRANCH   6   7
ATOM      7  C   UNL     1      -1.940 -21.917  15.967  1.00  0.00     0.053 C 
BRANCH   7   8
ATOM      8  C   UNL     1      -0.460 -22.055  16.153  1.00  0.00     0.041 C 
ATOM      9  O   UNL     1       0.198 -22.848  15.430  1.00  0.00    -0.550 OA
ATOM     10  O   UNL     1       0.197 -21.283  17.103  1.00  0.00    -0.550 OA
ENDBRANCH   7   8
ENDBRANCH   6   7
ENDBRANCH   5   6
ENDBRANCH   4   5
ENDBRANCH   3   4
ENDBRANCH   2   3
ENDBRANCH   1   2
BRANCH   1  11
ATOM     11  C   UNL     1      -8.970 -21.211  14.839  1.00  0.00     0.000 C 
BRANCH  11  12
ATOM     12  C   UNL     1      -9.757 -19.960  15.267  1.00  0.00    -0.000 C 
BRANCH  12  13
ATOM     13  C   UNL     1     -11.031 -20.301  16.059  1.00  0.00    -0.000 C 
BRANCH  13  14
ATOM     14  C   UNL     1     -10.848 -21.528  16.967  1.00  0.00    -0.000 C 
BRANCH  14  15
ATOM     15  C   UNL     1     -10.816 -21.155  18.460  1.00  0.00    -0.000 C 
BRANCH  15  16
ATOM     16  C   UNL     1     -11.070 -19.660  18.701  1.00  0.00    -0.000 C 
BRANCH  16  17
ATOM     17  C   UNL     1     -10.984 -19.279  20.186  1.00  0.00    -0.003 C 
ATOM     18  C   UNL     1     -10.795 -17.773  20.357  1.00  0.00     0.004 C 
ENDBRANCH  16  17
ENDBRANCH  15  16
ENDBRANCH  14  15
ENDBRANCH  13  14
ENDBRANCH  12  13
ENDBRANCH  11  12
ENDBRANCH   1  11
TORSDOF 14
ENDMDL
