MODEL 1
REMARK VINA RESULT:    -4.001      0.000      0.000
REMARK INTER + INTRA:         -14.521
REMARK INTER:                 -10.551
REMARK INTRA:                  -3.970
REMARK UNBOUND:                -3.970
REMARK SMILES CCCCCCCCCCCCCCCCCCCCCCCCCCCCCC(=O)[O-]
REMARK SMILES IDX 16 1 17 2 18 3 19 4 20 5 21 6 22 7 23 8 24 9 25 10 26 11
REMARK SMILES IDX 27 12 28 13 29 14 30 15 31 16 32 17 15 18 14 19 13 20 12 21
REMARK SMILES IDX 11 22 10 23 9 24 8 25 7 26 6 27 5 28 4 29 3 30 2 31 1 32
REMARK H PARENT
REMARK Flexibility Score: inf
ROOT
ATOM      1  C   UNL     1     -16.893 -14.711  -1.525  1.00  0.00     0.000 C 
ENDROOT
BRANCH   1   2
ATOM      2  C   UNL     1     -17.127 -13.827  -2.763  1.00  0.00     0.000 C 
BRANCH   2   3
ATOM      3  C   UNL     1     -18.497 -14.007  -3.450  1.00  0.00     0.000 C 
BRANCH   3   4
ATOM      4  C   UNL     1     -19.305 -12.700  -3.592  1.00  0.00     0.000 C 
BRANCH   4   5
ATOM      5  C   UNL     1     -18.649 -11.521  -2.850  1.00  0.00     0.000 C 
BRANCH   5   6
ATOM      6  C   UNL     1     -19.562 -10.940  -1.758  1.00  0.00     0.000 C 
BRANCH   6   7
ATOM      7  C   UNL     1     -18.865 -10.865  -0.389  1.00  0.00     0.000 C 
BRANCH   7   8
ATOM      8  C   UNL     1     -17.352 -10.598  -0.499  1.00  0.00     0.000 C 
BRANCH   8   9
ATOM      9  C   UNL     1     -16.490 -11.290   0.570  1.00  0.00     0.000 C 
BRANCH   9  10
ATOM     10  C   UNL     1     -15.200 -11.900   0.001  1.00  0.00     0.000 C 
BRANCH  10  11
ATOM     11  C   UNL     1     -14.294 -12.409   1.133  1.00  0.00     0.000 C 
BRANCH  11  12
ATOM     12  C   UNL     1     -13.511 -13.673   0.751  1.00  0.00     0.000 C 
BRANCH  12  13
ATOM     13  C   UNL     1     -12.098 -13.701   1.360  1.00  0.00     0.006 C 
BRANCH  13  14
ATOM     14  C   UNL     1     -12.061 -13.084   2.764  1.00  0.00     0.053 C 
BRANCH  14  15
ATOM     15  C   UNL     1     -11.870 -14.124   3.826  1.00  0.00     0.041 C 
ATOM     16  O   UNL     1     -12.869 -14.657   4.379  1.00  0.00    -0.550 OA
ATOM     17  O   UNL     1     -10.589 -14.479   4.231  1.00  0.00    -0.550 OA
ENDBRANCH  14  15
ENDBRANCH  13  14
ENDBRANCH  12  13
ENDBRANCH  11  12
ENDBRANCH  10  11
ENDBRANCH   9  10
ENDBRANCH   8   9
ENDBRANCH   7   8
ENDBRANCH   6   7
ENDBRANCH   5   6
ENDBRANCH   4   5
ENDBRANCH   3   4
ENDBRANCH   2   3
ENDBRANCH   1   2
BRANCH   1  18
ATOM     18  C   UNL     1     -17.974 -14.520  -0.445  1.00  0.00     0.000 C 
BRANCH  18  19
ATOM     19  C   UNL     1     -17.757 -15.427   0.779  1.00  0.00     0.000 C 
BRANCH  19  20
ATOM     20  C   UNL     1     -18.909 -16.416   1.060  1.00  0.00     0.000 C 
BRANCH  20  21
ATOM     21  C   UNL     1     -18.859 -17.050   2.464  1.00  0.00     0.000 C 
BRANCH  21  22
ATOM     22  C   UNL     1     -17.641 -17.953   2.732  1.00  0.00     0.000 C 
BRANCH  22  23
ATOM     23  C   UNL     1     -17.396 -19.050   1.679  1.00  0.00     0.000 C 
BRANCH  23  24
ATOM     24  C   UNL     1     -16.606 -20.244   2.235  1.00  0.00    -0.000 C 
BRANCH  24  25
ATOM     25  C   UNL     1     -17.113 -20.641   3.629  1.00  0.00    -0.000 C 
BRANCH  25  26
ATOM     26  C   UNL     1     -18.275 -21.646   3.569  1.00  0.00    -0.000 C 
BRANCH  26  27
ATOM     27  C   UNL     1     -19.624 -21.014   3.958  1.00  0.00    -0.000 C 
BRANCH  27  28
ATOM     28  C   UNL     1     -20.822 -21.772   3.366  1.00  0.00    -0.000 C 
BRANCH  28  29
ATOM     29  C   UNL     1     -21.051 -21.445   1.879  1.00  0.00    -0.000 C 
BRANCH  29  30
ATOM     30  C   UNL     1     -21.173 -19.936   1.615  1.00  0.00    -0.000 C 
BRANCH  30  31
ATOM     31  C   UNL     1     -20.777 -19.553   0.181  1.00  0.00    -0.003 C 
ATOM     32  C   UNL     1     -21.772 -20.110  -0.833  1.00  0.00     0.004 C 
ENDBRANCH  30  31
ENDBRANCH  29  30
ENDBRANCH  28  29
ENDBRANCH  27  28
ENDBRANCH  26  27
ENDBRANCH  25  26
ENDBRANCH  24  25
ENDBRANCH  23  24
ENDBRANCH  22  23
ENDBRANCH  21  22
ENDBRANCH  20  21
ENDBRANCH  19  20
ENDBRANCH  18  19
ENDBRANCH   1  18
TORSDOF 28
ENDMDL
MODEL 2
REMARK VINA RESULT:    -3.972      2.995      5.935
REMARK INTER + INTRA:         -14.444
REMARK INTER:                  -9.755
REMARK INTRA:                  -4.689
REMARK UNBOUND:                -3.970
REMARK SMILES CCCCCCCCCCCCCCCCCCCCCCCCCCCCCC(=O)[O-]
REMARK SMILES IDX 16 1 17 2 18 3 19 4 20 5 21 6 22 7 23 8 24 9 25 10 26 11
REMARK SMILES IDX 27 12 28 13 29 14 30 15 31 16 32 17 15 18 14 19 13 20 12 21
REMARK SMILES IDX 11 22 10 23 9 24 8 25 7 26 6 27 5 28 4 29 3 30 2 31 1 32
REMARK H PARENT
REMARK Flexibility Score: inf
ROOT
ATOM      1  C   UNL     1     -18.689 -16.597   3.747  1.00  0.00     0.000 C 
ENDROOT
BRANCH   1   2
ATOM      2  C   UNL     1     -17.214 -16.186   3.901  1.00  0.00     0.000 C 
BRANCH   2   3
ATOM      3  C   UNL     1     -16.590 -16.481   5.281  1.00  0.00     0.000 C 
BRANCH   3   4
ATOM      4  C   UNL     1     -15.619 -15.391   5.778  1.00  0.00     0.000 C 
BRANCH   4   5
ATOM      5  C   UNL     1     -14.145 -15.752   5.514  1.00  0.00     0.000 C 
BRANCH   5   6
ATOM      6  C   UNL     1     -13.435 -14.701   4.646  1.00  0.00     0.000 C 
BRANCH   6   7
ATOM      7  C   UNL     1     -14.410 -13.659   4.070  1.00  0.00     0.000 C 
BRANCH   7   8
ATOM      8  C   UNL     1     -14.208 -13.417   2.563  1.00  0.00     0.000 C 
BRANCH   8   9
ATOM      9  C   UNL     1     -15.477 -13.016   1.792  1.00  0.00     0.000 C 
BRANCH   9  10
ATOM     10  C   UNL     1     -15.755 -13.919   0.581  1.00  0.00     0.000 C 
BRANCH  10  11
ATOM     11  C   UNL     1     -17.128 -14.597   0.713  1.00  0.00     0.000 C 
BRANCH  11  12
ATOM     12  C   UNL     1     -17.822 -14.814  -0.639  1.00  0.00     0.000 C 
BRANCH  12  13
ATOM     13  C   UNL     1     -16.883 -14.569  -1.833  1.00  0.00     0.006 C 
BRANCH  13  14
ATOM     14  C   UNL     1     -17.647 -14.473  -3.160  1.00  0.00     0.053 C 
BRANCH  14  15
ATOM     15  C   UNL     1     -18.626 -13.339  -3.160  1.00  0.00     0.041 C 
ATOM     16  O   UNL     1     -19.814 -13.526  -3.535  1.00  0.00    -0.550 OA
ATOM     17  O   UNL     1     -18.217 -12.066  -2.780  1.00  0.00    -0.550 OA
ENDBRANCH  14  15
ENDBRANCH  13  14
ENDBRANCH  12  13
ENDBRANCH  11  12
ENDBRANCH  10  11
ENDBRANCH   9  10
ENDBRANCH   8   9
ENDBRANCH   7   8
ENDBRANCH   6   7
ENDBRANCH   5   6
ENDBRANCH   4   5
ENDBRANCH   3   4
ENDBRANCH   2   3
ENDBRANCH   1   2
BRANCH   1  18
ATOM     18  C   UNL     1     -18.899 -17.652   2.645  1.00  0.00     0.000 C 
BRANCH  18  19
ATOM     19  C   UNL     1     -17.585 -18.060   1.955  1.00  0.00     0.000 C 
BRANCH  19  20
ATOM     20  C   UNL     1     -17.461 -19.569   1.649  1.00  0.00     0.000 C 
BRANCH  20  21
ATOM     21  C   UNL     1     -16.242 -20.242   2.311  1.00  0.00     0.000 C 
BRANCH  21  22
ATOM     22  C   UNL     1     -15.785 -19.609   3.639  1.00  0.00     0.000 C 
BRANCH  22  23
ATOM     23  C   UNL     1     -16.149 -20.410   4.904  1.00  0.00     0.000 C 
BRANCH  23  24
ATOM     24  C   UNL     1     -17.581 -20.143   5.388  1.00  0.00    -0.000 C 
BRANCH  24  25
ATOM     25  C   UNL     1     -18.527 -21.279   4.971  1.00  0.00    -0.000 C 
BRANCH  25  26
ATOM     26  C   UNL     1     -19.690 -20.786   4.096  1.00  0.00    -0.000 C 
BRANCH  26  27
ATOM     27  C   UNL     1     -20.220 -21.877   3.148  1.00  0.00    -0.000 C 
BRANCH  27  28
ATOM     28  C   UNL     1     -21.533 -21.472   2.459  1.00  0.00    -0.000 C 
BRANCH  28  29
ATOM     29  C   UNL     1     -21.752 -19.948   2.455  1.00  0.00    -0.000 C 
BRANCH  29  30
ATOM     30  C   UNL     1     -21.988 -19.386   1.045  1.00  0.00    -0.000 C 
BRANCH  30  31
ATOM     31  C   UNL     1     -20.890 -19.798   0.053  1.00  0.00    -0.003 C 
ATOM     32  C   UNL     1     -21.487 -20.478  -1.177  1.00  0.00     0.004 C 
ENDBRANCH  30  31
ENDBRANCH  29  30
ENDBRANCH  28  29
ENDBRANCH  27  28
ENDBRANCH  26  27
ENDBRANCH  25  26
ENDBRANCH  24  25
ENDBRANCH  23  24
ENDBRANCH  22  23
ENDBRANCH  21  22
ENDBRANCH  20  21
ENDBRANCH  19  20
ENDBRANCH  18  19
ENDBRANCH   1  18
TORSDOF 28
ENDMDL
MODEL 3
REMARK VINA RESULT:    -3.969      3.535      9.725
REMARK INTER + INTRA:         -14.435
REMARK INTER:                 -11.265
REMARK INTRA:                  -3.170
REMARK UNBOUND:                -3.970
REMARK SMILES CCCCCCCCCCCCCCCCCCCCCCCCCCCCCC(=O)[O-]
REMARK SMILES IDX 16 1 17 2 18 3 19 4 20 5 21 6 22 7 23 8 24 9 25 10 26 11
REMARK SMILES IDX 27 12 28 13 29 14 30 15 31 16 32 17 15 18 14 19 13 20 12 21
REMARK SMILES IDX 11 22 10 23 9 24 8 25 7 26 6 27 5 28 4 29 3 30 2 31 1 32
REMARK H PARENT
REMARK Flexibility Score: inf
ROOT
ATOM      1  C   UNL     1     -17.182 -14.894   0.972  1.00  0.00     0.000 C 
ENDROOT
BRANCH   1   2
ATOM      2  C   UNL     1     -18.006 -16.133   1.367  1.00  0.00     0.000 C 
BRANCH   2   3
ATOM      3  C   UNL     1     -18.495 -16.158   2.830  1.00  0.00     0.000 C 
BRANCH   3   4
ATOM      4  C   UNL     1     -17.442 -16.666   3.836  1.00  0.00     0.000 C 
BRANCH   4   5
ATOM      5  C   UNL     1     -18.056 -17.567   4.924  1.00  0.00     0.000 C 
BRANCH   5   6
ATOM      6  C   UNL     1     -17.071 -18.638   5.417  1.00  0.00     0.000 C 
BRANCH   6   7
ATOM      7  C   UNL     1     -15.889 -18.837   4.453  1.00  0.00     0.000 C 
BRANCH   7   8
ATOM      8  C   UNL     1     -15.904 -20.213   3.760  1.00  0.00     0.000 C 
BRANCH   8   9
ATOM      9  C   UNL     1     -16.973 -20.379   2.667  1.00  0.00     0.000 C 
BRANCH   9  10
ATOM     10  C   UNL     1     -18.137 -21.283   3.097  1.00  0.00     0.000 C 
BRANCH  10  11
ATOM     11  C   UNL     1     -19.487 -20.605   2.811  1.00  0.00     0.000 C 
BRANCH  11  12
ATOM     12  C   UNL     1     -19.375 -19.450   1.806  1.00  0.00     0.000 C 
BRANCH  12  13
ATOM     13  C   UNL     1     -20.433 -19.532   0.691  1.00  0.00     0.006 C 
BRANCH  13  14
ATOM     14  C   UNL     1     -21.421 -20.685   0.914  1.00  0.00     0.053 C 
BRANCH  14  15
ATOM     15  C   UNL     1     -21.875 -21.288  -0.381  1.00  0.00     0.041 C 
ATOM     16  O   UNL     1     -22.264 -22.486  -0.421  1.00  0.00    -0.550 OA
ATOM     17  O   UNL     1     -21.834 -20.539  -1.550  1.00  0.00    -0.550 OA
ENDBRANCH  14  15
ENDBRANCH  13  14
ENDBRANCH  12  13
ENDBRANCH  11  12
ENDBRANCH  10  11
ENDBRANCH   9  10
ENDBRANCH   8   9
ENDBRANCH   7   8
ENDBRANCH   6   7
ENDBRANCH   5   6
ENDBRANCH   4   5
ENDBRANCH   3   4
ENDBRANCH   2   3
ENDBRANCH   1   2
BRANCH   1  18
ATOM     18  C   UNL     1     -17.728 -14.195  -0.287  1.00  0.00     0.000 C 
BRANCH  18  19
ATOM     19  C   UNL     1     -17.162 -14.791  -1.588  1.00  0.00     0.000 C 
BRANCH  19  20
ATOM     20  C   UNL     1     -17.056 -13.791  -2.761  1.00  0.00     0.000 C 
BRANCH  20  21
ATOM     21  C   UNL     1     -17.471 -12.353  -2.394  1.00  0.00     0.000 C 
BRANCH  21  22
ATOM     22  C   UNL     1     -16.309 -11.354  -2.241  1.00  0.00     0.000 C 
BRANCH  22  23
ATOM     23  C   UNL     1     -16.073 -10.841  -0.807  1.00  0.00     0.000 C 
BRANCH  23  24
ATOM     24  C   UNL     1     -14.589 -10.832  -0.413  1.00  0.00    -0.000 C 
BRANCH  24  25
ATOM     25  C   UNL     1     -14.232 -12.069   0.425  1.00  0.00    -0.000 C 
BRANCH  25  26
ATOM     26  C   UNL     1     -12.728 -12.160   0.728  1.00  0.00    -0.000 C 
BRANCH  26  27
ATOM     27  C   UNL     1     -12.305 -13.561   1.205  1.00  0.00    -0.000 C 
BRANCH  27  28
ATOM     28  C   UNL     1     -11.678 -13.542   2.608  1.00  0.00    -0.000 C 
BRANCH  28  29
ATOM     29  C   UNL     1     -12.441 -14.432   3.607  1.00  0.00    -0.000 C 
BRANCH  29  30
ATOM     30  C   UNL     1     -11.639 -15.673   4.028  1.00  0.00    -0.000 C 
BRANCH  30  31
ATOM     31  C   UNL     1     -11.824 -16.021   5.513  1.00  0.00    -0.003 C 
ATOM     32  C   UNL     1     -13.103 -16.822   5.737  1.00  0.00     0.004 C 
ENDBRANCH  30  31
ENDBRANCH  29  30
ENDBRANCH  28  29
ENDBRANCH  27  28
ENDBRANCH  26  27
ENDBRANCH  25  26
ENDBRANCH  24  25
ENDBRANCH  23  24
ENDBRANCH  22  23
ENDBRANCH  21  22
ENDBRANCH  20  21
ENDBRANCH  19  20
ENDBRANCH  18  19
ENDBRANCH   1  18
TORSDOF 28
ENDMDL
MODEL 4
REMARK VINA RESULT:    -3.963      1.967      9.169
REMARK INTER + INTRA:         -14.419
REMARK INTER:                 -11.016
REMARK INTRA:                  -3.404
REMARK UNBOUND:                -3.970
REMARK SMILES CCCCCCCCCCCCCCCCCCCCCCCCCCCCCC(=O)[O-]
REMARK SMILES IDX 16 1 17 2 18 3 19 4 20 5 21 6 22 7 23 8 24 9 25 10 26 11
REMARK SMILES IDX 27 12 28 13 29 14 30 15 31 16 32 17 15 18 14 19 13 20 12 21
REMARK SMILES IDX 11 22 10 23 9 24 8 25 7 26 6 27 5 28 4 29 3 30 2 31 1 32
REMARK H PARENT
REMARK Flexibility Score: inf
ROOT
ATOM      1  C   UNL     1     -17.388 -15.259   0.648  1.00  0.00     0.000 C 
ENDROOT
BRANCH   1   2
ATOM      2  C   UNL     1     -18.610 -15.937   1.292  1.00  0.00     0.000 C 
BRANCH   2   3
ATOM      3  C   UNL     1     -18.360 -17.355   1.846  1.00  0.00     0.000 C 
BRANCH   3   4
ATOM      4  C   UNL     1     -19.477 -18.365   1.513  1.00  0.00     0.000 C 
BRANCH   4   5
ATOM      5  C   UNL     1     -20.876 -17.837   1.884  1.00  0.00     0.000 C 
BRANCH   5   6
ATOM      6  C   UNL     1     -21.847 -17.878   0.694  1.00  0.00     0.000 C 
BRANCH   6   7
ATOM      7  C   UNL     1     -22.782 -19.098   0.741  1.00  0.00     0.000 C 
BRANCH   7   8
ATOM      8  C   UNL     1     -22.233 -20.306  -0.040  1.00  0.00     0.000 C 
BRANCH   8   9
ATOM      9  C   UNL     1     -22.045 -21.588   0.790  1.00  0.00     0.000 C 
BRANCH   9  10
ATOM     10  C   UNL     1     -21.879 -21.312   2.292  1.00  0.00     0.000 C 
BRANCH  10  11
ATOM     11  C   UNL     1     -20.670 -22.075   2.854  1.00  0.00     0.000 C 
BRANCH  11  12
ATOM     12  C   UNL     1     -19.757 -21.197   3.721  1.00  0.00     0.000 C 
BRANCH  12  13
ATOM     13  C   UNL     1     -18.263 -21.462   3.466  1.00  0.00     0.006 C 
BRANCH  13  14
ATOM     14  C   UNL     1     -17.405 -20.212   3.700  1.00  0.00     0.053 C 
BRANCH  14  15
ATOM     15  C   UNL     1     -16.150 -20.235   2.881  1.00  0.00     0.041 C 
ATOM     16  O   UNL     1     -16.213 -20.210   1.623  1.00  0.00    -0.550 OA
ATOM     17  O   UNL     1     -14.913 -20.323   3.506  1.00  0.00    -0.550 OA
ENDBRANCH  14  15
ENDBRANCH  13  14
ENDBRANCH  12  13
ENDBRANCH  11  12
ENDBRANCH  10  11
ENDBRANCH   9  10
ENDBRANCH   8   9
ENDBRANCH   7   8
ENDBRANCH   6   7
ENDBRANCH   5   6
ENDBRANCH   4   5
ENDBRANCH   3   4
ENDBRANCH   2   3
ENDBRANCH   1   2
BRANCH   1  18
ATOM     18  C   UNL     1     -17.762 -14.394  -0.570  1.00  0.00     0.000 C 
BRANCH  18  19
ATOM     19  C   UNL     1     -16.990 -14.791  -1.840  1.00  0.00     0.000 C 
BRANCH  19  20
ATOM     20  C   UNL     1     -17.658 -14.355  -3.162  1.00  0.00     0.000 C 
BRANCH  20  21
ATOM     21  C   UNL     1     -18.925 -13.500  -2.969  1.00  0.00     0.000 C 
BRANCH  21  22
ATOM     22  C   UNL     1     -18.915 -12.140  -3.693  1.00  0.00     0.000 C 
BRANCH  22  23
ATOM     23  C   UNL     1     -18.408 -10.954  -2.851  1.00  0.00     0.000 C 
BRANCH  23  24
ATOM     24  C   UNL     1     -16.887 -10.981  -2.639  1.00  0.00    -0.000 C 
BRANCH  24  25
ATOM     25  C   UNL     1     -16.525 -10.624  -1.190  1.00  0.00    -0.000 C 
BRANCH  25  26
ATOM     26  C   UNL     1     -15.406 -11.515  -0.627  1.00  0.00    -0.000 C 
BRANCH  26  27
ATOM     27  C   UNL     1     -15.613 -11.857   0.860  1.00  0.00    -0.000 C 
BRANCH  27  28
ATOM     28  C   UNL     1     -14.560 -12.842   1.391  1.00  0.00    -0.000 C 
BRANCH  28  29
ATOM     29  C   UNL     1     -13.194 -12.675   0.699  1.00  0.00    -0.000 C 
BRANCH  29  30
ATOM     30  C   UNL     1     -12.203 -13.789   1.068  1.00  0.00    -0.000 C 
BRANCH  30  31
ATOM     31  C   UNL     1     -12.141 -14.049   2.581  1.00  0.00    -0.003 C 
ATOM     32  C   UNL     1     -11.536 -12.859   3.320  1.00  0.00     0.004 C 
ENDBRANCH  30  31
ENDBRANCH  29  30
ENDBRANCH  28  29
ENDBRANCH  27  28
ENDBRANCH  26  27
ENDBRANCH  25  26
ENDBRANCH  24  25
ENDBRANCH  23  24
ENDBRANCH  22  23
ENDBRANCH  21  22
ENDBRANCH  20  21
ENDBRANCH  19  20
ENDBRANCH  18  19
ENDBRANCH   1  18
TORSDOF 28
ENDMDL
MODEL 5
REMARK VINA RESULT:    -3.899      3.741      6.349
REMARK INTER + INTRA:         -14.250
REMARK INTER:                  -8.925
REMARK INTRA:                  -5.326
REMARK UNBOUND:                -3.970
REMARK SMILES CCCCCCCCCCCCCCCCCCCCCCCCCCCCCC(=O)[O-]
REMARK SMILES IDX 16 1 17 2 18 3 19 4 20 5 21 6 22 7 23 8 24 9 25 10 26 11
REMARK SMILES IDX 27 12 28 13 29 14 30 15 31 16 32 17 15 18 14 19 13 20 12 21
REMARK SMILES IDX 11 22 10 23 9 24 8 25 7 26 6 27 5 28 4 29 3 30 2 31 1 32
REMARK H PARENT
REMARK Flexibility Score: inf
ROOT
ATOM      1  C   UNL     1     -22.213 -19.649  -1.459  1.00  0.00     0.000 C 
ENDROOT
BRANCH   1   2
ATOM      2  C   UNL     1     -23.727 -19.466  -1.250  1.00  0.00     0.000 C 
BRANCH   2   3
ATOM      3  C   UNL     1     -24.125 -18.336  -0.279  1.00  0.00     0.000 C 
BRANCH   3   4
ATOM      4  C   UNL     1     -23.115 -17.170  -0.225  1.00  0.00     0.000 C 
BRANCH   4   5
ATOM      5  C   UNL     1     -23.737 -15.881   0.346  1.00  0.00     0.000 C 
BRANCH   5   6
ATOM      6  C   UNL     1     -22.671 -14.891   0.841  1.00  0.00     0.000 C 
BRANCH   6   7
ATOM      7  C   UNL     1     -21.244 -15.332   0.472  1.00  0.00     0.000 C 
BRANCH   7   8
ATOM      8  C   UNL     1     -20.377 -14.175  -0.059  1.00  0.00     0.000 C 
BRANCH   8   9
ATOM      9  C   UNL     1     -19.217 -13.756   0.861  1.00  0.00     0.000 C 
BRANCH   9  10
ATOM     10  C   UNL     1     -18.046 -14.748   0.841  1.00  0.00     0.000 C 
BRANCH  10  11
ATOM     11  C   UNL     1     -17.551 -14.977  -0.596  1.00  0.00     0.000 C 
BRANCH  11  12
ATOM     12  C   UNL     1     -16.969 -13.710  -1.239  1.00  0.00     0.000 C 
BRANCH  12  13
ATOM     13  C   UNL     1     -17.020 -13.749  -2.776  1.00  0.00     0.006 C 
BRANCH  13  14
ATOM     14  C   UNL     1     -18.439 -14.003  -3.302  1.00  0.00     0.053 C 
BRANCH  14  15
ATOM     15  C   UNL     1     -19.178 -12.724  -3.552  1.00  0.00     0.041 C 
ATOM     16  O   UNL     1     -18.630 -11.616  -3.307  1.00  0.00    -0.550 OA
ATOM     17  O   UNL     1     -20.485 -12.756  -4.022  1.00  0.00    -0.550 OA
ENDBRANCH  14  15
ENDBRANCH  13  14
ENDBRANCH  12  13
ENDBRANCH  11  12
ENDBRANCH  10  11
ENDBRANCH   9  10
ENDBRANCH   8   9
ENDBRANCH   7   8
ENDBRANCH   6   7
ENDBRANCH   5   6
ENDBRANCH   4   5
ENDBRANCH   3   4
ENDBRANCH   2   3
ENDBRANCH   1   2
BRANCH   1  18
ATOM     18  C   UNL     1     -21.745 -21.090  -1.184  1.00  0.00     0.000 C 
BRANCH  18  19
ATOM     19  C   UNL     1     -22.276 -21.642   0.150  1.00  0.00     0.000 C 
BRANCH  19  20
ATOM     20  C   UNL     1     -21.423 -21.275   1.384  1.00  0.00     0.000 C 
BRANCH  20  21
ATOM     21  C   UNL     1     -22.113 -20.292   2.349  1.00  0.00     0.000 C 
BRANCH  21  22
ATOM     22  C   UNL     1     -21.504 -18.877   2.390  1.00  0.00     0.000 C 
BRANCH  22  23
ATOM     23  C   UNL     1     -20.221 -18.693   1.557  1.00  0.00     0.000 C 
BRANCH  23  24
ATOM     24  C   UNL     1     -19.134 -17.906   2.302  1.00  0.00    -0.000 C 
BRANCH  24  25
ATOM     25  C   UNL     1     -17.731 -18.344   1.857  1.00  0.00    -0.000 C 
BRANCH  25  26
ATOM     26  C   UNL     1     -16.970 -19.091   2.964  1.00  0.00    -0.000 C 
BRANCH  26  27
ATOM     27  C   UNL     1     -16.871 -20.604   2.696  1.00  0.00    -0.000 C 
BRANCH  27  28
ATOM     28  C   UNL     1     -18.102 -21.374   3.198  1.00  0.00    -0.000 C 
BRANCH  28  29
ATOM     29  C   UNL     1     -18.304 -21.236   4.719  1.00  0.00    -0.000 C 
BRANCH  29  30
ATOM     30  C   UNL     1     -19.681 -20.661   5.085  1.00  0.00    -0.000 C 
BRANCH  30  31
ATOM     31  C   UNL     1     -19.590 -19.254   5.694  1.00  0.00    -0.003 C 
ATOM     32  C   UNL     1     -20.973 -18.720   6.057  1.00  0.00     0.004 C 
ENDBRANCH  30  31
ENDBRANCH  29  30
ENDBRANCH  28  29
ENDBRANCH  27  28
ENDBRANCH  26  27
ENDBRANCH  25  26
ENDBRANCH  24  25
ENDBRANCH  23  24
ENDBRANCH  22  23
ENDBRANCH  21  22
ENDBRANCH  20  21
ENDBRANCH  19  20
ENDBRANCH  18  19
ENDBRANCH   1  18
TORSDOF 28
ENDMDL
MODEL 6
REMARK VINA RESULT:    -3.892      4.342      7.025
REMARK INTER + INTRA:         -14.234
REMARK INTER:                  -9.683
REMARK INTRA:                  -4.551
REMARK UNBOUND:                -3.970
REMARK SMILES CCCCCCCCCCCCCCCCCCCCCCCCCCCCCC(=O)[O-]
REMARK SMILES IDX 16 1 17 2 18 3 19 4 20 5 21 6 22 7 23 8 24 9 25 10 26 11
REMARK SMILES IDX 27 12 28 13 29 14 30 15 31 16 32 17 15 18 14 19 13 20 12 21
REMARK SMILES IDX 11 22 10 23 9 24 8 25 7 26 6 27 5 28 4 29 3 30 2 31 1 32
REMARK H PARENT
REMARK Flexibility Score: inf
ROOT
ATOM      1  C   UNL     1     -23.321 -19.252  -1.194  1.00  0.00     0.000 C 
ENDROOT
BRANCH   1   2
ATOM      2  C   UNL     1     -23.323 -17.729  -0.972  1.00  0.00     0.000 C 
BRANCH   2   3
ATOM      3  C   UNL     1     -22.263 -17.208   0.020  1.00  0.00     0.000 C 
BRANCH   3   4
ATOM      4  C   UNL     1     -22.382 -15.702   0.333  1.00  0.00     0.000 C 
BRANCH   4   5
ATOM      5  C   UNL     1     -21.223 -15.191   1.209  1.00  0.00     0.000 C 
BRANCH   5   6
ATOM      6  C   UNL     1     -20.582 -13.915   0.640  1.00  0.00     0.000 C 
BRANCH   6   7
ATOM      7  C   UNL     1     -19.051 -13.909   0.793  1.00  0.00     0.000 C 
BRANCH   7   8
ATOM      8  C   UNL     1     -18.369 -15.075   0.054  1.00  0.00     0.000 C 
BRANCH   8   9
ATOM      9  C   UNL     1     -17.016 -14.733  -0.592  1.00  0.00     0.000 C 
BRANCH   9  10
ATOM     10  C   UNL     1     -17.064 -14.740  -2.127  1.00  0.00     0.000 C 
BRANCH  10  11
ATOM     11  C   UNL     1     -17.582 -13.395  -2.660  1.00  0.00     0.000 C 
BRANCH  11  12
ATOM     12  C   UNL     1     -18.851 -13.537  -3.512  1.00  0.00     0.000 C 
BRANCH  12  13
ATOM     13  C   UNL     1     -20.076 -12.861  -2.870  1.00  0.00     0.006 C 
BRANCH  13  14
ATOM     14  C   UNL     1     -21.308 -13.777  -2.869  1.00  0.00     0.053 C 
BRANCH  14  15
ATOM     15  C   UNL     1     -22.536 -13.058  -3.338  1.00  0.00     0.041 C 
ATOM     16  O   UNL     1     -23.137 -13.441  -4.378  1.00  0.00    -0.550 OA
ATOM     17  O   UNL     1     -22.996 -11.943  -2.649  1.00  0.00    -0.550 OA
ENDBRANCH  14  15
ENDBRANCH  13  14
ENDBRANCH  12  13
ENDBRANCH  11  12
ENDBRANCH  10  11
ENDBRANCH   9  10
ENDBRANCH   8   9
ENDBRANCH   7   8
ENDBRANCH   6   7
ENDBRANCH   5   6
ENDBRANCH   4   5
ENDBRANCH   3   4
ENDBRANCH   2   3
ENDBRANCH   1   2
BRANCH   1  18
ATOM     18  C   UNL     1     -21.930 -19.796  -1.569  1.00  0.00     0.000 C 
BRANCH  18  19
ATOM     19  C   UNL     1     -21.763 -21.286  -1.225  1.00  0.00     0.000 C 
BRANCH  19  20
ATOM     20  C   UNL     1     -22.575 -21.759   0.001  1.00  0.00     0.000 C 
BRANCH  20  21
ATOM     21  C   UNL     1     -21.819 -21.631   1.338  1.00  0.00     0.000 C 
BRANCH  21  22
ATOM     22  C   UNL     1     -22.224 -20.426   2.208  1.00  0.00     0.000 C 
BRANCH  22  23
ATOM     23  C   UNL     1     -21.064 -19.504   2.627  1.00  0.00     0.000 C 
BRANCH  23  24
ATOM     24  C   UNL     1     -19.936 -19.453   1.586  1.00  0.00    -0.000 C 
BRANCH  24  25
ATOM     25  C   UNL     1     -19.112 -18.165   1.727  1.00  0.00    -0.000 C 
BRANCH  25  26
ATOM     26  C   UNL     1     -17.614 -18.444   1.933  1.00  0.00    -0.000 C 
BRANCH  26  27
ATOM     27  C   UNL     1     -17.318 -19.936   2.176  1.00  0.00    -0.000 C 
BRANCH  27  28
ATOM     28  C   UNL     1     -15.877 -20.182   2.647  1.00  0.00    -0.000 C 
BRANCH  28  29
ATOM     29  C   UNL     1     -15.742 -20.143   4.180  1.00  0.00    -0.000 C 
BRANCH  29  30
ATOM     30  C   UNL     1     -17.069 -20.430   4.900  1.00  0.00    -0.000 C 
BRANCH  30  31
ATOM     31  C   UNL     1     -17.590 -19.216   5.685  1.00  0.00    -0.003 C 
ATOM     32  C   UNL     1     -19.115 -19.181   5.696  1.00  0.00     0.004 C 
ENDBRANCH  30  31
ENDBRANCH  29  30
ENDBRANCH  28  29
ENDBRANCH  27  28
ENDBRANCH  26  27
ENDBRANCH  25  26
ENDBRANCH  24  25
ENDBRANCH  23  24
ENDBRANCH  22  23
ENDBRANCH  21  22
ENDBRANCH  20  21
ENDBRANCH  19  20
ENDBRANCH  18  19
ENDBRANCH   1  18
TORSDOF 28
ENDMDL
MODEL 7
REMARK VINA RESULT:    -3.872      3.938      8.740
REMARK INTER + INTRA:         -14.181
REMARK INTER:                  -9.605
REMARK INTRA:                  -4.576
REMARK UNBOUND:                -3.970
REMARK SMILES CCCCCCCCCCCCCCCCCCCCCCCCCCCCCC(=O)[O-]
REMARK SMILES IDX 16 1 17 2 18 3 19 4 20 5 21 6 22 7 23 8 24 9 25 10 26 11
REMARK SMILES IDX 27 12 28 13 29 14 30 15 31 16 32 17 15 18 14 19 13 20 12 21
REMARK SMILES IDX 11 22 10 23 9 24 8 25 7 26 6 27 5 28 4 29 3 30 2 31 1 32
REMARK H PARENT
REMARK Flexibility Score: inf
ROOT
ATOM      1  C   UNL     1     -22.042 -19.642  -1.599  1.00  0.00     0.000 C 
ENDROOT
BRANCH   1   2
ATOM      2  C   UNL     1     -21.419 -20.760  -0.744  1.00  0.00     0.000 C 
BRANCH   2   3
ATOM      3  C   UNL     1     -22.425 -21.610   0.060  1.00  0.00     0.000 C 
BRANCH   3   4
ATOM      4  C   UNL     1     -22.240 -21.520   1.589  1.00  0.00     0.000 C 
BRANCH   4   5
ATOM      5  C   UNL     1     -20.817 -21.085   1.985  1.00  0.00     0.000 C 
BRANCH   5   6
ATOM      6  C   UNL     1     -20.821 -20.014   3.086  1.00  0.00     0.000 C 
BRANCH   6   7
ATOM      7  C   UNL     1     -19.678 -18.996   2.920  1.00  0.00     0.000 C 
BRANCH   7   8
ATOM      8  C   UNL     1     -18.850 -19.228   1.642  1.00  0.00     0.000 C 
BRANCH   8   9
ATOM      9  C   UNL     1     -17.325 -19.141   1.831  1.00  0.00     0.000 C 
BRANCH   9  10
ATOM     10  C   UNL     1     -16.737 -20.367   2.544  1.00  0.00     0.000 C 
BRANCH  10  11
ATOM     11  C   UNL     1     -15.749 -19.937   3.640  1.00  0.00     0.000 C 
BRANCH  11  12
ATOM     12  C   UNL     1     -16.131 -20.464   5.031  1.00  0.00     0.000 C 
BRANCH  12  13
ATOM     13  C   UNL     1     -17.567 -21.014   5.082  1.00  0.00     0.006 C 
BRANCH  13  14
ATOM     14  C   UNL     1     -17.748 -22.054   6.197  1.00  0.00     0.053 C 
BRANCH  14  15
ATOM     15  C   UNL     1     -18.575 -23.218   5.743  1.00  0.00     0.041 C 
ATOM     16  O   UNL     1     -18.475 -24.332   6.324  1.00  0.00    -0.550 OA
ATOM     17  O   UNL     1     -19.428 -23.084   4.655  1.00  0.00    -0.550 OA
ENDBRANCH  14  15
ENDBRANCH  13  14
ENDBRANCH  12  13
ENDBRANCH  11  12
ENDBRANCH  10  11
ENDBRANCH   9  10
ENDBRANCH   8   9
ENDBRANCH   7   8
ENDBRANCH   6   7
ENDBRANCH   5   6
ENDBRANCH   4   5
ENDBRANCH   3   4
ENDBRANCH   2   3
ENDBRANCH   1   2
BRANCH   1  18
ATOM     18  C   UNL     1     -23.325 -19.061  -0.975  1.00  0.00     0.000 C 
BRANCH  18  19
ATOM     19  C   UNL     1     -23.126 -17.639  -0.424  1.00  0.00     0.000 C 
BRANCH  19  20
ATOM     20  C   UNL     1     -22.735 -17.575   1.069  1.00  0.00     0.000 C 
BRANCH  20  21
ATOM     21  C   UNL     1     -21.868 -16.354   1.435  1.00  0.00     0.000 C 
BRANCH  21  22
ATOM     22  C   UNL     1     -20.584 -16.187   0.601  1.00  0.00     0.000 C 
BRANCH  22  23
ATOM     23  C   UNL     1     -19.447 -15.417   1.299  1.00  0.00     0.000 C 
BRANCH  23  24
ATOM     24  C   UNL     1     -18.090 -15.596   0.602  1.00  0.00    -0.000 C 
BRANCH  24  25
ATOM     25  C   UNL     1     -17.818 -14.448  -0.382  1.00  0.00    -0.000 C 
BRANCH  25  26
ATOM     26  C   UNL     1     -17.184 -14.936  -1.694  1.00  0.00    -0.000 C 
BRANCH  26  27
ATOM     27  C   UNL     1     -17.102 -13.827  -2.759  1.00  0.00    -0.000 C 
BRANCH  27  28
ATOM     28  C   UNL     1     -17.400 -12.434  -2.184  1.00  0.00    -0.000 C 
BRANCH  28  29
ATOM     29  C   UNL     1     -18.814 -11.938  -2.541  1.00  0.00    -0.000 C 
BRANCH  29  30
ATOM     30  C   UNL     1     -19.556 -12.893  -3.488  1.00  0.00    -0.000 C 
BRANCH  30  31
ATOM     31  C   UNL     1     -20.746 -13.590  -2.812  1.00  0.00    -0.003 C 
ATOM     32  C   UNL     1     -21.059 -12.957  -1.459  1.00  0.00     0.004 C 
ENDBRANCH  30  31
ENDBRANCH  29  30
ENDBRANCH  28  29
ENDBRANCH  27  28
ENDBRANCH  26  27
ENDBRANCH  25  26
ENDBRANCH  24  25
ENDBRANCH  23  24
ENDBRANCH  22  23
ENDBRANCH  21  22
ENDBRANCH  20  21
ENDBRANCH  19  20
ENDBRANCH  18  19
ENDBRANCH   1  18
TORSDOF 28
ENDMDL
MODEL 8
REMARK VINA RESULT:    -3.852      4.390      7.832
REMARK INTER + INTRA:         -14.127
REMARK INTER:                  -9.089
REMARK INTRA:                  -5.038
REMARK UNBOUND:                -3.970
REMARK SMILES CCCCCCCCCCCCCCCCCCCCCCCCCCCCCC(=O)[O-]
REMARK SMILES IDX 16 1 17 2 18 3 19 4 20 5 21 6 22 7 23 8 24 9 25 10 26 11
REMARK SMILES IDX 27 12 28 13 29 14 30 15 31 16 32 17 15 18 14 19 13 20 12 21
REMARK SMILES IDX 11 22 10 23 9 24 8 25 7 26 6 27 5 28 4 29 3 30 2 31 1 32
REMARK H PARENT
REMARK Flexibility Score: inf
ROOT
ATOM      1  C   UNL     1     -22.129 -21.743   1.231  1.00  0.00     0.000 C 
ENDROOT
BRANCH   1   2
ATOM      2  C   UNL     1     -22.270 -21.646  -0.299  1.00  0.00     0.000 C 
BRANCH   2   3
ATOM      3  C   UNL     1     -21.413 -20.553  -0.970  1.00  0.00     0.000 C 
BRANCH   3   4
ATOM      4  C   UNL     1     -22.233 -19.502  -1.747  1.00  0.00     0.000 C 
BRANCH   4   5
ATOM      5  C   UNL     1     -23.668 -19.360  -1.208  1.00  0.00     0.000 C 
BRANCH   5   6
ATOM      6  C   UNL     1     -24.393 -18.140  -1.798  1.00  0.00     0.000 C 
BRANCH   6   7
ATOM      7  C   UNL     1     -23.665 -17.559  -3.022  1.00  0.00     0.000 C 
BRANCH   7   8
ATOM      8  C   UNL     1     -23.404 -16.046  -2.904  1.00  0.00     0.000 C 
BRANCH   8   9
ATOM      9  C   UNL     1     -23.817 -15.417  -1.561  1.00  0.00     0.000 C 
BRANCH   9  10
ATOM     10  C   UNL     1     -23.155 -14.055  -1.306  1.00  0.00     0.000 C 
BRANCH  10  11
ATOM     11  C   UNL     1     -21.910 -13.883  -2.191  1.00  0.00     0.000 C 
BRANCH  11  12
ATOM     12  C   UNL     1     -20.672 -13.431  -1.402  1.00  0.00     0.000 C 
BRANCH  12  13
ATOM     13  C   UNL     1     -19.795 -12.443  -2.191  1.00  0.00     0.006 C 
BRANCH  13  14
ATOM     14  C   UNL     1     -19.594 -12.884  -3.647  1.00  0.00     0.053 C 
BRANCH  14  15
ATOM     15  C   UNL     1     -20.085 -11.851  -4.615  1.00  0.00     0.041 C 
ATOM     16  O   UNL     1     -20.704 -10.835  -4.200  1.00  0.00    -0.550 OA
ATOM     17  O   UNL     1     -19.892 -12.029  -5.980  1.00  0.00    -0.550 OA
ENDBRANCH  14  15
ENDBRANCH  13  14
ENDBRANCH  12  13
ENDBRANCH  11  12
ENDBRANCH  10  11
ENDBRANCH   9  10
ENDBRANCH   8   9
ENDBRANCH   7   8
ENDBRANCH   6   7
ENDBRANCH   5   6
ENDBRANCH   4   5
ENDBRANCH   3   4
ENDBRANCH   2   3
ENDBRANCH   1   2
BRANCH   1  18
ATOM     18  C   UNL     1     -21.121 -20.727   1.800  1.00  0.00     0.000 C 
BRANCH  18  19
ATOM     19  C   UNL     1     -21.623 -20.049   3.086  1.00  0.00     0.000 C 
BRANCH  19  20
ATOM     20  C   UNL     1     -21.730 -18.511   3.004  1.00  0.00     0.000 C 
BRANCH  20  21
ATOM     21  C   UNL     1     -22.359 -17.998   1.693  1.00  0.00     0.000 C 
BRANCH  21  22
ATOM     22  C   UNL     1     -21.529 -16.945   0.935  1.00  0.00     0.000 C 
BRANCH  22  23
ATOM     23  C   UNL     1     -21.451 -15.564   1.613  1.00  0.00     0.000 C 
BRANCH  23  24
ATOM     24  C   UNL     1     -20.008 -15.074   1.803  1.00  0.00    -0.000 C 
BRANCH  24  25
ATOM     25  C   UNL     1     -19.056 -15.764   0.816  1.00  0.00    -0.000 C 
BRANCH  25  26
ATOM     26  C   UNL     1     -17.678 -16.055   1.432  1.00  0.00    -0.000 C 
BRANCH  26  27
ATOM     27  C   UNL     1     -17.744 -17.095   2.565  1.00  0.00    -0.000 C 
BRANCH  27  28
ATOM     28  C   UNL     1     -18.268 -18.457   2.085  1.00  0.00    -0.000 C 
BRANCH  28  29
ATOM     29  C   UNL     1     -17.132 -19.435   1.732  1.00  0.00    -0.000 C 
BRANCH  29  30
ATOM     30  C   UNL     1     -16.688 -20.287   2.931  1.00  0.00    -0.000 C 
BRANCH  30  31
ATOM     31  C   UNL     1     -17.825 -20.534   3.934  1.00  0.00    -0.003 C 
ATOM     32  C   UNL     1     -18.421 -21.928   3.759  1.00  0.00     0.004 C 
ENDBRANCH  30  31
ENDBRANCH  29  30
ENDBRANCH  28  29
ENDBRANCH  27  28
ENDBRANCH  26  27
ENDBRANCH  25  26
ENDBRANCH  24  25
ENDBRANCH  23  24
ENDBRANCH  22  23
ENDBRANCH  21  22
ENDBRANCH  20  21
ENDBRANCH  19  20
ENDBRANCH  18  19
ENDBRANCH   1  18
TORSDOF 28
ENDMDL
MODEL 9
REMARK VINA RESULT:    -3.834      3.461     10.080
REMARK INTER + INTRA:         -14.079
REMARK INTER:                 -10.555
REMARK INTRA:                  -3.525
REMARK UNBOUND:                -3.970
REMARK SMILES CCCCCCCCCCCCCCCCCCCCCCCCCCCCCC(=O)[O-]
REMARK SMILES IDX 16 1 17 2 18 3 19 4 20 5 21 6 22 7 23 8 24 9 25 10 26 11
REMARK SMILES IDX 27 12 28 13 29 14 30 15 31 16 32 17 15 18 14 19 13 20 12 21
REMARK SMILES IDX 11 22 10 23 9 24 8 25 7 26 6 27 5 28 4 29 3 30 2 31 1 32
REMARK H PARENT
REMARK Flexibility Score: inf
ROOT
ATOM      1  C   UNL     1     -17.560 -14.749   1.064  1.00  0.00     0.000 C 
ENDROOT
BRANCH   1   2
ATOM      2  C   UNL     1     -18.084 -16.195   1.007  1.00  0.00     0.000 C 
BRANCH   2   3
ATOM      3  C   UNL     1     -17.659 -17.095   2.186  1.00  0.00     0.000 C 
BRANCH   3   4
ATOM      4  C   UNL     1     -18.182 -18.543   2.091  1.00  0.00     0.000 C 
BRANCH   4   5
ATOM      5  C   UNL     1     -17.109 -19.524   1.583  1.00  0.00     0.000 C 
BRANCH   5   6
ATOM      6  C   UNL     1     -16.431 -20.289   2.731  1.00  0.00     0.000 C 
BRANCH   6   7
ATOM      7  C   UNL     1     -17.370 -20.502   3.930  1.00  0.00     0.000 C 
BRANCH   7   8
ATOM      8  C   UNL     1     -18.232 -21.772   3.800  1.00  0.00     0.000 C 
BRANCH   8   9
ATOM      9  C   UNL     1     -19.607 -21.698   4.485  1.00  0.00     0.000 C 
BRANCH   9  10
ATOM     10  C   UNL     1     -20.652 -20.939   3.654  1.00  0.00     0.000 C 
BRANCH  10  11
ATOM     11  C   UNL     1     -20.624 -21.405   2.189  1.00  0.00     0.000 C 
BRANCH  11  12
ATOM     12  C   UNL     1     -21.700 -20.731   1.326  1.00  0.00     0.000 C 
BRANCH  12  13
ATOM     13  C   UNL     1     -21.102 -19.799   0.256  1.00  0.00     0.006 C 
BRANCH  13  14
ATOM     14  C   UNL     1     -21.764 -18.415   0.260  1.00  0.00     0.053 C 
BRANCH  14  15
ATOM     15  C   UNL     1     -22.906 -18.340  -0.706  1.00  0.00     0.041 C 
ATOM     16  O   UNL     1     -22.992 -19.167  -1.653  1.00  0.00    -0.550 OA
ATOM     17  O   UNL     1     -23.857 -17.334  -0.584  1.00  0.00    -0.550 OA
ENDBRANCH  14  15
ENDBRANCH  13  14
ENDBRANCH  12  13
ENDBRANCH  11  12
ENDBRANCH  10  11
ENDBRANCH   9  10
ENDBRANCH   8   9
ENDBRANCH   7   8
ENDBRANCH   6   7
ENDBRANCH   5   6
ENDBRANCH   4   5
ENDBRANCH   3   4
ENDBRANCH   2   3
ENDBRANCH   1   2
BRANCH   1  18
ATOM     18  C   UNL     1     -17.816 -13.973  -0.241  1.00  0.00     0.000 C 
BRANCH  18  19
ATOM     19  C   UNL     1     -17.110 -14.602  -1.455  1.00  0.00     0.000 C 
BRANCH  19  20
ATOM     20  C   UNL     1     -17.692 -14.190  -2.824  1.00  0.00     0.000 C 
BRANCH  20  21
ATOM     21  C   UNL     1     -19.020 -13.412  -2.729  1.00  0.00     0.000 C 
BRANCH  21  22
ATOM     22  C   UNL     1     -19.210 -12.307  -3.785  1.00  0.00     0.000 C 
BRANCH  22  23
ATOM     23  C   UNL     1     -18.403 -11.019  -3.535  1.00  0.00     0.000 C 
BRANCH  23  24
ATOM     24  C   UNL     1     -18.049 -10.815  -2.055  1.00  0.00    -0.000 C 
BRANCH  24  25
ATOM     25  C   UNL     1     -16.528 -10.730  -1.857  1.00  0.00    -0.000 C 
BRANCH  25  26
ATOM     26  C   UNL     1     -16.118 -10.861  -0.382  1.00  0.00    -0.000 C 
BRANCH  26  27
ATOM     27  C   UNL     1     -14.686 -11.400  -0.211  1.00  0.00    -0.000 C 
BRANCH  27  28
ATOM     28  C   UNL     1     -14.459 -12.048   1.163  1.00  0.00    -0.000 C 
BRANCH  28  29
ATOM     29  C   UNL     1     -14.010 -13.517   1.056  1.00  0.00    -0.000 C 
BRANCH  29  30
ATOM     30  C   UNL     1     -12.482 -13.668   1.013  1.00  0.00    -0.000 C 
BRANCH  30  31
ATOM     31  C   UNL     1     -11.825 -13.427   2.381  1.00  0.00    -0.003 C 
ATOM     32  C   UNL     1     -11.967 -14.649   3.284  1.00  0.00     0.004 C 
ENDBRANCH  30  31
ENDBRANCH  29  30
ENDBRANCH  28  29
ENDBRANCH  27  28
ENDBRANCH  26  27
ENDBRANCH  25  26
ENDBRANCH  24  25
ENDBRANCH  23  24
ENDBRANCH  22  23
ENDBRANCH  21  22
ENDBRANCH  20  21
ENDBRANCH  19  20
ENDBRANCH  18  19
ENDBRANCH   1  18
TORSDOF 28
ENDMDL
