MODEL 1
REMARK VINA RESULT:    -6.856      0.000      0.000
REMARK INTER + INTRA:          -8.345
REMARK INTER:                  -8.058
REMARK INTRA:                  -0.287
REMARK UNBOUND:                -0.287
REMARK SMILES O=c1cc(-c2ccc(O)c(O)c2)oc2cc(O)cc(O)c12
REMARK SMILES IDX 4 1 3 2 2 3 1 4 21 5 19 6 18 7 16 8 15 9 14 10 13 11 5 12
REMARK SMILES IDX 6 13 7 14 8 15 12 16 10 17 9 18 11 20 20 22 17 24
REMARK H PARENT 9 19 11 21 20 23 17 25
REMARK Flexibility Score: inf
ROOT
ATOM      1  C   UNL     1     112.610 101.229 109.116  1.00  0.00     0.138 A 
ATOM      2  C   UNL     1     112.683 100.219 108.147  1.00  0.00     0.100 A 
ATOM      3  C   UNL     1     112.748  98.883 108.546  1.00  0.00     0.197 A 
ATOM      4  O   UNL     1     112.757  97.997 107.652  1.00  0.00    -0.289 OA
ATOM      5  C   UNL     1     112.777  98.559 109.923  1.00  0.00     0.107 A 
ATOM      6  C   UNL     1     112.876  97.235 110.448  1.00  0.00     0.134 A 
ATOM      7  C   UNL     1     112.795  97.032 111.831  1.00  0.00     0.093 A 
ATOM      8  C   UNL     1     112.677  98.110 112.711  1.00  0.00     0.123 A 
ATOM      9  C   UNL     1     112.630  99.410 112.214  1.00  0.00     0.094 A 
ATOM     10  C   UNL     1     112.673  99.642 110.837  1.00  0.00     0.146 A 
ATOM     11  O   UNL     1     112.606 100.897 110.403  1.00  0.00    -0.456 OA
ENDROOT
BRANCH   1  12
ATOM     12  C   UNL     1     112.542 102.665 108.750  1.00  0.00     0.021 A 
ATOM     13  C   UNL     1     113.034 103.672 109.605  1.00  0.00     0.016 A 
ATOM     14  C   UNL     1     112.965 105.015 109.229  1.00  0.00     0.051 A 
ATOM     15  C   UNL     1     112.413 105.379 107.994  1.00  0.00     0.157 A 
ATOM     16  C   UNL     1     112.001 103.038 107.507  1.00  0.00     0.062 A 
ATOM     17  C   UNL     1     111.930 104.384 107.129  1.00  0.00     0.158 A 
BRANCH  15  18
ATOM     18  O   UNL     1     112.345 106.722 107.625  1.00  0.00    -0.504 OA
ATOM     19  H   UNL     1     111.462 107.166 107.401  1.00  0.00     0.293 HD
ENDBRANCH  15  18
BRANCH  17  20
ATOM     20  O   UNL     1     111.379 104.711 105.891  1.00  0.00    -0.504 OA
ATOM     21  H   UNL     1     111.954 104.905 105.080  1.00  0.00     0.293 HD
ENDBRANCH  17  20
ENDBRANCH   1  12
BRANCH   6  22
ATOM     22  O   UNL     1     113.076  96.095 109.663  1.00  0.00    -0.507 OA
ATOM     23  H   UNL     1     113.345  96.099 108.691  1.00  0.00     0.293 HD
ENDBRANCH   6  22
BRANCH   8  24
ATOM     24  O   UNL     1     112.613  97.899 114.088  1.00  0.00    -0.508 OA
ATOM     25  H   UNL     1     112.989  97.061 114.514  1.00  0.00     0.293 HD
ENDBRANCH   8  24
TORSDOF 5
ENDMDL
MODEL 2
REMARK VINA RESULT:    -6.814     14.307     15.773
REMARK INTER + INTRA:          -8.296
REMARK INTER:                  -8.001
REMARK INTRA:                  -0.295
REMARK UNBOUND:                -0.287
REMARK SMILES O=c1cc(-c2ccc(O)c(O)c2)oc2cc(O)cc(O)c12
REMARK SMILES IDX 4 1 3 2 2 3 1 4 21 5 19 6 18 7 16 8 15 9 14 10 13 11 5 12
REMARK SMILES IDX 6 13 7 14 8 15 12 16 10 17 9 18 11 20 20 22 17 24
REMARK H PARENT 9 19 11 21 20 23 17 25
REMARK Flexibility Score: inf
ROOT
ATOM      1  C   UNL     1     100.138 101.933 117.122  1.00  0.00     0.138 A 
ATOM      2  C   UNL     1      99.314 101.013 117.783  1.00  0.00     0.100 A 
ATOM      3  C   UNL     1      98.721 101.366 118.996  1.00  0.00     0.197 A 
ATOM      4  O   UNL     1      97.942 100.539 119.538  1.00  0.00    -0.289 OA
ATOM      5  C   UNL     1      98.986 102.633 119.568  1.00  0.00     0.107 A 
ATOM      6  C   UNL     1      98.465 103.089 120.818  1.00  0.00     0.134 A 
ATOM      7  C   UNL     1      98.718 104.402 121.233  1.00  0.00     0.093 A 
ATOM      8  C   UNL     1      99.520 105.257 120.472  1.00  0.00     0.123 A 
ATOM      9  C   UNL     1     100.074 104.806 119.277  1.00  0.00     0.094 A 
ATOM     10  C   UNL     1      99.812 103.512 118.818  1.00  0.00     0.146 A 
ATOM     11  O   UNL     1     100.346 103.128 117.664  1.00  0.00    -0.456 OA
ENDROOT
BRANCH   1  12
ATOM     12  C   UNL     1     100.797 101.612 115.831  1.00  0.00     0.021 A 
ATOM     13  C   UNL     1     101.590 102.555 115.148  1.00  0.00     0.016 A 
ATOM     14  C   UNL     1     102.205 102.221 113.940  1.00  0.00     0.051 A 
ATOM     15  C   UNL     1     102.048 100.940 113.395  1.00  0.00     0.157 A 
ATOM     16  C   UNL     1     100.654 100.325 115.283  1.00  0.00     0.062 A 
ATOM     17  C   UNL     1     101.269  99.988 114.072  1.00  0.00     0.158 A 
BRANCH  15  18
ATOM     18  O   UNL     1     102.662 100.612 112.187  1.00  0.00    -0.504 OA
ATOM     19  H   UNL     1     102.953 101.325 111.528  1.00  0.00     0.293 HD
ENDBRANCH  15  18
BRANCH  17  20
ATOM     20  O   UNL     1     101.095  98.703 113.559  1.00  0.00    -0.504 OA
ATOM     21  H   UNL     1     101.019  97.890 114.159  1.00  0.00     0.293 HD
ENDBRANCH  17  20
ENDBRANCH   1  12
BRANCH   6  22
ATOM     22  O   UNL     1      97.719 102.293 121.692  1.00  0.00    -0.507 OA
ATOM     23  H   UNL     1      98.027 101.981 122.600  1.00  0.00     0.293 HD
ENDBRANCH   6  22
BRANCH   8  24
ATOM     24  O   UNL     1      99.778 106.557 120.902  1.00  0.00    -0.508 OA
ATOM     25  H   UNL     1      99.802 106.795 121.886  1.00  0.00     0.293 HD
ENDBRANCH   8  24
TORSDOF 5
ENDMDL
MODEL 3
REMARK VINA RESULT:    -6.804      6.976     10.160
REMARK INTER + INTRA:          -8.284
REMARK INTER:                  -8.015
REMARK INTRA:                  -0.269
REMARK UNBOUND:                -0.287
REMARK SMILES O=c1cc(-c2ccc(O)c(O)c2)oc2cc(O)cc(O)c12
REMARK SMILES IDX 4 1 3 2 2 3 1 4 21 5 19 6 18 7 16 8 15 9 14 10 13 11 5 12
REMARK SMILES IDX 6 13 7 14 8 15 12 16 10 17 9 18 11 20 20 22 17 24
REMARK H PARENT 9 19 11 21 20 23 17 25
REMARK Flexibility Score: inf
ROOT
ATOM      1  C   UNL     1     109.595 102.389 116.472  1.00  0.00     0.138 A 
ATOM      2  C   UNL     1     109.813 102.339 117.856  1.00  0.00     0.100 A 
ATOM      3  C   UNL     1     109.830 103.522 118.595  1.00  0.00     0.197 A 
ATOM      4  O   UNL     1     109.973 103.439 119.843  1.00  0.00    -0.289 OA
ATOM      5  C   UNL     1     109.666 104.765 117.939  1.00  0.00     0.107 A 
ATOM      6  C   UNL     1     109.700 106.039 118.585  1.00  0.00     0.134 A 
ATOM      7  C   UNL     1     109.425 107.195 117.845  1.00  0.00     0.093 A 
ATOM      8  C   UNL     1     109.174 107.130 116.472  1.00  0.00     0.123 A 
ATOM      9  C   UNL     1     109.189 105.898 115.823  1.00  0.00     0.094 A 
ATOM     10  C   UNL     1     109.425 104.723 116.540  1.00  0.00     0.146 A 
ATOM     11  O   UNL     1     109.412 103.566 115.884  1.00  0.00    -0.456 OA
ENDROOT
BRANCH   1  12
ATOM     12  C   UNL     1     109.569 101.163 115.635  1.00  0.00     0.021 A 
ATOM     13  C   UNL     1     108.474 100.277 115.653  1.00  0.00     0.016 A 
ATOM     14  C   UNL     1     108.474  99.136 114.848  1.00  0.00     0.051 A 
ATOM     15  C   UNL     1     109.559  98.862 114.006  1.00  0.00     0.157 A 
ATOM     16  C   UNL     1     110.649 100.887 114.778  1.00  0.00     0.062 A 
ATOM     17  C   UNL     1     110.651  99.744 113.971  1.00  0.00     0.158 A 
BRANCH  15  18
ATOM     18  O   UNL     1     109.555  97.720 113.205  1.00  0.00    -0.504 OA
ATOM     19  H   UNL     1     110.063  96.885 113.471  1.00  0.00     0.293 HD
ENDBRANCH  15  18
BRANCH  17  20
ATOM     20  O   UNL     1     111.746  99.503 113.142  1.00  0.00    -0.504 OA
ATOM     21  H   UNL     1     112.259  98.630 113.169  1.00  0.00     0.293 HD
ENDBRANCH  17  20
ENDBRANCH   1  12
BRANCH   6  22
ATOM     22  O   UNL     1     110.017 106.224 119.934  1.00  0.00    -0.507 OA
ATOM     23  H   UNL     1     109.367 106.507 120.650  1.00  0.00     0.293 HD
ENDBRANCH   6  22
BRANCH   8  24
ATOM     24  O   UNL     1     108.917 108.289 115.741  1.00  0.00    -0.508 OA
ATOM     25  H   UNL     1     109.617 108.700 115.136  1.00  0.00     0.293 HD
ENDBRANCH   8  24
TORSDOF 5
ENDMDL
MODEL 4
REMARK VINA RESULT:    -6.758     16.186     16.899
REMARK INTER + INTRA:          -8.230
REMARK INTER:                  -7.959
REMARK INTRA:                  -0.271
REMARK UNBOUND:                -0.287
REMARK SMILES O=c1cc(-c2ccc(O)c(O)c2)oc2cc(O)cc(O)c12
REMARK SMILES IDX 4 1 3 2 2 3 1 4 21 5 19 6 18 7 16 8 15 9 14 10 13 11 5 12
REMARK SMILES IDX 6 13 7 14 8 15 12 16 10 17 9 18 11 20 20 22 17 24
REMARK H PARENT 9 19 11 21 20 23 17 25
REMARK Flexibility Score: inf
ROOT
ATOM      1  C   UNL     1      97.718 105.007 116.276  1.00  0.00     0.138 A 
ATOM      2  C   UNL     1      97.478 105.087 117.655  1.00  0.00     0.100 A 
ATOM      3  C   UNL     1      97.499 103.925 118.427  1.00  0.00     0.197 A 
ATOM      4  O   UNL     1      97.335 104.036 119.670  1.00  0.00    -0.289 OA
ATOM      5  C   UNL     1      97.725 102.672 117.809  1.00  0.00     0.107 A 
ATOM      6  C   UNL     1      97.735 101.417 118.490  1.00  0.00     0.134 A 
ATOM      7  C   UNL     1      98.069 100.252 117.787  1.00  0.00     0.093 A 
ATOM      8  C   UNL     1      98.336 100.290 116.416  1.00  0.00     0.123 A 
ATOM      9  C   UNL     1      98.280 101.502 115.732  1.00  0.00     0.094 A 
ATOM     10  C   UNL     1      97.984 102.686 116.412  1.00  0.00     0.146 A 
ATOM     11  O   UNL     1      97.959 103.823 115.725  1.00  0.00    -0.456 OA
ENDROOT
BRANCH   1  12
ATOM     12  C   UNL     1      97.705 106.210 115.406  1.00  0.00     0.021 A 
ATOM     13  C   UNL     1      98.791 107.107 115.365  1.00  0.00     0.016 A 
ATOM     14  C   UNL     1      98.754 108.225 114.529  1.00  0.00     0.051 A 
ATOM     15  C   UNL     1      97.641 108.465 113.714  1.00  0.00     0.157 A 
ATOM     16  C   UNL     1      96.597 106.451 114.575  1.00  0.00     0.062 A 
ATOM     17  C   UNL     1      96.558 107.571 113.738  1.00  0.00     0.158 A 
BRANCH  15  18
ATOM     18  O   UNL     1      97.608 109.583 112.883  1.00  0.00    -0.504 OA
ATOM     19  H   UNL     1      98.209 110.382 113.045  1.00  0.00     0.293 HD
ENDBRANCH  15  18
BRANCH  17  20
ATOM     20  O   UNL     1      95.435 107.778 112.936  1.00  0.00    -0.504 OA
ATOM     21  H   UNL     1      95.509 108.133 111.989  1.00  0.00     0.293 HD
ENDBRANCH  17  20
ENDBRANCH   1  12
BRANCH   6  22
ATOM     22  O   UNL     1      97.406 101.256 119.839  1.00  0.00    -0.507 OA
ATOM     23  H   UNL     1      97.930 101.632 120.614  1.00  0.00     0.293 HD
ENDBRANCH   6  22
BRANCH   8  24
ATOM     24  O   UNL     1      98.652  99.124 115.722  1.00  0.00    -0.508 OA
ATOM     25  H   UNL     1      98.975  98.292 116.202  1.00  0.00     0.293 HD
ENDBRANCH   8  24
TORSDOF 5
ENDMDL
MODEL 5
REMARK VINA RESULT:    -6.670     12.886     14.025
REMARK INTER + INTRA:          -8.127
REMARK INTER:                  -7.815
REMARK INTRA:                  -0.312
REMARK UNBOUND:                -0.287
REMARK SMILES O=c1cc(-c2ccc(O)c(O)c2)oc2cc(O)cc(O)c12
REMARK SMILES IDX 4 1 3 2 2 3 1 4 21 5 19 6 18 7 16 8 15 9 14 10 13 11 5 12
REMARK SMILES IDX 6 13 7 14 8 15 12 16 10 17 9 18 11 20 20 22 17 24
REMARK H PARENT 9 19 11 21 20 23 17 25
REMARK Flexibility Score: inf
ROOT
ATOM      1  C   UNL     1     100.918 104.453 111.807  1.00  0.00     0.138 A 
ATOM      2  C   UNL     1     100.892 105.854 111.782  1.00  0.00     0.100 A 
ATOM      3  C   UNL     1     100.006 106.543 112.611  1.00  0.00     0.197 A 
ATOM      4  O   UNL     1     100.045 107.801 112.606  1.00  0.00    -0.289 OA
ATOM      5  C   UNL     1      99.115 105.823 113.443  1.00  0.00     0.107 A 
ATOM      6  C   UNL     1      98.144 106.418 114.305  1.00  0.00     0.134 A 
ATOM      7  C   UNL     1      97.386 105.604 115.156  1.00  0.00     0.093 A 
ATOM      8  C   UNL     1      97.523 104.214 115.134  1.00  0.00     0.123 A 
ATOM      9  C   UNL     1      98.431 103.620 114.261  1.00  0.00     0.094 A 
ATOM     10  C   UNL     1      99.227 104.407 113.425  1.00  0.00     0.146 A 
ATOM     11  O   UNL     1     100.094 103.802 112.620  1.00  0.00    -0.456 OA
ENDROOT
BRANCH   1  12
ATOM     12  C   UNL     1     101.837 103.669 110.944  1.00  0.00     0.021 A 
ATOM     13  C   UNL     1     102.414 104.220 109.783  1.00  0.00     0.016 A 
ATOM     14  C   UNL     1     103.283 103.461 108.996  1.00  0.00     0.051 A 
ATOM     15  C   UNL     1     103.599 102.144 109.356  1.00  0.00     0.157 A 
ATOM     16  C   UNL     1     102.169 102.351 111.305  1.00  0.00     0.062 A 
ATOM     17  C   UNL     1     103.039 101.589 110.518  1.00  0.00     0.158 A 
BRANCH  15  18
ATOM     18  O   UNL     1     104.465 101.390 108.566  1.00  0.00    -0.504 OA
ATOM     19  H   UNL     1     105.438 101.649 108.451  1.00  0.00     0.293 HD
ENDBRANCH  15  18
BRANCH  17  20
ATOM     20  O   UNL     1     103.336 100.283 110.907  1.00  0.00    -0.504 OA
ATOM     21  H   UNL     1     103.967  99.694 110.377  1.00  0.00     0.293 HD
ENDBRANCH  17  20
ENDBRANCH   1  12
BRANCH   6  22
ATOM     22  O   UNL     1      97.871 107.788 114.349  1.00  0.00    -0.507 OA
ATOM     23  H   UNL     1      97.029 108.201 114.720  1.00  0.00     0.293 HD
ENDBRANCH   6  22
BRANCH   8  24
ATOM     24  O   UNL     1      96.753 103.411 115.974  1.00  0.00    -0.508 OA
ATOM     25  H   UNL     1      97.148 102.612 116.453  1.00  0.00     0.293 HD
ENDBRANCH   8  24
TORSDOF 5
ENDMDL
MODEL 6
REMARK VINA RESULT:    -6.594      6.730      7.429
REMARK INTER + INTRA:          -8.037
REMARK INTER:                  -7.725
REMARK INTRA:                  -0.312
REMARK UNBOUND:                -0.287
REMARK SMILES O=c1cc(-c2ccc(O)c(O)c2)oc2cc(O)cc(O)c12
REMARK SMILES IDX 4 1 3 2 2 3 1 4 21 5 19 6 18 7 16 8 15 9 14 10 13 11 5 12
REMARK SMILES IDX 6 13 7 14 8 15 12 16 10 17 9 18 11 20 20 22 17 24
REMARK H PARENT 9 19 11 21 20 23 17 25
REMARK Flexibility Score: inf
ROOT
ATOM      1  C   UNL     1     106.465 102.855 111.826  1.00  0.00     0.138 A 
ATOM      2  C   UNL     1     106.496 101.455 111.792  1.00  0.00     0.100 A 
ATOM      3  C   UNL     1     107.392 100.764 112.609  1.00  0.00     0.197 A 
ATOM      4  O   UNL     1     107.357  99.506 112.596  1.00  0.00    -0.289 OA
ATOM      5  C   UNL     1     108.288 101.482 113.437  1.00  0.00     0.107 A 
ATOM      6  C   UNL     1     109.269 100.885 114.286  1.00  0.00     0.134 A 
ATOM      7  C   UNL     1     110.032 101.697 115.135  1.00  0.00     0.093 A 
ATOM      8  C   UNL     1     109.890 103.087 115.123  1.00  0.00     0.123 A 
ATOM      9  C   UNL     1     108.972 103.682 114.262  1.00  0.00     0.094 A 
ATOM     10  C   UNL     1     108.171 102.898 113.428  1.00  0.00     0.146 A 
ATOM     11  O   UNL     1     107.294 103.505 112.636  1.00  0.00    -0.456 OA
ENDROOT
BRANCH   1  12
ATOM     12  C   UNL     1     105.535 103.642 110.978  1.00  0.00     0.021 A 
ATOM     13  C   UNL     1     104.933 103.089 109.829  1.00  0.00     0.016 A 
ATOM     14  C   UNL     1     104.054 103.851 109.055  1.00  0.00     0.051 A 
ATOM     15  C   UNL     1     103.753 105.170 109.416  1.00  0.00     0.157 A 
ATOM     16  C   UNL     1     105.217 104.963 111.339  1.00  0.00     0.062 A 
ATOM     17  C   UNL     1     104.337 105.727 110.565  1.00  0.00     0.158 A 
BRANCH  15  18
ATOM     18  O   UNL     1     102.877 105.927 108.639  1.00  0.00    -0.504 OA
ATOM     19  H   UNL     1     101.951 105.590 108.404  1.00  0.00     0.293 HD
ENDBRANCH  15  18
BRANCH  17  20
ATOM     20  O   UNL     1     104.056 107.037 110.954  1.00  0.00    -0.504 OA
ATOM     21  H   UNL     1     104.071 107.808 110.296  1.00  0.00     0.293 HD
ENDBRANCH  17  20
ENDBRANCH   1  12
BRANCH   6  22
ATOM     22  O   UNL     1     109.548  99.516 114.319  1.00  0.00    -0.507 OA
ATOM     23  H   UNL     1     109.021  98.828 114.834  1.00  0.00     0.293 HD
ENDBRANCH   6  22
BRANCH   8  24
ATOM     24  O   UNL     1     110.666 103.887 115.960  1.00  0.00    -0.508 OA
ATOM     25  H   UNL     1     110.433 104.857 116.131  1.00  0.00     0.293 HD
ENDBRANCH   8  24
TORSDOF 5
ENDMDL
MODEL 7
REMARK VINA RESULT:    -6.581      6.455      9.584
REMARK INTER + INTRA:          -8.022
REMARK INTER:                  -7.747
REMARK INTRA:                  -0.275
REMARK UNBOUND:                -0.287
REMARK SMILES O=c1cc(-c2ccc(O)c(O)c2)oc2cc(O)cc(O)c12
REMARK SMILES IDX 4 1 3 2 2 3 1 4 21 5 19 6 18 7 16 8 15 9 14 10 13 11 5 12
REMARK SMILES IDX 6 13 7 14 8 15 12 16 10 17 9 18 11 20 20 22 17 24
REMARK H PARENT 9 19 11 21 20 23 17 25
REMARK Flexibility Score: inf
ROOT
ATOM      1  C   UNL     1     107.013 102.468 112.263  1.00  0.00     0.138 A 
ATOM      2  C   UNL     1     106.659 103.577 113.043  1.00  0.00     0.100 A 
ATOM      3  C   UNL     1     105.858 104.580 112.495  1.00  0.00     0.197 A 
ATOM      4  O   UNL     1     105.513 105.535 113.238  1.00  0.00    -0.289 OA
ATOM      5  C   UNL     1     105.440 104.489 111.146  1.00  0.00     0.107 A 
ATOM      6  C   UNL     1     104.651 105.468 110.469  1.00  0.00     0.134 A 
ATOM      7  C   UNL     1     104.215 105.220 109.161  1.00  0.00     0.093 A 
ATOM      8  C   UNL     1     104.590 104.056 108.486  1.00  0.00     0.123 A 
ATOM      9  C   UNL     1     105.401 103.118 109.119  1.00  0.00     0.094 A 
ATOM     10  C   UNL     1     105.823 103.320 110.435  1.00  0.00     0.146 A 
ATOM     11  O   UNL     1     106.582 102.391 111.008  1.00  0.00    -0.456 OA
ENDROOT
BRANCH   1  12
ATOM     12  C   UNL     1     107.864 101.374 112.792  1.00  0.00     0.021 A 
ATOM     13  C   UNL     1     107.551 100.018 112.572  1.00  0.00     0.016 A 
ATOM     14  C   UNL     1     108.376  99.010 113.075  1.00  0.00     0.051 A 
ATOM     15  C   UNL     1     109.531  99.334 113.798  1.00  0.00     0.157 A 
ATOM     16  C   UNL     1     109.032 101.690 113.509  1.00  0.00     0.062 A 
ATOM     17  C   UNL     1     109.860 100.682 114.015  1.00  0.00     0.158 A 
BRANCH  15  18
ATOM     18  O   UNL     1     110.350  98.324 114.300  1.00  0.00    -0.504 OA
ATOM     19  H   UNL     1     111.301  98.200 113.972  1.00  0.00     0.293 HD
ENDBRANCH  15  18
BRANCH  17  20
ATOM     20  O   UNL     1     111.004 101.039 114.727  1.00  0.00    -0.504 OA
ATOM     21  H   UNL     1     111.147 101.978 115.079  1.00  0.00     0.293 HD
ENDBRANCH  17  20
ENDBRANCH   1  12
BRANCH   6  22
ATOM     22  O   UNL     1     104.288 106.700 111.023  1.00  0.00    -0.507 OA
ATOM     23  H   UNL     1     103.757 107.415 110.550  1.00  0.00     0.293 HD
ENDBRANCH   6  22
BRANCH   8  24
ATOM     24  O   UNL     1     104.164 103.825 107.179  1.00  0.00    -0.508 OA
ATOM     25  H   UNL     1     103.875 104.585 106.574  1.00  0.00     0.293 HD
ENDBRANCH   8  24
TORSDOF 5
ENDMDL
MODEL 8
REMARK VINA RESULT:    -6.573      1.612      6.950
REMARK INTER + INTRA:          -8.012
REMARK INTER:                  -7.717
REMARK INTRA:                  -0.295
REMARK UNBOUND:                -0.287
REMARK SMILES O=c1cc(-c2ccc(O)c(O)c2)oc2cc(O)cc(O)c12
REMARK SMILES IDX 4 1 3 2 2 3 1 4 21 5 19 6 18 7 16 8 15 9 14 10 13 11 5 12
REMARK SMILES IDX 6 13 7 14 8 15 12 16 10 17 9 18 11 20 20 22 17 24
REMARK H PARENT 9 19 11 21 20 23 17 25
REMARK Flexibility Score: inf
ROOT
ATOM      1  C   UNL     1     112.860 100.757 108.463  1.00  0.00     0.138 A 
ATOM      2  C   UNL     1     113.251 100.392 107.168  1.00  0.00     0.100 A 
ATOM      3  C   UNL     1     113.346 101.368 106.175  1.00  0.00     0.197 A 
ATOM      4  O   UNL     1     113.753 101.018 105.037  1.00  0.00    -0.289 OA
ATOM      5  C   UNL     1     113.012 102.711 106.472  1.00  0.00     0.107 A 
ATOM      6  C   UNL     1     113.038 103.786 105.532  1.00  0.00     0.134 A 
ATOM      7  C   UNL     1     112.783 105.091 105.969  1.00  0.00     0.093 A 
ATOM      8  C   UNL     1     112.444 105.353 107.299  1.00  0.00     0.123 A 
ATOM      9  C   UNL     1     112.366 104.306 108.213  1.00  0.00     0.094 A 
ATOM     10  C   UNL     1     112.650 102.997 107.816  1.00  0.00     0.146 A 
ATOM     11  O   UNL     1     112.582 102.030 108.725  1.00  0.00    -0.456 OA
ENDROOT
BRANCH   1  12
ATOM     12  C   UNL     1     112.738  99.761 109.557  1.00  0.00     0.021 A 
ATOM     13  C   UNL     1     112.275 100.120 110.838  1.00  0.00     0.016 A 
ATOM     14  C   UNL     1     112.162  99.159 111.846  1.00  0.00     0.051 A 
ATOM     15  C   UNL     1     112.501  97.824 111.592  1.00  0.00     0.157 A 
ATOM     16  C   UNL     1     113.064  98.416 109.308  1.00  0.00     0.062 A 
ATOM     17  C   UNL     1     112.953  97.452 110.316  1.00  0.00     0.158 A 
BRANCH  15  18
ATOM     18  O   UNL     1     112.389  96.869 112.602  1.00  0.00    -0.504 OA
ATOM     19  H   UNL     1     111.892  97.063 113.463  1.00  0.00     0.293 HD
ENDBRANCH  15  18
BRANCH  17  20
ATOM     20  O   UNL     1     113.294  96.130 110.029  1.00  0.00    -0.504 OA
ATOM     21  H   UNL     1     113.172  95.732 109.106  1.00  0.00     0.293 HD
ENDBRANCH  17  20
ENDBRANCH   1  12
BRANCH   6  22
ATOM     22  O   UNL     1     113.286 103.624 104.166  1.00  0.00    -0.507 OA
ATOM     23  H   UNL     1     114.200 103.556 103.745  1.00  0.00     0.293 HD
ENDBRANCH   6  22
BRANCH   8  24
ATOM     24  O   UNL     1     112.176 106.654 107.720  1.00  0.00    -0.508 OA
ATOM     25  H   UNL     1     112.917 107.284 108.003  1.00  0.00     0.293 HD
ENDBRANCH   8  24
TORSDOF 5
ENDMDL
MODEL 9
REMARK VINA RESULT:    -6.565     12.491     13.322
REMARK INTER + INTRA:          -8.003
REMARK INTER:                  -7.728
REMARK INTRA:                  -0.275
REMARK UNBOUND:                -0.287
REMARK SMILES O=c1cc(-c2ccc(O)c(O)c2)oc2cc(O)cc(O)c12
REMARK SMILES IDX 4 1 3 2 2 3 1 4 21 5 19 6 18 7 16 8 15 9 14 10 13 11 5 12
REMARK SMILES IDX 6 13 7 14 8 15 12 16 10 17 9 18 11 20 20 22 17 24
REMARK H PARENT 9 19 11 21 20 23 17 25
REMARK Flexibility Score: inf
ROOT
ATOM      1  C   UNL     1     100.624 104.633 112.333  1.00  0.00     0.138 A 
ATOM      2  C   UNL     1     100.988 103.540 113.132  1.00  0.00     0.100 A 
ATOM      3  C   UNL     1     101.760 102.513 112.587  1.00  0.00     0.197 A 
ATOM      4  O   UNL     1     102.116 101.573 113.345  1.00  0.00    -0.289 OA
ATOM      5  C   UNL     1     102.138 102.563 111.224  1.00  0.00     0.107 A 
ATOM      6  C   UNL     1     102.895 101.557 110.551  1.00  0.00     0.134 A 
ATOM      7  C   UNL     1     103.294 101.765 109.225  1.00  0.00     0.093 A 
ATOM      8  C   UNL     1     102.914 102.916 108.530  1.00  0.00     0.123 A 
ATOM      9  C   UNL     1     102.133 103.881 109.162  1.00  0.00     0.094 A 
ATOM     10  C   UNL     1     101.748 103.718 110.495  1.00  0.00     0.146 A 
ATOM     11  O   UNL     1     101.019 104.671 111.065  1.00  0.00    -0.456 OA
ENDROOT
BRANCH   1  12
ATOM     12  C   UNL     1      99.802 105.751 112.859  1.00  0.00     0.021 A 
ATOM     13  C   UNL     1     100.132 107.097 112.604  1.00  0.00     0.016 A 
ATOM     14  C   UNL     1      99.334 108.128 113.103  1.00  0.00     0.051 A 
ATOM     15  C   UNL     1      98.191 107.838 113.858  1.00  0.00     0.157 A 
ATOM     16  C   UNL     1      98.645 105.469 113.607  1.00  0.00     0.062 A 
ATOM     17  C   UNL     1      97.845 106.501 114.109  1.00  0.00     0.158 A 
BRANCH  15  18
ATOM     18  O   UNL     1      97.399 108.872 114.357  1.00  0.00    -0.504 OA
ATOM     19  H   UNL     1      96.585 109.206 113.854  1.00  0.00     0.293 HD
ENDBRANCH  15  18
BRANCH  17  20
ATOM     20  O   UNL     1      96.711 106.177 114.854  1.00  0.00    -0.504 OA
ATOM     21  H   UNL     1      96.346 105.233 114.894  1.00  0.00     0.293 HD
ENDBRANCH  17  20
ENDBRANCH   1  12
BRANCH   6  22
ATOM     22  O   UNL     1     103.260 100.336 111.126  1.00  0.00    -0.507 OA
ATOM     23  H   UNL     1     103.925  99.686 110.736  1.00  0.00     0.293 HD
ENDBRANCH   6  22
BRANCH   8  24
ATOM     24  O   UNL     1     103.303 103.106 107.206  1.00  0.00    -0.508 OA
ATOM     25  H   UNL     1     103.841 102.409 106.705  1.00  0.00     0.293 HD
ENDBRANCH   8  24
TORSDOF 5
ENDMDL
