MODEL 1
REMARK VINA RESULT:    -5.737      0.000      0.000
REMARK INTER + INTRA:          -6.072
REMARK INTER:                  -6.072
REMARK INTRA:                   0.000
REMARK UNBOUND:                 0.000
REMARK SMILES O=c1ccc2cc(O)c(O)cc2o1
REMARK SMILES IDX 4 1 3 2 2 3 1 4 13 5 12 6 11 7 9 8 7 9 6 10 5 11 8 12 10 14
REMARK H PARENT 8 13 10 15
REMARK Flexibility Score: inf
ROOT
ATOM      1  C   UNL     1      -0.001   9.444   1.125  1.00  0.00     0.019 A 
ATOM      2  C   UNL     1       1.131   8.629   1.111  1.00  0.00     0.094 A 
ATOM      3  C   UNL     1       1.000   7.294   0.718  1.00  0.00     0.336 A 
ATOM      4  O   UNL     1       2.010   6.542   0.699  1.00  0.00    -0.246 OA
ATOM      5  O   UNL     1      -0.187   6.809   0.363  1.00  0.00    -0.423 OA
ATOM      6  C   UNL     1      -1.292   7.552   0.361  1.00  0.00     0.142 A 
ATOM      7  C   UNL     1      -2.512   6.987  -0.022  1.00  0.00     0.098 A 
ATOM      8  C   UNL     1      -3.680   7.765  -0.024  1.00  0.00     0.161 A 
ATOM      9  C   UNL     1      -3.625   9.113   0.358  1.00  0.00     0.158 A 
ATOM     10  C   UNL     1      -2.403   9.685   0.744  1.00  0.00     0.062 A 
ATOM     11  C   UNL     1      -1.236   8.908   0.747  1.00  0.00     0.022 A 
ENDROOT
BRANCH   9  12
ATOM     12  O   UNL     1      -4.789   9.879   0.352  1.00  0.00    -0.504 OA
ATOM     13  H   UNL     1      -4.859  10.735  -0.186  1.00  0.00     0.293 HD
ENDBRANCH   9  12
BRANCH   8  14
ATOM     14  O   UNL     1      -4.898   7.206  -0.406  1.00  0.00    -0.504 OA
ATOM     15  H   UNL     1      -5.098   6.980  -1.374  1.00  0.00     0.293 HD
ENDBRANCH   8  14
TORSDOF 2
ENDMDL
MODEL 2
REMARK VINA RESULT:    -5.541      1.380      2.354
REMARK INTER + INTRA:          -5.865
REMARK INTER:                  -5.865
REMARK INTRA:                   0.000
REMARK UNBOUND:                 0.000
REMARK SMILES O=c1ccc2cc(O)c(O)cc2o1
REMARK SMILES IDX 4 1 3 2 2 3 1 4 13 5 12 6 11 7 9 8 7 9 6 10 5 11 8 12 10 14
REMARK H PARENT 8 13 10 15
REMARK Flexibility Score: inf
ROOT
ATOM      1  C   UNL     1      -0.263   7.140   0.456  1.00  0.00     0.019 A 
ATOM      2  C   UNL     1       0.851   7.852   0.902  1.00  0.00     0.094 A 
ATOM      3  C   UNL     1       0.684   9.176   1.320  1.00  0.00     0.336 A 
ATOM      4  O   UNL     1       1.677   9.836   1.726  1.00  0.00    -0.246 OA
ATOM      5  O   UNL     1      -0.518   9.746   1.293  1.00  0.00    -0.423 OA
ATOM      6  C   UNL     1      -1.606   9.102   0.876  1.00  0.00     0.142 A 
ATOM      7  C   UNL     1      -2.843   9.753   0.869  1.00  0.00     0.098 A 
ATOM      8  C   UNL     1      -3.993   9.078   0.430  1.00  0.00     0.161 A 
ATOM      9  C   UNL     1      -3.902   7.748  -0.004  1.00  0.00     0.158 A 
ATOM     10  C   UNL     1      -2.663   7.091  -0.001  1.00  0.00     0.062 A 
ATOM     11  C   UNL     1      -1.514   7.763   0.438  1.00  0.00     0.022 A 
ENDROOT
BRANCH   9  12
ATOM     12  O   UNL     1      -5.049   7.086  -0.439  1.00  0.00    -0.504 OA
ATOM     13  H   UNL     1      -5.089   6.633  -1.345  1.00  0.00     0.293 HD
ENDBRANCH   9  12
BRANCH   8  14
ATOM     14  O   UNL     1      -5.228   9.724   0.422  1.00  0.00    -0.504 OA
ATOM     15  H   UNL     1      -5.889   9.594  -0.334  1.00  0.00     0.293 HD
ENDBRANCH   8  14
TORSDOF 2
ENDMDL
MODEL 3
REMARK VINA RESULT:    -5.535      1.248      5.022
REMARK INTER + INTRA:          -5.858
REMARK INTER:                  -5.858
REMARK INTRA:                   0.000
REMARK UNBOUND:                 0.000
REMARK SMILES O=c1ccc2cc(O)c(O)cc2o1
REMARK SMILES IDX 4 1 3 2 2 3 1 4 13 5 12 6 11 7 9 8 7 9 6 10 5 11 8 12 10 14
REMARK H PARENT 8 13 10 15
REMARK Flexibility Score: inf
ROOT
ATOM      1  C   UNL     1      -3.036   6.933  -0.103  1.00  0.00     0.019 A 
ATOM      2  C   UNL     1      -4.277   7.569  -0.099  1.00  0.00     0.094 A 
ATOM      3  C   UNL     1      -4.355   8.899   0.329  1.00  0.00     0.336 A 
ATOM      4  O   UNL     1      -5.466   9.491   0.338  1.00  0.00    -0.246 OA
ATOM      5  O   UNL     1      -3.262   9.545   0.726  1.00  0.00    -0.423 OA
ATOM      6  C   UNL     1      -2.059   8.975   0.738  1.00  0.00     0.142 A 
ATOM      7  C   UNL     1      -0.945   9.703   1.167  1.00  0.00     0.098 A 
ATOM      8  C   UNL     1       0.325   9.107   1.183  1.00  0.00     0.161 A 
ATOM      9  C   UNL     1       0.480   7.777   0.767  1.00  0.00     0.158 A 
ATOM     10  C   UNL     1      -0.633   7.041   0.336  1.00  0.00     0.062 A 
ATOM     11  C   UNL     1      -1.903   7.635   0.320  1.00  0.00     0.022 A 
ENDROOT
BRANCH   9  12
ATOM     12  O   UNL     1       1.745   7.192   0.785  1.00  0.00    -0.504 OA
ATOM     13  H   UNL     1       2.326   7.156  -0.045  1.00  0.00     0.293 HD
ENDBRANCH   9  12
BRANCH   8  14
ATOM     14  O   UNL     1       1.438   9.831   1.609  1.00  0.00    -0.504 OA
ATOM     15  H   UNL     1       1.443  10.844   1.608  1.00  0.00     0.293 HD
ENDBRANCH   8  14
TORSDOF 2
ENDMDL
MODEL 4
REMARK VINA RESULT:    -5.495      7.529      8.928
REMARK INTER + INTRA:          -5.816
REMARK INTER:                  -5.816
REMARK INTRA:                   0.000
REMARK UNBOUND:                 0.000
REMARK SMILES O=c1ccc2cc(O)c(O)cc2o1
REMARK SMILES IDX 4 1 3 2 2 3 1 4 13 5 12 6 11 7 9 8 7 9 6 10 5 11 8 12 10 14
REMARK H PARENT 8 13 10 15
REMARK Flexibility Score: inf
ROOT
ATOM      1  C   UNL     1       1.944   0.141  -1.651  1.00  0.00     0.019 A 
ATOM      2  C   UNL     1       2.228  -1.185  -1.977  1.00  0.00     0.094 A 
ATOM      3  C   UNL     1       1.836  -2.197  -1.095  1.00  0.00     0.336 A 
ATOM      4  O   UNL     1       2.083  -3.401  -1.371  1.00  0.00    -0.246 OA
ATOM      5  O   UNL     1       1.202  -1.899   0.036  1.00  0.00    -0.423 OA
ATOM      6  C   UNL     1       0.912  -0.647   0.384  1.00  0.00     0.142 A 
ATOM      7  C   UNL     1       0.245  -0.393   1.586  1.00  0.00     0.098 A 
ATOM      8  C   UNL     1      -0.063   0.924   1.959  1.00  0.00     0.161 A 
ATOM      9  C   UNL     1       0.299   1.991   1.124  1.00  0.00     0.158 A 
ATOM     10  C   UNL     1       0.969   1.743  -0.083  1.00  0.00     0.062 A 
ATOM     11  C   UNL     1       1.278   0.427  -0.456  1.00  0.00     0.022 A 
ENDROOT
BRANCH   9  12
ATOM     12  O   UNL     1      -0.010   3.297   1.501  1.00  0.00    -0.504 OA
ATOM     13  H   UNL     1      -0.618   3.492   2.288  1.00  0.00     0.293 HD
ENDBRANCH   9  12
BRANCH   8  14
ATOM     14  O   UNL     1      -0.729   1.180   3.156  1.00  0.00    -0.504 OA
ATOM     15  H   UNL     1      -1.369   1.960   3.250  1.00  0.00     0.293 HD
ENDBRANCH   8  14
TORSDOF 2
ENDMDL
MODEL 5
REMARK VINA RESULT:    -5.408      9.139      9.797
REMARK INTER + INTRA:          -5.724
REMARK INTER:                  -5.724
REMARK INTRA:                   0.000
REMARK UNBOUND:                 0.000
REMARK SMILES O=c1ccc2cc(O)c(O)cc2o1
REMARK SMILES IDX 4 1 3 2 2 3 1 4 13 5 12 6 11 7 9 8 7 9 6 10 5 11 8 12 10 14
REMARK H PARENT 8 13 10 15
REMARK Flexibility Score: inf
ROOT
ATOM      1  C   UNL     1      -0.942  -1.123  -0.202  1.00  0.00     0.019 A 
ATOM      2  C   UNL     1      -0.848  -1.048   1.187  1.00  0.00     0.094 A 
ATOM      3  C   UNL     1       0.320  -0.534   1.760  1.00  0.00     0.336 A 
ATOM      4  O   UNL     1       0.425  -0.457   3.012  1.00  0.00    -0.246 OA
ATOM      5  O   UNL     1       1.326  -0.125   0.990  1.00  0.00    -0.423 OA
ATOM      6  C   UNL     1       1.277  -0.181  -0.340  1.00  0.00     0.142 A 
ATOM      7  C   UNL     1       2.365   0.263  -1.098  1.00  0.00     0.098 A 
ATOM      8  C   UNL     1       2.318   0.207  -2.499  1.00  0.00     0.161 A 
ATOM      9  C   UNL     1       1.179  -0.296  -3.143  1.00  0.00     0.158 A 
ATOM     10  C   UNL     1       0.085  -0.743  -2.388  1.00  0.00     0.062 A 
ATOM     11  C   UNL     1       0.129  -0.687  -0.988  1.00  0.00     0.022 A 
ENDROOT
BRANCH   9  12
ATOM     12  O   UNL     1       1.141  -0.348  -4.535  1.00  0.00    -0.504 OA
ATOM     13  H   UNL     1       1.566  -1.111  -5.050  1.00  0.00     0.293 HD
ENDBRANCH   9  12
BRANCH   8  14
ATOM     14  O   UNL     1       3.401   0.649  -3.257  1.00  0.00    -0.504 OA
ATOM     15  H   UNL     1       3.277   1.018  -4.193  1.00  0.00     0.293 HD
ENDBRANCH   8  14
TORSDOF 2
ENDMDL
MODEL 6
REMARK VINA RESULT:    -5.303      7.481      9.383
REMARK INTER + INTRA:          -5.613
REMARK INTER:                  -5.613
REMARK INTRA:                   0.000
REMARK UNBOUND:                 0.000
REMARK SMILES O=c1ccc2cc(O)c(O)cc2o1
REMARK SMILES IDX 4 1 3 2 2 3 1 4 13 5 12 6 11 7 9 8 7 9 6 10 5 11 8 12 10 14
REMARK H PARENT 8 13 10 15
REMARK Flexibility Score: inf
ROOT
ATOM      1  C   UNL     1       0.755   2.140   0.322  1.00  0.00     0.019 A 
ATOM      2  C   UNL     1       0.079   2.201   1.540  1.00  0.00     0.094 A 
ATOM      3  C   UNL     1      -0.211   1.010   2.214  1.00  0.00     0.336 A 
ATOM      4  O   UNL     1      -0.820   1.043   3.315  1.00  0.00    -0.246 OA
ATOM      5  O   UNL     1       0.153  -0.162   1.699  1.00  0.00    -0.423 OA
ATOM      6  C   UNL     1       0.800  -0.264   0.539  1.00  0.00     0.142 A 
ATOM      7  C   UNL     1       1.157  -1.523   0.048  1.00  0.00     0.098 A 
ATOM      8  C   UNL     1       1.838  -1.636  -1.174  1.00  0.00     0.161 A 
ATOM      9  C   UNL     1       2.163  -0.484  -1.905  1.00  0.00     0.158 A 
ATOM     10  C   UNL     1       1.806   0.781  -1.417  1.00  0.00     0.062 A 
ATOM     11  C   UNL     1       1.126   0.896  -0.196  1.00  0.00     0.022 A 
ENDROOT
BRANCH   9  12
ATOM     12  O   UNL     1       2.839  -0.605  -3.117  1.00  0.00    -0.504 OA
ATOM     13  H   UNL     1       2.903  -1.492  -3.604  1.00  0.00     0.293 HD
ENDBRANCH   9  12
BRANCH   8  14
ATOM     14  O   UNL     1       2.196  -2.890  -1.667  1.00  0.00    -0.504 OA
ATOM     15  H   UNL     1       3.136  -3.083  -1.992  1.00  0.00     0.293 HD
ENDBRANCH   8  14
TORSDOF 2
ENDMDL
MODEL 7
REMARK VINA RESULT:    -5.190      7.455      9.435
REMARK INTER + INTRA:          -5.493
REMARK INTER:                  -5.493
REMARK INTRA:                   0.000
REMARK UNBOUND:                 0.000
REMARK SMILES O=c1ccc2cc(O)c(O)cc2o1
REMARK SMILES IDX 4 1 3 2 2 3 1 4 13 5 12 6 11 7 9 8 7 9 6 10 5 11 8 12 10 14
REMARK H PARENT 8 13 10 15
REMARK Flexibility Score: inf
ROOT
ATOM      1  C   UNL     1       0.137  -0.732   2.006  1.00  0.00     0.019 A 
ATOM      2  C   UNL     1      -0.389   0.367   2.685  1.00  0.00     0.094 A 
ATOM      3  C   UNL     1      -0.371   1.619   2.063  1.00  0.00     0.336 A 
ATOM      4  O   UNL     1      -0.841   2.624   2.659  1.00  0.00    -0.246 OA
ATOM      5  O   UNL     1       0.140   1.758   0.842  1.00  0.00    -0.423 OA
ATOM      6  C   UNL     1       0.651   0.736   0.160  1.00  0.00     0.142 A 
ATOM      7  C   UNL     1       1.175   0.943  -1.120  1.00  0.00     0.098 A 
ATOM      8  C   UNL     1       1.716  -0.132  -1.843  1.00  0.00     0.161 A 
ATOM      9  C   UNL     1       1.731  -1.417  -1.283  1.00  0.00     0.158 A 
ATOM     10  C   UNL     1       1.208  -1.630   0.001  1.00  0.00     0.062 A 
ATOM     11  C   UNL     1       0.668  -0.558   0.725  1.00  0.00     0.022 A 
ENDROOT
BRANCH   9  12
ATOM     12  O   UNL     1       2.270  -2.478  -2.008  1.00  0.00    -0.504 OA
ATOM     13  H   UNL     1       2.765  -2.329  -2.880  1.00  0.00     0.293 HD
ENDBRANCH   9  12
BRANCH   8  14
ATOM     14  O   UNL     1       2.238   0.071  -3.120  1.00  0.00    -0.504 OA
ATOM     15  H   UNL     1       2.505   0.993  -3.443  1.00  0.00     0.293 HD
ENDBRANCH   8  14
TORSDOF 2
ENDMDL
MODEL 8
REMARK VINA RESULT:    -5.019      1.192      4.516
REMARK INTER + INTRA:          -5.313
REMARK INTER:                  -5.313
REMARK INTRA:                   0.000
REMARK UNBOUND:                 0.000
REMARK SMILES O=c1ccc2cc(O)c(O)cc2o1
REMARK SMILES IDX 4 1 3 2 2 3 1 4 13 5 12 6 11 7 9 8 7 9 6 10 5 11 8 12 10 14
REMARK H PARENT 8 13 10 15
REMARK Flexibility Score: inf
ROOT
ATOM      1  C   UNL     1      -2.981  10.125   0.842  1.00  0.00     0.019 A 
ATOM      2  C   UNL     1      -4.196   9.568   0.441  1.00  0.00     0.094 A 
ATOM      3  C   UNL     1      -4.224   8.232   0.028  1.00  0.00     0.336 A 
ATOM      4  O   UNL     1      -5.311   7.711  -0.338  1.00  0.00    -0.246 OA
ATOM      5  O   UNL     1      -3.110   7.505   0.017  1.00  0.00    -0.423 OA
ATOM      6  C   UNL     1      -1.931   7.998   0.392  1.00  0.00     0.142 A 
ATOM      7  C   UNL     1      -0.793   7.186   0.360  1.00  0.00     0.098 A 
ATOM      8  C   UNL     1       0.452   7.700   0.753  1.00  0.00     0.161 A 
ATOM      9  C   UNL     1       0.557   9.032   1.181  1.00  0.00     0.158 A 
ATOM     10  C   UNL     1      -0.581   9.851   1.214  1.00  0.00     0.062 A 
ATOM     11  C   UNL     1      -1.825   9.338   0.821  1.00  0.00     0.022 A 
ENDROOT
BRANCH   9  12
ATOM     12  O   UNL     1       1.797   9.534   1.570  1.00  0.00    -0.504 OA
ATOM     13  H   UNL     1       2.663   9.160   1.198  1.00  0.00     0.293 HD
ENDBRANCH   9  12
BRANCH   8  14
ATOM     14  O   UNL     1       1.588   6.894   0.723  1.00  0.00    -0.504 OA
ATOM     15  H   UNL     1       1.697   6.108   1.354  1.00  0.00     0.293 HD
ENDBRANCH   8  14
TORSDOF 2
ENDMDL
MODEL 9
REMARK VINA RESULT:    -4.993     12.334     13.886
REMARK INTER + INTRA:          -5.284
REMARK INTER:                  -5.284
REMARK INTRA:                   0.000
REMARK UNBOUND:                 0.000
REMARK SMILES O=c1ccc2cc(O)c(O)cc2o1
REMARK SMILES IDX 4 1 3 2 2 3 1 4 13 5 12 6 11 7 9 8 7 9 6 10 5 11 8 12 10 14
REMARK H PARENT 8 13 10 15
REMARK Flexibility Score: inf
ROOT
ATOM      1  C   UNL     1      -3.553   1.486  -9.098  1.00  0.00     0.019 A 
ATOM      2  C   UNL     1      -4.945   1.559  -9.148  1.00  0.00     0.094 A 
ATOM      3  C   UNL     1      -5.682   0.374  -9.245  1.00  0.00     0.336 A 
ATOM      4  O   UNL     1      -6.940   0.418  -9.291  1.00  0.00    -0.246 OA
ATOM      5  O   UNL     1      -5.063  -0.803  -9.290  1.00  0.00    -0.423 OA
ATOM      6  C   UNL     1      -3.737  -0.916  -9.244  1.00  0.00     0.142 A 
ATOM      7  C   UNL     1      -3.142  -2.181  -9.295  1.00  0.00     0.098 A 
ATOM      8  C   UNL     1      -1.745  -2.306  -9.248  1.00  0.00     0.161 A 
ATOM      9  C   UNL     1      -0.942  -1.161  -9.150  1.00  0.00     0.158 A 
ATOM     10  C   UNL     1      -1.533   0.110  -9.099  1.00  0.00     0.062 A 
ATOM     11  C   UNL     1      -2.929   0.236  -9.146  1.00  0.00     0.022 A 
ENDROOT
BRANCH   9  12
ATOM     12  O   UNL     1       0.444  -1.294  -9.104  1.00  0.00    -0.504 OA
ATOM     13  H   UNL     1       0.897  -1.915  -8.443  1.00  0.00     0.293 HD
ENDBRANCH   9  12
BRANCH   8  14
ATOM     14  O   UNL     1      -1.149  -3.565  -9.298  1.00  0.00    -0.504 OA
ATOM     15  H   UNL     1      -1.537  -4.313  -9.862  1.00  0.00     0.293 HD
ENDBRANCH   8  14
TORSDOF 2
ENDMDL
