MODEL 1
REMARK VINA RESULT:    -0.395      0.000      0.000
REMARK INTER + INTRA:          -0.760
REMARK INTER:                  -0.465
REMARK INTRA:                  -0.295
REMARK UNBOUND:                -0.295
REMARK SMILES O=c1cc(-c2ccc(O)c(O)c2)oc2cc(O)cc(O)c12
REMARK SMILES IDX 4 1 3 2 2 3 1 4 21 5 19 6 18 7 16 8 15 9 14 10 13 11 5 12
REMARK SMILES IDX 6 13 7 14 8 15 12 16 10 17 9 18 11 20 20 22 17 24
REMARK H PARENT 9 19 11 21 20 23 17 25
REMARK Flexibility Score: inf
ROOT
ATOM      1  C   UNL     1      31.634  37.652  43.999  1.00  0.00     0.138 A 
ATOM      2  C   UNL     1      32.989  38.002  43.930  1.00  0.00     0.100 A 
ATOM      3  C   UNL     1      33.356  39.350  43.923  1.00  0.00     0.197 A 
ATOM      4  O   UNL     1      34.576  39.631  43.804  1.00  0.00    -0.289 OA
ATOM      5  C   UNL     1      32.359  40.350  44.022  1.00  0.00     0.107 A 
ATOM      6  C   UNL     1      32.617  41.754  44.060  1.00  0.00     0.134 A 
ATOM      7  C   UNL     1      31.541  42.653  44.060  1.00  0.00     0.093 A 
ATOM      8  C   UNL     1      30.221  42.197  44.083  1.00  0.00     0.123 A 
ATOM      9  C   UNL     1      29.961  40.830  44.097  1.00  0.00     0.094 A 
ATOM     10  C   UNL     1      31.009  39.908  44.063  1.00  0.00     0.146 A 
ATOM     11  O   UNL     1      30.716  38.612  44.059  1.00  0.00    -0.456 OA
ENDROOT
BRANCH   1  12
ATOM     12  C   UNL     1      31.188  36.237  44.013  1.00  0.00     0.021 A 
ATOM     13  C   UNL     1      29.828  35.889  44.099  1.00  0.00     0.016 A 
ATOM     14  C   UNL     1      29.440  34.548  44.121  1.00  0.00     0.051 A 
ATOM     15  C   UNL     1      30.394  33.526  44.065  1.00  0.00     0.157 A 
ATOM     16  C   UNL     1      32.147  35.209  43.972  1.00  0.00     0.062 A 
ATOM     17  C   UNL     1      31.766  33.861  43.992  1.00  0.00     0.158 A 
BRANCH  15  18
ATOM     18  O   UNL     1      29.938  32.207  44.088  1.00  0.00    -0.504 OA
ATOM     19  H   UNL     1      30.258  31.489  43.455  1.00  0.00     0.293 HD
ENDBRANCH  15  18
BRANCH  17  20
ATOM     20  O   UNL     1      32.775  32.898  43.939  1.00  0.00    -0.504 OA
ATOM     21  H   UNL     1      32.742  32.018  44.433  1.00  0.00     0.293 HD
ENDBRANCH  17  20
ENDBRANCH   1  12
BRANCH   6  22
ATOM     22  O   UNL     1      33.896  42.315  44.120  1.00  0.00    -0.507 OA
ATOM     23  H   UNL     1      34.104  43.297  44.024  1.00  0.00     0.293 HD
ENDBRANCH   6  22
BRANCH   8  24
ATOM     24  O   UNL     1      29.159  43.099  44.098  1.00  0.00    -0.508 OA
ATOM     25  H   UNL     1      29.156  43.924  43.511  1.00  0.00     0.293 HD
ENDBRANCH   8  24
TORSDOF 5
ENDMDL
MODEL 2
REMARK VINA RESULT:    -0.393      3.199      4.119
REMARK INTER + INTRA:          -0.757
REMARK INTER:                  -0.439
REMARK INTRA:                  -0.318
REMARK UNBOUND:                -0.295
REMARK SMILES O=c1cc(-c2ccc(O)c(O)c2)oc2cc(O)cc(O)c12
REMARK SMILES IDX 4 1 3 2 2 3 1 4 21 5 19 6 18 7 16 8 15 9 14 10 13 11 5 12
REMARK SMILES IDX 6 13 7 14 8 15 12 16 10 17 9 18 11 20 20 22 17 24
REMARK H PARENT 9 19 11 21 20 23 17 25
REMARK Flexibility Score: inf
ROOT
ATOM      1  C   UNL     1      32.096  38.730  41.674  1.00  0.00     0.138 A 
ATOM      2  C   UNL     1      30.824  39.187  42.045  1.00  0.00     0.100 A 
ATOM      3  C   UNL     1      30.700  40.382  42.757  1.00  0.00     0.197 A 
ATOM      4  O   UNL     1      29.550  40.737  43.124  1.00  0.00    -0.289 OA
ATOM      5  C   UNL     1      31.855  41.140  43.066  1.00  0.00     0.107 A 
ATOM      6  C   UNL     1      31.847  42.390  43.756  1.00  0.00     0.134 A 
ATOM      7  C   UNL     1      33.064  43.000  44.092  1.00  0.00     0.093 A 
ATOM      8  C   UNL     1      34.283  42.434  43.711  1.00  0.00     0.123 A 
ATOM      9  C   UNL     1      34.298  41.241  42.994  1.00  0.00     0.094 A 
ATOM     10  C   UNL     1      33.105  40.590  42.674  1.00  0.00     0.146 A 
ATOM     11  O   UNL     1      33.166  39.445  42.004  1.00  0.00    -0.456 OA
ENDROOT
BRANCH   1  12
ATOM     12  C   UNL     1      32.285  37.469  40.914  1.00  0.00     0.021 A 
ATOM     13  C   UNL     1      31.200  36.644  40.567  1.00  0.00     0.016 A 
ATOM     14  C   UNL     1      31.411  35.458  39.860  1.00  0.00     0.051 A 
ATOM     15  C   UNL     1      32.702  35.064  39.493  1.00  0.00     0.157 A 
ATOM     16  C   UNL     1      33.583  37.065  40.557  1.00  0.00     0.062 A 
ATOM     17  C   UNL     1      33.803  35.877  39.847  1.00  0.00     0.158 A 
BRANCH  15  18
ATOM     18  O   UNL     1      32.842  33.869  38.785  1.00  0.00    -0.504 OA
ATOM     19  H   UNL     1      32.273  33.613  37.991  1.00  0.00     0.293 HD
ENDBRANCH  15  18
BRANCH  17  20
ATOM     20  O   UNL     1      35.120  35.548  39.520  1.00  0.00    -0.504 OA
ATOM     21  H   UNL     1      35.406  35.194  38.619  1.00  0.00     0.293 HD
ENDBRANCH  17  20
ENDBRANCH   1  12
BRANCH   6  22
ATOM     22  O   UNL     1      30.686  43.081  44.113  1.00  0.00    -0.507 OA
ATOM     23  H   UNL     1      30.121  43.630  43.484  1.00  0.00     0.293 HD
ENDBRANCH   6  22
BRANCH   8  24
ATOM     24  O   UNL     1      35.486  43.056  44.037  1.00  0.00    -0.508 OA
ATOM     25  H   UNL     1      35.511  43.981  44.449  1.00  0.00     0.293 HD
ENDBRANCH   8  24
TORSDOF 5
ENDMDL
MODEL 3
REMARK VINA RESULT:    -0.390      3.215      4.003
REMARK INTER + INTRA:          -0.754
REMARK INTER:                  -0.436
REMARK INTRA:                  -0.317
REMARK UNBOUND:                -0.295
REMARK SMILES O=c1cc(-c2ccc(O)c(O)c2)oc2cc(O)cc(O)c12
REMARK SMILES IDX 4 1 3 2 2 3 1 4 21 5 19 6 18 7 16 8 15 9 14 10 13 11 5 12
REMARK SMILES IDX 6 13 7 14 8 15 12 16 10 17 9 18 11 20 20 22 17 24
REMARK H PARENT 9 19 11 21 20 23 17 25
REMARK Flexibility Score: inf
ROOT
ATOM      1  C   UNL     1      31.562  38.727  41.616  1.00  0.00     0.138 A 
ATOM      2  C   UNL     1      30.287  39.197  41.960  1.00  0.00     0.100 A 
ATOM      3  C   UNL     1      30.159  40.398  42.661  1.00  0.00     0.197 A 
ATOM      4  O   UNL     1      29.005  40.763  43.003  1.00  0.00    -0.289 OA
ATOM      5  C   UNL     1      31.313  41.149  42.986  1.00  0.00     0.107 A 
ATOM      6  C   UNL     1      31.303  42.404  43.667  1.00  0.00     0.134 A 
ATOM      7  C   UNL     1      32.517  43.007  44.022  1.00  0.00     0.093 A 
ATOM      8  C   UNL     1      33.739  42.429  43.668  1.00  0.00     0.123 A 
ATOM      9  C   UNL     1      33.759  41.231  42.960  1.00  0.00     0.094 A 
ATOM     10  C   UNL     1      32.567  40.587  42.621  1.00  0.00     0.146 A 
ATOM     11  O   UNL     1      32.632  39.436  41.961  1.00  0.00    -0.456 OA
ENDROOT
BRANCH   1  12
ATOM     12  C   UNL     1      31.756  37.460  40.868  1.00  0.00     0.021 A 
ATOM     13  C   UNL     1      30.672  36.745  40.327  1.00  0.00     0.016 A 
ATOM     14  C   UNL     1      30.885  35.550  39.638  1.00  0.00     0.051 A 
ATOM     15  C   UNL     1      32.176  35.036  39.479  1.00  0.00     0.157 A 
ATOM     16  C   UNL     1      33.052  36.935  40.721  1.00  0.00     0.062 A 
ATOM     17  C   UNL     1      33.274  35.737  40.029  1.00  0.00     0.158 A 
BRANCH  15  18
ATOM     18  O   UNL     1      32.319  33.839  38.777  1.00  0.00    -0.504 OA
ATOM     19  H   UNL     1      31.544  33.279  38.451  1.00  0.00     0.293 HD
ENDBRANCH  15  18
BRANCH  17  20
ATOM     20  O   UNL     1      34.590  35.285  39.916  1.00  0.00    -0.504 OA
ATOM     21  H   UNL     1      35.330  35.807  39.470  1.00  0.00     0.293 HD
ENDBRANCH  17  20
ENDBRANCH   1  12
BRANCH   6  22
ATOM     22  O   UNL     1      30.140  43.106  43.997  1.00  0.00    -0.507 OA
ATOM     23  H   UNL     1      29.277  42.687  44.307  1.00  0.00     0.293 HD
ENDBRANCH   6  22
BRANCH   8  24
ATOM     24  O   UNL     1      34.941  43.044  44.012  1.00  0.00    -0.508 OA
ATOM     25  H   UNL     1      35.603  43.346  43.307  1.00  0.00     0.293 HD
ENDBRANCH   8  24
TORSDOF 5
ENDMDL
MODEL 4
REMARK VINA RESULT:    -0.359      2.690      2.955
REMARK INTER + INTRA:          -0.717
REMARK INTER:                  -0.422
REMARK INTRA:                  -0.295
REMARK UNBOUND:                -0.295
REMARK SMILES O=c1cc(-c2ccc(O)c(O)c2)oc2cc(O)cc(O)c12
REMARK SMILES IDX 4 1 3 2 2 3 1 4 21 5 19 6 18 7 16 8 15 9 14 10 13 11 5 12
REMARK SMILES IDX 6 13 7 14 8 15 12 16 10 17 9 18 11 20 20 22 17 24
REMARK H PARENT 9 19 11 21 20 23 17 25
REMARK Flexibility Score: inf
ROOT
ATOM      1  C   UNL     1      29.862  38.297  42.134  1.00  0.00     0.138 A 
ATOM      2  C   UNL     1      31.142  38.852  42.275  1.00  0.00     0.100 A 
ATOM      3  C   UNL     1      31.283  40.141  42.792  1.00  0.00     0.197 A 
ATOM      4  O   UNL     1      32.439  40.631  42.854  1.00  0.00    -0.289 OA
ATOM      5  C   UNL     1      30.137  40.863  43.204  1.00  0.00     0.107 A 
ATOM      6  C   UNL     1      30.162  42.171  43.776  1.00  0.00     0.134 A 
ATOM      7  C   UNL     1      28.954  42.826  44.053  1.00  0.00     0.093 A 
ATOM      8  C   UNL     1      27.726  42.197  43.832  1.00  0.00     0.123 A 
ATOM      9  C   UNL     1      27.693  40.903  43.320  1.00  0.00     0.094 A 
ATOM     10  C   UNL     1      28.878  40.236  43.002  1.00  0.00     0.146 A 
ATOM     11  O   UNL     1      28.801  39.009  42.499  1.00  0.00    -0.456 OA
ENDROOT
BRANCH   1  12
ATOM     12  C   UNL     1      29.655  36.930  41.594  1.00  0.00     0.021 A 
ATOM     13  C   UNL     1      28.371  36.364  41.486  1.00  0.00     0.016 A 
ATOM     14  C   UNL     1      28.208  35.072  40.983  1.00  0.00     0.051 A 
ATOM     15  C   UNL     1      29.315  34.313  40.587  1.00  0.00     0.157 A 
ATOM     16  C   UNL     1      30.767  36.162  41.209  1.00  0.00     0.062 A 
ATOM     17  C   UNL     1      30.612  34.865  40.703  1.00  0.00     0.158 A 
BRANCH  15  18
ATOM     18  O   UNL     1      29.081  33.030  40.090  1.00  0.00    -0.504 OA
ATOM     19  H   UNL     1      29.576  32.206  40.400  1.00  0.00     0.293 HD
ENDBRANCH  15  18
BRANCH  17  20
ATOM     20  O   UNL     1      31.763  34.168  40.333  1.00  0.00    -0.504 OA
ATOM     21  H   UNL     1      31.824  33.568  39.523  1.00  0.00     0.293 HD
ENDBRANCH  17  20
ENDBRANCH   1  12
BRANCH   6  22
ATOM     22  O   UNL     1      31.332  42.858  44.112  1.00  0.00    -0.507 OA
ATOM     23  H   UNL     1      31.568  43.185  45.035  1.00  0.00     0.293 HD
ENDBRANCH   6  22
BRANCH   8  24
ATOM     24  O   UNL     1      26.531  42.851  44.125  1.00  0.00    -0.508 OA
ATOM     25  H   UNL     1      25.903  42.511  44.844  1.00  0.00     0.293 HD
ENDBRANCH   8  24
TORSDOF 5
ENDMDL
MODEL 5
REMARK VINA RESULT:    -0.350     11.231     13.955
REMARK INTER + INTRA:          -0.706
REMARK INTER:                  -0.388
REMARK INTRA:                  -0.318
REMARK UNBOUND:                -0.295
REMARK SMILES O=c1cc(-c2ccc(O)c(O)c2)oc2cc(O)cc(O)c12
REMARK SMILES IDX 4 1 3 2 2 3 1 4 21 5 19 6 18 7 16 8 15 9 14 10 13 11 5 12
REMARK SMILES IDX 6 13 7 14 8 15 12 16 10 17 9 18 11 20 20 22 17 24
REMARK H PARENT 9 19 11 21 20 23 17 25
REMARK Flexibility Score: inf
ROOT
ATOM      1  C   UNL     1      30.811  26.531  40.721  1.00  0.00     0.138 A 
ATOM      2  C   UNL     1      32.090  26.175  41.172  1.00  0.00     0.100 A 
ATOM      3  C   UNL     1      32.227  25.185  42.148  1.00  0.00     0.197 A 
ATOM      4  O   UNL     1      33.383  24.928  42.572  1.00  0.00    -0.289 OA
ATOM      5  C   UNL     1      31.079  24.524  42.646  1.00  0.00     0.107 A 
ATOM      6  C   UNL     1      31.100  23.476  43.616  1.00  0.00     0.134 A 
ATOM      7  C   UNL     1      29.891  22.965  44.106  1.00  0.00     0.093 A 
ATOM      8  C   UNL     1      28.664  23.424  43.619  1.00  0.00     0.123 A 
ATOM      9  C   UNL     1      28.635  24.410  42.637  1.00  0.00     0.094 A 
ATOM     10  C   UNL     1      29.821  24.964  42.152  1.00  0.00     0.146 A 
ATOM     11  O   UNL     1      29.747  25.916  41.228  1.00  0.00    -0.456 OA
ENDROOT
BRANCH   1  12
ATOM     12  C   UNL     1      30.607  27.573  39.684  1.00  0.00     0.021 A 
ATOM     13  C   UNL     1      31.687  28.260  39.102  1.00  0.00     0.016 A 
ATOM     14  C   UNL     1      31.463  29.243  38.136  1.00  0.00     0.051 A 
ATOM     15  C   UNL     1      30.163  29.569  37.735  1.00  0.00     0.157 A 
ATOM     16  C   UNL     1      29.300  27.911  39.291  1.00  0.00     0.062 A 
ATOM     17  C   UNL     1      29.067  28.895  38.321  1.00  0.00     0.158 A 
BRANCH  15  18
ATOM     18  O   UNL     1      30.009  30.558  36.763  1.00  0.00    -0.504 OA
ATOM     19  H   UNL     1      30.383  30.493  35.827  1.00  0.00     0.293 HD
ENDBRANCH  15  18
BRANCH  17  20
ATOM     20  O   UNL     1      27.742  29.168  37.976  1.00  0.00    -0.504 OA
ATOM     21  H   UNL     1      26.943  28.765  38.443  1.00  0.00     0.293 HD
ENDBRANCH  17  20
ENDBRANCH   1  12
BRANCH   6  22
ATOM     22  O   UNL     1      32.269  22.890  44.111  1.00  0.00    -0.507 OA
ATOM     23  H   UNL     1      32.900  22.314  43.576  1.00  0.00     0.293 HD
ENDBRANCH   6  22
BRANCH   8  24
ATOM     24  O   UNL     1      27.468  22.898  44.101  1.00  0.00    -0.508 OA
ATOM     25  H   UNL     1      27.206  22.985  45.076  1.00  0.00     0.293 HD
ENDBRANCH   8  24
TORSDOF 5
ENDMDL
MODEL 6
REMARK VINA RESULT:    -0.324      2.629      3.735
REMARK INTER + INTRA:          -0.676
REMARK INTER:                  -0.364
REMARK INTRA:                  -0.312
REMARK UNBOUND:                -0.295
REMARK SMILES O=c1cc(-c2ccc(O)c(O)c2)oc2cc(O)cc(O)c12
REMARK SMILES IDX 4 1 3 2 2 3 1 4 21 5 19 6 18 7 16 8 15 9 14 10 13 11 5 12
REMARK SMILES IDX 6 13 7 14 8 15 12 16 10 17 9 18 11 20 20 22 17 24
REMARK H PARENT 9 19 11 21 20 23 17 25
REMARK Flexibility Score: inf
ROOT
ATOM      1  C   UNL     1      34.376  38.309  42.892  1.00  0.00     0.138 A 
ATOM      2  C   UNL     1      35.113  39.500  42.948  1.00  0.00     0.100 A 
ATOM      3  C   UNL     1      34.465  40.699  43.254  1.00  0.00     0.197 A 
ATOM      4  O   UNL     1      35.143  41.758  43.242  1.00  0.00    -0.289 OA
ATOM      5  C   UNL     1      33.079  40.697  43.541  1.00  0.00     0.107 A 
ATOM      6  C   UNL     1      32.321  41.853  43.898  1.00  0.00     0.134 A 
ATOM      7  C   UNL     1      30.933  41.743  44.063  1.00  0.00     0.093 A 
ATOM      8  C   UNL     1      30.287  40.511  43.939  1.00  0.00     0.123 A 
ATOM      9  C   UNL     1      31.026  39.370  43.640  1.00  0.00     0.094 A 
ATOM     10  C   UNL     1      32.405  39.450  43.436  1.00  0.00     0.146 A 
ATOM     11  O   UNL     1      33.069  38.340  43.134  1.00  0.00    -0.456 OA
ENDROOT
BRANCH   1  12
ATOM     12  C   UNL     1      35.012  37.006  42.575  1.00  0.00     0.021 A 
ATOM     13  C   UNL     1      36.225  36.928  41.867  1.00  0.00     0.016 A 
ATOM     14  C   UNL     1      36.795  35.687  41.575  1.00  0.00     0.051 A 
ATOM     15  C   UNL     1      36.169  34.501  41.972  1.00  0.00     0.157 A 
ATOM     16  C   UNL     1      34.377  35.814  42.961  1.00  0.00     0.062 A 
ATOM     17  C   UNL     1      34.943  34.564  42.673  1.00  0.00     0.158 A 
BRANCH  15  18
ATOM     18  O   UNL     1      36.794  33.295  41.650  1.00  0.00    -0.504 OA
ATOM     19  H   UNL     1      37.597  33.220  41.043  1.00  0.00     0.293 HD
ENDBRANCH  15  18
BRANCH  17  20
ATOM     20  O   UNL     1      34.257  33.425  43.097  1.00  0.00    -0.504 OA
ATOM     21  H   UNL     1      33.562  33.425  43.829  1.00  0.00     0.293 HD
ENDBRANCH  17  20
ENDBRANCH   1  12
BRANCH   6  22
ATOM     22  O   UNL     1      32.876  43.116  44.125  1.00  0.00    -0.507 OA
ATOM     23  H   UNL     1      32.539  43.977  43.726  1.00  0.00     0.293 HD
ENDBRANCH   6  22
BRANCH   8  24
ATOM     24  O   UNL     1      28.910  40.410  44.120  1.00  0.00    -0.508 OA
ATOM     25  H   UNL     1      28.512  39.848  44.863  1.00  0.00     0.293 HD
ENDBRANCH   8  24
TORSDOF 5
ENDMDL
MODEL 7
REMARK VINA RESULT:    -0.306     11.215     13.246
REMARK INTER + INTRA:          -0.654
REMARK INTER:                  -0.336
REMARK INTRA:                  -0.318
REMARK UNBOUND:                -0.295
REMARK SMILES O=c1cc(-c2ccc(O)c(O)c2)oc2cc(O)cc(O)c12
REMARK SMILES IDX 4 1 3 2 2 3 1 4 21 5 19 6 18 7 16 8 15 9 14 10 13 11 5 12
REMARK SMILES IDX 6 13 7 14 8 15 12 16 10 17 9 18 11 20 20 22 17 24
REMARK H PARENT 9 19 11 21 20 23 17 25
REMARK Flexibility Score: inf
ROOT
ATOM      1  C   UNL     1      32.256  25.308  43.817  1.00  0.00     0.138 A 
ATOM      2  C   UNL     1      32.986  24.126  43.999  1.00  0.00     0.100 A 
ATOM      3  C   UNL     1      34.380  24.156  43.924  1.00  0.00     0.197 A 
ATOM      4  O   UNL     1      35.004  23.070  44.036  1.00  0.00    -0.289 OA
ATOM      5  C   UNL     1      35.046  25.386  43.702  1.00  0.00     0.107 A 
ATOM      6  C   UNL     1      36.464  25.544  43.641  1.00  0.00     0.134 A 
ATOM      7  C   UNL     1      37.005  26.796  43.317  1.00  0.00     0.093 A 
ATOM      8  C   UNL     1      36.182  27.905  43.110  1.00  0.00     0.123 A 
ATOM      9  C   UNL     1      34.800  27.771  43.216  1.00  0.00     0.094 A 
ATOM     10  C   UNL     1      34.228  26.531  43.504  1.00  0.00     0.146 A 
ATOM     11  O   UNL     1      32.904  26.444  43.578  1.00  0.00    -0.456 OA
ENDROOT
BRANCH   1  12
ATOM     12  C   UNL     1      30.774  25.334  43.889  1.00  0.00     0.021 A 
ATOM     13  C   UNL     1      30.021  24.160  44.071  1.00  0.00     0.016 A 
ATOM     14  C   UNL     1      28.627  24.214  44.125  1.00  0.00     0.051 A 
ATOM     15  C   UNL     1      27.952  25.432  43.990  1.00  0.00     0.157 A 
ATOM     16  C   UNL     1      30.095  26.555  43.739  1.00  0.00     0.062 A 
ATOM     17  C   UNL     1      28.696  26.619  43.793  1.00  0.00     0.158 A 
BRANCH  15  18
ATOM     18  O   UNL     1      26.558  25.416  44.057  1.00  0.00    -0.504 OA
ATOM     19  H   UNL     1      26.034  25.433  44.919  1.00  0.00     0.293 HD
ENDBRANCH  15  18
BRANCH  17  20
ATOM     20  O   UNL     1      28.095  27.870  43.646  1.00  0.00    -0.504 OA
ATOM     21  H   UNL     1      27.306  28.049  43.042  1.00  0.00     0.293 HD
ENDBRANCH  17  20
ENDBRANCH   1  12
BRANCH   6  22
ATOM     22  O   UNL     1      37.379  24.522  43.910  1.00  0.00    -0.507 OA
ATOM     23  H   UNL     1      37.350  23.598  43.508  1.00  0.00     0.293 HD
ENDBRANCH   6  22
BRANCH   8  24
ATOM     24  O   UNL     1      36.730  29.148  42.803  1.00  0.00    -0.508 OA
ATOM     25  H   UNL     1      36.204  29.850  42.295  1.00  0.00     0.293 HD
ENDBRANCH   8  24
TORSDOF 5
ENDMDL
MODEL 8
REMARK VINA RESULT:    -0.300      4.968      6.271
REMARK INTER + INTRA:          -0.647
REMARK INTER:                  -0.332
REMARK INTRA:                  -0.315
REMARK UNBOUND:                -0.295
REMARK SMILES O=c1cc(-c2ccc(O)c(O)c2)oc2cc(O)cc(O)c12
REMARK SMILES IDX 4 1 3 2 2 3 1 4 21 5 19 6 18 7 16 8 15 9 14 10 13 11 5 12
REMARK SMILES IDX 6 13 7 14 8 15 12 16 10 17 9 18 11 20 20 22 17 24
REMARK H PARENT 9 19 11 21 20 23 17 25
REMARK Flexibility Score: inf
ROOT
ATOM      1  C   UNL     1      27.211  39.242  40.528  1.00  0.00     0.138 A 
ATOM      2  C   UNL     1      26.019  39.680  41.123  1.00  0.00     0.100 A 
ATOM      3  C   UNL     1      26.057  40.690  42.086  1.00  0.00     0.197 A 
ATOM      4  O   UNL     1      24.978  41.021  42.640  1.00  0.00    -0.289 OA
ATOM      5  C   UNL     1      27.293  41.291  42.427  1.00  0.00     0.107 A 
ATOM      6  C   UNL     1      27.450  42.352  43.368  1.00  0.00     0.134 A 
ATOM      7  C   UNL     1      28.737  42.799  43.697  1.00  0.00     0.093 A 
ATOM      8  C   UNL     1      29.867  42.261  43.076  1.00  0.00     0.123 A 
ATOM      9  C   UNL     1      29.720  41.260  42.120  1.00  0.00     0.094 A 
ATOM     10  C   UNL     1      28.454  40.769  41.794  1.00  0.00     0.146 A 
ATOM     11  O   UNL     1      28.361  39.801  40.890  1.00  0.00    -0.456 OA
ENDROOT
BRANCH   1  12
ATOM     12  C   UNL     1      27.228  38.175  39.498  1.00  0.00     0.021 A 
ATOM     13  C   UNL     1      26.052  37.749  38.853  1.00  0.00     0.016 A 
ATOM     14  C   UNL     1      26.098  36.734  37.895  1.00  0.00     0.051 A 
ATOM     15  C   UNL     1      27.309  36.117  37.564  1.00  0.00     0.157 A 
ATOM     16  C   UNL     1      28.442  37.544  39.175  1.00  0.00     0.062 A 
ATOM     17  C   UNL     1      28.497  36.526  38.214  1.00  0.00     0.158 A 
BRANCH  15  18
ATOM     18  O   UNL     1      27.285  35.113  36.595  1.00  0.00    -0.504 OA
ATOM     19  H   UNL     1      28.021  34.433  36.469  1.00  0.00     0.293 HD
ENDBRANCH  15  18
BRANCH  17  20
ATOM     20  O   UNL     1      29.741  35.955  37.941  1.00  0.00    -0.504 OA
ATOM     21  H   UNL     1      29.882  34.972  37.756  1.00  0.00     0.293 HD
ENDBRANCH  17  20
ENDBRANCH   1  12
BRANCH   6  22
ATOM     22  O   UNL     1      26.385  43.014  43.988  1.00  0.00    -0.507 OA
ATOM     23  H   UNL     1      25.410  42.796  43.854  1.00  0.00     0.293 HD
ENDBRANCH   6  22
BRANCH   8  24
ATOM     24  O   UNL     1      31.141  42.723  43.398  1.00  0.00    -0.508 OA
ATOM     25  H   UNL     1      31.431  43.670  43.188  1.00  0.00     0.293 HD
ENDBRANCH   8  24
TORSDOF 5
ENDMDL
MODEL 9
REMARK VINA RESULT:    -0.020      7.771      8.490
REMARK INTER + INTRA:          -0.318
REMARK INTER:                   0.000
REMARK INTRA:                  -0.318
REMARK UNBOUND:                -0.295
REMARK SMILES O=c1cc(-c2ccc(O)c(O)c2)oc2cc(O)cc(O)c12
REMARK SMILES IDX 4 1 3 2 2 3 1 4 21 5 19 6 18 7 16 8 15 9 14 10 13 11 5 12
REMARK SMILES IDX 6 13 7 14 8 15 12 16 10 17 9 18 11 20 20 22 17 24
REMARK H PARENT 9 19 11 21 20 23 17 25
REMARK Flexibility Score: inf
ROOT
ATOM      1  C   UNL     1      32.950  33.725  38.144  1.00  0.00     0.138 A 
ATOM      2  C   UNL     1      33.802  34.786  37.808  1.00  0.00     0.100 A 
ATOM      3  C   UNL     1      33.435  35.672  36.794  1.00  0.00     0.197 A 
ATOM      4  O   UNL     1      34.246  36.580  36.478  1.00  0.00    -0.289 OA
ATOM      5  C   UNL     1      32.190  35.515  36.139  1.00  0.00     0.107 A 
ATOM      6  C   UNL     1      31.695  36.378  35.114  1.00  0.00     0.134 A 
ATOM      7  C   UNL     1      30.491  36.064  34.470  1.00  0.00     0.093 A 
ATOM      8  C   UNL     1      29.737  34.952  34.854  1.00  0.00     0.123 A 
ATOM      9  C   UNL     1      30.187  34.133  35.885  1.00  0.00     0.094 A 
ATOM     10  C   UNL     1      31.400  34.399  36.524  1.00  0.00     0.146 A 
ATOM     11  O   UNL     1      31.801  33.581  37.492  1.00  0.00    -0.456 OA
ENDROOT
BRANCH   1  12
ATOM     12  C   UNL     1      33.289  32.755  39.216  1.00  0.00     0.021 A 
ATOM     13  C   UNL     1      34.494  32.839  39.936  1.00  0.00     0.016 A 
ATOM     14  C   UNL     1      34.790  31.906  40.932  1.00  0.00     0.051 A 
ATOM     15  C   UNL     1      33.900  30.868  41.227  1.00  0.00     0.157 A 
ATOM     16  C   UNL     1      32.402  31.703  39.502  1.00  0.00     0.062 A 
ATOM     17  C   UNL     1      32.690  30.763  40.501  1.00  0.00     0.158 A 
BRANCH  15  18
ATOM     18  O   UNL     1      34.255  29.971  42.236  1.00  0.00    -0.504 OA
ATOM     19  H   UNL     1      33.598  29.564  42.885  1.00  0.00     0.293 HD
ENDBRANCH  15  18
BRANCH  17  20
ATOM     20  O   UNL     1      31.755  29.753  40.734  1.00  0.00    -0.504 OA
ATOM     21  H   UNL     1      31.727  28.882  40.225  1.00  0.00     0.293 HD
ENDBRANCH  17  20
ENDBRANCH   1  12
BRANCH   6  22
ATOM     22  O   UNL     1      32.327  37.557  34.709  1.00  0.00    -0.507 OA
ATOM     23  H   UNL     1      32.507  37.820  33.753  1.00  0.00     0.293 HD
ENDBRANCH   6  22
BRANCH   8  24
ATOM     24  O   UNL     1      28.533  34.657  34.217  1.00  0.00    -0.508 OA
ATOM     25  H   UNL     1      27.656  34.640  34.724  1.00  0.00     0.293 HD
ENDBRANCH   8  24
TORSDOF 5
ENDMDL
