MODEL 1
REMARK VINA RESULT:    -3.750      0.000      0.000
REMARK INTER + INTRA:          -4.436
REMARK INTER:                  -4.298
REMARK INTRA:                  -0.138
REMARK UNBOUND:                -0.138
REMARK SMILES O=C([O-])C=Cc1ccc(O)cc1
REMARK SMILES IDX 6 1 7 2 12 3 8 4 11 5 9 6 5 7 4 8 2 9 1 10 3 11 10 12
REMARK H PARENT 10 13
REMARK Flexibility Score: inf
ROOT
ATOM      1  C   UNL     1      11.892  13.938  22.492  1.00  0.00    -0.025 A 
ATOM      2  C   UNL     1      11.338  14.077  23.781  1.00  0.00     0.012 A 
ATOM      3  C   UNL     1      11.232  13.124  21.555  1.00  0.00     0.012 A 
ATOM      4  C   UNL     1      10.167  13.395  24.124  1.00  0.00     0.047 A 
ATOM      5  C   UNL     1      10.062  12.443  21.904  1.00  0.00     0.047 A 
ATOM      6  C   UNL     1       9.527  12.574  23.188  1.00  0.00     0.115 A 
ENDROOT
BRANCH   1   7
ATOM      7  C   UNL     1      13.126  14.648  22.070  1.00  0.00     0.010 C 
ATOM      8  C   UNL     1      13.132  15.700  21.240  1.00  0.00     0.025 C 
BRANCH   8   9
ATOM      9  C   UNL     1      14.379  16.381  20.857  1.00  0.00     0.064 C 
ATOM     10  O   UNL     1      15.125  16.859  21.750  1.00  0.00    -0.545 OA
ATOM     11  O   UNL     1      14.747  16.506  19.522  1.00  0.00    -0.545 OA
ENDBRANCH   8   9
ENDBRANCH   1   7
BRANCH   6  12
ATOM     12  O   UNL     1       8.361  11.889  23.521  1.00  0.00    -0.508 OA
ATOM     13  H   UNL     1       8.252  11.436  24.421  1.00  0.00     0.293 HD
ENDBRANCH   6  12
TORSDOF 3
ENDMDL
MODEL 2
REMARK VINA RESULT:    -3.482      2.491      5.186
REMARK INTER + INTRA:          -4.128
REMARK INTER:                  -3.976
REMARK INTRA:                  -0.152
REMARK UNBOUND:                -0.138
REMARK SMILES O=C([O-])C=Cc1ccc(O)cc1
REMARK SMILES IDX 6 1 7 2 12 3 8 4 11 5 9 6 5 7 4 8 2 9 1 10 3 11 10 12
REMARK H PARENT 10 13
REMARK Flexibility Score: inf
ROOT
ATOM      1  C   UNL     1      12.521  14.798  21.793  1.00  0.00    -0.025 A 
ATOM      2  C   UNL     1      12.751  14.797  23.184  1.00  0.00     0.012 A 
ATOM      3  C   UNL     1      13.190  15.743  20.996  1.00  0.00     0.012 A 
ATOM      4  C   UNL     1      13.613  15.736  23.759  1.00  0.00     0.047 A 
ATOM      5  C   UNL     1      14.050  16.681  21.576  1.00  0.00     0.047 A 
ATOM      6  C   UNL     1      14.262  16.683  22.957  1.00  0.00     0.115 A 
ENDROOT
BRANCH   1   7
ATOM      7  C   UNL     1      11.626  13.817  21.129  1.00  0.00     0.010 C 
ATOM      8  C   UNL     1      11.066  14.015  19.928  1.00  0.00     0.025 C 
BRANCH   8   9
ATOM      9  C   UNL     1      10.193  13.009  19.302  1.00  0.00     0.064 C 
ATOM     10  O   UNL     1      10.072  11.875  19.834  1.00  0.00    -0.545 OA
ATOM     11  O   UNL     1       9.501  13.291  18.130  1.00  0.00    -0.545 OA
ENDBRANCH   8   9
ENDBRANCH   1   7
BRANCH   6  12
ATOM     12  O   UNL     1      15.120  17.623  23.521  1.00  0.00    -0.508 OA
ATOM     13  H   UNL     1      16.088  17.403  23.722  1.00  0.00     0.293 HD
ENDBRANCH   6  12
TORSDOF 3
ENDMDL
MODEL 3
REMARK VINA RESULT:    -2.960     25.883     26.621
REMARK INTER + INTRA:          -3.530
REMARK INTER:                  -3.394
REMARK INTRA:                  -0.137
REMARK UNBOUND:                -0.138
REMARK SMILES O=C([O-])C=Cc1ccc(O)cc1
REMARK SMILES IDX 6 1 7 2 12 3 8 4 11 5 9 6 5 7 4 8 2 9 1 10 3 11 10 12
REMARK H PARENT 10 13
REMARK Flexibility Score: inf
ROOT
ATOM      1  C   UNL     1      -2.700  29.594   5.668  1.00  0.00    -0.025 A 
ATOM      2  C   UNL     1      -2.202  28.810   4.607  1.00  0.00     0.012 A 
ATOM      3  C   UNL     1      -4.008  29.360   6.127  1.00  0.00     0.012 A 
ATOM      4  C   UNL     1      -3.007  27.835   4.010  1.00  0.00     0.047 A 
ATOM      5  C   UNL     1      -4.810  28.385   5.525  1.00  0.00     0.047 A 
ATOM      6  C   UNL     1      -4.314  27.622   4.465  1.00  0.00     0.115 A 
ENDROOT
BRANCH   1   7
ATOM      7  C   UNL     1      -1.885  30.633   6.346  1.00  0.00     0.010 C 
ATOM      8  C   UNL     1      -1.261  30.442   7.516  1.00  0.00     0.025 C 
BRANCH   8   9
ATOM      9  C   UNL     1      -0.453  31.498   8.148  1.00  0.00     0.064 C 
ATOM     10  O   UNL     1       0.507  32.009   7.514  1.00  0.00    -0.545 OA
ATOM     11  O   UNL     1      -0.733  31.941   9.436  1.00  0.00    -0.545 OA
ENDBRANCH   8   9
ENDBRANCH   1   7
BRANCH   6  12
ATOM     12  O   UNL     1      -5.124  26.655   3.875  1.00  0.00    -0.508 OA
ATOM     13  H   UNL     1      -4.806  26.109   3.083  1.00  0.00     0.293 HD
ENDBRANCH   6  12
TORSDOF 3
ENDMDL
MODEL 4
REMARK VINA RESULT:    -1.761     25.816     26.598
REMARK INTER + INTRA:          -2.156
REMARK INTER:                  -2.020
REMARK INTRA:                  -0.137
REMARK UNBOUND:                -0.138
REMARK SMILES O=C([O-])C=Cc1ccc(O)cc1
REMARK SMILES IDX 6 1 7 2 12 3 8 4 11 5 9 6 5 7 4 8 2 9 1 10 3 11 10 12
REMARK H PARENT 10 13
REMARK Flexibility Score: inf
ROOT
ATOM      1  C   UNL     1      -2.863  30.698   6.969  1.00  0.00    -0.025 A 
ATOM      2  C   UNL     1      -4.259  30.510   7.025  1.00  0.00     0.012 A 
ATOM      3  C   UNL     1      -2.158  30.212   5.854  1.00  0.00     0.012 A 
ATOM      4  C   UNL     1      -4.922  29.830   5.999  1.00  0.00     0.047 A 
ATOM      5  C   UNL     1      -2.826  29.531   4.831  1.00  0.00     0.047 A 
ATOM      6  C   UNL     1      -4.208  29.336   4.901  1.00  0.00     0.115 A 
ENDROOT
BRANCH   1   7
ATOM      7  C   UNL     1      -2.110  31.423   8.023  1.00  0.00     0.010 C 
ATOM      8  C   UNL     1      -1.194  30.846   8.813  1.00  0.00     0.025 C 
BRANCH   8   9
ATOM      9  C   UNL     1      -0.463  31.606   9.839  1.00  0.00     0.064 C 
ATOM     10  O   UNL     1       0.755  31.871   9.665  1.00  0.00    -0.545 OA
ATOM     11  O   UNL     1      -1.096  32.035  11.001  1.00  0.00    -0.545 OA
ENDBRANCH   8   9
ENDBRANCH   1   7
BRANCH   6  12
ATOM     12  O   UNL     1      -4.860  28.656   3.876  1.00  0.00    -0.508 OA
ATOM     13  H   UNL     1      -5.192  27.707   3.997  1.00  0.00     0.293 HD
ENDBRANCH   6  12
TORSDOF 3
ENDMDL
