MODEL 1
REMARK VINA RESULT:    47.481      0.000      0.000
REMARK INTER + INTRA:          51.552
REMARK INTER:                  51.645
REMARK INTRA:                  -0.093
REMARK UNBOUND:                -0.093
REMARK SMILES C[C@H]1[C@H](C)CC[C@@]2(C(=O)[O-])CC[C@@]3(C)C(=CC[C@H]4[C@@]5(C)CC[C@H](O)C(C)(C)[C@H]5CC[C@@]43C)[C@@H]12
REMARK SMILES IDX 7 1 6 2 11 3 33 4 5 5 12 6 15 7 2 8 3 9 13 10 16 11 1 12
REMARK SMILES IDX 4 13 14 14 31 15 17 16 18 17 30 18 32 19 19 20 29 21 28 22
REMARK SMILES IDX 21 23 20 24 25 25 22 26 23 27 26 28 27 29 8 30 9 31 10 32
REMARK SMILES IDX 24 33
REMARK H PARENT 24 34
REMARK Flexibility Score: inf
ROOT
ATOM      1  C   UNL     1      74.072  40.162  21.140  1.00  0.00     0.017 C 
ATOM      2  C   UNL     1      73.624  40.253  19.654  1.00  0.00     0.014 C 
ATOM      3  C   UNL     1      75.479  39.527  21.239  1.00  0.00     0.014 C 
ATOM      4  C   UNL     1      74.079  41.566  21.854  1.00  0.00     0.030 C 
ATOM      5  C   UNL     1      74.240  41.412  18.876  1.00  0.00     0.004 C 
ATOM      6  C   UNL     1      75.865  39.237  22.698  1.00  0.00     0.013 C 
ATOM      7  C   UNL     1      74.788  41.546  23.223  1.00  0.00    -0.063 C 
ATOM      8  C   UNL     1      74.507  42.809  20.980  1.00  0.00    -0.003 C 
ATOM      9  C   UNL     1      73.944  42.764  19.538  1.00  0.00    -0.011 C 
ATOM     10  C   UNL     1      75.846  40.496  23.635  1.00  0.00    -0.006 C 
ATOM     11  C   UNL     1      74.444  42.508  24.111  1.00  0.00    -0.027 C 
ATOM     12  C   UNL     1      76.013  43.124  20.956  1.00  0.00     0.008 C 
ATOM     13  C   UNL     1      72.448  43.125  19.490  1.00  0.00     0.008 C 
ATOM     14  C   UNL     1      77.243  41.176  23.443  1.00  0.00     0.017 C 
ATOM     15  C   UNL     1      75.553  40.090  25.168  1.00  0.00    -0.020 C 
ATOM     16  C   UNL     1      74.951  42.594  25.535  1.00  0.00     0.032 C 
ATOM     17  C   UNL     1      75.764  41.365  26.061  1.00  0.00     0.006 C 
ATOM     18  C   UNL     1      76.528  38.992  25.664  1.00  0.00     0.008 C 
ATOM     19  C   UNL     1      74.086  39.549  25.306  1.00  0.00     0.012 C 
ATOM     20  C   UNL     1      75.733  41.176  27.647  1.00  0.00    -0.025 C 
ATOM     21  C   UNL     1      76.386  38.684  27.157  1.00  0.00     0.005 C 
ATOM     22  C   UNL     1      76.609  39.917  28.085  1.00  0.00     0.003 C 
ATOM     23  C   UNL     1      74.269  41.113  28.216  1.00  0.00     0.010 C 
ATOM     24  C   UNL     1      76.402  42.464  28.232  1.00  0.00     0.012 C 
ATOM     25  C   UNL     1      76.522  39.546  29.651  1.00  0.00    -0.006 C 
ATOM     26  C   UNL     1      74.026  40.030  29.273  1.00  0.00     0.033 C 
ATOM     27  C   UNL     1      75.154  39.977  30.305  1.00  0.00     0.120 C 
ATOM     28  C   UNL     1      76.692  38.018  29.914  1.00  0.00     0.014 C 
ATOM     29  C   UNL     1      77.715  40.196  30.410  1.00  0.00     0.014 C 
ENDROOT
BRANCH   1  30
ATOM     30  C   UNL     1      73.064  39.213  21.802  1.00  0.00     0.048 C 
ATOM     31  O   UNL     1      73.108  37.979  21.550  1.00  0.00    -0.550 OA
ATOM     32  O   UNL     1      72.056  39.684  22.633  1.00  0.00    -0.550 OA
ENDBRANCH   1  30
BRANCH  27  33
ATOM     33  O   UNL     1      75.251  41.219  30.960  1.00  0.00    -0.393 OA
ATOM     34  H   UNL     1      75.937  41.761  30.486  1.00  0.00     0.210 HD
ENDBRANCH  27  33
TORSDOF 2
ENDMDL
