MODEL 1
REMARK VINA RESULT:    -4.762      0.000      0.000
REMARK INTER + INTRA:          -5.706
REMARK INTER:                  -5.736
REMARK INTRA:                   0.030
REMARK UNBOUND:                 0.030
REMARK SMILES O=c1c(O)c(-c2ccc(O)c(O)c2)oc2cc(O)cc(O)c12
REMARK SMILES IDX 5 1 3 2 2 3 1 4 22 5 20 6 19 7 17 8 16 9 15 10 14 11 6 12
REMARK SMILES IDX 7 13 8 14 9 15 13 16 11 17 10 18 12 20 4 22 21 24 18 26
REMARK H PARENT 10 19 12 21 4 23 21 25 18 27
REMARK Flexibility Score: inf
ROOT
ATOM      1  C   UNL     1     -11.428  -4.185  21.648  1.00  0.00     0.180 A 
ATOM      2  C   UNL     1     -11.779  -5.277  22.465  1.00  0.00     0.208 A 
ATOM      3  C   UNL     1     -11.824  -5.095  23.856  1.00  0.00     0.238 A 
ATOM      4  O   UNL     1     -12.125  -6.068  24.600  1.00  0.00    -0.285 OA
ATOM      5  C   UNL     1     -11.540  -3.828  24.404  1.00  0.00     0.111 A 
ATOM      6  C   UNL     1     -11.567  -3.560  25.794  1.00  0.00     0.134 A 
ATOM      7  C   UNL     1     -11.281  -2.268  26.260  1.00  0.00     0.093 A 
ATOM      8  C   UNL     1     -10.970  -1.241  25.366  1.00  0.00     0.123 A 
ATOM      9  C   UNL     1     -10.941  -1.499  23.992  1.00  0.00     0.094 A 
ATOM     10  C   UNL     1     -11.221  -2.780  23.508  1.00  0.00     0.146 A 
ATOM     11  O   UNL     1     -11.181  -2.999  22.199  1.00  0.00    -0.452 OA
ENDROOT
BRANCH   1  12
ATOM     12  C   UNL     1     -11.340  -4.302  20.174  1.00  0.00     0.025 A 
ATOM     13  C   UNL     1     -11.884  -3.290  19.368  1.00  0.00     0.016 A 
ATOM     14  C   UNL     1     -11.794  -3.369  17.976  1.00  0.00     0.051 A 
ATOM     15  C   UNL     1     -11.147  -4.451  17.369  1.00  0.00     0.157 A 
ATOM     16  C   UNL     1     -10.671  -5.378  19.564  1.00  0.00     0.062 A 
ATOM     17  C   UNL     1     -10.579  -5.458  18.166  1.00  0.00     0.158 A 
BRANCH  15  18
ATOM     18  O   UNL     1     -11.076  -4.503  15.978  1.00  0.00    -0.504 OA
ATOM     19  H   UNL     1     -10.300  -4.941  15.496  1.00  0.00     0.293 HD
ENDBRANCH  15  18
BRANCH  17  20
ATOM     20  O   UNL     1      -9.919  -6.532  17.568  1.00  0.00    -0.504 OA
ATOM     21  H   UNL     1      -9.724  -7.385  18.079  1.00  0.00     0.293 HD
ENDBRANCH  17  20
ENDBRANCH   1  12
BRANCH   2  22
ATOM     22  O   UNL     1     -12.103  -6.510  21.895  1.00  0.00    -0.502 OA
ATOM     23  H   UNL     1     -11.612  -6.882  21.091  1.00  0.00     0.293 HD
ENDBRANCH   2  22
BRANCH   6  24
ATOM     24  O   UNL     1     -11.876  -4.564  26.713  1.00  0.00    -0.507 OA
ATOM     25  H   UNL     1     -12.005  -4.364  27.698  1.00  0.00     0.293 HD
ENDBRANCH   6  24
BRANCH   8  26
ATOM     26  O   UNL     1     -10.691   0.034  25.855  1.00  0.00    -0.508 OA
ATOM     27  H   UNL     1      -9.745   0.319  26.079  1.00  0.00     0.293 HD
ENDBRANCH   8  26
TORSDOF 6
ENDMDL
MODEL 2
REMARK VINA RESULT:    -4.164      2.295      7.104
REMARK INTER + INTRA:          -4.987
REMARK INTER:                  -5.206
REMARK INTRA:                   0.219
REMARK UNBOUND:                 0.030
REMARK SMILES O=c1c(O)c(-c2ccc(O)c(O)c2)oc2cc(O)cc(O)c12
REMARK SMILES IDX 5 1 3 2 2 3 1 4 22 5 20 6 19 7 17 8 16 9 15 10 14 11 6 12
REMARK SMILES IDX 7 13 8 14 9 15 13 16 11 17 10 18 12 20 4 22 21 24 18 26
REMARK H PARENT 10 19 12 21 4 23 21 25 18 27
REMARK Flexibility Score: inf
ROOT
ATOM      1  C   UNL     1     -10.419  -2.445  25.419  1.00  0.00     0.180 A 
ATOM      2  C   UNL     1     -10.604  -3.658  26.110  1.00  0.00     0.208 A 
ATOM      3  C   UNL     1     -11.098  -4.769  25.409  1.00  0.00     0.238 A 
ATOM      4  O   UNL     1     -11.279  -5.858  26.020  1.00  0.00    -0.285 OA
ATOM      5  C   UNL     1     -11.376  -4.658  24.032  1.00  0.00     0.111 A 
ATOM      6  C   UNL     1     -11.871  -5.731  23.251  1.00  0.00     0.134 A 
ATOM      7  C   UNL     1     -12.114  -5.542  21.883  1.00  0.00     0.093 A 
ATOM      8  C   UNL     1     -11.872  -4.305  21.280  1.00  0.00     0.123 A 
ATOM      9  C   UNL     1     -11.384  -3.241  22.046  1.00  0.00     0.094 A 
ATOM     10  C   UNL     1     -11.136  -3.409  23.411  1.00  0.00     0.146 A 
ATOM     11  O   UNL     1     -10.678  -2.381  24.116  1.00  0.00    -0.452 OA
ENDROOT
BRANCH   1  12
ATOM     12  C   UNL     1      -9.921  -1.224  26.093  1.00  0.00     0.025 A 
ATOM     13  C   UNL     1     -10.306  -0.961  27.417  1.00  0.00     0.016 A 
ATOM     14  C   UNL     1      -9.832   0.175  28.079  1.00  0.00     0.051 A 
ATOM     15  C   UNL     1      -8.957   1.055  27.435  1.00  0.00     0.157 A 
ATOM     16  C   UNL     1      -9.025  -0.349  25.454  1.00  0.00     0.062 A 
ATOM     17  C   UNL     1      -8.547   0.791  26.118  1.00  0.00     0.158 A 
BRANCH  15  18
ATOM     18  O   UNL     1      -8.503   2.181  28.121  1.00  0.00    -0.504 OA
ATOM     19  H   UNL     1      -7.584   2.575  27.958  1.00  0.00     0.293 HD
ENDBRANCH  15  18
BRANCH  17  20
ATOM     20  O   UNL     1      -7.662   1.656  25.475  1.00  0.00    -0.504 OA
ATOM     21  H   UNL     1      -7.929   2.604  25.234  1.00  0.00     0.293 HD
ENDBRANCH  17  20
ENDBRANCH   1  12
BRANCH   2  22
ATOM     22  O   UNL     1     -10.275  -3.756  27.465  1.00  0.00    -0.502 OA
ATOM     23  H   UNL     1      -9.851  -4.586  27.861  1.00  0.00     0.293 HD
ENDBRANCH   2  22
BRANCH   6  24
ATOM     24  O   UNL     1     -12.122  -6.979  23.823  1.00  0.00    -0.507 OA
ATOM     25  H   UNL     1     -11.430  -7.454  24.390  1.00  0.00     0.293 HD
ENDBRANCH   6  24
BRANCH   8  26
ATOM     26  O   UNL     1     -12.122  -4.144  19.918  1.00  0.00    -0.508 OA
ATOM     27  H   UNL     1     -12.730  -3.411  19.575  1.00  0.00     0.293 HD
ENDBRANCH   8  26
TORSDOF 6
ENDMDL
MODEL 3
REMARK VINA RESULT:    -4.085      1.443      6.819
REMARK INTER + INTRA:          -4.891
REMARK INTER:                  -4.960
REMARK INTRA:                   0.069
REMARK UNBOUND:                 0.030
REMARK SMILES O=c1c(O)c(-c2ccc(O)c(O)c2)oc2cc(O)cc(O)c12
REMARK SMILES IDX 5 1 3 2 2 3 1 4 22 5 20 6 19 7 17 8 16 9 15 10 14 11 6 12
REMARK SMILES IDX 7 13 8 14 9 15 13 16 11 17 10 18 12 20 4 22 21 24 18 26
REMARK H PARENT 10 19 12 21 4 23 21 25 18 27
REMARK Flexibility Score: inf
ROOT
ATOM      1  C   UNL     1     -11.076  -4.878  22.415  1.00  0.00     0.180 A 
ATOM      2  C   UNL     1     -10.378  -5.998  21.925  1.00  0.00     0.208 A 
ATOM      3  C   UNL     1     -10.176  -6.118  20.541  1.00  0.00     0.238 A 
ATOM      4  O   UNL     1      -9.562  -7.123  20.088  1.00  0.00    -0.285 OA
ATOM      5  C   UNL     1     -10.653  -5.113  19.676  1.00  0.00     0.111 A 
ATOM      6  C   UNL     1     -10.488  -5.156  18.271  1.00  0.00     0.134 A 
ATOM      7  C   UNL     1     -10.985  -4.110  17.479  1.00  0.00     0.093 A 
ATOM      8  C   UNL     1     -11.641  -3.024  18.063  1.00  0.00     0.123 A 
ATOM      9  C   UNL     1     -11.808  -2.976  19.450  1.00  0.00     0.094 A 
ATOM     10  C   UNL     1     -11.322  -4.009  20.257  1.00  0.00     0.146 A 
ATOM     11  O   UNL     1     -11.499  -3.941  21.571  1.00  0.00    -0.452 OA
ENDROOT
BRANCH   1  12
ATOM     12  C   UNL     1     -11.346  -4.690  23.859  1.00  0.00     0.025 A 
ATOM     13  C   UNL     1     -11.833  -5.767  24.616  1.00  0.00     0.016 A 
ATOM     14  C   UNL     1     -12.075  -5.617  25.984  1.00  0.00     0.051 A 
ATOM     15  C   UNL     1     -11.820  -4.398  26.619  1.00  0.00     0.157 A 
ATOM     16  C   UNL     1     -11.070  -3.470  24.503  1.00  0.00     0.062 A 
ATOM     17  C   UNL     1     -11.310  -3.319  25.877  1.00  0.00     0.158 A 
BRANCH  15  18
ATOM     18  O   UNL     1     -12.073  -4.279  27.985  1.00  0.00    -0.504 OA
ATOM     19  H   UNL     1     -12.157  -5.088  28.588  1.00  0.00     0.293 HD
ENDBRANCH  15  18
BRANCH  17  20
ATOM     20  O   UNL     1     -11.039  -2.105  26.506  1.00  0.00    -0.504 OA
ATOM     21  H   UNL     1     -10.541  -1.361  26.031  1.00  0.00     0.293 HD
ENDBRANCH  17  20
ENDBRANCH   1  12
BRANCH   2  22
ATOM     22  O   UNL     1      -9.872  -6.957  22.806  1.00  0.00    -0.502 OA
ATOM     23  H   UNL     1      -9.718  -7.920  22.531  1.00  0.00     0.293 HD
ENDBRANCH   2  22
BRANCH   6  24
ATOM     24  O   UNL     1      -9.836  -6.226  17.657  1.00  0.00    -0.507 OA
ATOM     25  H   UNL     1     -10.176  -7.176  17.739  1.00  0.00     0.293 HD
ENDBRANCH   6  24
BRANCH   8  26
ATOM     26  O   UNL     1     -12.125  -1.997  17.254  1.00  0.00    -0.508 OA
ATOM     27  H   UNL     1     -12.237  -2.120  16.254  1.00  0.00     0.293 HD
ENDBRANCH   8  26
TORSDOF 6
ENDMDL
MODEL 4
REMARK VINA RESULT:    -3.955     22.330     23.496
REMARK INTER + INTRA:          -4.735
REMARK INTER:                  -4.475
REMARK INTRA:                  -0.260
REMARK UNBOUND:                 0.030
REMARK SMILES O=c1c(O)c(-c2ccc(O)c(O)c2)oc2cc(O)cc(O)c12
REMARK SMILES IDX 5 1 3 2 2 3 1 4 22 5 20 6 19 7 17 8 16 9 15 10 14 11 6 12
REMARK SMILES IDX 7 13 8 14 9 15 13 16 11 17 10 18 12 20 4 22 21 24 18 26
REMARK H PARENT 10 19 12 21 4 23 21 25 18 27
REMARK Flexibility Score: inf
ROOT
ATOM      1  C   UNL     1       6.635   8.930  14.308  1.00  0.00     0.180 A 
ATOM      2  C   UNL     1       6.295   7.607  13.967  1.00  0.00     0.208 A 
ATOM      3  C   UNL     1       6.413   6.604  14.941  1.00  0.00     0.238 A 
ATOM      4  O   UNL     1       6.123   5.413  14.645  1.00  0.00    -0.285 OA
ATOM      5  C   UNL     1       6.845   6.941  16.240  1.00  0.00     0.111 A 
ATOM      6  C   UNL     1       6.987   5.992  17.281  1.00  0.00     0.134 A 
ATOM      7  C   UNL     1       7.415   6.408  18.550  1.00  0.00     0.093 A 
ATOM      8  C   UNL     1       7.703   7.752  18.799  1.00  0.00     0.123 A 
ATOM      9  C   UNL     1       7.566   8.695  17.775  1.00  0.00     0.094 A 
ATOM     10  C   UNL     1       7.142   8.299  16.503  1.00  0.00     0.146 A 
ATOM     11  O   UNL     1       7.026   9.214  15.548  1.00  0.00    -0.452 OA
ENDROOT
BRANCH   1  12
ATOM     12  C   UNL     1       6.556  10.040  13.330  1.00  0.00     0.025 A 
ATOM     13  C   UNL     1       7.534  10.147  12.328  1.00  0.00     0.016 A 
ATOM     14  C   UNL     1       7.467  11.175  11.383  1.00  0.00     0.051 A 
ATOM     15  C   UNL     1       6.418  12.098  11.414  1.00  0.00     0.157 A 
ATOM     16  C   UNL     1       5.491  10.957  13.348  1.00  0.00     0.062 A 
ATOM     17  C   UNL     1       5.421  11.988  12.398  1.00  0.00     0.158 A 
BRANCH  15  18
ATOM     18  O   UNL     1       6.380  13.113  10.459  1.00  0.00    -0.504 OA
ATOM     19  H   UNL     1       6.802  13.005   9.543  1.00  0.00     0.293 HD
ENDBRANCH  15  18
BRANCH  17  20
ATOM     20  O   UNL     1       4.364  12.896  12.426  1.00  0.00    -0.504 OA
ATOM     21  H   UNL     1       4.450  13.796  12.885  1.00  0.00     0.293 HD
ENDBRANCH  17  20
ENDBRANCH   1  12
BRANCH   2  22
ATOM     22  O   UNL     1       5.823   7.307  12.686  1.00  0.00    -0.502 OA
ATOM     23  H   UNL     1       5.531   8.025  12.034  1.00  0.00     0.293 HD
ENDBRANCH   2  22
BRANCH   6  24
ATOM     24  O   UNL     1       6.706   4.642  17.064  1.00  0.00    -0.507 OA
ATOM     25  H   UNL     1       7.192   4.102  16.358  1.00  0.00     0.293 HD
ENDBRANCH   6  24
BRANCH   8  26
ATOM     26  O   UNL     1       8.125   8.140  20.069  1.00  0.00    -0.508 OA
ATOM     27  H   UNL     1       8.427   9.088  20.260  1.00  0.00     0.293 HD
ENDBRANCH   8  26
TORSDOF 6
ENDMDL
MODEL 5
REMARK VINA RESULT:    -3.229     17.697     20.440
REMARK INTER + INTRA:          -3.860
REMARK INTER:                  -3.723
REMARK INTRA:                  -0.137
REMARK UNBOUND:                 0.030
REMARK SMILES O=c1c(O)c(-c2ccc(O)c(O)c2)oc2cc(O)cc(O)c12
REMARK SMILES IDX 5 1 3 2 2 3 1 4 22 5 20 6 19 7 17 8 16 9 15 10 14 11 6 12
REMARK SMILES IDX 7 13 8 14 9 15 13 16 11 17 10 18 12 20 4 22 21 24 18 26
REMARK H PARENT 10 19 12 21 4 23 21 25 18 27
REMARK Flexibility Score: inf
ROOT
ATOM      1  C   UNL     1      -4.420  11.734  13.639  1.00  0.00     0.180 A 
ATOM      2  C   UNL     1      -5.673  11.228  13.246  1.00  0.00     0.208 A 
ATOM      3  C   UNL     1      -6.002  11.219  11.881  1.00  0.00     0.238 A 
ATOM      4  O   UNL     1      -7.127  10.779  11.517  1.00  0.00    -0.285 OA
ATOM      5  C   UNL     1      -5.071  11.694  10.936  1.00  0.00     0.111 A 
ATOM      6  C   UNL     1      -5.323  11.716   9.543  1.00  0.00     0.134 A 
ATOM      7  C   UNL     1      -4.340  12.197   8.665  1.00  0.00     0.093 A 
ATOM      8  C   UNL     1      -3.113  12.654   9.152  1.00  0.00     0.123 A 
ATOM      9  C   UNL     1      -2.858  12.635  10.526  1.00  0.00     0.094 A 
ATOM     10  C   UNL     1      -3.825  12.161  11.418  1.00  0.00     0.146 A 
ATOM     11  O   UNL     1      -3.560  12.160  12.719  1.00  0.00    -0.452 OA
ENDROOT
BRANCH   1  12
ATOM     12  C   UNL     1      -4.007  11.794  15.061  1.00  0.00     0.025 A 
ATOM     13  C   UNL     1      -3.799  13.044  15.666  1.00  0.00     0.016 A 
ATOM     14  C   UNL     1      -3.429  13.125  17.012  1.00  0.00     0.051 A 
ATOM     15  C   UNL     1      -3.277  11.963  17.775  1.00  0.00     0.157 A 
ATOM     16  C   UNL     1      -3.873  10.628  15.835  1.00  0.00     0.062 A 
ATOM     17  C   UNL     1      -3.504  10.708  17.186  1.00  0.00     0.158 A 
BRANCH  15  18
ATOM     18  O   UNL     1      -2.905  12.076  19.113  1.00  0.00    -0.504 OA
ATOM     19  H   UNL     1      -2.950  12.958  19.611  1.00  0.00     0.293 HD
ENDBRANCH  15  18
BRANCH  17  20
ATOM     20  O   UNL     1      -3.369   9.546  17.945  1.00  0.00    -0.504 OA
ATOM     21  H   UNL     1      -2.848   8.747  17.604  1.00  0.00     0.293 HD
ENDBRANCH  17  20
ENDBRANCH   1  12
BRANCH   2  22
ATOM     22  O   UNL     1      -6.560  10.717  14.198  1.00  0.00    -0.502 OA
ATOM     23  H   UNL     1      -6.291   9.999  14.859  1.00  0.00     0.293 HD
ENDBRANCH   2  22
BRANCH   6  24
ATOM     24  O   UNL     1      -6.538  11.266   9.026  1.00  0.00    -0.507 OA
ATOM     25  H   UNL     1      -6.586  10.723   8.172  1.00  0.00     0.293 HD
ENDBRANCH   6  24
BRANCH   8  26
ATOM     26  O   UNL     1      -2.152  13.125   8.258  1.00  0.00    -0.508 OA
ATOM     27  H   UNL     1      -1.202  13.315   8.554  1.00  0.00     0.293 HD
ENDBRANCH   8  26
TORSDOF 6
ENDMDL
MODEL 6
REMARK VINA RESULT:    -3.150      3.471      7.474
REMARK INTER + INTRA:          -3.764
REMARK INTER:                  -3.956
REMARK INTRA:                   0.191
REMARK UNBOUND:                 0.030
REMARK SMILES O=c1c(O)c(-c2ccc(O)c(O)c2)oc2cc(O)cc(O)c12
REMARK SMILES IDX 5 1 3 2 2 3 1 4 22 5 20 6 19 7 17 8 16 9 15 10 14 11 6 12
REMARK SMILES IDX 7 13 8 14 9 15 13 16 11 17 10 18 12 20 4 22 21 24 18 26
REMARK H PARENT 10 19 12 21 4 23 21 25 18 27
REMARK Flexibility Score: inf
ROOT
ATOM      1  C   UNL     1      -9.978  -1.642  25.451  1.00  0.00     0.180 A 
ATOM      2  C   UNL     1     -10.302  -1.628  24.080  1.00  0.00     0.208 A 
ATOM      3  C   UNL     1     -10.897  -2.766  23.513  1.00  0.00     0.238 A 
ATOM      4  O   UNL     1     -11.182  -2.771  22.285  1.00  0.00    -0.285 OA
ATOM      5  C   UNL     1     -11.176  -3.885  24.324  1.00  0.00     0.111 A 
ATOM      6  C   UNL     1     -11.778  -5.068  23.832  1.00  0.00     0.134 A 
ATOM      7  C   UNL     1     -12.031  -6.136  24.706  1.00  0.00     0.093 A 
ATOM      8  C   UNL     1     -11.697  -6.043  26.060  1.00  0.00     0.123 A 
ATOM      9  C   UNL     1     -11.102  -4.877  26.551  1.00  0.00     0.094 A 
ATOM     10  C   UNL     1     -10.840  -3.803  25.696  1.00  0.00     0.146 A 
ATOM     11  O   UNL     1     -10.269  -2.710  26.188  1.00  0.00    -0.452 OA
ENDROOT
BRANCH   1  12
ATOM     12  C   UNL     1      -9.331  -0.488  26.117  1.00  0.00     0.025 A 
ATOM     13  C   UNL     1      -9.605  -0.232  27.470  1.00  0.00     0.016 A 
ATOM     14  C   UNL     1      -8.989   0.839  28.125  1.00  0.00     0.051 A 
ATOM     15  C   UNL     1      -8.083   1.658  27.444  1.00  0.00     0.157 A 
ATOM     16  C   UNL     1      -8.404   0.323  25.440  1.00  0.00     0.062 A 
ATOM     17  C   UNL     1      -7.784   1.397  26.096  1.00  0.00     0.158 A 
BRANCH  15  18
ATOM     18  O   UNL     1      -7.487   2.720  28.124  1.00  0.00    -0.504 OA
ATOM     19  H   UNL     1      -6.546   3.032  27.914  1.00  0.00     0.293 HD
ENDBRANCH  15  18
BRANCH  17  20
ATOM     20  O   UNL     1      -6.870   2.201  25.416  1.00  0.00    -0.504 OA
ATOM     21  H   UNL     1      -5.988   2.471  25.834  1.00  0.00     0.293 HD
ENDBRANCH  17  20
ENDBRANCH   1  12
BRANCH   2  22
ATOM     22  O   UNL     1     -10.060  -0.489  23.308  1.00  0.00    -0.502 OA
ATOM     23  H   UNL     1     -10.691   0.304  23.298  1.00  0.00     0.293 HD
ENDBRANCH   2  22
BRANCH   6  24
ATOM     24  O   UNL     1     -12.125  -5.192  22.486  1.00  0.00    -0.507 OA
ATOM     25  H   UNL     1     -12.350  -6.089  22.074  1.00  0.00     0.293 HD
ENDBRANCH   6  24
BRANCH   8  26
ATOM     26  O   UNL     1     -11.961  -7.118  26.907  1.00  0.00    -0.508 OA
ATOM     27  H   UNL     1     -11.279  -7.438  27.584  1.00  0.00     0.293 HD
ENDBRANCH   8  26
TORSDOF 6
ENDMDL
MODEL 7
REMARK VINA RESULT:    -2.894     11.717     12.404
REMARK INTER + INTRA:          -3.457
REMARK INTER:                  -3.997
REMARK INTRA:                   0.540
REMARK UNBOUND:                 0.030
REMARK SMILES O=c1c(O)c(-c2ccc(O)c(O)c2)oc2cc(O)cc(O)c12
REMARK SMILES IDX 5 1 3 2 2 3 1 4 22 5 20 6 19 7 17 8 16 9 15 10 14 11 6 12
REMARK SMILES IDX 7 13 8 14 9 15 13 16 11 17 10 18 12 20 4 22 21 24 18 26
REMARK H PARENT 10 19 12 21 4 23 21 25 18 27
REMARK Flexibility Score: inf
ROOT
ATOM      1  C   UNL     1      -0.080  -6.971  21.014  1.00  0.00     0.180 A 
ATOM      2  C   UNL     1      -0.884  -7.052  22.168  1.00  0.00     0.208 A 
ATOM      3  C   UNL     1      -0.265  -7.041  23.427  1.00  0.00     0.238 A 
ATOM      4  O   UNL     1      -0.972  -7.125  24.468  1.00  0.00    -0.285 OA
ATOM      5  C   UNL     1       1.137  -6.927  23.514  1.00  0.00     0.111 A 
ATOM      6  C   UNL     1       1.839  -6.903  24.744  1.00  0.00     0.134 A 
ATOM      7  C   UNL     1       3.236  -6.778  24.746  1.00  0.00     0.093 A 
ATOM      8  C   UNL     1       3.944  -6.676  23.546  1.00  0.00     0.123 A 
ATOM      9  C   UNL     1       3.257  -6.700  22.328  1.00  0.00     0.094 A 
ATOM     10  C   UNL     1       1.865  -6.825  22.305  1.00  0.00     0.146 A 
ATOM     11  O   UNL     1       1.238  -6.850  21.134  1.00  0.00    -0.452 OA
ENDROOT
BRANCH   1  12
ATOM     12  C   UNL     1      -0.658  -6.997  19.650  1.00  0.00     0.025 A 
ATOM     13  C   UNL     1      -2.047  -7.116  19.492  1.00  0.00     0.016 A 
ATOM     14  C   UNL     1      -2.615  -7.122  18.214  1.00  0.00     0.051 A 
ATOM     15  C   UNL     1      -1.807  -6.994  17.080  1.00  0.00     0.157 A 
ATOM     16  C   UNL     1       0.151  -6.848  18.510  1.00  0.00     0.062 A 
ATOM     17  C   UNL     1      -0.417  -6.851  17.227  1.00  0.00     0.158 A 
BRANCH  15  18
ATOM     18  O   UNL     1      -2.403  -7.006  15.820  1.00  0.00    -0.504 OA
ATOM     19  H   UNL     1      -1.896  -6.742  14.983  1.00  0.00     0.293 HD
ENDBRANCH  15  18
BRANCH  17  20
ATOM     20  O   UNL     1       0.393  -6.708  16.101  1.00  0.00    -0.504 OA
ATOM     21  H   UNL     1       1.359  -6.414  16.177  1.00  0.00     0.293 HD
ENDBRANCH  17  20
ENDBRANCH   1  12
BRANCH   2  22
ATOM     22  O   UNL     1      -2.276  -7.115  22.056  1.00  0.00    -0.502 OA
ATOM     23  H   UNL     1      -2.754  -7.024  21.168  1.00  0.00     0.293 HD
ENDBRANCH   2  22
BRANCH   6  24
ATOM     24  O   UNL     1       1.161  -7.002  25.959  1.00  0.00    -0.507 OA
ATOM     25  H   UNL     1       0.218  -7.368  26.016  1.00  0.00     0.293 HD
ENDBRANCH   6  24
BRANCH   8  26
ATOM     26  O   UNL     1       5.332  -6.552  23.576  1.00  0.00    -0.508 OA
ATOM     27  H   UNL     1       5.932  -7.355  23.722  1.00  0.00     0.293 HD
ENDBRANCH   8  26
TORSDOF 6
ENDMDL
