MODEL 1
REMARK VINA RESULT:    -0.173      0.000      0.000
REMARK INTER + INTRA:          -1.588
REMARK INTER:                  -0.376
REMARK INTRA:                  -1.212
REMARK UNBOUND:                -1.212
REMARK SMILES CCCCCCCCCCCCCCCCCCCCCC(=O)[O-]
REMARK SMILES IDX 12 1 11 2 10 3 9 4 8 5 7 6 6 7 5 8 4 9 3 10 2 11 1 12 13 13
REMARK SMILES IDX 14 14 15 15 16 16 17 17 18 18 19 19 20 20 21 21 22 22 23 23
REMARK SMILES IDX 24 24
REMARK H PARENT
REMARK Flexibility Score: inf
ROOT
ATOM      1  C   UNL     1      14.322  26.372  21.963  1.00  0.00     0.000 C 
ENDROOT
BRANCH   1   2
ATOM      2  C   UNL     1      15.114  26.709  20.691  1.00  0.00     0.000 C 
BRANCH   2   3
ATOM      3  C   UNL     1      14.226  27.271  19.566  1.00  0.00     0.000 C 
BRANCH   3   4
ATOM      4  C   UNL     1      14.748  28.564  18.908  1.00  0.00    -0.000 C 
BRANCH   4   5
ATOM      5  C   UNL     1      13.959  29.840  19.261  1.00  0.00    -0.000 C 
BRANCH   5   6
ATOM      6  C   UNL     1      13.231  30.501  18.074  1.00  0.00    -0.000 C 
BRANCH   6   7
ATOM      7  C   UNL     1      14.153  31.125  17.007  1.00  0.00    -0.000 C 
BRANCH   7   8
ATOM      8  C   UNL     1      13.601  31.108  15.570  1.00  0.00    -0.000 C 
BRANCH   8   9
ATOM      9  C   UNL     1      14.699  30.934  14.507  1.00  0.00    -0.000 C 
BRANCH   9  10
ATOM     10  C   UNL     1      14.164  31.070  13.071  1.00  0.00    -0.000 C 
BRANCH  10  11
ATOM     11  C   UNL     1      12.632  30.912  12.961  1.00  0.00    -0.003 C 
ATOM     12  C   UNL     1      12.144  30.982  11.514  1.00  0.00     0.004 C 
ENDBRANCH  10  11
ENDBRANCH   9  10
ENDBRANCH   8   9
ENDBRANCH   7   8
ENDBRANCH   6   7
ENDBRANCH   5   6
ENDBRANCH   4   5
ENDBRANCH   3   4
ENDBRANCH   2   3
ENDBRANCH   1   2
BRANCH   1  13
ATOM     13  C   UNL     1      12.951  27.059  21.955  1.00  0.00     0.000 C 
BRANCH  13  14
ATOM     14  C   UNL     1      13.080  28.548  22.310  1.00  0.00     0.000 C 
BRANCH  14  15
ATOM     15  C   UNL     1      13.530  28.774  23.762  1.00  0.00     0.000 C 
BRANCH  15  16
ATOM     16  C   UNL     1      12.391  29.283  24.661  1.00  0.00     0.000 C 
BRANCH  16  17
ATOM     17  C   UNL     1      12.857  29.580  26.095  1.00  0.00     0.000 C 
BRANCH  17  18
ATOM     18  C   UNL     1      14.342  29.239  26.318  1.00  0.00     0.000 C 
BRANCH  18  19
ATOM     19  C   UNL     1      14.578  28.532  27.669  1.00  0.00     0.000 C 
BRANCH  19  20
ATOM     20  C   UNL     1      14.934  27.042  27.529  1.00  0.00     0.006 C 
BRANCH  20  21
ATOM     21  C   UNL     1      15.097  26.601  26.070  1.00  0.00     0.053 C 
BRANCH  21  22
ATOM     22  C   UNL     1      14.761  25.152  25.920  1.00  0.00     0.041 C 
ATOM     23  O   UNL     1      14.508  24.675  24.783  1.00  0.00    -0.550 OA
ATOM     24  O   UNL     1      14.770  24.317  27.030  1.00  0.00    -0.550 OA
ENDBRANCH  21  22
ENDBRANCH  20  21
ENDBRANCH  19  20
ENDBRANCH  18  19
ENDBRANCH  17  18
ENDBRANCH  16  17
ENDBRANCH  15  16
ENDBRANCH  14  15
ENDBRANCH  13  14
ENDBRANCH   1  13
TORSDOF 20
ENDMDL
MODEL 2
REMARK VINA RESULT:    -0.172      2.153      3.715
REMARK INTER + INTRA:          -1.584
REMARK INTER:                  -0.293
REMARK INTRA:                  -1.292
REMARK UNBOUND:                -1.212
REMARK SMILES CCCCCCCCCCCCCCCCCCCCCC(=O)[O-]
REMARK SMILES IDX 12 1 11 2 10 3 9 4 8 5 7 6 6 7 5 8 4 9 3 10 2 11 1 12 13 13
REMARK SMILES IDX 14 14 15 15 16 16 17 17 18 18 19 19 20 20 21 21 22 22 23 23
REMARK SMILES IDX 24 24
REMARK H PARENT
REMARK Flexibility Score: inf
ROOT
ATOM      1  C   UNL     1      10.916  31.091  21.370  1.00  0.00     0.000 C 
ENDROOT
BRANCH   1   2
ATOM      2  C   UNL     1      10.424  30.462  20.059  1.00  0.00     0.000 C 
BRANCH   2   3
ATOM      3  C   UNL     1      11.037  31.124  18.812  1.00  0.00     0.000 C 
BRANCH   3   4
ATOM      4  C   UNL     1      11.933  30.204  17.959  1.00  0.00    -0.000 C 
BRANCH   4   5
ATOM      5  C   UNL     1      13.175  30.884  17.351  1.00  0.00    -0.000 C 
BRANCH   5   6
ATOM      6  C   UNL     1      13.458  30.519  15.880  1.00  0.00    -0.000 C 
BRANCH   6   7
ATOM      7  C   UNL     1      14.924  30.692  15.434  1.00  0.00    -0.000 C 
BRANCH   7   8
ATOM      8  C   UNL     1      15.119  31.125  13.968  1.00  0.00    -0.000 C 
BRANCH   8   9
ATOM      9  C   UNL     1      15.068  29.945  12.984  1.00  0.00    -0.000 C 
BRANCH   9  10
ATOM     10  C   UNL     1      14.938  30.398  11.519  1.00  0.00    -0.000 C 
BRANCH  10  11
ATOM     11  C   UNL     1      13.530  30.909  11.149  1.00  0.00    -0.003 C 
ATOM     12  C   UNL     1      12.591  29.776  10.734  1.00  0.00     0.004 C 
ENDBRANCH  10  11
ENDBRANCH   9  10
ENDBRANCH   8   9
ENDBRANCH   7   8
ENDBRANCH   6   7
ENDBRANCH   5   6
ENDBRANCH   4   5
ENDBRANCH   3   4
ENDBRANCH   2   3
ENDBRANCH   1   2
BRANCH   1  13
ATOM     13  C   UNL     1      11.868  30.144  22.111  1.00  0.00     0.000 C 
BRANCH  13  14
ATOM     14  C   UNL     1      13.290  30.238  21.540  1.00  0.00     0.000 C 
BRANCH  14  15
ATOM     15  C   UNL     1      13.656  29.034  20.658  1.00  0.00     0.000 C 
BRANCH  15  16
ATOM     16  C   UNL     1      13.372  27.689  21.347  1.00  0.00     0.000 C 
BRANCH  16  17
ATOM     17  C   UNL     1      14.445  26.632  21.043  1.00  0.00     0.000 C 
BRANCH  17  18
ATOM     18  C   UNL     1      15.036  26.003  22.319  1.00  0.00     0.000 C 
BRANCH  18  19
ATOM     19  C   UNL     1      15.047  26.993  23.502  1.00  0.00     0.000 C 
BRANCH  19  20
ATOM     20  C   UNL     1      13.958  26.710  24.550  1.00  0.00     0.006 C 
BRANCH  20  21
ATOM     21  C   UNL     1      14.346  27.182  25.957  1.00  0.00     0.053 C 
BRANCH  21  22
ATOM     22  C   UNL     1      13.862  28.577  26.194  1.00  0.00     0.041 C 
ATOM     23  O   UNL     1      13.543  29.310  25.222  1.00  0.00    -0.550 OA
ATOM     24  O   UNL     1      13.721  29.053  27.491  1.00  0.00    -0.550 OA
ENDBRANCH  21  22
ENDBRANCH  20  21
ENDBRANCH  19  20
ENDBRANCH  18  19
ENDBRANCH  17  18
ENDBRANCH  16  17
ENDBRANCH  15  16
ENDBRANCH  14  15
ENDBRANCH  13  14
ENDBRANCH   1  13
TORSDOF 20
ENDMDL
