MODEL 1
REMARK VINA RESULT:    -6.123      0.000      0.000
REMARK INTER + INTRA:          -6.302
REMARK INTER:                  -6.302
REMARK INTRA:                   0.000
REMARK UNBOUND:                 0.000
REMARK SMILES CC1(C)CC[C@@]2(C)CC[C@]3(C)C(=CC[C@@H]4[C@@]5(C)CC[C@@H](O)C(C)(C)[C@@H]5CC[C@@]43C)[C@H]2C1
REMARK SMILES IDX 1 1 2 2 4 3 5 4 6 5 8 6 9 7 10 8 12 9 13 10 14 11 15 12
REMARK SMILES IDX 28 13 27 14 26 15 25 16 16 17 18 18 19 19 20 20 22 21 23 22
REMARK SMILES IDX 24 23 17 24 29 25 30 26 31 27 11 28 7 29 3 30 21 31
REMARK H PARENT 21 32
REMARK Flexibility Score: inf
ROOT
ATOM      1  C   UNL     1       6.758  45.644  10.166  1.00  0.00     0.011 C 
ATOM      2  C   UNL     1       6.670  44.880   8.826  1.00  0.00    -0.035 C 
ATOM      3  C   UNL     1       5.189  44.863   8.339  1.00  0.00     0.007 C 
ATOM      4  C   UNL     1       4.834  43.560   7.609  1.00  0.00     0.008 C 
ATOM      5  C   UNL     1       4.932  42.302   8.537  1.00  0.00    -0.026 C 
ATOM      6  C   UNL     1       4.983  41.028   7.624  1.00  0.00     0.008 C 
ATOM      7  C   UNL     1       6.349  40.337   7.585  1.00  0.00     0.012 C 
ATOM      8  C   UNL     1       6.845  39.897   8.998  1.00  0.00    -0.006 C 
ATOM      9  C   UNL     1       6.865  41.119   9.897  1.00  0.00    -0.064 C 
ATOM     10  C   UNL     1       7.560  41.079  11.045  1.00  0.00    -0.027 C 
ATOM     11  C   UNL     1       8.671  40.107  11.320  1.00  0.00     0.032 C 
ATOM     12  C   UNL     1       8.859  38.876  10.361  1.00  0.00     0.006 C 
ATOM     13  C   UNL     1       8.311  39.232   8.911  1.00  0.00    -0.020 C 
ATOM     14  C   UNL     1       9.339  40.246   8.258  1.00  0.00     0.008 C 
ATOM     15  C   UNL     1      10.836  40.034   8.611  1.00  0.00     0.005 C 
ATOM     16  C   UNL     1      11.121  38.589   9.053  1.00  0.00     0.003 C 
ATOM     17  C   UNL     1      10.367  38.260  10.400  1.00  0.00    -0.025 C 
ATOM     18  C   UNL     1      10.339  36.694  10.585  1.00  0.00     0.010 C 
ATOM     19  C   UNL     1      11.426  35.922   9.793  1.00  0.00     0.033 C 
ATOM     20  C   UNL     1      12.766  36.691   9.679  1.00  0.00     0.120 C 
ATOM     21  C   UNL     1      12.615  38.072   8.927  1.00  0.00    -0.006 C 
ATOM     22  C   UNL     1      12.951  37.883   7.415  1.00  0.00     0.014 C 
ATOM     23  C   UNL     1      13.647  39.087   9.481  1.00  0.00     0.014 C 
ATOM     24  C   UNL     1      11.159  38.810  11.636  1.00  0.00     0.012 C 
ATOM     25  C   UNL     1       8.199  37.943   8.009  1.00  0.00     0.012 C 
ATOM     26  C   UNL     1       6.165  42.434   9.525  1.00  0.00     0.022 C 
ATOM     27  C   UNL     1       7.227  43.435   9.003  1.00  0.00     0.015 C 
ATOM     28  C   UNL     1       5.788  38.924   9.627  1.00  0.00     0.017 C 
ATOM     29  C   UNL     1       3.627  42.228   9.377  1.00  0.00     0.012 C 
ATOM     30  C   UNL     1       7.545  45.623   7.792  1.00  0.00     0.011 C 
ENDROOT
BRANCH  20  31
ATOM     31  O   UNL     1      13.766  35.877   9.108  1.00  0.00    -0.393 OA
ATOM     32  H   UNL     1      14.508  36.460   8.799  1.00  0.00     0.210 HD
ENDBRANCH  20  31
TORSDOF 1
ENDMDL
MODEL 2
REMARK VINA RESULT:    -5.952      3.386      6.281
REMARK INTER + INTRA:          -6.126
REMARK INTER:                  -6.126
REMARK INTRA:                   0.000
REMARK UNBOUND:                 0.000
REMARK SMILES CC1(C)CC[C@@]2(C)CC[C@]3(C)C(=CC[C@@H]4[C@@]5(C)CC[C@@H](O)C(C)(C)[C@@H]5CC[C@@]43C)[C@H]2C1
REMARK SMILES IDX 1 1 2 2 4 3 5 4 6 5 8 6 9 7 10 8 12 9 13 10 14 11 15 12
REMARK SMILES IDX 28 13 27 14 26 15 25 16 16 17 18 18 19 19 20 20 22 21 23 22
REMARK SMILES IDX 24 23 17 24 29 25 30 26 31 27 11 28 7 29 3 30 21 31
REMARK H PARENT 21 32
REMARK Flexibility Score: inf
ROOT
ATOM      1  C   UNL     1       5.500  37.861   7.126  1.00  0.00     0.011 C 
ATOM      2  C   UNL     1       6.888  37.359   7.581  1.00  0.00    -0.035 C 
ATOM      3  C   UNL     1       6.722  36.018   8.359  1.00  0.00     0.007 C 
ATOM      4  C   UNL     1       7.743  35.878   9.498  1.00  0.00     0.008 C 
ATOM      5  C   UNL     1       7.567  36.972  10.604  1.00  0.00    -0.026 C 
ATOM      6  C   UNL     1       8.881  37.015  11.458  1.00  0.00     0.008 C 
ATOM      7  C   UNL     1       9.737  38.264  11.235  1.00  0.00     0.012 C 
ATOM      8  C   UNL     1       8.966  39.588  11.531  1.00  0.00    -0.006 C 
ATOM      9  C   UNL     1       7.713  39.610  10.676  1.00  0.00    -0.064 C 
ATOM     10  C   UNL     1       7.062  40.770  10.495  1.00  0.00    -0.027 C 
ATOM     11  C   UNL     1       7.685  42.123  10.692  1.00  0.00     0.032 C 
ATOM     12  C   UNL     1       9.071  42.221  11.427  1.00  0.00     0.006 C 
ATOM     13  C   UNL     1       9.889  40.872  11.221  1.00  0.00    -0.020 C 
ATOM     14  C   UNL     1      10.380  40.848   9.715  1.00  0.00     0.008 C 
ATOM     15  C   UNL     1      10.760  42.218   9.091  1.00  0.00     0.005 C 
ATOM     16  C   UNL     1      11.134  43.253  10.166  1.00  0.00     0.003 C 
ATOM     17  C   UNL     1       9.886  43.586  11.073  1.00  0.00    -0.025 C 
ATOM     18  C   UNL     1      10.401  44.300  12.383  1.00  0.00     0.010 C 
ATOM     19  C   UNL     1      11.798  44.960  12.263  1.00  0.00     0.033 C 
ATOM     20  C   UNL     1      12.076  45.560  10.862  1.00  0.00     0.120 C 
ATOM     21  C   UNL     1      12.035  44.476   9.714  1.00  0.00    -0.006 C 
ATOM     22  C   UNL     1      13.480  43.956   9.436  1.00  0.00     0.014 C 
ATOM     23  C   UNL     1      11.544  45.126   8.396  1.00  0.00     0.014 C 
ATOM     24  C   UNL     1       8.946  44.629  10.375  1.00  0.00     0.012 C 
ATOM     25  C   UNL     1      11.138  40.808  12.182  1.00  0.00     0.012 C 
ATOM     26  C   UNL     1       7.179  38.366   9.953  1.00  0.00     0.022 C 
ATOM     27  C   UNL     1       7.582  38.444   8.459  1.00  0.00     0.015 C 
ATOM     28  C   UNL     1       8.465  39.561  13.017  1.00  0.00     0.017 C 
ATOM     29  C   UNL     1       6.410  36.522  11.539  1.00  0.00     0.012 C 
ATOM     30  C   UNL     1       7.748  37.120   6.320  1.00  0.00     0.011 C 
ENDROOT
BRANCH  20  31
ATOM     31  O   UNL     1      13.278  46.297  10.860  1.00  0.00    -0.393 OA
ATOM     32  H   UNL     1      14.010  45.708  11.180  1.00  0.00     0.210 HD
ENDBRANCH  20  31
TORSDOF 1
ENDMDL
MODEL 3
REMARK VINA RESULT:    -5.899      3.268      5.820
REMARK INTER + INTRA:          -6.071
REMARK INTER:                  -6.071
REMARK INTRA:                   0.000
REMARK UNBOUND:                 0.000
REMARK SMILES CC1(C)CC[C@@]2(C)CC[C@]3(C)C(=CC[C@@H]4[C@@]5(C)CC[C@@H](O)C(C)(C)[C@@H]5CC[C@@]43C)[C@H]2C1
REMARK SMILES IDX 1 1 2 2 4 3 5 4 6 5 8 6 9 7 10 8 12 9 13 10 14 11 15 12
REMARK SMILES IDX 28 13 27 14 26 15 25 16 16 17 18 18 19 19 20 20 22 21 23 22
REMARK SMILES IDX 24 23 17 24 29 25 30 26 31 27 11 28 7 29 3 30 21 31
REMARK H PARENT 21 32
REMARK Flexibility Score: inf
ROOT
ATOM      1  C   UNL     1      12.250  45.053   6.359  1.00  0.00     0.011 C 
ATOM      2  C   UNL     1      11.474  45.268   7.677  1.00  0.00    -0.035 C 
ATOM      3  C   UNL     1      12.372  46.054   8.681  1.00  0.00     0.007 C 
ATOM      4  C   UNL     1      12.135  45.617  10.134  1.00  0.00     0.008 C 
ATOM      5  C   UNL     1      12.522  44.120  10.385  1.00  0.00    -0.026 C 
ATOM      6  C   UNL     1      11.852  43.664  11.728  1.00  0.00     0.008 C 
ATOM      7  C   UNL     1      10.687  42.687  11.550  1.00  0.00     0.012 C 
ATOM      8  C   UNL     1      11.098  41.387  10.789  1.00  0.00    -0.006 C 
ATOM      9  C   UNL     1      11.699  41.787   9.454  1.00  0.00    -0.064 C 
ATOM     10  C   UNL     1      11.820  40.865   8.487  1.00  0.00    -0.027 C 
ATOM     11  C   UNL     1      11.027  39.591   8.435  1.00  0.00     0.032 C 
ATOM     12  C   UNL     1      10.223  39.145   9.711  1.00  0.00     0.006 C 
ATOM     13  C   UNL     1       9.826  40.421  10.573  1.00  0.00    -0.020 C 
ATOM     14  C   UNL     1       8.683  41.183   9.783  1.00  0.00     0.008 C 
ATOM     15  C   UNL     1       7.678  40.297   8.999  1.00  0.00     0.005 C 
ATOM     16  C   UNL     1       7.613  38.867   9.564  1.00  0.00     0.003 C 
ATOM     17  C   UNL     1       8.995  38.130   9.369  1.00  0.00    -0.025 C 
ATOM     18  C   UNL     1       9.021  36.865  10.312  1.00  0.00     0.010 C 
ATOM     19  C   UNL     1       7.628  36.350  10.755  1.00  0.00     0.033 C 
ATOM     20  C   UNL     1       6.538  36.515   9.666  1.00  0.00     0.120 C 
ATOM     21  C   UNL     1       6.306  38.024   9.258  1.00  0.00    -0.006 C 
ATOM     22  C   UNL     1       5.126  38.614  10.091  1.00  0.00     0.014 C 
ATOM     23  C   UNL     1       5.876  38.105   7.772  1.00  0.00     0.014 C 
ATOM     24  C   UNL     1       9.131  37.564   7.914  1.00  0.00     0.012 C 
ATOM     25  C   UNL     1       9.293  40.006  11.998  1.00  0.00     0.012 C 
ATOM     26  C   UNL     1      12.128  43.226   9.136  1.00  0.00     0.022 C 
ATOM     27  C   UNL     1      11.034  43.892   8.263  1.00  0.00     0.015 C 
ATOM     28  C   UNL     1      12.253  40.681  11.580  1.00  0.00     0.017 C 
ATOM     29  C   UNL     1      14.061  44.053  10.579  1.00  0.00     0.012 C 
ATOM     30  C   UNL     1      10.209  46.096   7.359  1.00  0.00     0.011 C 
ENDROOT
BRANCH  20  31
ATOM     31  O   UNL     1       5.342  35.875  10.051  1.00  0.00    -0.393 OA
ATOM     32  H   UNL     1       5.483  34.893  10.014  1.00  0.00     0.210 HD
ENDBRANCH  20  31
TORSDOF 1
ENDMDL
MODEL 4
REMARK VINA RESULT:    -5.487      5.879      8.988
REMARK INTER + INTRA:          -5.648
REMARK INTER:                  -5.648
REMARK INTRA:                   0.000
REMARK UNBOUND:                 0.000
REMARK SMILES CC1(C)CC[C@@]2(C)CC[C@]3(C)C(=CC[C@@H]4[C@@]5(C)CC[C@@H](O)C(C)(C)[C@@H]5CC[C@@]43C)[C@H]2C1
REMARK SMILES IDX 1 1 2 2 4 3 5 4 6 5 8 6 9 7 10 8 12 9 13 10 14 11 15 12
REMARK SMILES IDX 28 13 27 14 26 15 25 16 16 17 18 18 19 19 20 20 22 21 23 22
REMARK SMILES IDX 24 23 17 24 29 25 30 26 31 27 11 28 7 29 3 30 21 31
REMARK H PARENT 21 32
REMARK Flexibility Score: inf
ROOT
ATOM      1  C   UNL     1       9.645  46.000   0.441  1.00  0.00     0.011 C 
ATOM      2  C   UNL     1       9.475  47.179   1.424  1.00  0.00    -0.035 C 
ATOM      3  C   UNL     1      10.091  48.466   0.798  1.00  0.00     0.007 C 
ATOM      4  C   UNL     1      10.731  49.377   1.856  1.00  0.00     0.008 C 
ATOM      5  C   UNL     1      11.944  48.700   2.581  1.00  0.00    -0.026 C 
ATOM      6  C   UNL     1      12.233  49.504   3.896  1.00  0.00     0.008 C 
ATOM      7  C   UNL     1      11.851  48.765   5.181  1.00  0.00     0.012 C 
ATOM      8  C   UNL     1      12.575  47.390   5.327  1.00  0.00    -0.006 C 
ATOM      9  C   UNL     1      12.269  46.559   4.095  1.00  0.00    -0.064 C 
ATOM     10  C   UNL     1      12.490  45.235   4.125  1.00  0.00    -0.027 C 
ATOM     11  C   UNL     1      12.595  44.429   5.388  1.00  0.00     0.032 C 
ATOM     12  C   UNL     1      12.754  45.183   6.759  1.00  0.00     0.006 C 
ATOM     13  C   UNL     1      12.093  46.626   6.662  1.00  0.00    -0.020 C 
ATOM     14  C   UNL     1      10.522  46.421   6.644  1.00  0.00     0.008 C 
ATOM     15  C   UNL     1       9.969  45.250   7.500  1.00  0.00     0.005 C 
ATOM     16  C   UNL     1      10.936  44.860   8.631  1.00  0.00     0.003 C 
ATOM     17  C   UNL     1      12.283  44.289   8.037  1.00  0.00    -0.025 C 
ATOM     18  C   UNL     1      13.374  44.303   9.177  1.00  0.00     0.010 C 
ATOM     19  C   UNL     1      12.812  44.334  10.620  1.00  0.00     0.033 C 
ATOM     20  C   UNL     1      11.493  43.537  10.784  1.00  0.00     0.120 C 
ATOM     21  C   UNL     1      10.326  44.096   9.878  1.00  0.00    -0.006 C 
ATOM     22  C   UNL     1       9.460  45.099  10.702  1.00  0.00     0.014 C 
ATOM     23  C   UNL     1       9.382  42.939   9.466  1.00  0.00     0.014 C 
ATOM     24  C   UNL     1      12.125  42.782   7.633  1.00  0.00     0.012 C 
ATOM     25  C   UNL     1      12.492  47.522   7.897  1.00  0.00     0.012 C 
ATOM     26  C   UNL     1      11.661  47.159   2.820  1.00  0.00     0.022 C 
ATOM     27  C   UNL     1      10.146  46.831   2.788  1.00  0.00     0.015 C 
ATOM     28  C   UNL     1      14.125  47.628   5.305  1.00  0.00     0.017 C 
ATOM     29  C   UNL     1      13.186  48.841   1.659  1.00  0.00     0.012 C 
ATOM     30  C   UNL     1       7.963  47.392   1.659  1.00  0.00     0.011 C 
ENDROOT
BRANCH  20  31
ATOM     31  O   UNL     1      11.122  43.451  12.142  1.00  0.00    -0.393 OA
ATOM     32  H   UNL     1      10.418  42.758  12.234  1.00  0.00     0.210 HD
ENDBRANCH  20  31
TORSDOF 1
ENDMDL
MODEL 5
REMARK VINA RESULT:    -5.324      6.655     10.416
REMARK INTER + INTRA:          -5.479
REMARK INTER:                  -5.479
REMARK INTRA:                   0.000
REMARK UNBOUND:                 0.000
REMARK SMILES CC1(C)CC[C@@]2(C)CC[C@]3(C)C(=CC[C@@H]4[C@@]5(C)CC[C@@H](O)C(C)(C)[C@@H]5CC[C@@]43C)[C@H]2C1
REMARK SMILES IDX 1 1 2 2 4 3 5 4 6 5 8 6 9 7 10 8 12 9 13 10 14 11 15 12
REMARK SMILES IDX 28 13 27 14 26 15 25 16 16 17 18 18 19 19 20 20 22 21 23 22
REMARK SMILES IDX 24 23 17 24 29 25 30 26 31 27 11 28 7 29 3 30 21 31
REMARK H PARENT 21 32
REMARK Flexibility Score: inf
ROOT
ATOM      1  C   UNL     1       7.015  46.747   9.141  1.00  0.00     0.011 C 
ATOM      2  C   UNL     1       7.662  45.593   8.344  1.00  0.00    -0.035 C 
ATOM      3  C   UNL     1       8.217  44.528   9.338  1.00  0.00     0.007 C 
ATOM      4  C   UNL     1       9.504  43.869   8.821  1.00  0.00     0.008 C 
ATOM      5  C   UNL     1      10.686  44.886   8.671  1.00  0.00    -0.026 C 
ATOM      6  C   UNL     1      11.775  44.232   7.752  1.00  0.00     0.008 C 
ATOM      7  C   UNL     1      11.880  44.856   6.358  1.00  0.00     0.012 C 
ATOM      8  C   UNL     1      12.188  46.385   6.401  1.00  0.00    -0.006 C 
ATOM      9  C   UNL     1      11.117  47.063   7.236  1.00  0.00    -0.064 C 
ATOM     10  C   UNL     1      10.962  48.393   7.151  1.00  0.00    -0.027 C 
ATOM     11  C   UNL     1      11.445  49.224   5.996  1.00  0.00     0.032 C 
ATOM     12  C   UNL     1      12.439  48.581   4.962  1.00  0.00     0.006 C 
ATOM     13  C   UNL     1      12.226  47.005   4.913  1.00  0.00    -0.020 C 
ATOM     14  C   UNL     1      10.852  46.742   4.170  1.00  0.00     0.008 C 
ATOM     15  C   UNL     1      10.491  47.719   3.019  1.00  0.00     0.005 C 
ATOM     16  C   UNL     1      11.740  48.400   2.434  1.00  0.00     0.003 C 
ATOM     17  C   UNL     1      12.425  49.327   3.513  1.00  0.00    -0.025 C 
ATOM     18  C   UNL     1      13.889  49.658   3.027  1.00  0.00     0.010 C 
ATOM     19  C   UNL     1      14.125  49.497   1.504  1.00  0.00     0.033 C 
ATOM     20  C   UNL     1      12.891  49.877   0.647  1.00  0.00     0.120 C 
ATOM     21  C   UNL     1      11.629  48.981   0.963  1.00  0.00    -0.006 C 
ATOM     22  C   UNL     1      11.571  47.788  -0.041  1.00  0.00     0.014 C 
ATOM     23  C   UNL     1      10.334  49.802   0.741  1.00  0.00     0.014 C 
ATOM     24  C   UNL     1      11.696  50.712   3.609  1.00  0.00     0.012 C 
ATOM     25  C   UNL     1      13.394  46.294   4.128  1.00  0.00     0.012 C 
ATOM     26  C   UNL     1      10.154  46.283   8.141  1.00  0.00     0.022 C 
ATOM     27  C   UNL     1       8.787  46.152   7.421  1.00  0.00     0.015 C 
ATOM     28  C   UNL     1      13.534  46.610   7.173  1.00  0.00     0.017 C 
ATOM     29  C   UNL     1      11.315  45.094  10.075  1.00  0.00     0.012 C 
ATOM     30  C   UNL     1       6.571  44.952   7.458  1.00  0.00     0.011 C 
ENDROOT
BRANCH  20  31
ATOM     31  O   UNL     1      13.214  49.882  -0.726  1.00  0.00    -0.393 OA
ATOM     32  H   UNL     1      12.396  50.105  -1.242  1.00  0.00     0.210 HD
ENDBRANCH  20  31
TORSDOF 1
ENDMDL
MODEL 6
REMARK VINA RESULT:    -5.243      3.532      6.559
REMARK INTER + INTRA:          -5.396
REMARK INTER:                  -5.396
REMARK INTRA:                   0.000
REMARK UNBOUND:                 0.000
REMARK SMILES CC1(C)CC[C@@]2(C)CC[C@]3(C)C(=CC[C@@H]4[C@@]5(C)CC[C@@H](O)C(C)(C)[C@@H]5CC[C@@]43C)[C@H]2C1
REMARK SMILES IDX 1 1 2 2 4 3 5 4 6 5 8 6 9 7 10 8 12 9 13 10 14 11 15 12
REMARK SMILES IDX 28 13 27 14 26 15 25 16 16 17 18 18 19 19 20 20 22 21 23 22
REMARK SMILES IDX 24 23 17 24 29 25 30 26 31 27 11 28 7 29 3 30 21 31
REMARK H PARENT 21 32
REMARK Flexibility Score: inf
ROOT
ATOM      1  C   UNL     1       5.501  38.173   9.897  1.00  0.00     0.011 C 
ATOM      2  C   UNL     1       6.597  38.036   8.817  1.00  0.00    -0.035 C 
ATOM      3  C   UNL     1       7.032  36.543   8.711  1.00  0.00     0.007 C 
ATOM      4  C   UNL     1       8.527  36.396   8.390  1.00  0.00     0.008 C 
ATOM      5  C   UNL     1       9.447  36.970   9.520  1.00  0.00    -0.026 C 
ATOM      6  C   UNL     1      10.882  37.170   8.922  1.00  0.00     0.008 C 
ATOM      7  C   UNL     1      11.278  38.634   8.713  1.00  0.00     0.012 C 
ATOM      8  C   UNL     1      11.219  39.471  10.028  1.00  0.00    -0.006 C 
ATOM      9  C   UNL     1       9.821  39.349  10.607  1.00  0.00    -0.064 C 
ATOM     10  C   UNL     1       9.417  40.228  11.537  1.00  0.00    -0.027 C 
ATOM     11  C   UNL     1      10.044  41.578  11.747  1.00  0.00     0.032 C 
ATOM     12  C   UNL     1      11.425  41.888  11.064  1.00  0.00     0.006 C 
ATOM     13  C   UNL     1      11.583  41.016   9.743  1.00  0.00    -0.020 C 
ATOM     14  C   UNL     1      10.600  41.624   8.660  1.00  0.00     0.008 C 
ATOM     15  C   UNL     1      10.413  43.165   8.685  1.00  0.00     0.005 C 
ATOM     16  C   UNL     1      11.603  43.875   9.352  1.00  0.00     0.003 C 
ATOM     17  C   UNL     1      11.701  43.483  10.878  1.00  0.00    -0.025 C 
ATOM     18  C   UNL     1      13.135  43.879  11.402  1.00  0.00     0.010 C 
ATOM     19  C   UNL     1      13.862  44.961  10.564  1.00  0.00     0.033 C 
ATOM     20  C   UNL     1      12.905  46.025   9.970  1.00  0.00     0.120 C 
ATOM     21  C   UNL     1      11.833  45.402   8.991  1.00  0.00    -0.006 C 
ATOM     22  C   UNL     1      12.350  45.495   7.522  1.00  0.00     0.014 C 
ATOM     23  C   UNL     1      10.526  46.232   9.049  1.00  0.00     0.014 C 
ATOM     24  C   UNL     1      10.697  44.324  11.740  1.00  0.00     0.012 C 
ATOM     25  C   UNL     1      13.062  41.066   9.198  1.00  0.00     0.012 C 
ATOM     26  C   UNL     1       8.817  38.290  10.134  1.00  0.00     0.022 C 
ATOM     27  C   UNL     1       7.804  38.957   9.169  1.00  0.00     0.015 C 
ATOM     28  C   UNL     1      12.176  38.821  11.087  1.00  0.00     0.017 C 
ATOM     29  C   UNL     1       9.547  35.899  10.641  1.00  0.00     0.012 C 
ATOM     30  C   UNL     1       6.002  38.497   7.469  1.00  0.00     0.011 C 
ENDROOT
BRANCH  20  31
ATOM     31  O   UNL     1      13.630  47.075   9.370  1.00  0.00    -0.393 OA
ATOM     32  H   UNL     1      13.650  46.925   8.389  1.00  0.00     0.210 HD
ENDBRANCH  20  31
TORSDOF 1
ENDMDL
MODEL 7
REMARK VINA RESULT:    -5.012     10.408     15.068
REMARK INTER + INTRA:          -5.159
REMARK INTER:                  -5.159
REMARK INTRA:                   0.000
REMARK UNBOUND:                 0.000
REMARK SMILES CC1(C)CC[C@@]2(C)CC[C@]3(C)C(=CC[C@@H]4[C@@]5(C)CC[C@@H](O)C(C)(C)[C@@H]5CC[C@@]43C)[C@H]2C1
REMARK SMILES IDX 1 1 2 2 4 3 5 4 6 5 8 6 9 7 10 8 12 9 13 10 14 11 15 12
REMARK SMILES IDX 28 13 27 14 26 15 25 16 16 17 18 18 19 19 20 20 22 21 23 22
REMARK SMILES IDX 24 23 17 24 29 25 30 26 31 27 11 28 7 29 3 30 21 31
REMARK H PARENT 21 32
REMARK Flexibility Score: inf
ROOT
ATOM      1  C   UNL     1      13.246  49.782   7.493  1.00  0.00     0.011 C 
ATOM      2  C   UNL     1      11.962  49.345   6.753  1.00  0.00    -0.035 C 
ATOM      3  C   UNL     1      11.860  47.789   6.774  1.00  0.00     0.007 C 
ATOM      4  C   UNL     1      11.227  47.232   5.491  1.00  0.00     0.008 C 
ATOM      5  C   UNL     1      12.087  47.529   4.216  1.00  0.00    -0.026 C 
ATOM      6  C   UNL     1      11.176  47.321   2.957  1.00  0.00     0.008 C 
ATOM      7  C   UNL     1      10.790  48.617   2.239  1.00  0.00     0.012 C 
ATOM      8  C   UNL     1      12.029  49.439   1.765  1.00  0.00    -0.006 C 
ATOM      9  C   UNL     1      12.909  49.711   2.972  1.00  0.00    -0.064 C 
ATOM     10  C   UNL     1      13.846  50.668   2.899  1.00  0.00    -0.027 C 
ATOM     11  C   UNL     1      13.826  51.790   1.900  1.00  0.00     0.032 C 
ATOM     12  C   UNL     1      12.836  51.704   0.682  1.00  0.00     0.006 C 
ATOM     13  C   UNL     1      11.572  50.821   1.073  1.00  0.00    -0.020 C 
ATOM     14  C   UNL     1      10.695  51.677   2.076  1.00  0.00     0.008 C 
ATOM     15  C   UNL     1      10.661  53.210   1.829  1.00  0.00     0.005 C 
ATOM     16  C   UNL     1      11.002  53.561   0.370  1.00  0.00     0.003 C 
ATOM     17  C   UNL     1      12.491  53.159   0.035  1.00  0.00    -0.025 C 
ATOM     18  C   UNL     1      12.659  53.141  -1.534  1.00  0.00     0.010 C 
ATOM     19  C   UNL     1      11.614  53.977  -2.314  1.00  0.00     0.033 C 
ATOM     20  C   UNL     1      11.178  55.265  -1.570  1.00  0.00     0.120 C 
ATOM     21  C   UNL     1      10.502  54.964  -0.174  1.00  0.00    -0.006 C 
ATOM     22  C   UNL     1       8.952  54.909  -0.345  1.00  0.00     0.014 C 
ATOM     23  C   UNL     1      10.792  56.125   0.810  1.00  0.00     0.014 C 
ATOM     24  C   UNL     1      13.497  54.247   0.548  1.00  0.00     0.012 C 
ATOM     25  C   UNL     1      10.712  50.457  -0.198  1.00  0.00     0.012 C 
ATOM     26  C   UNL     1      12.738  48.972   4.306  1.00  0.00     0.022 C 
ATOM     27  C   UNL     1      11.978  49.894   5.294  1.00  0.00     0.015 C 
ATOM     28  C   UNL     1      12.891  48.549   0.804  1.00  0.00     0.017 C 
ATOM     29  C   UNL     1      13.225  46.473   4.154  1.00  0.00     0.012 C 
ATOM     30  C   UNL     1      10.751  49.952   7.495  1.00  0.00     0.011 C 
ENDROOT
BRANCH  20  31
ATOM     31  O   UNL     1      10.366  56.072  -2.394  1.00  0.00    -0.393 OA
ATOM     32  H   UNL     1      10.865  56.271  -3.230  1.00  0.00     0.210 HD
ENDBRANCH  20  31
TORSDOF 1
ENDMDL
MODEL 8
REMARK VINA RESULT:    -4.991      4.408      8.242
REMARK INTER + INTRA:          -5.137
REMARK INTER:                  -5.137
REMARK INTRA:                   0.000
REMARK UNBOUND:                 0.000
REMARK SMILES CC1(C)CC[C@@]2(C)CC[C@]3(C)C(=CC[C@@H]4[C@@]5(C)CC[C@@H](O)C(C)(C)[C@@H]5CC[C@@]43C)[C@H]2C1
REMARK SMILES IDX 1 1 2 2 4 3 5 4 6 5 8 6 9 7 10 8 12 9 13 10 14 11 15 12
REMARK SMILES IDX 28 13 27 14 26 15 25 16 16 17 18 18 19 19 20 20 22 21 23 22
REMARK SMILES IDX 24 23 17 24 29 25 30 26 31 27 11 28 7 29 3 30 21 31
REMARK H PARENT 21 32
REMARK Flexibility Score: inf
ROOT
ATOM      1  C   UNL     1       8.607  38.837   8.879  1.00  0.00     0.011 C 
ATOM      2  C   UNL     1      10.035  39.221   9.324  1.00  0.00    -0.035 C 
ATOM      3  C   UNL     1      10.266  38.738  10.788  1.00  0.00     0.007 C 
ATOM      4  C   UNL     1      11.165  39.698  11.580  1.00  0.00     0.008 C 
ATOM      5  C   UNL     1      10.526  41.117  11.756  1.00  0.00    -0.026 C 
ATOM      6  C   UNL     1      11.663  42.114  12.171  1.00  0.00     0.008 C 
ATOM      7  C   UNL     1      12.057  43.109  11.077  1.00  0.00     0.012 C 
ATOM      8  C   UNL     1      10.856  43.977  10.586  1.00  0.00    -0.006 C 
ATOM      9  C   UNL     1       9.754  43.044  10.119  1.00  0.00    -0.064 C 
ATOM     10  C   UNL     1       8.766  43.527   9.351  1.00  0.00    -0.027 C 
ATOM     11  C   UNL     1       8.868  44.792   8.547  1.00  0.00     0.032 C 
ATOM     12  C   UNL     1      10.064  45.774   8.825  1.00  0.00     0.006 C 
ATOM     13  C   UNL     1      11.309  44.962   9.393  1.00  0.00    -0.020 C 
ATOM     14  C   UNL     1      11.914  44.130   8.189  1.00  0.00     0.008 C 
ATOM     15  C   UNL     1      11.859  44.800   6.789  1.00  0.00     0.005 C 
ATOM     16  C   UNL     1      11.757  46.331   6.892  1.00  0.00     0.003 C 
ATOM     17  C   UNL     1      10.393  46.753   7.565  1.00  0.00    -0.025 C 
ATOM     18  C   UNL     1      10.511  48.257   8.027  1.00  0.00     0.010 C 
ATOM     19  C   UNL     1      11.603  49.081   7.299  1.00  0.00     0.033 C 
ATOM     20  C   UNL     1      11.785  48.684   5.813  1.00  0.00     0.120 C 
ATOM     21  C   UNL     1      12.223  47.176   5.634  1.00  0.00    -0.006 C 
ATOM     22  C   UNL     1      13.777  47.093   5.525  1.00  0.00     0.014 C 
ATOM     23  C   UNL     1      11.661  46.622   4.300  1.00  0.00     0.014 C 
ATOM     24  C   UNL     1       9.220  46.730   6.524  1.00  0.00     0.012 C 
ATOM     25  C   UNL     1      12.411  45.933   9.967  1.00  0.00     0.012 C 
ATOM     26  C   UNL     1       9.746  41.543  10.442  1.00  0.00     0.022 C 
ATOM     27  C   UNL     1      10.233  40.761   9.195  1.00  0.00     0.015 C 
ATOM     28  C   UNL     1      10.262  44.758  11.809  1.00  0.00     0.017 C 
ATOM     29  C   UNL     1       9.513  41.040  12.931  1.00  0.00     0.012 C 
ATOM     30  C   UNL     1      11.036  38.514   8.383  1.00  0.00     0.011 C 
ENDROOT
BRANCH  20  31
ATOM     31  O   UNL     1      12.658  49.576   5.157  1.00  0.00    -0.393 OA
ATOM     32  H   UNL     1      13.547  49.529   5.597  1.00  0.00     0.210 HD
ENDBRANCH  20  31
TORSDOF 1
ENDMDL
MODEL 9
REMARK VINA RESULT:    -3.456      3.826      7.276
REMARK INTER + INTRA:          -3.557
REMARK INTER:                  -3.557
REMARK INTRA:                   0.000
REMARK UNBOUND:                 0.000
REMARK SMILES CC1(C)CC[C@@]2(C)CC[C@]3(C)C(=CC[C@@H]4[C@@]5(C)CC[C@@H](O)C(C)(C)[C@@H]5CC[C@@]43C)[C@H]2C1
REMARK SMILES IDX 1 1 2 2 4 3 5 4 6 5 8 6 9 7 10 8 12 9 13 10 14 11 15 12
REMARK SMILES IDX 28 13 27 14 26 15 25 16 16 17 18 18 19 19 20 20 22 21 23 22
REMARK SMILES IDX 24 23 17 24 29 25 30 26 31 27 11 28 7 29 3 30 21 31
REMARK H PARENT 21 32
REMARK Flexibility Score: inf
ROOT
ATOM      1  C   UNL     1       7.208  37.399   8.288  1.00  0.00     0.011 C 
ATOM      2  C   UNL     1       8.545  37.493   7.520  1.00  0.00    -0.035 C 
ATOM      3  C   UNL     1       9.257  36.107   7.554  1.00  0.00     0.007 C 
ATOM      4  C   UNL     1      10.786  36.242   7.619  1.00  0.00     0.008 C 
ATOM      5  C   UNL     1      11.274  36.941   8.933  1.00  0.00    -0.026 C 
ATOM      6  C   UNL     1      12.753  37.414   8.709  1.00  0.00     0.008 C 
ATOM      7  C   UNL     1      12.915  38.931   8.579  1.00  0.00     0.012 C 
ATOM      8  C   UNL     1      12.378  39.707   9.822  1.00  0.00    -0.006 C 
ATOM      9  C   UNL     1      10.926  39.317  10.035  1.00  0.00    -0.064 C 
ATOM     10  C   UNL     1      10.150  40.082  10.818  1.00  0.00    -0.027 C 
ATOM     11  C   UNL     1      10.447  41.516  11.154  1.00  0.00     0.032 C 
ATOM     12  C   UNL     1      11.875  42.091  10.832  1.00  0.00     0.006 C 
ATOM     13  C   UNL     1      12.513  41.299   9.609  1.00  0.00    -0.020 C 
ATOM     14  C   UNL     1      11.738  41.749   8.303  1.00  0.00     0.008 C 
ATOM     15  C   UNL     1      11.272  43.229   8.253  1.00  0.00     0.005 C 
ATOM     16  C   UNL     1      12.109  44.124   9.183  1.00  0.00     0.003 C 
ATOM     17  C   UNL     1      11.893  43.714  10.691  1.00  0.00    -0.025 C 
ATOM     18  C   UNL     1      13.054  44.348  11.550  1.00  0.00     0.010 C 
ATOM     19  C   UNL     1      13.758  45.567  10.901  1.00  0.00     0.033 C 
ATOM     20  C   UNL     1      12.802  46.456  10.067  1.00  0.00     0.120 C 
ATOM     21  C   UNL     1      12.139  45.677   8.863  1.00  0.00    -0.006 C 
ATOM     22  C   UNL     1      12.980  45.904   7.568  1.00  0.00     0.014 C 
ATOM     23  C   UNL     1      10.730  46.255   8.576  1.00  0.00     0.014 C 
ATOM     24  C   UNL     1      10.570  44.335  11.259  1.00  0.00     0.012 C 
ATOM     25  C   UNL     1      14.047  41.631   9.450  1.00  0.00     0.012 C 
ATOM     26  C   UNL     1      10.282  38.107   9.345  1.00  0.00     0.022 C 
ATOM     27  C   UNL     1       9.438  38.607   8.145  1.00  0.00     0.015 C 
ATOM     28  C   UNL     1      13.142  39.210  11.099  1.00  0.00     0.017 C 
ATOM     29  C   UNL     1      11.286  35.875  10.063  1.00  0.00     0.012 C 
ATOM     30  C   UNL     1       8.231  37.876   6.057  1.00  0.00     0.011 C 
ENDROOT
BRANCH  20  31
ATOM     31  O   UNL     1      13.449  47.637   9.648  1.00  0.00    -0.393 OA
ATOM     32  H   UNL     1      12.936  48.416   9.988  1.00  0.00     0.210 HD
ENDBRANCH  20  31
TORSDOF 1
ENDMDL
