MODEL 1
REMARK VINA RESULT:    -4.930      0.000      0.000
REMARK INTER + INTRA:          -9.136
REMARK INTER:                  -7.812
REMARK INTRA:                  -1.324
REMARK UNBOUND:                -1.324
REMARK SMILES CCCCCCCCCCCC(=O)[O-]
REMARK SMILES IDX 7 1 8 2 9 3 10 4 11 5 12 6 13 7 14 8 6 9 5 10 4 11 3 12 2 13
REMARK SMILES IDX 1 14
REMARK H PARENT
REMARK Flexibility Score: inf
ROOT
ATOM      1  C   UNL     1      24.258  12.399  34.081  1.00  0.00     0.000 C 
ENDROOT
BRANCH   1   2
ATOM      2  C   UNL     1      24.546  11.514  32.856  1.00  0.00     0.000 C 
BRANCH   2   3
ATOM      3  C   UNL     1      25.188  12.302  31.699  1.00  0.00     0.000 C 
BRANCH   3   4
ATOM      4  C   UNL     1      25.783  11.384  30.619  1.00  0.00     0.006 C 
BRANCH   4   5
ATOM      5  C   UNL     1      27.253  11.032  30.886  1.00  0.00     0.053 C 
BRANCH   5   6
ATOM      6  C   UNL     1      28.154  11.920  30.087  1.00  0.00     0.041 C 
ATOM      7  O   UNL     1      28.265  13.139  30.380  1.00  0.00    -0.550 OA
ATOM      8  O   UNL     1      28.836  11.411  28.988  1.00  0.00    -0.550 OA
ENDBRANCH   5   6
ENDBRANCH   4   5
ENDBRANCH   3   4
ENDBRANCH   2   3
ENDBRANCH   1   2
BRANCH   1   9
ATOM      9  C   UNL     1      25.148  12.046  35.285  1.00  0.00     0.000 C 
BRANCH   9  10
ATOM     10  C   UNL     1      26.357  11.176  34.898  1.00  0.00    -0.000 C 
BRANCH  10  11
ATOM     11  C   UNL     1      27.734  11.845  35.082  1.00  0.00    -0.000 C 
BRANCH  11  12
ATOM     12  C   UNL     1      28.195  12.727  33.908  1.00  0.00    -0.000 C 
BRANCH  12  13
ATOM     13  C   UNL     1      27.706  14.178  34.026  1.00  0.00    -0.003 C 
ATOM     14  C   UNL     1      27.760  14.659  35.473  1.00  0.00     0.004 C 
ENDBRANCH  12  13
ENDBRANCH  11  12
ENDBRANCH  10  11
ENDBRANCH   9  10
ENDBRANCH   1   9
TORSDOF 10
ENDMDL
MODEL 2
REMARK VINA RESULT:    -4.870      3.181      4.656
REMARK INTER + INTRA:          -9.041
REMARK INTER:                  -7.913
REMARK INTRA:                  -1.128
REMARK UNBOUND:                -1.324
REMARK SMILES CCCCCCCCCCCC(=O)[O-]
REMARK SMILES IDX 7 1 8 2 9 3 10 4 11 5 12 6 13 7 14 8 6 9 5 10 4 11 3 12 2 13
REMARK SMILES IDX 1 14
REMARK H PARENT
REMARK Flexibility Score: inf
ROOT
ATOM      1  C   UNL     1      26.229  10.919  30.213  1.00  0.00     0.000 C 
ENDROOT
BRANCH   1   2
ATOM      2  C   UNL     1      24.973  10.962  31.099  1.00  0.00     0.000 C 
BRANCH   2   3
ATOM      3  C   UNL     1      24.974  12.161  32.065  1.00  0.00     0.000 C 
BRANCH   3   4
ATOM      4  C   UNL     1      24.175  11.884  33.350  1.00  0.00     0.006 C 
BRANCH   4   5
ATOM      5  C   UNL     1      25.043  11.956  34.614  1.00  0.00     0.053 C 
BRANCH   5   6
ATOM      6  C   UNL     1      24.291  12.617  35.724  1.00  0.00     0.041 C 
ATOM      7  O   UNL     1      23.032  12.609  35.730  1.00  0.00    -0.550 OA
ATOM      8  O   UNL     1      24.980  13.286  36.730  1.00  0.00    -0.550 OA
ENDBRANCH   5   6
ENDBRANCH   4   5
ENDBRANCH   3   4
ENDBRANCH   2   3
ENDBRANCH   1   2
BRANCH   1   9
ATOM      9  C   UNL     1      27.526  11.106  31.020  1.00  0.00     0.000 C 
BRANCH   9  10
ATOM     10  C   UNL     1      28.396  12.260  30.491  1.00  0.00    -0.000 C 
BRANCH  10  11
ATOM     11  C   UNL     1      28.732  13.357  31.522  1.00  0.00    -0.000 C 
BRANCH  11  12
ATOM     12  C   UNL     1      28.393  13.006  32.982  1.00  0.00    -0.000 C 
BRANCH  12  13
ATOM     13  C   UNL     1      27.696  14.156  33.724  1.00  0.00    -0.003 C 
ATOM     14  C   UNL     1      28.012  14.118  35.216  1.00  0.00     0.004 C 
ENDBRANCH  12  13
ENDBRANCH  11  12
ENDBRANCH  10  11
ENDBRANCH   9  10
ENDBRANCH   1   9
TORSDOF 10
ENDMDL
MODEL 3
REMARK VINA RESULT:    -4.695      4.039      5.527
REMARK INTER + INTRA:          -8.764
REMARK INTER:                  -7.836
REMARK INTRA:                  -0.928
REMARK UNBOUND:                -1.324
REMARK SMILES CCCCCCCCCCCC(=O)[O-]
REMARK SMILES IDX 7 1 8 2 9 3 10 4 11 5 12 6 13 7 14 8 6 9 5 10 4 11 3 12 2 13
REMARK SMILES IDX 1 14
REMARK H PARENT
REMARK Flexibility Score: inf
ROOT
ATOM      1  C   UNL     1      25.272  11.128  32.556  1.00  0.00     0.000 C 
ENDROOT
BRANCH   1   2
ATOM      2  C   UNL     1      24.230  11.981  33.299  1.00  0.00     0.000 C 
BRANCH   2   3
ATOM      3  C   UNL     1      24.601  12.209  34.776  1.00  0.00     0.000 C 
BRANCH   3   4
ATOM      4  C   UNL     1      23.393  12.629  35.629  1.00  0.00     0.006 C 
BRANCH   4   5
ATOM      5  C   UNL     1      22.154  12.951  34.783  1.00  0.00     0.053 C 
BRANCH   5   6
ATOM      6  C   UNL     1      20.906  12.690  35.566  1.00  0.00     0.041 C 
ATOM      7  O   UNL     1      20.128  13.637  35.854  1.00  0.00    -0.550 OA
ATOM      8  O   UNL     1      20.627  11.407  36.021  1.00  0.00    -0.550 OA
ENDBRANCH   5   6
ENDBRANCH   4   5
ENDBRANCH   3   4
ENDBRANCH   2   3
ENDBRANCH   1   2
BRANCH   1   9
ATOM      9  C   UNL     1      26.149  11.964  31.607  1.00  0.00     0.000 C 
BRANCH   9  10
ATOM     10  C   UNL     1      27.655  11.745  31.838  1.00  0.00    -0.000 C 
BRANCH  10  11
ATOM     11  C   UNL     1      28.442  12.996  32.277  1.00  0.00    -0.000 C 
BRANCH  11  12
ATOM     12  C   UNL     1      27.721  13.897  33.296  1.00  0.00    -0.000 C 
BRANCH  12  13
ATOM     13  C   UNL     1      28.015  13.505  34.751  1.00  0.00    -0.003 C 
ATOM     14  C   UNL     1      27.588  14.609  35.714  1.00  0.00     0.004 C 
ENDBRANCH  12  13
ENDBRANCH  11  12
ENDBRANCH  10  11
ENDBRANCH   9  10
ENDBRANCH   1   9
TORSDOF 10
ENDMDL
MODEL 4
REMARK VINA RESULT:    -4.690      4.158      5.767
REMARK INTER + INTRA:          -8.755
REMARK INTER:                  -7.883
REMARK INTRA:                  -0.872
REMARK UNBOUND:                -1.324
REMARK SMILES CCCCCCCCCCCC(=O)[O-]
REMARK SMILES IDX 7 1 8 2 9 3 10 4 11 5 12 6 13 7 14 8 6 9 5 10 4 11 3 12 2 13
REMARK SMILES IDX 1 14
REMARK H PARENT
REMARK Flexibility Score: inf
ROOT
ATOM      1  C   UNL     1      24.744  11.888  33.552  1.00  0.00     0.000 C 
ENDROOT
BRANCH   1   2
ATOM      2  C   UNL     1      24.953  11.985  35.073  1.00  0.00     0.000 C 
BRANCH   2   3
ATOM      3  C   UNL     1      23.744  12.608  35.794  1.00  0.00     0.000 C 
BRANCH   3   4
ATOM      4  C   UNL     1      22.493  12.671  34.903  1.00  0.00     0.006 C 
BRANCH   4   5
ATOM      5  C   UNL     1      21.194  12.442  35.687  1.00  0.00     0.053 C 
BRANCH   5   6
ATOM      6  C   UNL     1      20.241  13.573  35.458  1.00  0.00     0.041 C 
ATOM      7  O   UNL     1      19.121  13.585  36.033  1.00  0.00    -0.550 OA
ATOM      8  O   UNL     1      20.570  14.590  34.569  1.00  0.00    -0.550 OA
ENDBRANCH   5   6
ENDBRANCH   4   5
ENDBRANCH   3   4
ENDBRANCH   2   3
ENDBRANCH   1   2
BRANCH   1   9
ATOM      9  C   UNL     1      26.035  11.515  32.803  1.00  0.00     0.000 C 
BRANCH   9  10
ATOM     10  C   UNL     1      26.666  12.712  32.069  1.00  0.00    -0.000 C 
BRANCH  10  11
ATOM     11  C   UNL     1      27.927  13.300  32.734  1.00  0.00    -0.000 C 
BRANCH  11  12
ATOM     12  C   UNL     1      28.464  12.503  33.936  1.00  0.00    -0.000 C 
BRANCH  12  13
ATOM     13  C   UNL     1      28.172  13.184  35.281  1.00  0.00    -0.003 C 
ATOM     14  C   UNL     1      27.681  14.615  35.075  1.00  0.00     0.004 C 
ENDBRANCH  12  13
ENDBRANCH  11  12
ENDBRANCH  10  11
ENDBRANCH   9  10
ENDBRANCH   1   9
TORSDOF 10
ENDMDL
MODEL 5
REMARK VINA RESULT:    -4.627      2.503      4.639
REMARK INTER + INTRA:          -8.656
REMARK INTER:                  -7.530
REMARK INTRA:                  -1.126
REMARK UNBOUND:                -1.324
REMARK SMILES CCCCCCCCCCCC(=O)[O-]
REMARK SMILES IDX 7 1 8 2 9 3 10 4 11 5 12 6 13 7 14 8 6 9 5 10 4 11 3 12 2 13
REMARK SMILES IDX 1 14
REMARK H PARENT
REMARK Flexibility Score: inf
ROOT
ATOM      1  C   UNL     1      27.448  11.181  30.959  1.00  0.00     0.000 C 
ENDROOT
BRANCH   1   2
ATOM      2  C   UNL     1      27.909  12.547  30.423  1.00  0.00     0.000 C 
BRANCH   2   3
ATOM      3  C   UNL     1      28.740  13.333  31.453  1.00  0.00     0.000 C 
BRANCH   3   4
ATOM      4  C   UNL     1      28.358  12.993  32.903  1.00  0.00     0.006 C 
BRANCH   4   5
ATOM      5  C   UNL     1      27.776  14.195  33.660  1.00  0.00     0.053 C 
BRANCH   5   6
ATOM      6  C   UNL     1      27.647  13.880  35.116  1.00  0.00     0.041 C 
ATOM      7  O   UNL     1      27.401  14.797  35.944  1.00  0.00    -0.550 OA
ATOM      8  O   UNL     1      27.847  12.581  35.567  1.00  0.00    -0.550 OA
ENDBRANCH   5   6
ENDBRANCH   4   5
ENDBRANCH   3   4
ENDBRANCH   2   3
ENDBRANCH   1   2
BRANCH   1   9
ATOM      9  C   UNL     1      26.107  10.732  30.352  1.00  0.00     0.000 C 
BRANCH   9  10
ATOM     10  C   UNL     1      25.003  10.557  31.409  1.00  0.00    -0.000 C 
BRANCH  10  11
ATOM     11  C   UNL     1      24.616  11.839  32.174  1.00  0.00    -0.000 C 
BRANCH  11  12
ATOM     12  C   UNL     1      24.921  11.817  33.683  1.00  0.00    -0.000 C 
BRANCH  12  13
ATOM     13  C   UNL     1      23.835  12.510  34.519  1.00  0.00    -0.003 C 
ATOM     14  C   UNL     1      24.249  12.605  35.985  1.00  0.00     0.004 C 
ENDBRANCH  12  13
ENDBRANCH  11  12
ENDBRANCH  10  11
ENDBRANCH   9  10
ENDBRANCH   1   9
TORSDOF 10
ENDMDL
MODEL 6
REMARK VINA RESULT:    -4.574      2.618      5.403
REMARK INTER + INTRA:          -8.572
REMARK INTER:                  -7.393
REMARK INTRA:                  -1.179
REMARK UNBOUND:                -1.324
REMARK SMILES CCCCCCCCCCCC(=O)[O-]
REMARK SMILES IDX 7 1 8 2 9 3 10 4 11 5 12 6 13 7 14 8 6 9 5 10 4 11 3 12 2 13
REMARK SMILES IDX 1 14
REMARK H PARENT
REMARK Flexibility Score: inf
ROOT
ATOM      1  C   UNL     1      28.765  13.357  31.481  1.00  0.00     0.000 C 
ENDROOT
BRANCH   1   2
ATOM      2  C   UNL     1      28.413  12.821  32.879  1.00  0.00     0.000 C 
BRANCH   2   3
ATOM      3  C   UNL     1      27.739  13.885  33.765  1.00  0.00     0.000 C 
BRANCH   3   4
ATOM      4  C   UNL     1      27.684  13.471  35.244  1.00  0.00     0.006 C 
BRANCH   4   5
ATOM      5  C   UNL     1      26.320  13.758  35.889  1.00  0.00     0.053 C 
BRANCH   5   6
ATOM      6  C   UNL     1      25.373  12.630  35.625  1.00  0.00     0.041 C 
ATOM      7  O   UNL     1      24.135  12.793  35.782  1.00  0.00    -0.550 OA
ATOM      8  O   UNL     1      25.862  11.384  35.253  1.00  0.00    -0.550 OA
ENDBRANCH   5   6
ENDBRANCH   4   5
ENDBRANCH   3   4
ENDBRANCH   2   3
ENDBRANCH   1   2
BRANCH   1   9
ATOM      9  C   UNL     1      28.543  12.310  30.375  1.00  0.00     0.000 C 
BRANCH   9  10
ATOM     10  C   UNL     1      27.592  11.179  30.807  1.00  0.00    -0.000 C 
BRANCH  10  11
ATOM     11  C   UNL     1      26.218  11.173  30.108  1.00  0.00    -0.000 C 
BRANCH  11  12
ATOM     12  C   UNL     1      25.296  12.352  30.470  1.00  0.00    -0.000 C 
BRANCH  12  13
ATOM     13  C   UNL     1      24.880  12.350  31.948  1.00  0.00    -0.003 C 
ATOM     14  C   UNL     1      23.897  11.221  32.241  1.00  0.00     0.004 C 
ENDBRANCH  12  13
ENDBRANCH  11  12
ENDBRANCH  10  11
ENDBRANCH   9  10
ENDBRANCH   1   9
TORSDOF 10
ENDMDL
MODEL 7
REMARK VINA RESULT:    -4.540      3.028      5.316
REMARK INTER + INTRA:          -8.518
REMARK INTER:                  -7.250
REMARK INTRA:                  -1.267
REMARK UNBOUND:                -1.324
REMARK SMILES CCCCCCCCCCCC(=O)[O-]
REMARK SMILES IDX 7 1 8 2 9 3 10 4 11 5 12 6 13 7 14 8 6 9 5 10 4 11 3 12 2 13
REMARK SMILES IDX 1 14
REMARK H PARENT
REMARK Flexibility Score: inf
ROOT
ATOM      1  C   UNL     1      28.084  13.948  33.619  1.00  0.00     0.000 C 
ENDROOT
BRANCH   1   2
ATOM      2  C   UNL     1      27.588  13.300  34.923  1.00  0.00     0.000 C 
BRANCH   2   3
ATOM      3  C   UNL     1      27.523  11.765  34.831  1.00  0.00     0.000 C 
BRANCH   3   4
ATOM      4  C   UNL     1      26.109  11.218  35.087  1.00  0.00     0.006 C 
BRANCH   4   5
ATOM      5  C   UNL     1      25.040  11.920  34.239  1.00  0.00     0.053 C 
BRANCH   5   6
ATOM      6  C   UNL     1      24.015  12.561  35.119  1.00  0.00     0.041 C 
ATOM      7  O   UNL     1      22.849  12.766  34.691  1.00  0.00    -0.550 OA
ATOM      8  O   UNL     1      24.360  12.977  36.400  1.00  0.00    -0.550 OA
ENDBRANCH   5   6
ENDBRANCH   4   5
ENDBRANCH   3   4
ENDBRANCH   2   3
ENDBRANCH   1   2
BRANCH   1   9
ATOM      9  C   UNL     1      28.754  12.934  32.675  1.00  0.00     0.000 C 
BRANCH   9  10
ATOM     10  C   UNL     1      28.592  13.303  31.190  1.00  0.00    -0.000 C 
BRANCH  10  11
ATOM     11  C   UNL     1      28.016  12.188  30.295  1.00  0.00    -0.000 C 
BRANCH  11  12
ATOM     12  C   UNL     1      27.230  11.093  31.038  1.00  0.00    -0.000 C 
BRANCH  12  13
ATOM     13  C   UNL     1      25.772  10.983  30.567  1.00  0.00    -0.003 C 
ATOM     14  C   UNL     1      25.071  12.337  30.632  1.00  0.00     0.004 C 
ENDBRANCH  12  13
ENDBRANCH  11  12
ENDBRANCH  10  11
ENDBRANCH   9  10
ENDBRANCH   1   9
TORSDOF 10
ENDMDL
MODEL 8
REMARK VINA RESULT:    -4.520      1.342      3.286
REMARK INTER + INTRA:          -8.486
REMARK INTER:                  -7.187
REMARK INTRA:                  -1.299
REMARK UNBOUND:                -1.324
REMARK SMILES CCCCCCCCCCCC(=O)[O-]
REMARK SMILES IDX 7 1 8 2 9 3 10 4 11 5 12 6 13 7 14 8 6 9 5 10 4 11 3 12 2 13
REMARK SMILES IDX 1 14
REMARK H PARENT
REMARK Flexibility Score: inf
ROOT
ATOM      1  C   UNL     1      27.783  12.209  34.878  1.00  0.00     0.000 C 
ENDROOT
BRANCH   1   2
ATOM      2  C   UNL     1      28.779  12.577  33.766  1.00  0.00     0.000 C 
BRANCH   2   3
ATOM      3  C   UNL     1      28.118  13.365  32.621  1.00  0.00     0.000 C 
BRANCH   3   4
ATOM      4  C   UNL     1      28.872  13.215  31.289  1.00  0.00     0.006 C 
BRANCH   4   5
ATOM      5  C   UNL     1      28.331  12.065  30.429  1.00  0.00     0.053 C 
BRANCH   5   6
ATOM      6  C   UNL     1      27.146  12.519  29.637  1.00  0.00     0.041 C 
ATOM      7  O   UNL     1      26.882  13.745  29.539  1.00  0.00    -0.550 OA
ATOM      8  O   UNL     1      26.304  11.584  29.047  1.00  0.00    -0.550 OA
ENDBRANCH   5   6
ENDBRANCH   4   5
ENDBRANCH   3   4
ENDBRANCH   2   3
ENDBRANCH   1   2
BRANCH   1   9
ATOM      9  C   UNL     1      27.111  13.446  35.500  1.00  0.00     0.000 C 
BRANCH   9  10
ATOM     10  C   UNL     1      25.621  13.220  35.811  1.00  0.00    -0.000 C 
BRANCH  10  11
ATOM     11  C   UNL     1      24.992  11.975  35.153  1.00  0.00    -0.000 C 
BRANCH  11  12
ATOM     12  C   UNL     1      24.034  12.268  33.984  1.00  0.00    -0.000 C 
BRANCH  12  13
ATOM     13  C   UNL     1      24.729  12.209  32.616  1.00  0.00    -0.003 C 
ATOM     14  C   UNL     1      25.389  10.852  32.393  1.00  0.00     0.004 C 
ENDBRANCH  12  13
ENDBRANCH  11  12
ENDBRANCH  10  11
ENDBRANCH   9  10
ENDBRANCH   1   9
TORSDOF 10
ENDMDL
MODEL 9
REMARK VINA RESULT:    -4.388      2.335      3.692
REMARK INTER + INTRA:          -8.277
REMARK INTER:                  -7.047
REMARK INTRA:                  -1.230
REMARK UNBOUND:                -1.324
REMARK SMILES CCCCCCCCCCCC(=O)[O-]
REMARK SMILES IDX 7 1 8 2 9 3 10 4 11 5 12 6 13 7 14 8 6 9 5 10 4 11 3 12 2 13
REMARK SMILES IDX 1 14
REMARK H PARENT
REMARK Flexibility Score: inf
ROOT
ATOM      1  C   UNL     1      28.324  13.084  32.400  1.00  0.00     0.000 C 
ENDROOT
BRANCH   1   2
ATOM      2  C   UNL     1      27.164  12.656  31.485  1.00  0.00     0.000 C 
BRANCH   2   3
ATOM      3  C   UNL     1      27.130  11.134  31.250  1.00  0.00     0.000 C 
BRANCH   3   4
ATOM      4  C   UNL     1      25.743  10.527  31.519  1.00  0.00     0.006 C 
BRANCH   4   5
ATOM      5  C   UNL     1      24.662  11.594  31.736  1.00  0.00     0.053 C 
BRANCH   5   6
ATOM      6  C   UNL     1      23.625  11.511  30.660  1.00  0.00     0.041 C 
ATOM      7  O   UNL     1      22.789  10.570  30.656  1.00  0.00    -0.550 OA
ATOM      8  O   UNL     1      23.613  12.447  29.633  1.00  0.00    -0.550 OA
ENDBRANCH   5   6
ENDBRANCH   4   5
ENDBRANCH   3   4
ENDBRANCH   2   3
ENDBRANCH   1   2
BRANCH   1   9
ATOM      9  C   UNL     1      27.855  13.955  33.578  1.00  0.00     0.000 C 
BRANCH   9  10
ATOM     10  C   UNL     1      27.916  13.216  34.927  1.00  0.00    -0.000 C 
BRANCH  10  11
ATOM     11  C   UNL     1      27.488  11.735  34.885  1.00  0.00    -0.000 C 
BRANCH  11  12
ATOM     12  C   UNL     1      25.988  11.481  35.122  1.00  0.00    -0.000 C 
BRANCH  12  13
ATOM     13  C   UNL     1      25.272  12.688  35.747  1.00  0.00    -0.003 C 
ATOM     14  C   UNL     1      23.761  12.588  35.555  1.00  0.00     0.004 C 
ENDBRANCH  12  13
ENDBRANCH  11  12
ENDBRANCH  10  11
ENDBRANCH   9  10
ENDBRANCH   1   9
TORSDOF 10
ENDMDL
