MODEL 1
REMARK VINA RESULT:    -3.312      0.000      0.000
REMARK INTER + INTRA:          -6.365
REMARK INTER:                  -5.249
REMARK INTRA:                  -1.117
REMARK UNBOUND:                -1.117
REMARK SMILES CCCCCCCCCCCC(=O)[O-]
REMARK SMILES IDX 7 1 8 2 9 3 10 4 11 5 12 6 13 7 14 8 6 9 5 10 4 11 3 12 2 13
REMARK SMILES IDX 1 14
REMARK H PARENT
REMARK Flexibility Score: inf
ROOT
ATOM      1  C   UNL     1       9.147  -2.525  19.691  1.00  0.00     0.000 C 
ENDROOT
BRANCH   1   2
ATOM      2  C   UNL     1       7.806  -2.587  20.438  1.00  0.00     0.000 C 
BRANCH   2   3
ATOM      3  C   UNL     1       6.641  -2.775  19.453  1.00  0.00     0.000 C 
BRANCH   3   4
ATOM      4  C   UNL     1       6.347  -1.506  18.636  1.00  0.00     0.006 C 
BRANCH   4   5
ATOM      5  C   UNL     1       5.176  -1.688  17.662  1.00  0.00     0.053 C 
BRANCH   5   6
ATOM      6  C   UNL     1       5.678  -1.787  16.256  1.00  0.00     0.041 C 
ATOM      7  O   UNL     1       4.919  -1.506  15.291  1.00  0.00    -0.550 OA
ATOM      8  O   UNL     1       6.969  -2.237  16.008  1.00  0.00    -0.550 OA
ENDBRANCH   5   6
ENDBRANCH   4   5
ENDBRANCH   3   4
ENDBRANCH   2   3
ENDBRANCH   1   2
BRANCH   1   9
ATOM      9  C   UNL     1      10.327  -2.996  20.556  1.00  0.00     0.000 C 
BRANCH   9  10
ATOM     10  C   UNL     1      10.515  -4.524  20.519  1.00  0.00    -0.000 C 
BRANCH  10  11
ATOM     11  C   UNL     1      10.321  -5.110  19.112  1.00  0.00    -0.000 C 
BRANCH  11  12
ATOM     12  C   UNL     1       9.324  -6.281  19.092  1.00  0.00    -0.000 C 
BRANCH  12  13
ATOM     13  C   UNL     1       8.143  -6.032  18.140  1.00  0.00    -0.003 C 
ATOM     14  C   UNL     1       8.501  -5.100  16.983  1.00  0.00     0.004 C 
ENDBRANCH  12  13
ENDBRANCH  11  12
ENDBRANCH  10  11
ENDBRANCH   9  10
ENDBRANCH   1   9
TORSDOF 10
ENDMDL
MODEL 2
REMARK VINA RESULT:    -3.221      1.049      1.923
REMARK INTER + INTRA:          -6.221
REMARK INTER:                  -5.269
REMARK INTRA:                  -0.952
REMARK UNBOUND:                -1.117
REMARK SMILES CCCCCCCCCCCC(=O)[O-]
REMARK SMILES IDX 7 1 8 2 9 3 10 4 11 5 12 6 13 7 14 8 6 9 5 10 4 11 3 12 2 13
REMARK SMILES IDX 1 14
REMARK H PARENT
REMARK Flexibility Score: inf
ROOT
ATOM      1  C   UNL     1       9.196  -3.872  19.372  1.00  0.00     0.000 C 
ENDROOT
BRANCH   1   2
ATOM      2  C   UNL     1       8.621  -2.905  20.418  1.00  0.00     0.000 C 
BRANCH   2   3
ATOM      3  C   UNL     1       7.218  -2.430  20.010  1.00  0.00     0.000 C 
BRANCH   3   4
ATOM      4  C   UNL     1       6.791  -2.961  18.632  1.00  0.00     0.006 C 
BRANCH   4   5
ATOM      5  C   UNL     1       5.792  -2.036  17.926  1.00  0.00     0.053 C 
BRANCH   5   6
ATOM      6  C   UNL     1       6.046  -2.023  16.451  1.00  0.00     0.041 C 
ATOM      7  O   UNL     1       7.188  -2.304  16.002  1.00  0.00    -0.550 OA
ATOM      8  O   UNL     1       5.033  -1.651  15.575  1.00  0.00    -0.550 OA
ENDBRANCH   5   6
ENDBRANCH   4   5
ENDBRANCH   3   4
ENDBRANCH   2   3
ENDBRANCH   1   2
BRANCH   1   9
ATOM      9  C   UNL     1       9.683  -5.191  19.991  1.00  0.00     0.000 C 
BRANCH   9  10
ATOM     10  C   UNL     1       9.496  -6.393  19.047  1.00  0.00    -0.000 C 
BRANCH  10  11
ATOM     11  C   UNL     1       8.234  -6.273  18.178  1.00  0.00    -0.000 C 
BRANCH  11  12
ATOM     12  C   UNL     1       8.367  -7.014  16.837  1.00  0.00    -0.000 C 
BRANCH  12  13
ATOM     13  C   UNL     1       9.522  -6.475  15.978  1.00  0.00    -0.003 C 
ATOM     14  C   UNL     1       9.389  -4.982  15.678  1.00  0.00     0.004 C 
ENDBRANCH  12  13
ENDBRANCH  11  12
ENDBRANCH  10  11
ENDBRANCH   9  10
ENDBRANCH   1   9
TORSDOF 10
ENDMDL
MODEL 3
REMARK VINA RESULT:    -3.104      1.667      2.508
REMARK INTER + INTRA:          -6.036
REMARK INTER:                  -4.724
REMARK INTRA:                  -1.312
REMARK UNBOUND:                -1.117
REMARK SMILES CCCCCCCCCCCC(=O)[O-]
REMARK SMILES IDX 7 1 8 2 9 3 10 4 11 5 12 6 13 7 14 8 6 9 5 10 4 11 3 12 2 13
REMARK SMILES IDX 1 14
REMARK H PARENT
REMARK Flexibility Score: inf
ROOT
ATOM      1  C   UNL     1      11.023  -4.372  20.074  1.00  0.00     0.000 C 
ENDROOT
BRANCH   1   2
ATOM      2  C   UNL     1      10.234  -3.116  20.474  1.00  0.00     0.000 C 
BRANCH   2   3
ATOM      3  C   UNL     1       8.727  -3.325  20.256  1.00  0.00     0.000 C 
BRANCH   3   4
ATOM      4  C   UNL     1       8.246  -2.789  18.898  1.00  0.00     0.006 C 
BRANCH   4   5
ATOM      5  C   UNL     1       6.787  -3.155  18.601  1.00  0.00     0.053 C 
BRANCH   5   6
ATOM      6  C   UNL     1       5.909  -1.951  18.736  1.00  0.00     0.041 C 
ATOM      7  O   UNL     1       4.771  -1.933  18.198  1.00  0.00    -0.550 OA
ATOM      8  O   UNL     1       6.367  -0.829  19.416  1.00  0.00    -0.550 OA
ENDBRANCH   5   6
ENDBRANCH   4   5
ENDBRANCH   3   4
ENDBRANCH   2   3
ENDBRANCH   1   2
BRANCH   1   9
ATOM      9  C   UNL     1      10.277  -5.672  20.412  1.00  0.00     0.000 C 
BRANCH   9  10
ATOM     10  C   UNL     1      10.216  -6.646  19.222  1.00  0.00    -0.000 C 
BRANCH  10  11
ATOM     11  C   UNL     1      10.386  -5.939  17.868  1.00  0.00    -0.000 C 
BRANCH  11  12
ATOM     12  C   UNL     1       9.072  -5.861  17.072  1.00  0.00    -0.000 C 
BRANCH  12  13
ATOM     13  C   UNL     1       7.960  -6.725  17.686  1.00  0.00    -0.003 C 
ATOM     14  C   UNL     1       7.639  -7.962  16.845  1.00  0.00     0.004 C 
ENDBRANCH  12  13
ENDBRANCH  11  12
ENDBRANCH  10  11
ENDBRANCH   9  10
ENDBRANCH   1   9
TORSDOF 10
ENDMDL
MODEL 4
REMARK VINA RESULT:    -3.103      7.791      8.863
REMARK INTER + INTRA:          -6.034
REMARK INTER:                  -5.521
REMARK INTRA:                  -0.513
REMARK UNBOUND:                -1.117
REMARK SMILES CCCCCCCCCCCC(=O)[O-]
REMARK SMILES IDX 7 1 8 2 9 3 10 4 11 5 12 6 13 7 14 8 6 9 5 10 4 11 3 12 2 13
REMARK SMILES IDX 1 14
REMARK H PARENT
REMARK Flexibility Score: inf
ROOT
ATOM      1  C   UNL     1      -1.367  -1.841  22.429  1.00  0.00     0.000 C 
ENDROOT
BRANCH   1   2
ATOM      2  C   UNL     1      -1.432  -0.920  21.201  1.00  0.00     0.000 C 
BRANCH   2   3
ATOM      3  C   UNL     1      -0.093  -0.918  20.448  1.00  0.00     0.000 C 
BRANCH   3   4
ATOM      4  C   UNL     1       0.453   0.499  20.213  1.00  0.00     0.006 C 
BRANCH   4   5
ATOM      5  C   UNL     1       1.824   0.500  19.526  1.00  0.00     0.053 C 
BRANCH   5   6
ATOM      6  C   UNL     1       1.972   1.709  18.656  1.00  0.00     0.041 C 
ATOM      7  O   UNL     1       2.840   2.579  18.925  1.00  0.00    -0.550 OA
ATOM      8  O   UNL     1       1.116   1.898  17.578  1.00  0.00    -0.550 OA
ENDBRANCH   5   6
ENDBRANCH   4   5
ENDBRANCH   3   4
ENDBRANCH   2   3
ENDBRANCH   1   2
BRANCH   1   9
ATOM      9  C   UNL     1      -0.046  -2.620  22.514  1.00  0.00     0.000 C 
BRANCH   9  10
ATOM     10  C   UNL     1       0.675  -2.418  23.859  1.00  0.00    -0.000 C 
BRANCH  10  11
ATOM     11  C   UNL     1       1.309  -3.713  24.392  1.00  0.00    -0.000 C 
BRANCH  11  12
ATOM     12  C   UNL     1       0.305  -4.875  24.470  1.00  0.00    -0.000 C 
BRANCH  12  13
ATOM     13  C   UNL     1       0.867  -6.181  23.888  1.00  0.00    -0.003 C 
ATOM     14  C   UNL     1       0.534  -7.403  24.745  1.00  0.00     0.004 C 
ENDBRANCH  12  13
ENDBRANCH  11  12
ENDBRANCH  10  11
ENDBRANCH   9  10
ENDBRANCH   1   9
TORSDOF 10
ENDMDL
MODEL 5
REMARK VINA RESULT:    -3.043      9.056     10.851
REMARK INTER + INTRA:          -5.938
REMARK INTER:                  -5.156
REMARK INTRA:                  -0.782
REMARK UNBOUND:                -1.117
REMARK SMILES CCCCCCCCCCCC(=O)[O-]
REMARK SMILES IDX 7 1 8 2 9 3 10 4 11 5 12 6 13 7 14 8 6 9 5 10 4 11 3 12 2 13
REMARK SMILES IDX 1 14
REMARK H PARENT
REMARK Flexibility Score: inf
ROOT
ATOM      1  C   UNL     1      -1.920  -2.316  23.286  1.00  0.00     0.000 C 
ENDROOT
BRANCH   1   2
ATOM      2  C   UNL     1      -0.604  -2.577  24.034  1.00  0.00     0.000 C 
BRANCH   2   3
ATOM      3  C   UNL     1       0.300  -3.528  23.233  1.00  0.00     0.000 C 
BRANCH   3   4
ATOM      4  C   UNL     1       1.075  -4.504  24.132  1.00  0.00     0.006 C 
BRANCH   4   5
ATOM      5  C   UNL     1       0.840  -5.972  23.752  1.00  0.00     0.053 C 
BRANCH   5   6
ATOM      6  C   UNL     1       0.266  -6.726  24.910  1.00  0.00     0.041 C 
ATOM      7  O   UNL     1       0.754  -7.836  25.247  1.00  0.00    -0.550 OA
ATOM      8  O   UNL     1      -0.840  -6.226  25.585  1.00  0.00    -0.550 OA
ENDBRANCH   5   6
ENDBRANCH   4   5
ENDBRANCH   3   4
ENDBRANCH   2   3
ENDBRANCH   1   2
BRANCH   1   9
ATOM      9  C   UNL     1      -1.936  -0.955  22.574  1.00  0.00     0.000 C 
BRANCH   9  10
ATOM     10  C   UNL     1      -1.711  -1.079  21.056  1.00  0.00    -0.000 C 
BRANCH  10  11
ATOM     11  C   UNL     1      -0.233  -0.928  20.661  1.00  0.00    -0.000 C 
BRANCH  11  12
ATOM     12  C   UNL     1       0.521   0.063  21.564  1.00  0.00    -0.000 C 
BRANCH  12  13
ATOM     13  C   UNL     1       1.014   1.300  20.798  1.00  0.00    -0.003 C 
ATOM     14  C   UNL     1       1.455   0.976  19.370  1.00  0.00     0.004 C 
ENDBRANCH  12  13
ENDBRANCH  11  12
ENDBRANCH  10  11
ENDBRANCH   9  10
ENDBRANCH   1   9
TORSDOF 10
ENDMDL
MODEL 6
REMARK VINA RESULT:    -3.041      1.016      1.665
REMARK INTER + INTRA:          -5.936
REMARK INTER:                  -4.738
REMARK INTRA:                  -1.198
REMARK UNBOUND:                -1.117
REMARK SMILES CCCCCCCCCCCC(=O)[O-]
REMARK SMILES IDX 7 1 8 2 9 3 10 4 11 5 12 6 13 7 14 8 6 9 5 10 4 11 3 12 2 13
REMARK SMILES IDX 1 14
REMARK H PARENT
REMARK Flexibility Score: inf
ROOT
ATOM      1  C   UNL     1       9.471  -2.521  19.351  1.00  0.00     0.000 C 
ENDROOT
BRANCH   1   2
ATOM      2  C   UNL     1       8.422  -2.651  20.465  1.00  0.00     0.000 C 
BRANCH   2   3
ATOM      3  C   UNL     1       7.000  -2.557  19.891  1.00  0.00     0.000 C 
BRANCH   3   4
ATOM      4  C   UNL     1       6.936  -1.721  18.602  1.00  0.00     0.006 C 
BRANCH   4   5
ATOM      5  C   UNL     1       5.661  -1.982  17.791  1.00  0.00     0.053 C 
BRANCH   5   6
ATOM      6  C   UNL     1       5.930  -1.815  16.328  1.00  0.00     0.041 C 
ATOM      7  O   UNL     1       4.974  -1.716  15.515  1.00  0.00    -0.550 OA
ATOM      8  O   UNL     1       7.237  -1.820  15.857  1.00  0.00    -0.550 OA
ENDBRANCH   5   6
ENDBRANCH   4   5
ENDBRANCH   3   4
ENDBRANCH   2   3
ENDBRANCH   1   2
BRANCH   1   9
ATOM      9  C   UNL     1      10.042  -3.879  18.916  1.00  0.00     0.000 C 
BRANCH   9  10
ATOM     10  C   UNL     1       9.796  -4.175  17.425  1.00  0.00    -0.000 C 
BRANCH  10  11
ATOM     11  C   UNL     1       8.414  -4.795  17.164  1.00  0.00    -0.000 C 
BRANCH  11  12
ATOM     12  C   UNL     1       8.093  -5.949  18.130  1.00  0.00    -0.000 C 
BRANCH  12  13
ATOM     13  C   UNL     1       8.004  -7.307  17.416  1.00  0.00    -0.003 C 
ATOM     14  C   UNL     1       9.211  -8.203  17.696  1.00  0.00     0.004 C 
ENDBRANCH  12  13
ENDBRANCH  11  12
ENDBRANCH  10  11
ENDBRANCH   9  10
ENDBRANCH   1   9
TORSDOF 10
ENDMDL
MODEL 7
REMARK VINA RESULT:    -3.023      1.095      2.693
REMARK INTER + INTRA:          -5.908
REMARK INTER:                  -4.850
REMARK INTRA:                  -1.058
REMARK UNBOUND:                -1.117
REMARK SMILES CCCCCCCCCCCC(=O)[O-]
REMARK SMILES IDX 7 1 8 2 9 3 10 4 11 5 12 6 13 7 14 8 6 9 5 10 4 11 3 12 2 13
REMARK SMILES IDX 1 14
REMARK H PARENT
REMARK Flexibility Score: inf
ROOT
ATOM      1  C   UNL     1       8.233  -4.555  17.170  1.00  0.00     0.000 C 
ENDROOT
BRANCH   1   2
ATOM      2  C   UNL     1       8.131  -3.189  17.866  1.00  0.00     0.000 C 
BRANCH   2   3
ATOM      3  C   UNL     1       6.938  -3.158  18.836  1.00  0.00     0.000 C 
BRANCH   3   4
ATOM      4  C   UNL     1       6.281  -1.771  18.920  1.00  0.00     0.006 C 
BRANCH   4   5
ATOM      5  C   UNL     1       5.044  -1.647  18.023  1.00  0.00     0.053 C 
BRANCH   5   6
ATOM      6  C   UNL     1       5.435  -1.182  16.656  1.00  0.00     0.041 C 
ATOM      7  O   UNL     1       5.079  -1.832  15.639  1.00  0.00    -0.550 OA
ATOM      8  O   UNL     1       6.236  -0.056  16.508  1.00  0.00    -0.550 OA
ENDBRANCH   5   6
ENDBRANCH   4   5
ENDBRANCH   3   4
ENDBRANCH   2   3
ENDBRANCH   1   2
BRANCH   1   9
ATOM      9  C   UNL     1       9.538  -5.293  17.507  1.00  0.00     0.000 C 
BRANCH   9  10
ATOM     10  C   UNL     1       9.352  -6.348  18.614  1.00  0.00    -0.000 C 
BRANCH  10  11
ATOM     11  C   UNL     1       9.764  -5.830  20.001  1.00  0.00    -0.000 C 
BRANCH  11  12
ATOM     12  C   UNL     1      10.981  -4.891  19.944  1.00  0.00    -0.000 C 
BRANCH  12  13
ATOM     13  C   UNL     1      11.010  -3.892  21.112  1.00  0.00    -0.003 C 
ATOM     14  C   UNL     1      10.151  -2.654  20.853  1.00  0.00     0.004 C 
ENDBRANCH  12  13
ENDBRANCH  11  12
ENDBRANCH  10  11
ENDBRANCH   9  10
ENDBRANCH   1   9
TORSDOF 10
ENDMDL
MODEL 8
REMARK VINA RESULT:    -2.995      9.211     10.830
REMARK INTER + INTRA:          -5.862
REMARK INTER:                  -4.711
REMARK INTRA:                  -1.151
REMARK UNBOUND:                -1.117
REMARK SMILES CCCCCCCCCCCC(=O)[O-]
REMARK SMILES IDX 7 1 8 2 9 3 10 4 11 5 12 6 13 7 14 8 6 9 5 10 4 11 3 12 2 13
REMARK SMILES IDX 1 14
REMARK H PARENT
REMARK Flexibility Score: inf
ROOT
ATOM      1  C   UNL     1      -1.410  -1.930  22.632  1.00  0.00     0.000 C 
ENDROOT
BRANCH   1   2
ATOM      2  C   UNL     1      -0.133  -2.784  22.674  1.00  0.00     0.000 C 
BRANCH   2   3
ATOM      3  C   UNL     1       0.727  -2.422  23.895  1.00  0.00     0.000 C 
BRANCH   3   4
ATOM      4  C   UNL     1       1.318  -3.659  24.590  1.00  0.00     0.006 C 
BRANCH   4   5
ATOM      5  C   UNL     1       0.921  -4.970  23.902  1.00  0.00     0.053 C 
BRANCH   5   6
ATOM      6  C   UNL     1       0.153  -5.842  24.845  1.00  0.00     0.041 C 
ATOM      7  O   UNL     1       0.415  -7.071  24.929  1.00  0.00    -0.550 OA
ATOM      8  O   UNL     1      -0.887  -5.308  25.596  1.00  0.00    -0.550 OA
ENDBRANCH   5   6
ENDBRANCH   4   5
ENDBRANCH   3   4
ENDBRANCH   2   3
ENDBRANCH   1   2
BRANCH   1   9
ATOM      9  C   UNL     1      -1.485  -1.042  21.381  1.00  0.00     0.000 C 
BRANCH   9  10
ATOM     10  C   UNL     1      -0.210  -1.121  20.521  1.00  0.00    -0.000 C 
BRANCH  10  11
ATOM     11  C   UNL     1       0.680   0.125  20.665  1.00  0.00    -0.000 C 
BRANCH  11  12
ATOM     12  C   UNL     1       0.004   1.243  21.476  1.00  0.00    -0.000 C 
BRANCH  12  13
ATOM     13  C   UNL     1       0.792   1.611  22.743  1.00  0.00    -0.003 C 
ATOM     14  C   UNL     1       0.048   1.248  24.029  1.00  0.00     0.004 C 
ENDBRANCH  12  13
ENDBRANCH  11  12
ENDBRANCH  10  11
ENDBRANCH   9  10
ENDBRANCH   1   9
TORSDOF 10
ENDMDL
MODEL 9
REMARK VINA RESULT:    -2.980      9.108     10.703
REMARK INTER + INTRA:          -5.840
REMARK INTER:                  -4.583
REMARK INTRA:                  -1.257
REMARK UNBOUND:                -1.117
REMARK SMILES CCCCCCCCCCCC(=O)[O-]
REMARK SMILES IDX 7 1 8 2 9 3 10 4 11 5 12 6 13 7 14 8 6 9 5 10 4 11 3 12 2 13
REMARK SMILES IDX 1 14
REMARK H PARENT
REMARK Flexibility Score: inf
ROOT
ATOM      1  C   UNL     1       0.888   0.355  23.779  1.00  0.00     0.000 C 
ENDROOT
BRANCH   1   2
ATOM      2  C   UNL     1       0.990  -1.135  24.139  1.00  0.00     0.000 C 
BRANCH   2   3
ATOM      3  C   UNL     1      -0.372  -1.681  24.595  1.00  0.00     0.000 C 
BRANCH   3   4
ATOM      4  C   UNL     1      -0.660  -3.087  24.044  1.00  0.00     0.006 C 
BRANCH   4   5
ATOM      5  C   UNL     1       0.616  -3.840  23.649  1.00  0.00     0.053 C 
BRANCH   5   6
ATOM      6  C   UNL     1       0.629  -5.204  24.264  1.00  0.00     0.041 C 
ATOM      7  O   UNL     1       1.257  -6.144  23.710  1.00  0.00    -0.550 OA
ATOM      8  O   UNL     1      -0.094  -5.450  25.425  1.00  0.00    -0.550 OA
ENDBRANCH   5   6
ENDBRANCH   4   5
ENDBRANCH   3   4
ENDBRANCH   2   3
ENDBRANCH   1   2
BRANCH   1   9
ATOM      9  C   UNL     1       0.043   0.602  22.519  1.00  0.00     0.000 C 
BRANCH   9  10
ATOM     10  C   UNL     1       0.578  -0.157  21.290  1.00  0.00    -0.000 C 
BRANCH  10  11
ATOM     11  C   UNL     1      -0.424  -1.189  20.748  1.00  0.00    -0.000 C 
BRANCH  11  12
ATOM     12  C   UNL     1      -1.876  -0.685  20.797  1.00  0.00    -0.000 C 
BRANCH  12  13
ATOM     13  C   UNL     1      -2.818  -1.669  21.508  1.00  0.00    -0.003 C 
ATOM     14  C   UNL     1      -4.218  -1.697  20.894  1.00  0.00     0.004 C 
ENDBRANCH  12  13
ENDBRANCH  11  12
ENDBRANCH  10  11
ENDBRANCH   9  10
ENDBRANCH   1   9
TORSDOF 10
ENDMDL
