MODEL 1
REMARK VINA RESULT:    -4.907      0.000      0.000
REMARK INTER + INTRA:         -10.313
REMARK INTER:                  -8.924
REMARK INTRA:                  -1.389
REMARK UNBOUND:                -1.389
REMARK SMILES CCCCCCCCCCCCCCCC(=O)[O-]
REMARK SMILES IDX 9 1 10 2 11 3 12 4 13 5 14 6 15 7 16 8 17 9 18 10 8 11 7 12
REMARK SMILES IDX 6 13 5 14 4 15 3 16 2 17 1 18
REMARK H PARENT
REMARK Flexibility Score: inf
ROOT
ATOM      1  C   UNL     1      13.587  30.656  61.655  1.00  0.00     0.000 C 
ENDROOT
BRANCH   1   2
ATOM      2  C   UNL     1      13.981  30.940  60.192  1.00  0.00     0.000 C 
BRANCH   2   3
ATOM      3  C   UNL     1      15.132  30.050  59.695  1.00  0.00     0.000 C 
BRANCH   3   4
ATOM      4  C   UNL     1      16.399  30.165  60.560  1.00  0.00     0.000 C 
BRANCH   4   5
ATOM      5  C   UNL     1      16.589  29.047  61.602  1.00  0.00     0.000 C 
BRANCH   5   6
ATOM      6  C   UNL     1      16.940  29.581  62.999  1.00  0.00     0.006 C 
BRANCH   6   7
ATOM      7  C   UNL     1      15.847  29.226  64.011  1.00  0.00     0.053 C 
BRANCH   7   8
ATOM      8  C   UNL     1      15.663  27.743  64.087  1.00  0.00     0.041 C 
ATOM      9  O   UNL     1      14.546  27.228  63.816  1.00  0.00    -0.550 OA
ATOM     10  O   UNL     1      16.739  26.925  64.407  1.00  0.00    -0.550 OA
ENDBRANCH   7   8
ENDBRANCH   6   7
ENDBRANCH   5   6
ENDBRANCH   4   5
ENDBRANCH   3   4
ENDBRANCH   2   3
ENDBRANCH   1   2
BRANCH   1  11
ATOM     11  C   UNL     1      12.257  29.904  61.849  1.00  0.00     0.000 C 
BRANCH  11  12
ATOM     12  C   UNL     1      12.316  28.443  61.373  1.00  0.00    -0.000 C 
BRANCH  12  13
ATOM     13  C   UNL     1      11.812  28.261  59.931  1.00  0.00    -0.000 C 
BRANCH  13  14
ATOM     14  C   UNL     1      10.965  29.425  59.377  1.00  0.00    -0.000 C 
BRANCH  14  15
ATOM     15  C   UNL     1       9.513  29.060  59.010  1.00  0.00    -0.000 C 
BRANCH  15  16
ATOM     16  C   UNL     1       8.634  28.612  60.196  1.00  0.00    -0.000 C 
BRANCH  16  17
ATOM     17  C   UNL     1       8.469  29.660  61.310  1.00  0.00    -0.003 C 
ATOM     18  C   UNL     1       7.074  30.285  61.337  1.00  0.00     0.004 C 
ENDBRANCH  16  17
ENDBRANCH  15  16
ENDBRANCH  14  15
ENDBRANCH  13  14
ENDBRANCH  12  13
ENDBRANCH  11  12
ENDBRANCH   1  11
TORSDOF 14
ENDMDL
MODEL 2
REMARK VINA RESULT:    -4.803      3.455      6.373
REMARK INTER + INTRA:         -10.123
REMARK INTER:                  -8.193
REMARK INTRA:                  -1.929
REMARK UNBOUND:                -1.389
REMARK SMILES CCCCCCCCCCCCCCCC(=O)[O-]
REMARK SMILES IDX 9 1 10 2 11 3 12 4 13 5 14 6 15 7 16 8 17 9 18 10 8 11 7 12
REMARK SMILES IDX 6 13 5 14 4 15 3 16 2 17 1 18
REMARK H PARENT
REMARK Flexibility Score: inf
ROOT
ATOM      1  C   UNL     1      16.080  30.104  59.959  1.00  0.00     0.000 C 
ENDROOT
BRANCH   1   2
ATOM      2  C   UNL     1      16.072  29.570  61.405  1.00  0.00     0.000 C 
BRANCH   2   3
ATOM      3  C   UNL     1      14.736  29.812  62.128  1.00  0.00     0.000 C 
BRANCH   3   4
ATOM      4  C   UNL     1      13.871  28.543  62.235  1.00  0.00     0.000 C 
BRANCH   4   5
ATOM      5  C   UNL     1      12.377  28.737  61.919  1.00  0.00     0.000 C 
BRANCH   5   6
ATOM      6  C   UNL     1      12.027  28.425  60.456  1.00  0.00     0.006 C 
BRANCH   6   7
ATOM      7  C   UNL     1      11.152  29.529  59.854  1.00  0.00     0.053 C 
BRANCH   7   8
ATOM      8  C   UNL     1       9.743  29.052  59.692  1.00  0.00     0.041 C 
ATOM      9  O   UNL     1       9.320  28.702  58.559  1.00  0.00    -0.550 OA
ATOM     10  O   UNL     1       8.914  28.946  60.800  1.00  0.00    -0.550 OA
ENDBRANCH   7   8
ENDBRANCH   6   7
ENDBRANCH   5   6
ENDBRANCH   4   5
ENDBRANCH   3   4
ENDBRANCH   2   3
ENDBRANCH   1   2
BRANCH   1  11
ATOM     11  C   UNL     1      14.718  30.579  59.420  1.00  0.00     0.000 C 
BRANCH  11  12
ATOM     12  C   UNL     1      14.441  30.105  57.984  1.00  0.00    -0.000 C 
BRANCH  12  13
ATOM     13  C   UNL     1      13.423  30.992  57.245  1.00  0.00    -0.000 C 
BRANCH  13  14
ATOM     14  C   UNL     1      13.833  31.415  55.819  1.00  0.00    -0.000 C 
BRANCH  14  15
ATOM     15  C   UNL     1      15.012  32.406  55.745  1.00  0.00    -0.000 C 
BRANCH  15  16
ATOM     16  C   UNL     1      14.982  33.534  56.796  1.00  0.00    -0.000 C 
BRANCH  16  17
ATOM     17  C   UNL     1      16.225  33.610  57.699  1.00  0.00    -0.003 C 
ATOM     18  C   UNL     1      17.270  32.546  57.364  1.00  0.00     0.004 C 
ENDBRANCH  16  17
ENDBRANCH  15  16
ENDBRANCH  14  15
ENDBRANCH  13  14
ENDBRANCH  12  13
ENDBRANCH  11  12
ENDBRANCH   1  11
TORSDOF 14
ENDMDL
MODEL 3
REMARK VINA RESULT:    -4.787      2.031      4.609
REMARK INTER + INTRA:         -10.095
REMARK INTER:                  -8.717
REMARK INTRA:                  -1.377
REMARK UNBOUND:                -1.389
REMARK SMILES CCCCCCCCCCCCCCCC(=O)[O-]
REMARK SMILES IDX 9 1 10 2 11 3 12 4 13 5 14 6 15 7 16 8 17 9 18 10 8 11 7 12
REMARK SMILES IDX 6 13 5 14 4 15 3 16 2 17 1 18
REMARK H PARENT
REMARK Flexibility Score: inf
ROOT
ATOM      1  C   UNL     1      10.683  29.538  60.957  1.00  0.00     0.000 C 
ENDROOT
BRANCH   1   2
ATOM      2  C   UNL     1      11.642  29.636  62.159  1.00  0.00     0.000 C 
BRANCH   2   3
ATOM      3  C   UNL     1      13.019  29.011  61.883  1.00  0.00     0.000 C 
BRANCH   3   4
ATOM      4  C   UNL     1      14.185  29.980  62.149  1.00  0.00     0.000 C 
BRANCH   4   5
ATOM      5  C   UNL     1      15.468  29.704  61.344  1.00  0.00     0.000 C 
BRANCH   5   6
ATOM      6  C   UNL     1      16.540  28.965  62.158  1.00  0.00     0.006 C 
BRANCH   6   7
ATOM      7  C   UNL     1      16.167  28.921  63.643  1.00  0.00     0.053 C 
BRANCH   7   8
ATOM      8  C   UNL     1      15.933  27.511  64.084  1.00  0.00     0.041 C 
ATOM      9  O   UNL     1      16.899  26.794  64.456  1.00  0.00    -0.550 OA
ATOM     10  O   UNL     1      14.641  27.004  64.133  1.00  0.00    -0.550 OA
ENDBRANCH   7   8
ENDBRANCH   6   7
ENDBRANCH   5   6
ENDBRANCH   4   5
ENDBRANCH   3   4
ENDBRANCH   2   3
ENDBRANCH   1   2
BRANCH   1  11
ATOM     11  C   UNL     1      11.347  29.237  59.601  1.00  0.00     0.000 C 
BRANCH  11  12
ATOM     12  C   UNL     1      10.921  30.213  58.492  1.00  0.00    -0.000 C 
BRANCH  12  13
ATOM     13  C   UNL     1      12.109  30.957  57.858  1.00  0.00    -0.000 C 
BRANCH  13  14
ATOM     14  C   UNL     1      13.397  30.985  58.707  1.00  0.00    -0.000 C 
BRANCH  14  15
ATOM     15  C   UNL     1      14.704  31.159  57.907  1.00  0.00    -0.000 C 
BRANCH  15  16
ATOM     16  C   UNL     1      15.052  29.988  56.967  1.00  0.00    -0.000 C 
BRANCH  16  17
ATOM     17  C   UNL     1      14.880  30.289  55.468  1.00  0.00    -0.003 C 
ATOM     18  C   UNL     1      16.204  30.282  54.704  1.00  0.00     0.004 C 
ENDBRANCH  16  17
ENDBRANCH  15  16
ENDBRANCH  14  15
ENDBRANCH  13  14
ENDBRANCH  12  13
ENDBRANCH  11  12
ENDBRANCH   1  11
TORSDOF 14
ENDMDL
MODEL 4
REMARK VINA RESULT:    -4.712      3.140      6.232
REMARK INTER + INTRA:          -9.958
REMARK INTER:                  -8.131
REMARK INTRA:                  -1.827
REMARK UNBOUND:                -1.389
REMARK SMILES CCCCCCCCCCCCCCCC(=O)[O-]
REMARK SMILES IDX 9 1 10 2 11 3 12 4 13 5 14 6 15 7 16 8 17 9 18 10 8 11 7 12
REMARK SMILES IDX 6 13 5 14 4 15 3 16 2 17 1 18
REMARK H PARENT
REMARK Flexibility Score: inf
ROOT
ATOM      1  C   UNL     1      16.487  29.848  62.619  1.00  0.00     0.000 C 
ENDROOT
BRANCH   1   2
ATOM      2  C   UNL     1      15.206  29.442  63.372  1.00  0.00     0.000 C 
BRANCH   2   3
ATOM      3  C   UNL     1      14.646  28.083  62.920  1.00  0.00     0.000 C 
BRANCH   3   4
ATOM      4  C   UNL     1      13.269  28.197  62.241  1.00  0.00     0.000 C 
BRANCH   4   5
ATOM      5  C   UNL     1      12.714  29.627  62.112  1.00  0.00     0.000 C 
BRANCH   5   6
ATOM      6  C   UNL     1      11.225  29.662  61.739  1.00  0.00     0.006 C 
BRANCH   6   7
ATOM      7  C   UNL     1      10.986  29.012  60.373  1.00  0.00     0.053 C 
BRANCH   7   8
ATOM      8  C   UNL     1      10.107  29.877  59.526  1.00  0.00     0.041 C 
ATOM      9  O   UNL     1      10.524  30.313  58.421  1.00  0.00    -0.550 OA
ATOM     10  O   UNL     1       8.810  30.160  59.933  1.00  0.00    -0.550 OA
ENDBRANCH   7   8
ENDBRANCH   6   7
ENDBRANCH   5   6
ENDBRANCH   4   5
ENDBRANCH   3   4
ENDBRANCH   2   3
ENDBRANCH   1   2
BRANCH   1  11
ATOM     11  C   UNL     1      16.573  29.376  61.155  1.00  0.00     0.000 C 
BRANCH  11  12
ATOM     12  C   UNL     1      16.128  30.450  60.149  1.00  0.00    -0.000 C 
BRANCH  12  13
ATOM     13  C   UNL     1      14.928  30.010  59.293  1.00  0.00    -0.000 C 
BRANCH  13  14
ATOM     14  C   UNL     1      13.917  31.126  58.953  1.00  0.00    -0.000 C 
BRANCH  14  15
ATOM     15  C   UNL     1      13.970  31.634  57.498  1.00  0.00    -0.000 C 
BRANCH  15  16
ATOM     16  C   UNL     1      15.309  32.275  57.080  1.00  0.00    -0.000 C 
BRANCH  16  17
ATOM     17  C   UNL     1      16.168  31.418  56.134  1.00  0.00    -0.003 C 
ATOM     18  C   UNL     1      15.401  30.239  55.538  1.00  0.00     0.004 C 
ENDBRANCH  16  17
ENDBRANCH  15  16
ENDBRANCH  14  15
ENDBRANCH  13  14
ENDBRANCH  12  13
ENDBRANCH  11  12
ENDBRANCH   1  11
TORSDOF 14
ENDMDL
MODEL 5
REMARK VINA RESULT:    -4.703      3.317      4.487
REMARK INTER + INTRA:          -9.941
REMARK INTER:                  -7.905
REMARK INTRA:                  -2.036
REMARK UNBOUND:                -1.389
REMARK SMILES CCCCCCCCCCCCCCCC(=O)[O-]
REMARK SMILES IDX 9 1 10 2 11 3 12 4 13 5 14 6 15 7 16 8 17 9 18 10 8 11 7 12
REMARK SMILES IDX 6 13 5 14 4 15 3 16 2 17 1 18
REMARK H PARENT
REMARK Flexibility Score: inf
ROOT
ATOM      1  C   UNL     1      12.494  29.872  62.068  1.00  0.00     0.000 C 
ENDROOT
BRANCH   1   2
ATOM      2  C   UNL     1      13.913  30.468  62.133  1.00  0.00     0.000 C 
BRANCH   2   3
ATOM      3  C   UNL     1      15.014  29.431  61.853  1.00  0.00     0.000 C 
BRANCH   3   4
ATOM      4  C   UNL     1      15.953  29.846  60.704  1.00  0.00     0.000 C 
BRANCH   4   5
ATOM      5  C   UNL     1      15.285  29.972  59.323  1.00  0.00     0.000 C 
BRANCH   5   6
ATOM      6  C   UNL     1      15.623  31.291  58.611  1.00  0.00     0.006 C 
BRANCH   6   7
ATOM      7  C   UNL     1      14.348  32.034  58.201  1.00  0.00     0.053 C 
BRANCH   7   8
ATOM      8  C   UNL     1      14.089  31.863  56.737  1.00  0.00     0.041 C 
ATOM      9  O   UNL     1      13.328  30.945  56.332  1.00  0.00    -0.550 OA
ATOM     10  O   UNL     1      14.646  32.749  55.825  1.00  0.00    -0.550 OA
ENDBRANCH   7   8
ENDBRANCH   6   7
ENDBRANCH   5   6
ENDBRANCH   4   5
ENDBRANCH   3   4
ENDBRANCH   2   3
ENDBRANCH   1   2
BRANCH   1  11
ATOM     11  C   UNL     1      12.392  28.468  61.444  1.00  0.00     0.000 C 
BRANCH  11  12
ATOM     12  C   UNL     1      11.954  28.495  59.970  1.00  0.00    -0.000 C 
BRANCH  12  13
ATOM     13  C   UNL     1      11.393  29.860  59.535  1.00  0.00    -0.000 C 
BRANCH  13  14
ATOM     14  C   UNL     1      10.518  29.837  58.265  1.00  0.00    -0.000 C 
BRANCH  14  15
ATOM     15  C   UNL     1       8.997  29.865  58.517  1.00  0.00    -0.000 C 
BRANCH  15  16
ATOM     16  C   UNL     1       8.562  30.618  59.790  1.00  0.00    -0.000 C 
BRANCH  16  17
ATOM     17  C   UNL     1       7.877  29.745  60.856  1.00  0.00    -0.003 C 
ATOM     18  C   UNL     1       8.770  29.473  62.066  1.00  0.00     0.004 C 
ENDBRANCH  16  17
ENDBRANCH  15  16
ENDBRANCH  14  15
ENDBRANCH  13  14
ENDBRANCH  12  13
ENDBRANCH  11  12
ENDBRANCH   1  11
TORSDOF 14
ENDMDL
MODEL 6
REMARK VINA RESULT:    -4.697      3.691      6.747
REMARK INTER + INTRA:          -9.931
REMARK INTER:                  -7.700
REMARK INTRA:                  -2.231
REMARK UNBOUND:                -1.389
REMARK SMILES CCCCCCCCCCCCCCCC(=O)[O-]
REMARK SMILES IDX 9 1 10 2 11 3 12 4 13 5 14 6 15 7 16 8 17 9 18 10 8 11 7 12
REMARK SMILES IDX 6 13 5 14 4 15 3 16 2 17 1 18
REMARK H PARENT
REMARK Flexibility Score: inf
ROOT
ATOM      1  C   UNL     1      15.426  30.129  56.229  1.00  0.00     0.000 C 
ENDROOT
BRANCH   1   2
ATOM      2  C   UNL     1      14.805  29.732  57.583  1.00  0.00     0.000 C 
BRANCH   2   3
ATOM      3  C   UNL     1      14.911  30.842  58.642  1.00  0.00     0.000 C 
BRANCH   3   4
ATOM      4  C   UNL     1      13.542  31.286  59.188  1.00  0.00     0.000 C 
BRANCH   4   5
ATOM      5  C   UNL     1      12.334  30.492  58.659  1.00  0.00     0.000 C 
BRANCH   5   6
ATOM      6  C   UNL     1      11.470  29.895  59.780  1.00  0.00     0.006 C 
BRANCH   6   7
ATOM      7  C   UNL     1      12.053  28.568  60.273  1.00  0.00     0.053 C 
BRANCH   7   8
ATOM      8  C   UNL     1      12.616  28.722  61.651  1.00  0.00     0.041 C 
ATOM      9  O   UNL     1      13.123  27.733  62.243  1.00  0.00    -0.550 OA
ATOM     10  O   UNL     1      12.628  29.969  62.261  1.00  0.00    -0.550 OA
ENDBRANCH   7   8
ENDBRANCH   6   7
ENDBRANCH   5   6
ENDBRANCH   4   5
ENDBRANCH   3   4
ENDBRANCH   2   3
ENDBRANCH   1   2
BRANCH   1  11
ATOM     11  C   UNL     1      14.421  30.414  55.097  1.00  0.00     0.000 C 
BRANCH  11  12
ATOM     12  C   UNL     1      13.480  31.589  55.409  1.00  0.00    -0.000 C 
BRANCH  12  13
ATOM     13  C   UNL     1      13.775  32.836  54.557  1.00  0.00    -0.000 C 
BRANCH  13  14
ATOM     14  C   UNL     1      14.893  33.752  55.098  1.00  0.00    -0.000 C 
BRANCH  14  15
ATOM     15  C   UNL     1      14.899  33.944  56.627  1.00  0.00    -0.000 C 
BRANCH  15  16
ATOM     16  C   UNL     1      16.294  33.905  57.283  1.00  0.00    -0.000 C 
BRANCH  16  17
ATOM     17  C   UNL     1      17.362  33.136  56.487  1.00  0.00    -0.003 C 
ATOM     18  C   UNL     1      18.183  32.185  57.357  1.00  0.00     0.004 C 
ENDBRANCH  16  17
ENDBRANCH  15  16
ENDBRANCH  14  15
ENDBRANCH  13  14
ENDBRANCH  12  13
ENDBRANCH  11  12
ENDBRANCH   1  11
TORSDOF 14
ENDMDL
MODEL 7
REMARK VINA RESULT:    -4.692      2.918      3.858
REMARK INTER + INTRA:          -9.921
REMARK INTER:                  -9.085
REMARK INTRA:                  -0.837
REMARK UNBOUND:                -1.389
REMARK SMILES CCCCCCCCCCCCCCCC(=O)[O-]
REMARK SMILES IDX 9 1 10 2 11 3 12 4 13 5 14 6 15 7 16 8 17 9 18 10 8 11 7 12
REMARK SMILES IDX 6 13 5 14 4 15 3 16 2 17 1 18
REMARK H PARENT
REMARK Flexibility Score: inf
ROOT
ATOM      1  C   UNL     1      14.195  28.342  62.944  1.00  0.00     0.000 C 
ENDROOT
BRANCH   1   2
ATOM      2  C   UNL     1      15.377  28.912  63.750  1.00  0.00     0.000 C 
BRANCH   2   3
ATOM      3  C   UNL     1      16.712  28.216  63.436  1.00  0.00     0.000 C 
BRANCH   3   4
ATOM      4  C   UNL     1      16.847  26.841  64.114  1.00  0.00     0.000 C 
BRANCH   4   5
ATOM      5  C   UNL     1      18.122  26.054  63.758  1.00  0.00     0.000 C 
BRANCH   5   6
ATOM      6  C   UNL     1      18.911  26.682  62.599  1.00  0.00     0.006 C 
BRANCH   6   7
ATOM      7  C   UNL     1      19.904  25.679  62.005  1.00  0.00     0.053 C 
BRANCH   7   8
ATOM      8  C   UNL     1      21.243  25.816  62.661  1.00  0.00     0.041 C 
ATOM      9  O   UNL     1      21.954  26.832  62.440  1.00  0.00    -0.550 OA
ATOM     10  O   UNL     1      21.682  24.848  63.553  1.00  0.00    -0.550 OA
ENDBRANCH   7   8
ENDBRANCH   6   7
ENDBRANCH   5   6
ENDBRANCH   4   5
ENDBRANCH   3   4
ENDBRANCH   2   3
ENDBRANCH   1   2
BRANCH   1  11
ATOM     11  C   UNL     1      13.618  29.275  61.862  1.00  0.00     0.000 C 
BRANCH  11  12
ATOM     12  C   UNL     1      12.399  28.678  61.140  1.00  0.00    -0.000 C 
BRANCH  12  13
ATOM     13  C   UNL     1      12.396  28.968  59.628  1.00  0.00    -0.000 C 
BRANCH  13  14
ATOM     14  C   UNL     1      11.519  30.159  59.189  1.00  0.00    -0.000 C 
BRANCH  14  15
ATOM     15  C   UNL     1      10.097  29.787  58.723  1.00  0.00    -0.000 C 
BRANCH  15  16
ATOM     16  C   UNL     1       8.968  30.180  59.696  1.00  0.00    -0.000 C 
BRANCH  16  17
ATOM     17  C   UNL     1       8.579  29.089  60.709  1.00  0.00    -0.003 C 
ATOM     18  C   UNL     1       8.918  29.466  62.150  1.00  0.00     0.004 C 
ENDBRANCH  16  17
ENDBRANCH  15  16
ENDBRANCH  14  15
ENDBRANCH  13  14
ENDBRANCH  12  13
ENDBRANCH  11  12
ENDBRANCH   1  11
TORSDOF 14
ENDMDL
MODEL 8
REMARK VINA RESULT:    -4.635      3.641      5.250
REMARK INTER + INTRA:          -9.817
REMARK INTER:                  -7.994
REMARK INTRA:                  -1.823
REMARK UNBOUND:                -1.389
REMARK SMILES CCCCCCCCCCCCCCCC(=O)[O-]
REMARK SMILES IDX 9 1 10 2 11 3 12 4 13 5 14 6 15 7 16 8 17 9 18 10 8 11 7 12
REMARK SMILES IDX 6 13 5 14 4 15 3 16 2 17 1 18
REMARK H PARENT
REMARK Flexibility Score: inf
ROOT
ATOM      1  C   UNL     1      14.736  30.449  59.753  1.00  0.00     0.000 C 
ENDROOT
BRANCH   1   2
ATOM      2  C   UNL     1      14.398  29.857  58.371  1.00  0.00     0.000 C 
BRANCH   2   3
ATOM      3  C   UNL     1      13.661  30.848  57.455  1.00  0.00     0.000 C 
BRANCH   3   4
ATOM      4  C   UNL     1      14.059  30.710  55.975  1.00  0.00     0.000 C 
BRANCH   4   5
ATOM      5  C   UNL     1      15.553  30.439  55.717  1.00  0.00     0.000 C 
BRANCH   5   6
ATOM      6  C   UNL     1      16.366  31.722  55.493  1.00  0.00     0.006 C 
BRANCH   6   7
ATOM      7  C   UNL     1      17.625  31.732  56.366  1.00  0.00     0.053 C 
BRANCH   7   8
ATOM      8  C   UNL     1      17.331  32.341  57.701  1.00  0.00     0.041 C 
ATOM      9  O   UNL     1      16.422  33.204  57.818  1.00  0.00    -0.550 OA
ATOM     10  O   UNL     1      18.027  31.917  58.826  1.00  0.00    -0.550 OA
ENDBRANCH   7   8
ENDBRANCH   6   7
ENDBRANCH   5   6
ENDBRANCH   4   5
ENDBRANCH   3   4
ENDBRANCH   2   3
ENDBRANCH   1   2
BRANCH   1  11
ATOM     11  C   UNL     1      15.879  29.749  60.512  1.00  0.00     0.000 C 
BRANCH  11  12
ATOM     12  C   UNL     1      15.506  29.385  61.959  1.00  0.00    -0.000 C 
BRANCH  12  13
ATOM     13  C   UNL     1      13.996  29.496  62.235  1.00  0.00    -0.000 C 
BRANCH  13  14
ATOM     14  C   UNL     1      13.207  28.175  62.118  1.00  0.00    -0.000 C 
BRANCH  14  15
ATOM     15  C   UNL     1      12.095  28.171  61.051  1.00  0.00    -0.000 C 
BRANCH  15  16
ATOM     16  C   UNL     1      11.388  29.525  60.841  1.00  0.00    -0.000 C 
BRANCH  16  17
ATOM     17  C   UNL     1      10.453  29.584  59.620  1.00  0.00    -0.003 C 
ATOM     18  C   UNL     1       9.105  28.909  59.870  1.00  0.00     0.004 C 
ENDBRANCH  16  17
ENDBRANCH  15  16
ENDBRANCH  14  15
ENDBRANCH  13  14
ENDBRANCH  12  13
ENDBRANCH  11  12
ENDBRANCH   1  11
TORSDOF 14
ENDMDL
MODEL 9
REMARK VINA RESULT:    -4.628      3.772      6.579
REMARK INTER + INTRA:          -9.806
REMARK INTER:                  -7.561
REMARK INTRA:                  -2.245
REMARK UNBOUND:                -1.389
REMARK SMILES CCCCCCCCCCCCCCCC(=O)[O-]
REMARK SMILES IDX 9 1 10 2 11 3 12 4 13 5 14 6 15 7 16 8 17 9 18 10 8 11 7 12
REMARK SMILES IDX 6 13 5 14 4 15 3 16 2 17 1 18
REMARK H PARENT
REMARK Flexibility Score: inf
ROOT
ATOM      1  C   UNL     1      14.491  30.090  56.937  1.00  0.00     0.000 C 
ENDROOT
BRANCH   1   2
ATOM      2  C   UNL     1      13.484  30.898  57.778  1.00  0.00     0.000 C 
BRANCH   2   3
ATOM      3  C   UNL     1      13.969  31.154  59.215  1.00  0.00     0.000 C 
BRANCH   3   4
ATOM      4  C   UNL     1      14.960  30.087  59.715  1.00  0.00     0.000 C 
BRANCH   4   5
ATOM      5  C   UNL     1      15.042  29.931  61.244  1.00  0.00     0.000 C 
BRANCH   5   6
ATOM      6  C   UNL     1      13.685  30.112  61.940  1.00  0.00     0.006 C 
BRANCH   6   7
ATOM      7  C   UNL     1      12.856  28.827  61.867  1.00  0.00     0.053 C 
BRANCH   7   8
ATOM      8  C   UNL     1      11.581  29.067  61.121  1.00  0.00     0.041 C 
ATOM      9  O   UNL     1      10.631  29.682  61.672  1.00  0.00    -0.550 OA
ATOM     10  O   UNL     1      11.461  28.655  59.800  1.00  0.00    -0.550 OA
ENDBRANCH   7   8
ENDBRANCH   6   7
ENDBRANCH   5   6
ENDBRANCH   4   5
ENDBRANCH   3   4
ENDBRANCH   2   3
ENDBRANCH   1   2
BRANCH   1  11
ATOM     11  C   UNL     1      14.640  30.538  55.471  1.00  0.00     0.000 C 
BRANCH  11  12
ATOM     12  C   UNL     1      13.736  31.729  55.111  1.00  0.00    -0.000 C 
BRANCH  12  13
ATOM     13  C   UNL     1      14.529  33.007  54.786  1.00  0.00    -0.000 C 
BRANCH  13  14
ATOM     14  C   UNL     1      14.701  33.991  55.962  1.00  0.00    -0.000 C 
BRANCH  14  15
ATOM     15  C   UNL     1      16.128  34.079  56.539  1.00  0.00    -0.000 C 
BRANCH  15  16
ATOM     16  C   UNL     1      16.357  33.277  57.836  1.00  0.00    -0.000 C 
BRANCH  16  17
ATOM     17  C   UNL     1      17.575  32.338  57.809  1.00  0.00    -0.003 C 
ATOM     18  C   UNL     1      17.900  31.825  56.407  1.00  0.00     0.004 C 
ENDBRANCH  16  17
ENDBRANCH  15  16
ENDBRANCH  14  15
ENDBRANCH  13  14
ENDBRANCH  12  13
ENDBRANCH  11  12
ENDBRANCH   1  11
TORSDOF 14
ENDMDL
