MODEL 1
REMARK VINA RESULT:    -3.958      0.000      0.000
REMARK INTER + INTRA:          -3.958
REMARK INTER:                  -3.958
REMARK INTRA:                   0.000
REMARK UNBOUND:                 0.000
REMARK SMILES C=C1CC[C@H]2C[C@@H]1C2(C)C
REMARK SMILES IDX 9 1 8 2 5 3 4 4 3 5 2 6 1 7 7 8 6 9 10 10
REMARK H PARENT
REMARK Flexibility Score: inf
ROOT
ATOM      1  C   UNL     1     140.397 141.526 133.356  1.00  0.00     0.012 C 
ATOM      2  C   UNL     1     139.003 142.015 133.835  1.00  0.00    -0.026 C 
ATOM      3  C   UNL     1     137.773 141.756 132.929  1.00  0.00    -0.004 C 
ATOM      4  C   UNL     1     137.886 140.374 132.209  1.00  0.00     0.008 C 
ATOM      5  C   UNL     1     138.196 139.195 133.208  1.00  0.00     0.031 C 
ATOM      6  C   UNL     1     138.481 139.696 134.632  1.00  0.00    -0.074 C 
ATOM      7  C   UNL     1     138.901 138.865 135.592  1.00  0.00     0.008 C 
ATOM      8  C   UNL     1     138.259 141.180 134.904  1.00  0.00     0.021 C 
ATOM      9  C   UNL     1     136.936 141.520 134.198  1.00  0.00     0.012 C 
ATOM     10  C   UNL     1     139.121 143.506 134.239  1.00  0.00     0.012 C 
ENDROOT
TORSDOF 0
ENDMDL
MODEL 2
REMARK VINA RESULT:    -3.948      3.900      6.168
REMARK INTER + INTRA:          -3.948
REMARK INTER:                  -3.948
REMARK INTRA:                   0.000
REMARK UNBOUND:                 0.000
REMARK SMILES C=C1CC[C@H]2C[C@@H]1C2(C)C
REMARK SMILES IDX 9 1 8 2 5 3 4 4 3 5 2 6 1 7 7 8 6 9 10 10
REMARK H PARENT
REMARK Flexibility Score: inf
ROOT
ATOM      1  C   UNL     1     141.836 140.741 133.236  1.00  0.00     0.012 C 
ATOM      2  C   UNL     1     143.240 140.258 133.692  1.00  0.00    -0.026 C 
ATOM      3  C   UNL     1     144.461 140.561 132.788  1.00  0.00    -0.004 C 
ATOM      4  C   UNL     1     144.324 141.963 132.111  1.00  0.00     0.008 C 
ATOM      5  C   UNL     1     144.004 143.106 133.147  1.00  0.00     0.031 C 
ATOM      6  C   UNL     1     143.735 142.558 134.557  1.00  0.00    -0.074 C 
ATOM      7  C   UNL     1     143.310 143.353 135.544  1.00  0.00     0.008 C 
ATOM      8  C   UNL     1     143.979 141.069 134.782  1.00  0.00     0.021 C 
ATOM      9  C   UNL     1     145.302 140.770 134.058  1.00  0.00     0.012 C 
ATOM     10  C   UNL     1     143.146 138.753 134.051  1.00  0.00     0.012 C 
ENDROOT
TORSDOF 0
ENDMDL
MODEL 3
REMARK VINA RESULT:    -3.939      3.124      4.372
REMARK INTER + INTRA:          -3.939
REMARK INTER:                  -3.939
REMARK INTRA:                   0.000
REMARK UNBOUND:                 0.000
REMARK SMILES C=C1CC[C@H]2C[C@@H]1C2(C)C
REMARK SMILES IDX 9 1 8 2 5 3 4 4 3 5 2 6 1 7 7 8 6 9 10 10
REMARK H PARENT
REMARK Flexibility Score: inf
ROOT
ATOM      1  C   UNL     1     140.689 140.423 133.331  1.00  0.00     0.012 C 
ATOM      2  C   UNL     1     140.211 138.988 133.684  1.00  0.00    -0.026 C 
ATOM      3  C   UNL     1     140.523 137.836 132.695  1.00  0.00    -0.004 C 
ATOM      4  C   UNL     1     141.927 138.028 132.034  1.00  0.00     0.008 C 
ATOM      5  C   UNL     1     143.065 138.279 133.095  1.00  0.00     0.031 C 
ATOM      6  C   UNL     1     142.512 138.444 134.518  1.00  0.00    -0.074 C 
ATOM      7  C   UNL     1     143.302 138.802 135.536  1.00  0.00     0.008 C 
ATOM      8  C   UNL     1     141.024 138.177 134.721  1.00  0.00     0.021 C 
ATOM      9  C   UNL     1     140.733 136.908 133.903  1.00  0.00     0.012 C 
ATOM     10  C   UNL     1     138.705 139.049 134.044  1.00  0.00     0.012 C 
ENDROOT
TORSDOF 0
ENDMDL
MODEL 4
REMARK VINA RESULT:    -3.934      3.006      4.299
REMARK INTER + INTRA:          -3.934
REMARK INTER:                  -3.934
REMARK INTRA:                   0.000
REMARK UNBOUND:                 0.000
REMARK SMILES C=C1CC[C@H]2C[C@@H]1C2(C)C
REMARK SMILES IDX 9 1 8 2 5 3 4 4 3 5 2 6 1 7 7 8 6 9 10 10
REMARK H PARENT
REMARK Flexibility Score: inf
ROOT
ATOM      1  C   UNL     1     141.395 141.777 133.164  1.00  0.00     0.012 C 
ATOM      2  C   UNL     1     141.917 143.144 133.685  1.00  0.00    -0.026 C 
ATOM      3  C   UNL     1     141.703 144.405 132.808  1.00  0.00    -0.004 C 
ATOM      4  C   UNL     1     140.325 144.348 132.071  1.00  0.00     0.008 C 
ATOM      5  C   UNL     1     139.128 144.046 133.050  1.00  0.00     0.031 C 
ATOM      6  C   UNL     1     139.605 143.711 134.471  1.00  0.00    -0.074 C 
ATOM      7  C   UNL     1     138.752 143.290 135.411  1.00  0.00     0.008 C 
ATOM      8  C   UNL     1     141.092 143.884 134.764  1.00  0.00     0.021 C 
ATOM      9  C   UNL     1     141.476 145.214 134.096  1.00  0.00     0.012 C 
ATOM     10  C   UNL     1     143.400 142.974 134.101  1.00  0.00     0.012 C 
ENDROOT
TORSDOF 0
ENDMDL
MODEL 5
REMARK VINA RESULT:    -3.873      4.075      5.844
REMARK INTER + INTRA:          -3.873
REMARK INTER:                  -3.873
REMARK INTRA:                   0.000
REMARK UNBOUND:                 0.000
REMARK SMILES C=C1CC[C@H]2C[C@@H]1C2(C)C
REMARK SMILES IDX 9 1 8 2 5 3 4 4 3 5 2 6 1 7 7 8 6 9 10 10
REMARK H PARENT
REMARK Flexibility Score: inf
ROOT
ATOM      1  C   UNL     1     141.012 139.735 132.972  1.00  0.00     0.012 C 
ATOM      2  C   UNL     1     141.753 138.400 132.691  1.00  0.00    -0.026 C 
ATOM      3  C   UNL     1     142.108 138.040 131.226  1.00  0.00    -0.004 C 
ATOM      4  C   UNL     1     142.508 139.316 130.416  1.00  0.00     0.008 C 
ATOM      5  C   UNL     1     143.613 140.172 131.143  1.00  0.00     0.031 C 
ATOM      6  C   UNL     1     143.922 139.650 132.554  1.00  0.00    -0.074 C 
ATOM      7  C   UNL     1     144.728 140.320 133.385  1.00  0.00     0.008 C 
ATOM      8  C   UNL     1     143.274 138.331 132.965  1.00  0.00     0.021 C 
ATOM      9  C   UNL     1     143.418 137.418 131.736  1.00  0.00     0.012 C 
ATOM     10  C   UNL     1     140.982 137.255 133.397  1.00  0.00     0.012 C 
ENDROOT
TORSDOF 0
ENDMDL
MODEL 6
REMARK VINA RESULT:    -3.855      1.730      2.666
REMARK INTER + INTRA:          -3.855
REMARK INTER:                  -3.855
REMARK INTRA:                   0.000
REMARK UNBOUND:                 0.000
REMARK SMILES C=C1CC[C@H]2C[C@@H]1C2(C)C
REMARK SMILES IDX 9 1 8 2 5 3 4 4 3 5 2 6 1 7 7 8 6 9 10 10
REMARK H PARENT
REMARK Flexibility Score: inf
ROOT
ATOM      1  C   UNL     1     139.707 141.222 132.860  1.00  0.00     0.012 C 
ATOM      2  C   UNL     1     138.354 140.484 132.672  1.00  0.00    -0.026 C 
ATOM      3  C   UNL     1     137.922 140.078 131.240  1.00  0.00    -0.004 C 
ATOM      4  C   UNL     1     139.154 139.635 130.386  1.00  0.00     0.008 C 
ATOM      5  C   UNL     1     140.035 138.550 131.113  1.00  0.00     0.031 C 
ATOM      6  C   UNL     1     139.579 138.300 132.558  1.00  0.00    -0.074 C 
ATOM      7  C   UNL     1     140.282 137.519 133.386  1.00  0.00     0.008 C 
ATOM      8  C   UNL     1     138.286 138.975 133.006  1.00  0.00     0.021 C 
ATOM      9  C   UNL     1     137.315 138.794 131.829  1.00  0.00     0.012 C 
ATOM     10  C   UNL     1     137.251 141.292 133.402  1.00  0.00     0.012 C 
ENDROOT
TORSDOF 0
ENDMDL
MODEL 7
REMARK VINA RESULT:    -3.840      2.365      4.299
REMARK INTER + INTRA:          -3.840
REMARK INTER:                  -3.840
REMARK INTRA:                   0.000
REMARK UNBOUND:                 0.000
REMARK SMILES C=C1CC[C@H]2C[C@@H]1C2(C)C
REMARK SMILES IDX 9 1 8 2 5 3 4 4 3 5 2 6 1 7 7 8 6 9 10 10
REMARK H PARENT
REMARK Flexibility Score: inf
ROOT
ATOM      1  C   UNL     1     141.501 140.351 133.845  1.00  0.00     0.012 C 
ATOM      2  C   UNL     1     141.611 138.825 133.580  1.00  0.00    -0.026 C 
ATOM      3  C   UNL     1     141.376 137.847 134.758  1.00  0.00    -0.004 C 
ATOM      4  C   UNL     1     140.253 138.373 135.710  1.00  0.00     0.008 C 
ATOM      5  C   UNL     1     138.936 138.759 134.936  1.00  0.00     0.031 C 
ATOM      6  C   UNL     1     139.113 138.690 133.411  1.00  0.00    -0.074 C 
ATOM      7  C   UNL     1     138.156 139.114 132.579  1.00  0.00     0.008 C 
ATOM      8  C   UNL     1     140.425 138.112 132.889  1.00  0.00     0.021 C 
ATOM      9  C   UNL     1     140.696 136.882 133.772  1.00  0.00     0.012 C 
ATOM     10  C   UNL     1     142.955 138.550 132.859  1.00  0.00     0.012 C 
ENDROOT
TORSDOF 0
ENDMDL
MODEL 8
REMARK VINA RESULT:    -3.834      2.811      5.112
REMARK INTER + INTRA:          -3.834
REMARK INTER:                  -3.834
REMARK INTRA:                   0.000
REMARK UNBOUND:                 0.000
REMARK SMILES C=C1CC[C@H]2C[C@@H]1C2(C)C
REMARK SMILES IDX 9 1 8 2 5 3 4 4 3 5 2 6 1 7 7 8 6 9 10 10
REMARK H PARENT
REMARK Flexibility Score: inf
ROOT
ATOM      1  C   UNL     1     140.674 141.815 134.412  1.00  0.00     0.012 C 
ATOM      2  C   UNL     1     140.622 143.264 133.855  1.00  0.00    -0.026 C 
ATOM      3  C   UNL     1     140.806 144.446 134.841  1.00  0.00    -0.004 C 
ATOM      4  C   UNL     1     141.851 144.096 135.949  1.00  0.00     0.008 C 
ATOM      5  C   UNL     1     143.204 143.551 135.353  1.00  0.00     0.031 C 
ATOM      6  C   UNL     1     143.127 143.331 133.835  1.00  0.00    -0.074 C 
ATOM      7  C   UNL     1     144.124 142.743 133.164  1.00  0.00     0.008 C 
ATOM      8  C   UNL     1     141.868 143.817 133.124  1.00  0.00     0.021 C 
ATOM      9  C   UNL     1     141.573 145.196 133.739  1.00  0.00     0.012 C 
ATOM     10  C   UNL     1     139.334 143.415 133.006  1.00  0.00     0.012 C 
ENDROOT
TORSDOF 0
ENDMDL
MODEL 9
REMARK VINA RESULT:    -3.825      3.915      5.697
REMARK INTER + INTRA:          -3.825
REMARK INTER:                  -3.825
REMARK INTRA:                   0.000
REMARK UNBOUND:                 0.000
REMARK SMILES C=C1CC[C@H]2C[C@@H]1C2(C)C
REMARK SMILES IDX 9 1 8 2 5 3 4 4 3 5 2 6 1 7 7 8 6 9 10 10
REMARK H PARENT
REMARK Flexibility Score: inf
ROOT
ATOM      1  C   UNL     1     141.817 141.573 134.522  1.00  0.00     0.012 C 
ATOM      2  C   UNL     1     143.218 141.625 133.854  1.00  0.00    -0.026 C 
ATOM      3  C   UNL     1     144.475 141.496 134.751  1.00  0.00    -0.004 C 
ATOM      4  C   UNL     1     144.229 140.490 135.921  1.00  0.00     0.008 C 
ATOM      5  C   UNL     1     143.664 139.107 135.421  1.00  0.00     0.031 C 
ATOM      6  C   UNL     1     143.327 139.121 133.922  1.00  0.00    -0.074 C 
ATOM      7  C   UNL     1     142.707 138.091 133.338  1.00  0.00     0.008 C 
ATOM      8  C   UNL     1     143.735 140.359 133.130  1.00  0.00     0.021 C 
ATOM      9  C   UNL     1     145.151 140.698 133.624  1.00  0.00     0.012 C 
ATOM     10  C   UNL     1     143.280 142.880 132.947  1.00  0.00     0.012 C 
ENDROOT
TORSDOF 0
ENDMDL
