MODEL 1
REMARK VINA RESULT:    -0.946      0.000      0.000
REMARK INTER + INTRA:          -2.395
REMARK INTER:                  -2.383
REMARK INTRA:                  -0.012
REMARK UNBOUND:                -0.012
REMARK SMILES CCCCCCCCCCCCCCCCCCCCCCCCCCCC(=O)[O-]
REMARK SMILES IDX 15 1 16 2 17 3 18 4 19 5 20 6 21 7 22 8 23 9 24 10 25 11
REMARK SMILES IDX 26 12 27 13 28 14 29 15 30 16 14 17 13 18 12 19 11 20 10 21
REMARK SMILES IDX 9 22 8 23 7 24 6 25 5 26 4 27 3 28 2 29 1 30
REMARK H PARENT
REMARK Flexibility Score: inf
ROOT
ATOM      1  C   UNL     1      62.174  25.297  22.973  1.00  0.00     0.000 C 
ENDROOT
BRANCH   1   2
ATOM      2  C   UNL     1      62.312  26.571  23.827  1.00  0.00     0.000 C 
BRANCH   2   3
ATOM      3  C   UNL     1      63.600  26.575  24.678  1.00  0.00     0.000 C 
BRANCH   3   4
ATOM      4  C   UNL     1      64.124  25.169  25.028  1.00  0.00     0.000 C 
BRANCH   4   5
ATOM      5  C   UNL     1      63.274  24.386  26.042  1.00  0.00     0.000 C 
BRANCH   5   6
ATOM      6  C   UNL     1      63.659  22.899  26.120  1.00  0.00     0.000 C 
BRANCH   6   7
ATOM      7  C   UNL     1      62.510  21.970  25.697  1.00  0.00     0.000 C 
BRANCH   7   8
ATOM      8  C   UNL     1      62.961  20.887  24.700  1.00  0.00     0.000 C 
BRANCH   8   9
ATOM      9  C   UNL     1      64.119  21.359  23.803  1.00  0.00     0.000 C 
BRANCH   9  10
ATOM     10  C   UNL     1      63.972  20.876  22.349  1.00  0.00     0.000 C 
BRANCH  10  11
ATOM     11  C   UNL     1      62.761  21.500  21.638  1.00  0.00     0.000 C 
BRANCH  11  12
ATOM     12  C   UNL     1      63.036  22.921  21.122  1.00  0.00     0.006 C 
BRANCH  12  13
ATOM     13  C   UNL     1      62.011  23.325  20.056  1.00  0.00     0.053 C 
BRANCH  13  14
ATOM     14  C   UNL     1      62.136  22.455  18.845  1.00  0.00     0.041 C 
ATOM     15  O   UNL     1      61.438  21.412  18.737  1.00  0.00    -0.550 OA
ATOM     16  O   UNL     1      63.019  22.801  17.829  1.00  0.00    -0.550 OA
ENDBRANCH  13  14
ENDBRANCH  12  13
ENDBRANCH  11  12
ENDBRANCH  10  11
ENDBRANCH   9  10
ENDBRANCH   8   9
ENDBRANCH   7   8
ENDBRANCH   6   7
ENDBRANCH   5   6
ENDBRANCH   4   5
ENDBRANCH   3   4
ENDBRANCH   2   3
ENDBRANCH   1   2
BRANCH   1  17
ATOM     17  C   UNL     1      61.586  24.120  23.770  1.00  0.00     0.000 C 
BRANCH  17  18
ATOM     18  C   UNL     1      60.073  24.266  23.998  1.00  0.00     0.000 C 
BRANCH  18  19
ATOM     19  C   UNL     1      59.759  24.488  25.485  1.00  0.00     0.000 C 
BRANCH  19  20
ATOM     20  C   UNL     1      58.444  23.823  25.921  1.00  0.00     0.000 C 
BRANCH  20  21
ATOM     21  C   UNL     1      58.031  22.661  25.000  1.00  0.00     0.000 C 
BRANCH  21  22
ATOM     22  C   UNL     1      59.005  21.475  25.080  1.00  0.00    -0.000 C 
BRANCH  22  23
ATOM     23  C   UNL     1      59.707  21.194  23.741  1.00  0.00    -0.000 C 
BRANCH  23  24
ATOM     24  C   UNL     1      58.852  21.596  22.527  1.00  0.00    -0.000 C 
BRANCH  24  25
ATOM     25  C   UNL     1      57.481  20.888  22.480  1.00  0.00    -0.000 C 
BRANCH  25  26
ATOM     26  C   UNL     1      56.408  21.748  21.797  1.00  0.00    -0.000 C 
BRANCH  26  27
ATOM     27  C   UNL     1      55.692  22.646  22.814  1.00  0.00    -0.000 C 
BRANCH  27  28
ATOM     28  C   UNL     1      55.076  21.817  23.946  1.00  0.00    -0.000 C 
BRANCH  28  29
ATOM     29  C   UNL     1      53.603  22.190  24.158  1.00  0.00    -0.003 C 
ATOM     30  C   UNL     1      52.743  20.945  24.368  1.00  0.00     0.004 C 
ENDBRANCH  28  29
ENDBRANCH  27  28
ENDBRANCH  26  27
ENDBRANCH  25  26
ENDBRANCH  24  25
ENDBRANCH  23  24
ENDBRANCH  22  23
ENDBRANCH  21  22
ENDBRANCH  20  21
ENDBRANCH  19  20
ENDBRANCH  18  19
ENDBRANCH  17  18
ENDBRANCH   1  17
TORSDOF 26
ENDMDL
MODEL 2
REMARK VINA RESULT:    -0.942      2.863      6.285
REMARK INTER + INTRA:          -2.384
REMARK INTER:                  -0.545
REMARK INTRA:                  -1.839
REMARK UNBOUND:                -0.012
REMARK SMILES CCCCCCCCCCCCCCCCCCCCCCCCCCCC(=O)[O-]
REMARK SMILES IDX 15 1 16 2 17 3 18 4 19 5 20 6 21 7 22 8 23 9 24 10 25 11
REMARK SMILES IDX 26 12 27 13 28 14 29 15 30 16 14 17 13 18 12 19 11 20 10 21
REMARK SMILES IDX 9 22 8 23 7 24 6 25 5 26 4 27 3 28 2 29 1 30
REMARK H PARENT
REMARK Flexibility Score: inf
ROOT
ATOM      1  C   UNL     1      61.249  22.539  22.222  1.00  0.00     0.000 C 
ENDROOT
BRANCH   1   2
ATOM      2  C   UNL     1      62.090  21.249  22.243  1.00  0.00     0.000 C 
BRANCH   2   3
ATOM      3  C   UNL     1      63.527  21.489  22.754  1.00  0.00     0.000 C 
BRANCH   3   4
ATOM      4  C   UNL     1      63.675  21.382  24.284  1.00  0.00     0.000 C 
BRANCH   4   5
ATOM      5  C   UNL     1      63.306  22.652  25.068  1.00  0.00     0.000 C 
BRANCH   5   6
ATOM      6  C   UNL     1      62.213  22.405  26.121  1.00  0.00     0.000 C 
BRANCH   6   7
ATOM      7  C   UNL     1      61.693  20.959  26.102  1.00  0.00     0.000 C 
BRANCH   7   8
ATOM      8  C   UNL     1      60.156  20.882  26.121  1.00  0.00     0.000 C 
BRANCH   8   9
ATOM      9  C   UNL     1      59.547  20.935  24.709  1.00  0.00     0.000 C 
BRANCH   9  10
ATOM     10  C   UNL     1      58.839  22.272  24.423  1.00  0.00     0.000 C 
BRANCH  10  11
ATOM     11  C   UNL     1      57.903  22.197  23.207  1.00  0.00     0.000 C 
BRANCH  11  12
ATOM     12  C   UNL     1      56.708  21.257  23.427  1.00  0.00     0.006 C 
BRANCH  12  13
ATOM     13  C   UNL     1      55.525  21.657  22.538  1.00  0.00     0.053 C 
BRANCH  13  14
ATOM     14  C   UNL     1      54.269  21.764  23.344  1.00  0.00     0.041 C 
ATOM     15  O   UNL     1      54.190  22.592  24.290  1.00  0.00    -0.550 OA
ATOM     16  O   UNL     1      53.181  20.955  23.044  1.00  0.00    -0.550 OA
ENDBRANCH  13  14
ENDBRANCH  12  13
ENDBRANCH  11  12
ENDBRANCH  10  11
ENDBRANCH   9  10
ENDBRANCH   8   9
ENDBRANCH   7   8
ENDBRANCH   6   7
ENDBRANCH   5   6
ENDBRANCH   4   5
ENDBRANCH   3   4
ENDBRANCH   2   3
ENDBRANCH   1   2
BRANCH   1  17
ATOM     17  C   UNL     1      60.289  22.592  21.023  1.00  0.00     0.000 C 
BRANCH  17  18
ATOM     18  C   UNL     1      60.742  21.684  19.869  1.00  0.00     0.000 C 
BRANCH  18  19
ATOM     19  C   UNL     1      61.563  22.473  18.837  1.00  0.00     0.000 C 
BRANCH  19  20
ATOM     20  C   UNL     1      63.077  22.250  18.985  1.00  0.00     0.000 C 
BRANCH  20  21
ATOM     21  C   UNL     1      63.844  23.553  19.273  1.00  0.00     0.000 C 
BRANCH  21  22
ATOM     22  C   UNL     1      64.125  23.750  20.771  1.00  0.00    -0.000 C 
BRANCH  22  23
ATOM     23  C   UNL     1      63.794  25.171  21.253  1.00  0.00    -0.000 C 
BRANCH  23  24
ATOM     24  C   UNL     1      64.081  25.372  22.751  1.00  0.00    -0.000 C 
BRANCH  24  25
ATOM     25  C   UNL     1      62.866  25.898  23.544  1.00  0.00    -0.000 C 
BRANCH  25  26
ATOM     26  C   UNL     1      61.835  24.794  23.824  1.00  0.00    -0.000 C 
BRANCH  26  27
ATOM     27  C   UNL     1      60.447  25.390  24.086  1.00  0.00    -0.000 C 
BRANCH  27  28
ATOM     28  C   UNL     1      59.799  24.762  25.324  1.00  0.00    -0.000 C 
BRANCH  28  29
ATOM     29  C   UNL     1      58.377  25.299  25.531  1.00  0.00    -0.003 C 
ATOM     30  C   UNL     1      57.915  26.115  24.326  1.00  0.00     0.004 C 
ENDBRANCH  28  29
ENDBRANCH  27  28
ENDBRANCH  26  27
ENDBRANCH  25  26
ENDBRANCH  24  25
ENDBRANCH  23  24
ENDBRANCH  22  23
ENDBRANCH  21  22
ENDBRANCH  20  21
ENDBRANCH  19  20
ENDBRANCH  18  19
ENDBRANCH  17  18
ENDBRANCH   1  17
TORSDOF 26
ENDMDL
MODEL 3
REMARK VINA RESULT:    -0.162      2.792      6.559
REMARK INTER + INTRA:          -0.419
REMARK INTER:                  -1.611
REMARK INTRA:                   1.192
REMARK UNBOUND:                -0.012
REMARK SMILES CCCCCCCCCCCCCCCCCCCCCCCCCCCC(=O)[O-]
REMARK SMILES IDX 15 1 16 2 17 3 18 4 19 5 20 6 21 7 22 8 23 9 24 10 25 11
REMARK SMILES IDX 26 12 27 13 28 14 29 15 30 16 14 17 13 18 12 19 11 20 10 21
REMARK SMILES IDX 9 22 8 23 7 24 6 25 5 26 4 27 3 28 2 29 1 30
REMARK H PARENT
REMARK Flexibility Score: inf
ROOT
ATOM      1  C   UNL     1      64.125  22.910  23.794  1.00  0.00     0.000 C 
ENDROOT
BRANCH   1   2
ATOM      2  C   UNL     1      63.712  24.072  22.872  1.00  0.00     0.000 C 
BRANCH   2   3
ATOM      3  C   UNL     1      63.075  23.583  21.554  1.00  0.00     0.000 C 
BRANCH   3   4
ATOM      4  C   UNL     1      64.023  22.746  20.673  1.00  0.00     0.000 C 
BRANCH   4   5
ATOM      5  C   UNL     1      63.730  22.798  19.164  1.00  0.00     0.000 C 
BRANCH   5   6
ATOM      6  C   UNL     1      62.343  22.236  18.807  1.00  0.00     0.000 C 
BRANCH   6   7
ATOM      7  C   UNL     1      62.016  20.945  19.575  1.00  0.00     0.000 C 
BRANCH   7   8
ATOM      8  C   UNL     1      61.293  21.216  20.907  1.00  0.00     0.000 C 
BRANCH   8   9
ATOM      9  C   UNL     1      59.778  20.959  20.818  1.00  0.00     0.000 C 
BRANCH   9  10
ATOM     10  C   UNL     1      58.950  22.093  21.447  1.00  0.00     0.000 C 
BRANCH  10  11
ATOM     11  C   UNL     1      58.129  21.624  22.658  1.00  0.00     0.000 C 
BRANCH  11  12
ATOM     12  C   UNL     1      56.613  21.752  22.442  1.00  0.00     0.006 C 
BRANCH  12  13
ATOM     13  C   UNL     1      55.869  21.772  23.782  1.00  0.00     0.053 C 
BRANCH  13  14
ATOM     14  C   UNL     1      54.397  21.939  23.567  1.00  0.00     0.041 C 
ATOM     15  O   UNL     1      53.758  21.107  22.869  1.00  0.00    -0.550 OA
ATOM     16  O   UNL     1      53.728  23.009  24.147  1.00  0.00    -0.550 OA
ENDBRANCH  13  14
ENDBRANCH  12  13
ENDBRANCH  11  12
ENDBRANCH  10  11
ENDBRANCH   9  10
ENDBRANCH   8   9
ENDBRANCH   7   8
ENDBRANCH   6   7
ENDBRANCH   5   6
ENDBRANCH   4   5
ENDBRANCH   3   4
ENDBRANCH   2   3
ENDBRANCH   1   2
BRANCH   1  17
ATOM     17  C   UNL     1      63.568  23.067  25.219  1.00  0.00     0.000 C 
BRANCH  17  18
ATOM     18  C   UNL     1      62.856  21.798  25.712  1.00  0.00     0.000 C 
BRANCH  18  19
ATOM     19  C   UNL     1      61.727  21.392  24.754  1.00  0.00     0.000 C 
BRANCH  19  20
ATOM     20  C   UNL     1      60.479  20.875  25.489  1.00  0.00     0.000 C 
BRANCH  20  21
ATOM     21  C   UNL     1      59.305  21.868  25.438  1.00  0.00     0.000 C 
BRANCH  21  22
ATOM     22  C   UNL     1      59.650  23.220  26.083  1.00  0.00    -0.000 C 
BRANCH  22  23
ATOM     23  C   UNL     1      59.490  24.399  25.109  1.00  0.00    -0.000 C 
BRANCH  23  24
ATOM     24  C   UNL     1      60.596  24.440  24.041  1.00  0.00    -0.000 C 
BRANCH  24  25
ATOM     25  C   UNL     1      60.807  25.842  23.430  1.00  0.00    -0.000 C 
BRANCH  25  26
ATOM     26  C   UNL     1      62.255  26.062  22.968  1.00  0.00    -0.000 C 
BRANCH  26  27
ATOM     27  C   UNL     1      62.881  27.272  23.671  1.00  0.00    -0.000 C 
BRANCH  27  28
ATOM     28  C   UNL     1      64.125  26.866  24.469  1.00  0.00    -0.000 C 
BRANCH  28  29
ATOM     29  C   UNL     1      63.770  26.593  25.936  1.00  0.00    -0.003 C 
ATOM     30  C   UNL     1      62.724  25.487  26.055  1.00  0.00     0.004 C 
ENDBRANCH  28  29
ENDBRANCH  27  28
ENDBRANCH  26  27
ENDBRANCH  25  26
ENDBRANCH  24  25
ENDBRANCH  23  24
ENDBRANCH  22  23
ENDBRANCH  21  22
ENDBRANCH  20  21
ENDBRANCH  19  20
ENDBRANCH  18  19
ENDBRANCH  17  18
ENDBRANCH   1  17
TORSDOF 26
ENDMDL
MODEL 4
REMARK VINA RESULT:     0.247      3.140      5.857
REMARK INTER + INTRA:           0.610
REMARK INTER:                   3.538
REMARK INTRA:                  -2.927
REMARK UNBOUND:                -0.012
REMARK SMILES CCCCCCCCCCCCCCCCCCCCCCCCCCCC(=O)[O-]
REMARK SMILES IDX 15 1 16 2 17 3 18 4 19 5 20 6 21 7 22 8 23 9 24 10 25 11
REMARK SMILES IDX 26 12 27 13 28 14 29 15 30 16 14 17 13 18 12 19 11 20 10 21
REMARK SMILES IDX 9 22 8 23 7 24 6 25 5 26 4 27 3 28 2 29 1 30
REMARK H PARENT
REMARK Flexibility Score: inf
ROOT
ATOM      1  C   UNL     1      63.900  23.365  24.225  1.00  0.00     0.000 C 
ENDROOT
BRANCH   1   2
ATOM      2  C   UNL     1      63.918  24.481  23.164  1.00  0.00     0.000 C 
BRANCH   2   3
ATOM      3  C   UNL     1      63.243  24.051  21.844  1.00  0.00     0.000 C 
BRANCH   3   4
ATOM      4  C   UNL     1      63.974  22.911  21.109  1.00  0.00     0.000 C 
BRANCH   4   5
ATOM      5  C   UNL     1      63.264  22.380  19.853  1.00  0.00     0.000 C 
BRANCH   5   6
ATOM      6  C   UNL     1      61.732  22.364  19.996  1.00  0.00     0.000 C 
BRANCH   6   7
ATOM      7  C   UNL     1      61.205  21.019  20.520  1.00  0.00     0.000 C 
BRANCH   7   8
ATOM      8  C   UNL     1      61.228  20.932  22.057  1.00  0.00     0.000 C 
BRANCH   8   9
ATOM      9  C   UNL     1      59.833  21.126  22.678  1.00  0.00     0.000 C 
BRANCH   9  10
ATOM     10  C   UNL     1      58.766  21.487  21.629  1.00  0.00     0.000 C 
BRANCH  10  11
ATOM     11  C   UNL     1      57.677  22.414  22.189  1.00  0.00     0.000 C 
BRANCH  11  12
ATOM     12  C   UNL     1      56.767  21.719  23.214  1.00  0.00     0.006 C 
BRANCH  12  13
ATOM     13  C   UNL     1      55.721  22.693  23.767  1.00  0.00     0.053 C 
BRANCH  13  14
ATOM     14  C   UNL     1      54.355  22.084  23.722  1.00  0.00     0.041 C 
ATOM     15  O   UNL     1      53.458  22.474  24.516  1.00  0.00    -0.550 OA
ATOM     16  O   UNL     1      54.068  21.089  22.795  1.00  0.00    -0.550 OA
ENDBRANCH  13  14
ENDBRANCH  12  13
ENDBRANCH  11  12
ENDBRANCH  10  11
ENDBRANCH   9  10
ENDBRANCH   8   9
ENDBRANCH   7   8
ENDBRANCH   6   7
ENDBRANCH   5   6
ENDBRANCH   4   5
ENDBRANCH   3   4
ENDBRANCH   2   3
ENDBRANCH   1   2
BRANCH   1  17
ATOM     17  C   UNL     1      63.120  23.770  25.487  1.00  0.00     0.000 C 
BRANCH  17  18
ATOM     18  C   UNL     1      62.336  22.596  26.093  1.00  0.00     0.000 C 
BRANCH  18  19
ATOM     19  C   UNL     1      61.120  22.240  25.224  1.00  0.00     0.000 C 
BRANCH  19  20
ATOM     20  C   UNL     1      59.934  21.712  26.048  1.00  0.00     0.000 C 
BRANCH  20  21
ATOM     21  C   UNL     1      58.747  22.691  26.078  1.00  0.00     0.000 C 
BRANCH  21  22
ATOM     22  C   UNL     1      59.199  24.159  26.125  1.00  0.00    -0.000 C 
BRANCH  22  23
ATOM     23  C   UNL     1      58.924  24.906  24.809  1.00  0.00    -0.000 C 
BRANCH  23  24
ATOM     24  C   UNL     1      59.910  24.522  23.693  1.00  0.00    -0.000 C 
BRANCH  24  25
ATOM     25  C   UNL     1      60.731  25.717  23.162  1.00  0.00    -0.000 C 
BRANCH  25  26
ATOM     26  C   UNL     1      59.994  27.052  23.342  1.00  0.00    -0.000 C 
BRANCH  26  27
ATOM     27  C   UNL     1      59.813  27.767  21.997  1.00  0.00    -0.000 C 
BRANCH  27  28
ATOM     28  C   UNL     1      58.762  28.878  22.099  1.00  0.00    -0.000 C 
BRANCH  28  29
ATOM     29  C   UNL     1      58.100  28.880  23.483  1.00  0.00    -0.003 C 
ATOM     30  C   UNL     1      56.735  28.195  23.442  1.00  0.00     0.004 C 
ENDBRANCH  28  29
ENDBRANCH  27  28
ENDBRANCH  26  27
ENDBRANCH  25  26
ENDBRANCH  24  25
ENDBRANCH  23  24
ENDBRANCH  22  23
ENDBRANCH  21  22
ENDBRANCH  20  21
ENDBRANCH  19  20
ENDBRANCH  18  19
ENDBRANCH  17  18
ENDBRANCH   1  17
TORSDOF 26
ENDMDL
MODEL 5
REMARK VINA RESULT:     0.645      2.541      6.400
REMARK INTER + INTRA:           1.614
REMARK INTER:                   4.459
REMARK INTRA:                  -2.844
REMARK UNBOUND:                -0.012
REMARK SMILES CCCCCCCCCCCCCCCCCCCCCCCCCCCC(=O)[O-]
REMARK SMILES IDX 15 1 16 2 17 3 18 4 19 5 20 6 21 7 22 8 23 9 24 10 25 11
REMARK SMILES IDX 26 12 27 13 28 14 29 15 30 16 14 17 13 18 12 19 11 20 10 21
REMARK SMILES IDX 9 22 8 23 7 24 6 25 5 26 4 27 3 28 2 29 1 30
REMARK H PARENT
REMARK Flexibility Score: inf
ROOT
ATOM      1  C   UNL     1      60.798  22.644  22.304  1.00  0.00     0.000 C 
ENDROOT
BRANCH   1   2
ATOM      2  C   UNL     1      61.379  21.303  22.788  1.00  0.00     0.000 C 
BRANCH   2   3
ATOM      3  C   UNL     1      62.642  21.486  23.655  1.00  0.00     0.000 C 
BRANCH   3   4
ATOM      4  C   UNL     1      62.356  21.606  25.164  1.00  0.00     0.000 C 
BRANCH   4   5
ATOM      5  C   UNL     1      62.414  23.035  25.730  1.00  0.00     0.000 C 
BRANCH   5   6
ATOM      6  C   UNL     1      61.029  23.576  26.123  1.00  0.00     0.000 C 
BRANCH   6   7
ATOM      7  C   UNL     1      59.968  23.322  25.040  1.00  0.00     0.000 C 
BRANCH   7   8
ATOM      8  C   UNL     1      58.532  23.408  25.587  1.00  0.00     0.000 C 
BRANCH   8   9
ATOM      9  C   UNL     1      57.640  22.260  25.082  1.00  0.00     0.000 C 
BRANCH   9  10
ATOM     10  C   UNL     1      58.093  21.720  23.713  1.00  0.00     0.000 C 
BRANCH  10  11
ATOM     11  C   UNL     1      56.997  20.910  23.005  1.00  0.00     0.000 C 
BRANCH  11  12
ATOM     12  C   UNL     1      55.591  21.193  23.557  1.00  0.00     0.006 C 
BRANCH  12  13
ATOM     13  C   UNL     1      54.784  22.058  22.582  1.00  0.00     0.053 C 
BRANCH  13  14
ATOM     14  C   UNL     1      55.589  23.234  22.125  1.00  0.00     0.041 C 
ATOM     15  O   UNL     1      56.079  24.034  22.966  1.00  0.00    -0.550 OA
ATOM     16  O   UNL     1      55.808  23.440  20.769  1.00  0.00    -0.550 OA
ENDBRANCH  13  14
ENDBRANCH  12  13
ENDBRANCH  11  12
ENDBRANCH  10  11
ENDBRANCH   9  10
ENDBRANCH   8   9
ENDBRANCH   7   8
ENDBRANCH   6   7
ENDBRANCH   5   6
ENDBRANCH   4   5
ENDBRANCH   3   4
ENDBRANCH   2   3
ENDBRANCH   1   2
BRANCH   1  17
ATOM     17  C   UNL     1      60.260  22.564  20.865  1.00  0.00     0.000 C 
BRANCH  17  18
ATOM     18  C   UNL     1      60.941  21.455  20.047  1.00  0.00     0.000 C 
BRANCH  18  19
ATOM     19  C   UNL     1      61.888  22.050  18.995  1.00  0.00     0.000 C 
BRANCH  19  20
ATOM     20  C   UNL     1      63.370  21.796  19.315  1.00  0.00     0.000 C 
BRANCH  20  21
ATOM     21  C   UNL     1      64.124  23.081  19.702  1.00  0.00     0.000 C 
BRANCH  21  22
ATOM     22  C   UNL     1      64.115  23.334  21.218  1.00  0.00    -0.000 C 
BRANCH  22  23
ATOM     23  C   UNL     1      63.945  24.821  21.569  1.00  0.00    -0.000 C 
BRANCH  23  24
ATOM     24  C   UNL     1      63.986  25.081  23.085  1.00  0.00    -0.000 C 
BRANCH  24  25
ATOM     25  C   UNL     1      62.653  25.612  23.653  1.00  0.00    -0.000 C 
BRANCH  25  26
ATOM     26  C   UNL     1      61.672  26.021  22.543  1.00  0.00    -0.000 C 
BRANCH  26  27
ATOM     27  C   UNL     1      60.350  26.525  23.134  1.00  0.00    -0.000 C 
BRANCH  27  28
ATOM     28  C   UNL     1      59.629  27.462  22.158  1.00  0.00    -0.000 C 
BRANCH  28  29
ATOM     29  C   UNL     1      59.074  28.691  22.889  1.00  0.00    -0.003 C 
ATOM     30  C   UNL     1      57.737  28.380  23.556  1.00  0.00     0.004 C 
ENDBRANCH  28  29
ENDBRANCH  27  28
ENDBRANCH  26  27
ENDBRANCH  25  26
ENDBRANCH  24  25
ENDBRANCH  23  24
ENDBRANCH  22  23
ENDBRANCH  21  22
ENDBRANCH  20  21
ENDBRANCH  19  20
ENDBRANCH  18  19
ENDBRANCH  17  18
ENDBRANCH   1  17
TORSDOF 26
ENDMDL
MODEL 6
REMARK VINA RESULT:     0.875      2.491      6.836
REMARK INTER + INTRA:           2.193
REMARK INTER:                   2.937
REMARK INTRA:                  -0.744
REMARK UNBOUND:                -0.012
REMARK SMILES CCCCCCCCCCCCCCCCCCCCCCCCCCCC(=O)[O-]
REMARK SMILES IDX 15 1 16 2 17 3 18 4 19 5 20 6 21 7 22 8 23 9 24 10 25 11
REMARK SMILES IDX 26 12 27 13 28 14 29 15 30 16 14 17 13 18 12 19 11 20 10 21
REMARK SMILES IDX 9 22 8 23 7 24 6 25 5 26 4 27 3 28 2 29 1 30
REMARK H PARENT
REMARK Flexibility Score: inf
ROOT
ATOM      1  C   UNL     1      60.721  20.980  23.637  1.00  0.00     0.000 C 
ENDROOT
BRANCH   1   2
ATOM      2  C   UNL     1      59.698  20.902  24.785  1.00  0.00     0.000 C 
BRANCH   2   3
ATOM      3  C   UNL     1      60.168  21.655  26.047  1.00  0.00     0.000 C 
BRANCH   3   4
ATOM      4  C   UNL     1      59.681  23.114  26.125  1.00  0.00     0.000 C 
BRANCH   4   5
ATOM      5  C   UNL     1      59.663  23.871  24.786  1.00  0.00     0.000 C 
BRANCH   5   6
ATOM      6  C   UNL     1      58.621  25.002  24.754  1.00  0.00     0.000 C 
BRANCH   6   7
ATOM      7  C   UNL     1      57.208  24.490  24.434  1.00  0.00     0.000 C 
BRANCH   7   8
ATOM      8  C   UNL     1      57.108  22.954  24.488  1.00  0.00     0.000 C 
BRANCH   8   9
ATOM      9  C   UNL     1      55.796  22.428  23.881  1.00  0.00     0.000 C 
BRANCH   9  10
ATOM     10  C   UNL     1      55.968  21.950  22.428  1.00  0.00     0.000 C 
BRANCH  10  11
ATOM     11  C   UNL     1      56.596  23.022  21.524  1.00  0.00     0.000 C 
BRANCH  11  12
ATOM     12  C   UNL     1      55.735  23.350  20.295  1.00  0.00     0.006 C 
BRANCH  12  13
ATOM     13  C   UNL     1      55.937  24.805  19.857  1.00  0.00     0.053 C 
BRANCH  13  14
ATOM     14  C   UNL     1      55.572  24.979  18.416  1.00  0.00     0.041 C 
ATOM     15  O   UNL     1      55.457  26.133  17.924  1.00  0.00    -0.550 OA
ATOM     16  O   UNL     1      55.369  23.864  17.611  1.00  0.00    -0.550 OA
ENDBRANCH  13  14
ENDBRANCH  12  13
ENDBRANCH  11  12
ENDBRANCH  10  11
ENDBRANCH   9  10
ENDBRANCH   8   9
ENDBRANCH   7   8
ENDBRANCH   6   7
ENDBRANCH   5   6
ENDBRANCH   4   5
ENDBRANCH   3   4
ENDBRANCH   2   3
ENDBRANCH   1   2
BRANCH   1  17
ATOM     17  C   UNL     1      60.049  21.161  22.266  1.00  0.00     0.000 C 
BRANCH  17  18
ATOM     18  C   UNL     1      59.901  22.640  21.877  1.00  0.00     0.000 C 
BRANCH  18  19
ATOM     19  C   UNL     1      60.928  23.034  20.805  1.00  0.00     0.000 C 
BRANCH  19  20
ATOM     20  C   UNL     1      61.163  21.922  19.770  1.00  0.00     0.000 C 
BRANCH  20  21
ATOM     21  C   UNL     1      62.590  21.940  19.192  1.00  0.00     0.000 C 
BRANCH  21  22
ATOM     22  C   UNL     1      63.604  21.242  20.111  1.00  0.00    -0.000 C 
BRANCH  22  23
ATOM     23  C   UNL     1      63.797  21.979  21.447  1.00  0.00    -0.000 C 
BRANCH  23  24
ATOM     24  C   UNL     1      63.744  23.508  21.295  1.00  0.00    -0.000 C 
BRANCH  24  25
ATOM     25  C   UNL     1      64.125  24.267  22.584  1.00  0.00    -0.000 C 
BRANCH  25  26
ATOM     26  C   UNL     1      63.321  25.565  22.751  1.00  0.00    -0.000 C 
BRANCH  26  27
ATOM     27  C   UNL     1      62.187  25.384  23.768  1.00  0.00    -0.000 C 
BRANCH  27  28
ATOM     28  C   UNL     1      62.739  25.230  25.190  1.00  0.00    -0.000 C 
BRANCH  28  29
ATOM     29  C   UNL     1      63.857  24.181  25.232  1.00  0.00    -0.003 C 
ATOM     30  C   UNL     1      63.408  22.926  25.976  1.00  0.00     0.004 C 
ENDBRANCH  28  29
ENDBRANCH  27  28
ENDBRANCH  26  27
ENDBRANCH  25  26
ENDBRANCH  24  25
ENDBRANCH  23  24
ENDBRANCH  22  23
ENDBRANCH  21  22
ENDBRANCH  20  21
ENDBRANCH  19  20
ENDBRANCH  18  19
ENDBRANCH  17  18
ENDBRANCH   1  17
TORSDOF 26
ENDMDL
MODEL 7
REMARK VINA RESULT:     1.707      5.303      8.866
REMARK INTER + INTRA:           4.291
REMARK INTER:                   7.446
REMARK INTRA:                  -3.155
REMARK UNBOUND:                -0.012
REMARK SMILES CCCCCCCCCCCCCCCCCCCCCCCCCCCC(=O)[O-]
REMARK SMILES IDX 15 1 16 2 17 3 18 4 19 5 20 6 21 7 22 8 23 9 24 10 25 11
REMARK SMILES IDX 26 12 27 13 28 14 29 15 30 16 14 17 13 18 12 19 11 20 10 21
REMARK SMILES IDX 9 22 8 23 7 24 6 25 5 26 4 27 3 28 2 29 1 30
REMARK H PARENT
REMARK Flexibility Score: inf
ROOT
ATOM      1  C   UNL     1      58.166  20.960  23.083  1.00  0.00     0.000 C 
ENDROOT
BRANCH   1   2
ATOM      2  C   UNL     1      56.628  21.027  23.086  1.00  0.00     0.000 C 
BRANCH   2   3
ATOM      3  C   UNL     1      56.099  22.464  23.277  1.00  0.00     0.000 C 
BRANCH   3   4
ATOM      4  C   UNL     1      55.455  23.068  22.015  1.00  0.00     0.000 C 
BRANCH   4   5
ATOM      5  C   UNL     1      56.444  23.563  20.946  1.00  0.00     0.000 C 
BRANCH   5   6
ATOM      6  C   UNL     1      55.777  24.451  19.882  1.00  0.00     0.000 C 
BRANCH   6   7
ATOM      7  C   UNL     1      55.770  23.797  18.491  1.00  0.00     0.000 C 
BRANCH   7   8
ATOM      8  C   UNL     1      55.442  24.799  17.369  1.00  0.00     0.000 C 
BRANCH   8   9
ATOM      9  C   UNL     1      55.468  26.258  17.856  1.00  0.00     0.000 C 
BRANCH   9  10
ATOM     10  C   UNL     1      54.223  27.048  17.416  1.00  0.00     0.000 C 
BRANCH  10  11
ATOM     11  C   UNL     1      54.552  28.153  16.399  1.00  0.00     0.000 C 
BRANCH  11  12
ATOM     12  C   UNL     1      53.547  29.314  16.430  1.00  0.00     0.006 C 
BRANCH  12  13
ATOM     13  C   UNL     1      53.949  30.412  15.438  1.00  0.00     0.053 C 
BRANCH  13  14
ATOM     14  C   UNL     1      55.010  31.291  16.023  1.00  0.00     0.041 C 
ATOM     15  O   UNL     1      54.983  31.593  17.246  1.00  0.00    -0.550 OA
ATOM     16  O   UNL     1      56.037  31.769  15.218  1.00  0.00    -0.550 OA
ENDBRANCH  13  14
ENDBRANCH  12  13
ENDBRANCH  11  12
ENDBRANCH  10  11
ENDBRANCH   9  10
ENDBRANCH   8   9
ENDBRANCH   7   8
ENDBRANCH   6   7
ENDBRANCH   5   6
ENDBRANCH   4   5
ENDBRANCH   3   4
ENDBRANCH   2   3
ENDBRANCH   1   2
BRANCH   1  17
ATOM     17  C   UNL     1      58.802  22.091  23.910  1.00  0.00     0.000 C 
BRANCH  17  18
ATOM     18  C   UNL     1      59.501  23.138  23.030  1.00  0.00     0.000 C 
BRANCH  18  19
ATOM     19  C   UNL     1      60.206  24.198  23.889  1.00  0.00     0.000 C 
BRANCH  19  20
ATOM     20  C   UNL     1      61.129  25.112  23.067  1.00  0.00     0.000 C 
BRANCH  20  21
ATOM     21  C   UNL     1      62.395  25.527  23.838  1.00  0.00     0.000 C 
BRANCH  21  22
ATOM     22  C   UNL     1      62.426  24.958  25.266  1.00  0.00    -0.000 C 
BRANCH  22  23
ATOM     23  C   UNL     1      63.445  23.819  25.427  1.00  0.00    -0.000 C 
BRANCH  23  24
ATOM     24  C   UNL     1      62.819  22.539  26.007  1.00  0.00    -0.000 C 
BRANCH  24  25
ATOM     25  C   UNL     1      62.677  21.402  24.973  1.00  0.00    -0.000 C 
BRANCH  25  26
ATOM     26  C   UNL     1      63.445  21.699  23.676  1.00  0.00    -0.000 C 
BRANCH  26  27
ATOM     27  C   UNL     1      62.568  21.444  22.445  1.00  0.00    -0.000 C 
BRANCH  27  28
ATOM     28  C   UNL     1      62.870  22.453  21.332  1.00  0.00    -0.000 C 
BRANCH  28  29
ATOM     29  C   UNL     1      61.826  22.362  20.212  1.00  0.00    -0.003 C 
ATOM     30  C   UNL     1      62.484  22.067  18.866  1.00  0.00     0.004 C 
ENDBRANCH  28  29
ENDBRANCH  27  28
ENDBRANCH  26  27
ENDBRANCH  25  26
ENDBRANCH  24  25
ENDBRANCH  23  24
ENDBRANCH  22  23
ENDBRANCH  21  22
ENDBRANCH  20  21
ENDBRANCH  19  20
ENDBRANCH  18  19
ENDBRANCH  17  18
ENDBRANCH   1  17
TORSDOF 26
ENDMDL
