MODEL 1
REMARK VINA RESULT:    -4.630      0.000      0.000
REMARK INTER + INTRA:         -13.668
REMARK INTER:                 -10.584
REMARK INTRA:                  -3.084
REMARK UNBOUND:                -3.084
REMARK SMILES CCCCCCCCCCCCCCCCCCCCCCCC(=O)[O-]
REMARK SMILES IDX 13 1 14 2 15 3 16 4 17 5 18 6 19 7 20 8 21 9 22 10 23 11
REMARK SMILES IDX 24 12 25 13 26 14 12 15 11 16 10 17 9 18 8 19 7 20 6 21 5 22
REMARK SMILES IDX 4 23 3 24 2 25 1 26
REMARK H PARENT
REMARK Flexibility Score: inf
ROOT
ATOM      1  C   UNL     1       4.963  -4.929 -19.851  1.00  0.00     0.000 C 
ENDROOT
BRANCH   1   2
ATOM      2  C   UNL     1       4.209  -6.033 -19.090  1.00  0.00     0.000 C 
BRANCH   2   3
ATOM      3  C   UNL     1       3.001  -5.499 -18.303  1.00  0.00     0.000 C 
BRANCH   3   4
ATOM      4  C   UNL     1       2.351  -4.277 -18.970  1.00  0.00     0.000 C 
BRANCH   4   5
ATOM      5  C   UNL     1       1.102  -4.644 -19.785  1.00  0.00     0.000 C 
BRANCH   5   6
ATOM      6  C   UNL     1       1.478  -5.014 -21.227  1.00  0.00     0.000 C 
BRANCH   6   7
ATOM      7  C   UNL     1       0.801  -6.309 -21.706  1.00  0.00     0.000 C 
BRANCH   7   8
ATOM      8  C   UNL     1       0.780  -7.423 -20.637  1.00  0.00     0.000 C 
BRANCH   8   9
ATOM      9  C   UNL     1       1.917  -8.437 -20.840  1.00  0.00     0.000 C 
BRANCH   9  10
ATOM     10  C   UNL     1       1.371  -9.800 -21.280  1.00  0.00     0.006 C 
BRANCH  10  11
ATOM     11  C   UNL     1       1.737 -10.891 -20.270  1.00  0.00     0.053 C 
BRANCH  11  12
ATOM     12  C   UNL     1       0.518 -11.653 -19.856  1.00  0.00     0.041 C 
ATOM     13  O   UNL     1      -0.499 -11.038 -19.436  1.00  0.00    -0.550 OA
ATOM     14  O   UNL     1       0.482 -13.037 -19.982  1.00  0.00    -0.550 OA
ENDBRANCH  11  12
ENDBRANCH  10  11
ENDBRANCH   9  10
ENDBRANCH   8   9
ENDBRANCH   7   8
ENDBRANCH   6   7
ENDBRANCH   5   6
ENDBRANCH   4   5
ENDBRANCH   3   4
ENDBRANCH   2   3
ENDBRANCH   1   2
BRANCH   1  15
ATOM     15  C   UNL     1       5.232  -5.268 -21.335  1.00  0.00     0.000 C 
BRANCH  15  16
ATOM     16  C   UNL     1       4.839  -6.703 -21.730  1.00  0.00     0.000 C 
BRANCH  16  17
ATOM     17  C   UNL     1       5.948  -7.435 -22.501  1.00  0.00     0.000 C 
BRANCH  17  18
ATOM     18  C   UNL     1       5.979  -8.925 -22.134  1.00  0.00    -0.000 C 
BRANCH  18  19
ATOM     19  C   UNL     1       6.647  -9.792 -23.214  1.00  0.00    -0.000 C 
BRANCH  19  20
ATOM     20  C   UNL     1       5.784 -10.992 -23.630  1.00  0.00    -0.000 C 
BRANCH  20  21
ATOM     21  C   UNL     1       4.419 -10.950 -22.930  1.00  0.00    -0.000 C 
BRANCH  21  22
ATOM     22  C   UNL     1       3.467 -12.009 -23.508  1.00  0.00    -0.000 C 
BRANCH  22  23
ATOM     23  C   UNL     1       3.432 -13.296 -22.667  1.00  0.00    -0.000 C 
BRANCH  23  24
ATOM     24  C   UNL     1       4.678 -13.453 -21.777  1.00  0.00    -0.000 C 
BRANCH  24  25
ATOM     25  C   UNL     1       5.271 -14.870 -21.840  1.00  0.00    -0.003 C 
ATOM     26  C   UNL     1       4.220 -15.940 -22.139  1.00  0.00     0.004 C 
ENDBRANCH  24  25
ENDBRANCH  23  24
ENDBRANCH  22  23
ENDBRANCH  21  22
ENDBRANCH  20  21
ENDBRANCH  19  20
ENDBRANCH  18  19
ENDBRANCH  17  18
ENDBRANCH  16  17
ENDBRANCH  15  16
ENDBRANCH   1  15
TORSDOF 22
ENDMDL
MODEL 2
REMARK VINA RESULT:    -4.605      2.725      6.481
REMARK INTER + INTRA:         -13.611
REMARK INTER:                 -10.073
REMARK INTRA:                  -3.538
REMARK UNBOUND:                -3.084
REMARK SMILES CCCCCCCCCCCCCCCCCCCCCCCC(=O)[O-]
REMARK SMILES IDX 13 1 14 2 15 3 16 4 17 5 18 6 19 7 20 8 21 9 22 10 23 11
REMARK SMILES IDX 24 12 25 13 26 14 12 15 11 16 10 17 9 18 8 19 7 20 6 21 5 22
REMARK SMILES IDX 4 23 3 24 2 25 1 26
REMARK H PARENT
REMARK Flexibility Score: inf
ROOT
ATOM      1  C   UNL     1       4.624 -11.871 -22.331  1.00  0.00     0.000 C 
ENDROOT
BRANCH   1   2
ATOM      2  C   UNL     1       5.405 -11.472 -23.594  1.00  0.00     0.000 C 
BRANCH   2   3
ATOM      3  C   UNL     1       6.303 -10.242 -23.380  1.00  0.00     0.000 C 
BRANCH   3   4
ATOM      4  C   UNL     1       5.838  -9.367 -22.206  1.00  0.00     0.000 C 
BRANCH   4   5
ATOM      5  C   UNL     1       5.891  -7.867 -22.530  1.00  0.00     0.000 C 
BRANCH   5   6
ATOM      6  C   UNL     1       4.948  -7.075 -21.615  1.00  0.00     0.000 C 
BRANCH   6   7
ATOM      7  C   UNL     1       5.402  -5.621 -21.404  1.00  0.00     0.000 C 
BRANCH   7   8
ATOM      8  C   UNL     1       4.781  -4.958 -20.155  1.00  0.00     0.000 C 
BRANCH   8   9
ATOM      9  C   UNL     1       4.447  -5.985 -19.062  1.00  0.00     0.000 C 
BRANCH   9  10
ATOM     10  C   UNL     1       3.106  -5.663 -18.392  1.00  0.00     0.006 C 
BRANCH  10  11
ATOM     11  C   UNL     1       2.047  -5.289 -19.433  1.00  0.00     0.053 C 
BRANCH  11  12
ATOM     12  C   UNL     1       1.551  -3.897 -19.200  1.00  0.00     0.041 C 
ATOM     13  O   UNL     1       1.298  -3.145 -20.179  1.00  0.00    -0.550 OA
ATOM     14  O   UNL     1       1.318  -3.445 -17.907  1.00  0.00    -0.550 OA
ENDBRANCH  11  12
ENDBRANCH  10  11
ENDBRANCH   9  10
ENDBRANCH   8   9
ENDBRANCH   7   8
ENDBRANCH   6   7
ENDBRANCH   5   6
ENDBRANCH   4   5
ENDBRANCH   3   4
ENDBRANCH   2   3
ENDBRANCH   1   2
BRANCH   1  15
ATOM     15  C   UNL     1       5.008 -13.261 -21.775  1.00  0.00     0.000 C 
BRANCH  15  16
ATOM     16  C   UNL     1       3.849 -14.276 -21.774  1.00  0.00     0.000 C 
BRANCH  16  17
ATOM     17  C   UNL     1       2.488 -13.628 -22.072  1.00  0.00     0.000 C 
BRANCH  17  18
ATOM     18  C   UNL     1       1.411 -14.150 -21.111  1.00  0.00    -0.000 C 
BRANCH  18  19
ATOM     19  C   UNL     1       0.593 -13.021 -20.462  1.00  0.00    -0.000 C 
BRANCH  19  20
ATOM     20  C   UNL     1       0.981 -11.631 -20.986  1.00  0.00    -0.000 C 
BRANCH  20  21
ATOM     21  C   UNL     1       1.708 -10.824 -19.902  1.00  0.00    -0.000 C 
BRANCH  21  22
ATOM     22  C   UNL     1       2.437  -9.614 -20.508  1.00  0.00    -0.000 C 
BRANCH  22  23
ATOM     23  C   UNL     1       1.603  -8.896 -21.582  1.00  0.00    -0.000 C 
BRANCH  23  24
ATOM     24  C   UNL     1       2.261  -8.950 -22.972  1.00  0.00    -0.000 C 
BRANCH  24  25
ATOM     25  C   UNL     1       1.334  -9.554 -24.039  1.00  0.00    -0.003 C 
ATOM     26  C   UNL     1       1.813 -10.918 -24.538  1.00  0.00     0.004 C 
ENDBRANCH  24  25
ENDBRANCH  23  24
ENDBRANCH  22  23
ENDBRANCH  21  22
ENDBRANCH  20  21
ENDBRANCH  19  20
ENDBRANCH  18  19
ENDBRANCH  17  18
ENDBRANCH  16  17
ENDBRANCH  15  16
ENDBRANCH   1  15
TORSDOF 22
ENDMDL
MODEL 3
REMARK VINA RESULT:    -4.605      3.321      6.608
REMARK INTER + INTRA:         -13.610
REMARK INTER:                  -9.997
REMARK INTRA:                  -3.614
REMARK UNBOUND:                -3.084
REMARK SMILES CCCCCCCCCCCCCCCCCCCCCCCC(=O)[O-]
REMARK SMILES IDX 13 1 14 2 15 3 16 4 17 5 18 6 19 7 20 8 21 9 22 10 23 11
REMARK SMILES IDX 24 12 25 13 26 14 12 15 11 16 10 17 9 18 8 19 7 20 6 21 5 22
REMARK SMILES IDX 4 23 3 24 2 25 1 26
REMARK H PARENT
REMARK Flexibility Score: inf
ROOT
ATOM      1  C   UNL     1       7.012  -9.768 -23.625  1.00  0.00     0.000 C 
ENDROOT
BRANCH   1   2
ATOM      2  C   UNL     1       6.151  -9.175 -22.498  1.00  0.00     0.000 C 
BRANCH   2   3
ATOM      3  C   UNL     1       5.890  -7.670 -22.671  1.00  0.00     0.000 C 
BRANCH   3   4
ATOM      4  C   UNL     1       5.072  -7.074 -21.515  1.00  0.00     0.000 C 
BRANCH   4   5
ATOM      5  C   UNL     1       4.396  -8.149 -20.653  1.00  0.00     0.000 C 
BRANCH   5   6
ATOM      6  C   UNL     1       2.999  -7.696 -20.207  1.00  0.00     0.000 C 
BRANCH   6   7
ATOM      7  C   UNL     1       2.797  -6.176 -20.332  1.00  0.00     0.000 C 
BRANCH   7   8
ATOM      8  C   UNL     1       2.324  -5.508 -19.022  1.00  0.00     0.000 C 
BRANCH   8   9
ATOM      9  C   UNL     1       3.486  -5.265 -18.047  1.00  0.00     0.000 C 
BRANCH   9  10
ATOM     10  C   UNL     1       4.749  -4.819 -18.792  1.00  0.00     0.006 C 
BRANCH  10  11
ATOM     11  C   UNL     1       4.957  -3.307 -18.663  1.00  0.00     0.053 C 
BRANCH  11  12
ATOM     12  C   UNL     1       4.181  -2.579 -19.716  1.00  0.00     0.041 C 
ATOM     13  O   UNL     1       3.126  -1.962 -19.409  1.00  0.00    -0.550 OA
ATOM     14  O   UNL     1       4.648  -2.537 -21.024  1.00  0.00    -0.550 OA
ENDBRANCH  11  12
ENDBRANCH  10  11
ENDBRANCH   9  10
ENDBRANCH   8   9
ENDBRANCH   7   8
ENDBRANCH   6   7
ENDBRANCH   5   6
ENDBRANCH   4   5
ENDBRANCH   3   4
ENDBRANCH   2   3
ENDBRANCH   1   2
BRANCH   1  15
ATOM     15  C   UNL     1       6.649 -11.226 -23.986  1.00  0.00     0.000 C 
BRANCH  15  16
ATOM     16  C   UNL     1       5.200 -11.614 -23.638  1.00  0.00     0.000 C 
BRANCH  16  17
ATOM     17  C   UNL     1       5.117 -12.678 -22.532  1.00  0.00     0.000 C 
BRANCH  17  18
ATOM     18  C   UNL     1       3.707 -12.728 -21.925  1.00  0.00    -0.000 C 
BRANCH  18  19
ATOM     19  C   UNL     1       3.239 -11.363 -21.395  1.00  0.00    -0.000 C 
BRANCH  19  20
ATOM     20  C   UNL     1       1.923 -10.897 -22.035  1.00  0.00    -0.000 C 
BRANCH  20  21
ATOM     21  C   UNL     1       2.185  -9.816 -23.092  1.00  0.00    -0.000 C 
BRANCH  21  22
ATOM     22  C   UNL     1       1.034  -8.798 -23.140  1.00  0.00    -0.000 C 
BRANCH  22  23
ATOM     23  C   UNL     1       1.346  -7.593 -24.043  1.00  0.00    -0.000 C 
BRANCH  23  24
ATOM     24  C   UNL     1       0.741  -6.284 -23.508  1.00  0.00    -0.000 C 
BRANCH  24  25
ATOM     25  C   UNL     1       1.715  -5.099 -23.614  1.00  0.00    -0.003 C 
ATOM     26  C   UNL     1       3.083  -5.504 -24.166  1.00  0.00     0.004 C 
ENDBRANCH  24  25
ENDBRANCH  23  24
ENDBRANCH  22  23
ENDBRANCH  21  22
ENDBRANCH  20  21
ENDBRANCH  19  20
ENDBRANCH  18  19
ENDBRANCH  17  18
ENDBRANCH  16  17
ENDBRANCH  15  16
ENDBRANCH   1  15
TORSDOF 22
ENDMDL
MODEL 4
REMARK VINA RESULT:    -4.566      1.880      4.088
REMARK INTER + INTRA:         -13.522
REMARK INTER:                  -9.568
REMARK INTRA:                  -3.953
REMARK UNBOUND:                -3.084
REMARK SMILES CCCCCCCCCCCCCCCCCCCCCCCC(=O)[O-]
REMARK SMILES IDX 13 1 14 2 15 3 16 4 17 5 18 6 19 7 20 8 21 9 22 10 23 11
REMARK SMILES IDX 24 12 25 13 26 14 12 15 11 16 10 17 9 18 8 19 7 20 6 21 5 22
REMARK SMILES IDX 4 23 3 24 2 25 1 26
REMARK H PARENT
REMARK Flexibility Score: inf
ROOT
ATOM      1  C   UNL     1       4.762  -7.059 -21.769  1.00  0.00     0.000 C 
ENDROOT
BRANCH   1   2
ATOM      2  C   UNL     1       5.206  -5.600 -21.565  1.00  0.00     0.000 C 
BRANCH   2   3
ATOM      3  C   UNL     1       4.930  -5.083 -20.144  1.00  0.00     0.000 C 
BRANCH   3   4
ATOM      4  C   UNL     1       4.350  -6.166 -19.221  1.00  0.00     0.000 C 
BRANCH   4   5
ATOM      5  C   UNL     1       3.263  -5.623 -18.283  1.00  0.00     0.000 C 
BRANCH   5   6
ATOM      6  C   UNL     1       3.138  -4.098 -18.413  1.00  0.00     0.000 C 
BRANCH   6   7
ATOM      7  C   UNL     1       1.686  -3.606 -18.293  1.00  0.00     0.000 C 
BRANCH   7   8
ATOM      8  C   UNL     1       0.802  -4.000 -19.497  1.00  0.00     0.000 C 
BRANCH   8   9
ATOM      9  C   UNL     1       1.529  -3.801 -20.836  1.00  0.00     0.000 C 
BRANCH   9  10
ATOM     10  C   UNL     1       1.456  -5.066 -21.698  1.00  0.00     0.006 C 
BRANCH  10  11
ATOM     11  C   UNL     1       0.827  -6.225 -20.920  1.00  0.00     0.053 C 
BRANCH  11  12
ATOM     12  C   UNL     1      -0.396  -6.726 -21.622  1.00  0.00     0.041 C 
ATOM     13  O   UNL     1      -0.584  -6.451 -22.837  1.00  0.00    -0.550 OA
ATOM     14  O   UNL     1      -1.302  -7.540 -20.952  1.00  0.00    -0.550 OA
ENDBRANCH  11  12
ENDBRANCH  10  11
ENDBRANCH   9  10
ENDBRANCH   8   9
ENDBRANCH   7   8
ENDBRANCH   6   7
ENDBRANCH   5   6
ENDBRANCH   4   5
ENDBRANCH   3   4
ENDBRANCH   2   3
ENDBRANCH   1   2
BRANCH   1  15
ATOM     15  C   UNL     1       5.891  -7.990 -22.266  1.00  0.00     0.000 C 
BRANCH  15  16
ATOM     16  C   UNL     1       5.461  -9.459 -22.433  1.00  0.00     0.000 C 
BRANCH  16  17
ATOM     17  C   UNL     1       6.420 -10.264 -23.323  1.00  0.00     0.000 C 
BRANCH  17  18
ATOM     18  C   UNL     1       5.764 -11.570 -23.794  1.00  0.00    -0.000 C 
BRANCH  18  19
ATOM     19  C   UNL     1       5.081 -12.339 -22.652  1.00  0.00    -0.000 C 
BRANCH  19  20
ATOM     20  C   UNL     1       3.584 -12.573 -22.906  1.00  0.00    -0.000 C 
BRANCH  20  21
ATOM     21  C   UNL     1       3.129 -11.852 -24.181  1.00  0.00    -0.000 C 
BRANCH  21  22
ATOM     22  C   UNL     1       1.600 -11.693 -24.212  1.00  0.00    -0.000 C 
BRANCH  22  23
ATOM     23  C   UNL     1       1.155 -10.223 -24.147  1.00  0.00    -0.000 C 
BRANCH  23  24
ATOM     24  C   UNL     1       1.850  -9.446 -23.015  1.00  0.00    -0.000 C 
BRANCH  24  25
ATOM     25  C   UNL     1       1.349  -9.861 -21.623  1.00  0.00    -0.003 C 
ATOM     26  C   UNL     1       2.397  -9.651 -20.529  1.00  0.00     0.004 C 
ENDBRANCH  24  25
ENDBRANCH  23  24
ENDBRANCH  22  23
ENDBRANCH  21  22
ENDBRANCH  20  21
ENDBRANCH  19  20
ENDBRANCH  18  19
ENDBRANCH  17  18
ENDBRANCH  16  17
ENDBRANCH  15  16
ENDBRANCH   1  15
TORSDOF 22
ENDMDL
MODEL 5
REMARK VINA RESULT:    -4.559      2.352      7.300
REMARK INTER + INTRA:         -13.506
REMARK INTER:                  -9.902
REMARK INTRA:                  -3.605
REMARK UNBOUND:                -3.084
REMARK SMILES CCCCCCCCCCCCCCCCCCCCCCCC(=O)[O-]
REMARK SMILES IDX 13 1 14 2 15 3 16 4 17 5 18 6 19 7 20 8 21 9 22 10 23 11
REMARK SMILES IDX 24 12 25 13 26 14 12 15 11 16 10 17 9 18 8 19 7 20 6 21 5 22
REMARK SMILES IDX 4 23 3 24 2 25 1 26
REMARK H PARENT
REMARK Flexibility Score: inf
ROOT
ATOM      1  C   UNL     1       6.999  -9.529 -23.756  1.00  0.00     0.000 C 
ENDROOT
BRANCH   1   2
ATOM      2  C   UNL     1       6.893 -11.042 -24.005  1.00  0.00     0.000 C 
BRANCH   2   3
ATOM      3  C   UNL     1       5.497 -11.605 -23.694  1.00  0.00     0.000 C 
BRANCH   3   4
ATOM      4  C   UNL     1       5.549 -12.882 -22.840  1.00  0.00     0.000 C 
BRANCH   4   5
ATOM      5  C   UNL     1       4.602 -12.826 -21.633  1.00  0.00     0.000 C 
BRANCH   5   6
ATOM      6  C   UNL     1       3.620 -11.653 -21.762  1.00  0.00     0.000 C 
BRANCH   6   7
ATOM      7  C   UNL     1       2.173 -12.048 -21.423  1.00  0.00     0.000 C 
BRANCH   7   8
ATOM      8  C   UNL     1       1.236 -10.837 -21.221  1.00  0.00     0.000 C 
BRANCH   8   9
ATOM      9  C   UNL     1       1.991  -9.502 -21.316  1.00  0.00     0.000 C 
BRANCH   9  10
ATOM     10  C   UNL     1       1.072  -8.380 -21.814  1.00  0.00     0.006 C 
BRANCH  10  11
ATOM     11  C   UNL     1       1.742  -7.576 -22.931  1.00  0.00     0.053 C 
BRANCH  11  12
ATOM     12  C   UNL     1       0.739  -7.184 -23.970  1.00  0.00     0.041 C 
ATOM     13  O   UNL     1       0.095  -6.108 -23.851  1.00  0.00    -0.550 OA
ATOM     14  O   UNL     1       0.553  -7.979 -25.095  1.00  0.00    -0.550 OA
ENDBRANCH  11  12
ENDBRANCH  10  11
ENDBRANCH   9  10
ENDBRANCH   8   9
ENDBRANCH   7   8
ENDBRANCH   6   7
ENDBRANCH   5   6
ENDBRANCH   4   5
ENDBRANCH   3   4
ENDBRANCH   2   3
ENDBRANCH   1   2
BRANCH   1  15
ATOM     15  C   UNL     1       6.578  -9.100 -22.332  1.00  0.00     0.000 C 
BRANCH  15  16
ATOM     16  C   UNL     1       5.287  -8.262 -22.288  1.00  0.00     0.000 C 
BRANCH  16  17
ATOM     17  C   UNL     1       5.559  -6.752 -22.202  1.00  0.00     0.000 C 
BRANCH  17  18
ATOM     18  C   UNL     1       4.612  -6.081 -21.196  1.00  0.00    -0.000 C 
BRANCH  18  19
ATOM     19  C   UNL     1       4.291  -6.979 -19.991  1.00  0.00    -0.000 C 
BRANCH  19  20
ATOM     20  C   UNL     1       3.217  -6.378 -19.073  1.00  0.00    -0.000 C 
BRANCH  20  21
ATOM     21  C   UNL     1       2.292  -5.439 -19.858  1.00  0.00    -0.000 C 
BRANCH  21  22
ATOM     22  C   UNL     1       1.740  -4.323 -18.957  1.00  0.00    -0.000 C 
BRANCH  22  23
ATOM     23  C   UNL     1       2.848  -3.430 -18.375  1.00  0.00    -0.000 C 
BRANCH  23  24
ATOM     24  C   UNL     1       3.741  -2.813 -19.465  1.00  0.00    -0.000 C 
BRANCH  24  25
ATOM     25  C   UNL     1       5.239  -3.019 -19.185  1.00  0.00    -0.003 C 
ATOM     26  C   UNL     1       5.500  -3.745 -17.865  1.00  0.00     0.004 C 
ENDBRANCH  24  25
ENDBRANCH  23  24
ENDBRANCH  22  23
ENDBRANCH  21  22
ENDBRANCH  20  21
ENDBRANCH  19  20
ENDBRANCH  18  19
ENDBRANCH  17  18
ENDBRANCH  16  17
ENDBRANCH  15  16
ENDBRANCH   1  15
TORSDOF 22
ENDMDL
MODEL 6
REMARK VINA RESULT:    -4.557      2.062      6.258
REMARK INTER + INTRA:         -13.502
REMARK INTER:                  -9.473
REMARK INTRA:                  -4.029
REMARK UNBOUND:                -3.084
REMARK SMILES CCCCCCCCCCCCCCCCCCCCCCCC(=O)[O-]
REMARK SMILES IDX 13 1 14 2 15 3 16 4 17 5 18 6 19 7 20 8 21 9 22 10 23 11
REMARK SMILES IDX 24 12 25 13 26 14 12 15 11 16 10 17 9 18 8 19 7 20 6 21 5 22
REMARK SMILES IDX 4 23 3 24 2 25 1 26
REMARK H PARENT
REMARK Flexibility Score: inf
ROOT
ATOM      1  C   UNL     1       5.041  -8.652 -21.646  1.00  0.00     0.000 C 
ENDROOT
BRANCH   1   2
ATOM      2  C   UNL     1       4.485  -8.091 -20.326  1.00  0.00     0.000 C 
BRANCH   2   3
ATOM      3  C   UNL     1       2.949  -8.019 -20.305  1.00  0.00     0.000 C 
BRANCH   3   4
ATOM      4  C   UNL     1       2.289  -9.250 -20.946  1.00  0.00     0.000 C 
BRANCH   4   5
ATOM      5  C   UNL     1       1.229  -8.875 -21.991  1.00  0.00     0.000 C 
BRANCH   5   6
ATOM      6  C   UNL     1       1.837  -8.842 -23.400  1.00  0.00     0.000 C 
BRANCH   6   7
ATOM      7  C   UNL     1       1.026  -9.662 -24.418  1.00  0.00     0.000 C 
BRANCH   7   8
ATOM      8  C   UNL     1       1.469 -11.139 -24.509  1.00  0.00     0.000 C 
BRANCH   8   9
ATOM      9  C   UNL     1       2.913 -11.340 -24.024  1.00  0.00     0.000 C 
BRANCH   9  10
ATOM     10  C   UNL     1       3.017 -12.543 -23.079  1.00  0.00     0.006 C 
BRANCH  10  11
ATOM     11  C   UNL     1       4.335 -12.518 -22.301  1.00  0.00     0.053 C 
BRANCH  11  12
ATOM     12  C   UNL     1       4.664 -13.881 -21.780  1.00  0.00     0.041 C 
ATOM     13  O   UNL     1       3.835 -14.822 -21.906  1.00  0.00    -0.550 OA
ATOM     14  O   UNL     1       5.904 -14.129 -21.204  1.00  0.00    -0.550 OA
ENDBRANCH  11  12
ENDBRANCH  10  11
ENDBRANCH   9  10
ENDBRANCH   8   9
ENDBRANCH   7   8
ENDBRANCH   6   7
ENDBRANCH   5   6
ENDBRANCH   4   5
ENDBRANCH   3   4
ENDBRANCH   2   3
ENDBRANCH   1   2
BRANCH   1  15
ATOM     15  C   UNL     1       5.912  -7.647 -22.433  1.00  0.00     0.000 C 
BRANCH  15  16
ATOM     16  C   UNL     1       5.112  -6.505 -23.088  1.00  0.00     0.000 C 
BRANCH  16  17
ATOM     17  C   UNL     1       5.274  -5.165 -22.353  1.00  0.00     0.000 C 
BRANCH  17  18
ATOM     18  C   UNL     1       3.916  -4.473 -22.171  1.00  0.00    -0.000 C 
BRANCH  18  19
ATOM     19  C   UNL     1       2.765  -5.231 -22.853  1.00  0.00    -0.000 C 
BRANCH  19  20
ATOM     20  C   UNL     1       1.468  -5.207 -22.031  1.00  0.00    -0.000 C 
BRANCH  20  21
ATOM     21  C   UNL     1       1.548  -4.153 -20.918  1.00  0.00    -0.000 C 
BRANCH  21  22
ATOM     22  C   UNL     1       1.297  -4.784 -19.539  1.00  0.00    -0.000 C 
BRANCH  22  23
ATOM     23  C   UNL     1       2.257  -4.255 -18.461  1.00  0.00    -0.000 C 
BRANCH  23  24
ATOM     24  C   UNL     1       3.401  -5.238 -18.157  1.00  0.00    -0.000 C 
BRANCH  24  25
ATOM     25  C   UNL     1       4.762  -4.731 -18.663  1.00  0.00    -0.003 C 
ATOM     26  C   UNL     1       5.549  -3.977 -17.590  1.00  0.00     0.004 C 
ENDBRANCH  24  25
ENDBRANCH  23  24
ENDBRANCH  22  23
ENDBRANCH  21  22
ENDBRANCH  20  21
ENDBRANCH  19  20
ENDBRANCH  18  19
ENDBRANCH  17  18
ENDBRANCH  16  17
ENDBRANCH  15  16
ENDBRANCH   1  15
TORSDOF 22
ENDMDL
MODEL 7
REMARK VINA RESULT:    -4.556      3.136      4.986
REMARK INTER + INTRA:         -13.499
REMARK INTER:                  -9.574
REMARK INTRA:                  -3.925
REMARK UNBOUND:                -3.084
REMARK SMILES CCCCCCCCCCCCCCCCCCCCCCCC(=O)[O-]
REMARK SMILES IDX 13 1 14 2 15 3 16 4 17 5 18 6 19 7 20 8 21 9 22 10 23 11
REMARK SMILES IDX 24 12 25 13 26 14 12 15 11 16 10 17 9 18 8 19 7 20 6 21 5 22
REMARK SMILES IDX 4 23 3 24 2 25 1 26
REMARK H PARENT
REMARK Flexibility Score: inf
ROOT
ATOM      1  C   UNL     1       4.354  -8.030 -20.585  1.00  0.00     0.000 C 
ENDROOT
BRANCH   1   2
ATOM      2  C   UNL     1       5.352  -8.201 -21.742  1.00  0.00     0.000 C 
BRANCH   2   3
ATOM      3  C   UNL     1       5.650  -6.884 -22.477  1.00  0.00     0.000 C 
BRANCH   3   4
ATOM      4  C   UNL     1       5.461  -5.650 -21.582  1.00  0.00     0.000 C 
BRANCH   4   5
ATOM      5  C   UNL     1       4.496  -4.621 -22.189  1.00  0.00     0.000 C 
BRANCH   5   6
ATOM      6  C   UNL     1       3.401  -5.316 -23.010  1.00  0.00     0.000 C 
BRANCH   6   7
ATOM      7  C   UNL     1       1.988  -5.049 -22.465  1.00  0.00     0.000 C 
BRANCH   7   8
ATOM      8  C   UNL     1       1.982  -4.381 -21.072  1.00  0.00     0.000 C 
BRANCH   8   9
ATOM      9  C   UNL     1       1.791  -5.405 -19.942  1.00  0.00     0.000 C 
BRANCH   9  10
ATOM     10  C   UNL     1       2.243  -4.832 -18.594  1.00  0.00     0.006 C 
BRANCH  10  11
ATOM     11  C   UNL     1       3.691  -5.225 -18.289  1.00  0.00     0.053 C 
BRANCH  11  12
ATOM     12  C   UNL     1       4.572  -4.016 -18.280  1.00  0.00     0.041 C 
ATOM     13  O   UNL     1       5.690  -4.053 -17.700  1.00  0.00    -0.550 OA
ATOM     14  O   UNL     1       4.185  -2.864 -18.956  1.00  0.00    -0.550 OA
ENDBRANCH  11  12
ENDBRANCH  10  11
ENDBRANCH   9  10
ENDBRANCH   8   9
ENDBRANCH   7   8
ENDBRANCH   6   7
ENDBRANCH   5   6
ENDBRANCH   4   5
ENDBRANCH   3   4
ENDBRANCH   2   3
ENDBRANCH   1   2
BRANCH   1  15
ATOM     15  C   UNL     1       3.227  -9.087 -20.572  1.00  0.00     0.000 C 
BRANCH  15  16
ATOM     16  C   UNL     1       1.977  -8.678 -21.374  1.00  0.00     0.000 C 
BRANCH  16  17
ATOM     17  C   UNL     1       2.196  -8.746 -22.893  1.00  0.00     0.000 C 
BRANCH  17  18
ATOM     18  C   UNL     1       1.261  -9.782 -23.535  1.00  0.00    -0.000 C 
BRANCH  18  19
ATOM     19  C   UNL     1       2.023 -10.888 -24.282  1.00  0.00    -0.000 C 
BRANCH  19  20
ATOM     20  C   UNL     1       1.485 -12.293 -23.972  1.00  0.00    -0.000 C 
BRANCH  20  21
ATOM     21  C   UNL     1       1.425 -12.530 -22.457  1.00  0.00    -0.000 C 
BRANCH  21  22
ATOM     22  C   UNL     1       2.802 -12.318 -21.808  1.00  0.00    -0.000 C 
BRANCH  22  23
ATOM     23  C   UNL     1       3.722 -13.540 -21.957  1.00  0.00    -0.000 C 
BRANCH  23  24
ATOM     24  C   UNL     1       5.141 -13.158 -22.411  1.00  0.00    -0.000 C 
BRANCH  24  25
ATOM     25  C   UNL     1       5.218 -11.722 -22.955  1.00  0.00    -0.003 C 
ATOM     26  C   UNL     1       6.313 -11.546 -24.009  1.00  0.00     0.004 C 
ENDBRANCH  24  25
ENDBRANCH  23  24
ENDBRANCH  22  23
ENDBRANCH  21  22
ENDBRANCH  20  21
ENDBRANCH  19  20
ENDBRANCH  18  19
ENDBRANCH  17  18
ENDBRANCH  16  17
ENDBRANCH  15  16
ENDBRANCH   1  15
TORSDOF 22
ENDMDL
MODEL 8
REMARK VINA RESULT:    -4.489      1.300      2.428
REMARK INTER + INTRA:         -13.345
REMARK INTER:                  -9.799
REMARK INTRA:                  -3.546
REMARK UNBOUND:                -3.084
REMARK SMILES CCCCCCCCCCCCCCCCCCCCCCCC(=O)[O-]
REMARK SMILES IDX 13 1 14 2 15 3 16 4 17 5 18 6 19 7 20 8 21 9 22 10 23 11
REMARK SMILES IDX 24 12 25 13 26 14 12 15 11 16 10 17 9 18 8 19 7 20 6 21 5 22
REMARK SMILES IDX 4 23 3 24 2 25 1 26
REMARK H PARENT
REMARK Flexibility Score: inf
ROOT
ATOM      1  C   UNL     1       3.470  -3.935 -18.890  1.00  0.00     0.000 C 
ENDROOT
BRANCH   1   2
ATOM      2  C   UNL     1       2.111  -4.033 -18.177  1.00  0.00     0.000 C 
BRANCH   2   3
ATOM      3  C   UNL     1       0.925  -3.710 -19.100  1.00  0.00     0.000 C 
BRANCH   3   4
ATOM      4  C   UNL     1       1.118  -4.252 -20.525  1.00  0.00     0.000 C 
BRANCH   4   5
ATOM      5  C   UNL     1       0.553  -5.668 -20.701  1.00  0.00     0.000 C 
BRANCH   5   6
ATOM      6  C   UNL     1       0.328  -5.988 -22.185  1.00  0.00     0.000 C 
BRANCH   6   7
ATOM      7  C   UNL     1       1.531  -6.695 -22.832  1.00  0.00     0.000 C 
BRANCH   7   8
ATOM      8  C   UNL     1       1.232  -8.148 -23.261  1.00  0.00     0.000 C 
BRANCH   8   9
ATOM      9  C   UNL     1       2.220  -9.148 -22.640  1.00  0.00     0.000 C 
BRANCH   9  10
ATOM     10  C   UNL     1       1.886  -9.414 -21.168  1.00  0.00     0.006 C 
BRANCH  10  11
ATOM     11  C   UNL     1       1.971 -10.909 -20.847  1.00  0.00     0.053 C 
BRANCH  11  12
ATOM     12  C   UNL     1       1.009 -11.682 -21.693  1.00  0.00     0.041 C 
ATOM     13  O   UNL     1      -0.230 -11.474 -21.591  1.00  0.00    -0.550 OA
ATOM     14  O   UNL     1       1.479 -12.594 -22.631  1.00  0.00    -0.550 OA
ENDBRANCH  11  12
ENDBRANCH  10  11
ENDBRANCH   9  10
ENDBRANCH   8   9
ENDBRANCH   7   8
ENDBRANCH   6   7
ENDBRANCH   5   6
ENDBRANCH   4   5
ENDBRANCH   3   4
ENDBRANCH   2   3
ENDBRANCH   1   2
BRANCH   1  15
ATOM     15  C   UNL     1       4.359  -5.187 -18.714  1.00  0.00     0.000 C 
BRANCH  15  16
ATOM     16  C   UNL     1       3.672  -6.503 -19.123  1.00  0.00     0.000 C 
BRANCH  16  17
ATOM     17  C   UNL     1       4.424  -7.246 -20.239  1.00  0.00     0.000 C 
BRANCH  17  18
ATOM     18  C   UNL     1       4.808  -6.286 -21.374  1.00  0.00    -0.000 C 
BRANCH  18  19
ATOM     19  C   UNL     1       5.560  -6.986 -22.517  1.00  0.00    -0.000 C 
BRANCH  19  20
ATOM     20  C   UNL     1       5.962  -8.427 -22.169  1.00  0.00    -0.000 C 
BRANCH  20  21
ATOM     21  C   UNL     1       6.931  -8.990 -23.217  1.00  0.00    -0.000 C 
BRANCH  21  22
ATOM     22  C   UNL     1       6.564 -10.435 -23.590  1.00  0.00    -0.000 C 
BRANCH  22  23
ATOM     23  C   UNL     1       5.234 -10.889 -22.966  1.00  0.00    -0.000 C 
BRANCH  23  24
ATOM     24  C   UNL     1       5.003 -12.404 -23.106  1.00  0.00    -0.000 C 
BRANCH  24  25
ATOM     25  C   UNL     1       4.857 -13.105 -21.746  1.00  0.00    -0.003 C 
ATOM     26  C   UNL     1       5.328 -14.560 -21.776  1.00  0.00     0.004 C 
ENDBRANCH  24  25
ENDBRANCH  23  24
ENDBRANCH  22  23
ENDBRANCH  21  22
ENDBRANCH  20  21
ENDBRANCH  19  20
ENDBRANCH  18  19
ENDBRANCH  17  18
ENDBRANCH  16  17
ENDBRANCH  15  16
ENDBRANCH   1  15
TORSDOF 22
ENDMDL
MODEL 9
REMARK VINA RESULT:    -4.487      2.697      4.568
REMARK INTER + INTRA:         -13.341
REMARK INTER:                  -8.696
REMARK INTRA:                  -4.645
REMARK UNBOUND:                -3.084
REMARK SMILES CCCCCCCCCCCCCCCCCCCCCCCC(=O)[O-]
REMARK SMILES IDX 13 1 14 2 15 3 16 4 17 5 18 6 19 7 20 8 21 9 22 10 23 11
REMARK SMILES IDX 24 12 25 13 26 14 12 15 11 16 10 17 9 18 8 19 7 20 6 21 5 22
REMARK SMILES IDX 4 23 3 24 2 25 1 26
REMARK H PARENT
REMARK Flexibility Score: inf
ROOT
ATOM      1  C   UNL     1       5.815  -7.414 -22.497  1.00  0.00     0.000 C 
ENDROOT
BRANCH   1   2
ATOM      2  C   UNL     1       4.697  -6.438 -22.901  1.00  0.00     0.000 C 
BRANCH   2   3
ATOM      3  C   UNL     1       4.930  -5.010 -22.380  1.00  0.00     0.000 C 
BRANCH   3   4
ATOM      4  C   UNL     1       5.597  -4.986 -20.996  1.00  0.00     0.000 C 
BRANCH   4   5
ATOM      5  C   UNL     1       4.633  -4.555 -19.882  1.00  0.00     0.000 C 
BRANCH   5   6
ATOM      6  C   UNL     1       4.388  -5.704 -18.895  1.00  0.00     0.000 C 
BRANCH   6   7
ATOM      7  C   UNL     1       3.012  -6.367 -19.080  1.00  0.00     0.000 C 
BRANCH   7   8
ATOM      8  C   UNL     1       1.959  -5.430 -19.712  1.00  0.00     0.000 C 
BRANCH   8   9
ATOM      9  C   UNL     1       0.956  -6.198 -20.587  1.00  0.00     0.000 C 
BRANCH   9  10
ATOM     10  C   UNL     1       1.229  -5.963 -22.077  1.00  0.00     0.006 C 
BRANCH  10  11
ATOM     11  C   UNL     1       1.221  -4.468 -22.408  1.00  0.00     0.053 C 
BRANCH  11  12
ATOM     12  C   UNL     1      -0.183  -3.957 -22.492  1.00  0.00     0.041 C 
ATOM     13  O   UNL     1      -0.924  -4.301 -23.451  1.00  0.00    -0.550 OA
ATOM     14  O   UNL     1      -0.692  -3.144 -21.486  1.00  0.00    -0.550 OA
ENDBRANCH  11  12
ENDBRANCH  10  11
ENDBRANCH   9  10
ENDBRANCH   8   9
ENDBRANCH   7   8
ENDBRANCH   6   7
ENDBRANCH   5   6
ENDBRANCH   4   5
ENDBRANCH   3   4
ENDBRANCH   2   3
ENDBRANCH   1   2
BRANCH   1  15
ATOM     15  C   UNL     1       5.319  -8.622 -21.671  1.00  0.00     0.000 C 
BRANCH  15  16
ATOM     16  C   UNL     1       3.787  -8.772 -21.641  1.00  0.00     0.000 C 
BRANCH  16  17
ATOM     17  C   UNL     1       3.309  -9.803 -20.607  1.00  0.00     0.000 C 
BRANCH  17  18
ATOM     18  C   UNL     1       1.775  -9.873 -20.573  1.00  0.00    -0.000 C 
BRANCH  18  19
ATOM     19  C   UNL     1       1.139  -9.687 -21.959  1.00  0.00    -0.000 C 
BRANCH  19  20
ATOM     20  C   UNL     1       0.863 -11.020 -22.670  1.00  0.00    -0.000 C 
BRANCH  20  21
ATOM     21  C   UNL     1       1.756 -11.172 -23.908  1.00  0.00    -0.000 C 
BRANCH  21  22
ATOM     22  C   UNL     1       2.859 -12.217 -23.671  1.00  0.00    -0.000 C 
BRANCH  22  23
ATOM     23  C   UNL     1       4.270 -11.651 -23.901  1.00  0.00    -0.000 C 
BRANCH  23  24
ATOM     24  C   UNL     1       5.257 -12.062 -22.795  1.00  0.00    -0.000 C 
BRANCH  24  25
ATOM     25  C   UNL     1       4.665 -13.108 -21.837  1.00  0.00    -0.003 C 
ATOM     26  C   UNL     1       5.540 -14.356 -21.708  1.00  0.00     0.004 C 
ENDBRANCH  24  25
ENDBRANCH  23  24
ENDBRANCH  22  23
ENDBRANCH  21  22
ENDBRANCH  20  21
ENDBRANCH  19  20
ENDBRANCH  18  19
ENDBRANCH  17  18
ENDBRANCH  16  17
ENDBRANCH  15  16
ENDBRANCH   1  15
TORSDOF 22
ENDMDL
