MODEL 1
REMARK VINA RESULT:    20.557      0.000      0.000
REMARK INTER + INTRA:          30.250
REMARK INTER:                  29.571
REMARK INTRA:                   0.679
REMARK UNBOUND:                 0.679
REMARK SMILES O=c1c(O[C@H]2O[C@H](CO)[C@@H](O)[C@H](O)[C@H]2O)c(-c2ccc(O)cc2)oc2cc(O)cc(O)c12
REMARK SMILES IDX 4 1 3 2 16 3 24 4 2 5 25 6 1 7 32 8 26 9 30 10 27 11 29 12
REMARK SMILES IDX 17 13 18 14 19 15 20 16 23 17 22 18 21 19 31 21 28 23 5 25
REMARK SMILES IDX 14 26 6 27 12 28 7 29 10 30 15 31 13 33 8 35 9 36 11 38
REMARK H PARENT 21 20 31 22 28 24 15 32 13 34 9 37 11 39
REMARK Flexibility Score: inf
ROOT
ATOM      1  O   UNL     1       5.875  -6.570  -9.834  1.00  0.00    -0.454 OA
ENDROOT
BRANCH   1   2
ATOM      2  C   UNL     1       4.763  -7.334 -10.276  1.00  0.00     0.214 A 
ATOM      3  C   UNL     1       4.842  -8.735 -10.418  1.00  0.00     0.180 A 
ATOM      4  O   UNL     1       4.052  -9.500  -9.663  1.00  0.00    -0.452 OA
ATOM      5  C   UNL     1       3.502  -6.847  -9.925  1.00  0.00     0.239 A 
ATOM      6  C   UNL     1       3.099  -8.982  -8.905  1.00  0.00     0.146 A 
ATOM      7  O   UNL     1       3.086  -5.751 -10.387  1.00  0.00    -0.285 OA
ATOM      8  C   UNL     1       2.789  -7.605  -8.967  1.00  0.00     0.111 A 
ATOM      9  C   UNL     1       2.340  -9.838  -8.095  1.00  0.00     0.094 A 
ATOM     10  C   UNL     1       1.821  -7.067  -8.092  1.00  0.00     0.134 A 
ATOM     11  C   UNL     1       1.342  -9.308  -7.251  1.00  0.00     0.123 A 
ATOM     12  C   UNL     1       1.110  -7.945  -7.225  1.00  0.00     0.093 A 
BRANCH   3  13
ATOM     13  C   UNL     1       5.508  -9.498 -11.519  1.00  0.00     0.021 A 
ATOM     14  C   UNL     1       5.334  -8.996 -12.840  1.00  0.00     0.016 A 
ATOM     15  C   UNL     1       6.485  -8.869 -13.662  1.00  0.00     0.047 A 
ATOM     16  C   UNL     1       7.738  -9.428 -13.306  1.00  0.00     0.115 A 
ATOM     17  C   UNL     1       6.738 -10.106 -11.199  1.00  0.00     0.016 A 
ATOM     18  C   UNL     1       7.807 -10.124 -12.109  1.00  0.00     0.047 A 
BRANCH  16  19
ATOM     19  O   UNL     1       8.877  -9.262 -14.125  1.00  0.00    -0.508 OA
ATOM     20  H   UNL     1       8.645  -8.936 -15.117  1.00  0.00     0.293 HD
ENDBRANCH  16  19
ENDBRANCH   3  13
BRANCH  10  21
ATOM     21  O   UNL     1       1.563  -5.688  -8.115  1.00  0.00    -0.507 OA
ATOM     22  H   UNL     1       2.003  -5.051  -7.480  1.00  0.00     0.293 HD
ENDBRANCH  10  21
BRANCH  11  23
ATOM     23  O   UNL     1       0.566 -10.125  -6.452  1.00  0.00    -0.508 OA
ATOM     24  H   UNL     1      -0.393  -9.841  -6.237  1.00  0.00     0.293 HD
ENDBRANCH  11  23
ENDBRANCH   1   2
BRANCH   1  25
ATOM     25  C   UNL     1       6.638  -5.665 -10.712  1.00  0.00     0.339 C 
ATOM     26  C   UNL     1       5.937  -4.268 -10.843  1.00  0.00     0.214 C 
ATOM     27  O   UNL     1       6.822  -6.206 -12.012  1.00  0.00    -0.332 OA
ATOM     28  C   UNL     1       6.212  -3.550 -12.179  1.00  0.00     0.180 C 
ATOM     29  C   UNL     1       7.777  -5.414 -12.762  1.00  0.00     0.179 C 
ATOM     30  C   UNL     1       7.600  -3.842 -12.716  1.00  0.00     0.177 C 
BRANCH  26  31
ATOM     31  O   UNL     1       4.536  -4.396 -10.660  1.00  0.00    -0.384 OA
ATOM     32  H   UNL     1       4.420  -5.182 -10.040  1.00  0.00     0.211 HD
ENDBRANCH  26  31
BRANCH  28  33
ATOM     33  O   UNL     1       5.909  -2.172 -12.034  1.00  0.00    -0.387 OA
ATOM     34  H   UNL     1       6.774  -1.637 -12.017  1.00  0.00     0.211 HD
ENDBRANCH  28  33
BRANCH  29  35
ATOM     35  C   UNL     1       9.218  -5.839 -12.462  1.00  0.00     0.191 C 
BRANCH  35  36
ATOM     36  O   UNL     1      10.059  -5.409 -13.504  1.00  0.00    -0.394 OA
ATOM     37  H   UNL     1      10.375  -6.251 -13.997  1.00  0.00     0.210 HD
ENDBRANCH  35  36
ENDBRANCH  29  35
BRANCH  30  38
ATOM     38  O   UNL     1       7.716  -3.292 -14.022  1.00  0.00    -0.387 OA
ATOM     39  H   UNL     1       8.576  -2.791 -14.065  1.00  0.00     0.211 HD
ENDBRANCH  30  38
ENDBRANCH   1  25
TORSDOF 11
ENDMDL
MODEL 2
REMARK VINA RESULT:    20.958      1.837      5.290
REMARK INTER + INTRA:          30.826
REMARK INTER:                  31.765
REMARK INTRA:                  -0.939
REMARK UNBOUND:                 0.679
REMARK SMILES O=c1c(O[C@H]2O[C@H](CO)[C@@H](O)[C@H](O)[C@H]2O)c(-c2ccc(O)cc2)oc2cc(O)cc(O)c12
REMARK SMILES IDX 4 1 3 2 16 3 24 4 2 5 25 6 1 7 32 8 26 9 30 10 27 11 29 12
REMARK SMILES IDX 17 13 18 14 19 15 20 16 23 17 22 18 21 19 31 21 28 23 5 25
REMARK SMILES IDX 14 26 6 27 12 28 7 29 10 30 15 31 13 33 8 35 9 36 11 38
REMARK H PARENT 21 20 31 22 28 24 15 32 13 34 9 37 11 39
REMARK Flexibility Score: inf
ROOT
ATOM      1  O   UNL     1       5.984  -5.828 -11.864  1.00  0.00    -0.454 OA
ENDROOT
BRANCH   1   2
ATOM      2  C   UNL     1       5.356  -5.553 -10.621  1.00  0.00     0.214 A 
ATOM      3  C   UNL     1       4.109  -4.897 -10.554  1.00  0.00     0.180 A 
ATOM      4  O   UNL     1       3.072  -5.548 -10.025  1.00  0.00    -0.452 OA
ATOM      5  C   UNL     1       5.597  -6.468  -9.593  1.00  0.00     0.239 A 
ATOM      6  C   UNL     1       3.216  -6.721  -9.428  1.00  0.00     0.146 A 
ATOM      7  O   UNL     1       6.755  -6.605  -9.115  1.00  0.00    -0.285 OA
ATOM      8  C   UNL     1       4.499  -7.270  -9.207  1.00  0.00     0.111 A 
ATOM      9  C   UNL     1       2.077  -7.376  -8.942  1.00  0.00     0.094 A 
ATOM     10  C   UNL     1       4.619  -8.556  -8.638  1.00  0.00     0.134 A 
ATOM     11  C   UNL     1       2.198  -8.643  -8.334  1.00  0.00     0.123 A 
ATOM     12  C   UNL     1       3.441  -9.237  -8.215  1.00  0.00     0.093 A 
BRANCH   3  13
ATOM     13  C   UNL     1       3.841  -3.439 -10.748  1.00  0.00     0.021 A 
ATOM     14  C   UNL     1       4.932  -2.553 -10.521  1.00  0.00     0.016 A 
ATOM     15  C   UNL     1       5.195  -1.555 -11.496  1.00  0.00     0.047 A 
ATOM     16  C   UNL     1       4.291  -1.265 -12.548  1.00  0.00     0.115 A 
ATOM     17  C   UNL     1       2.917  -3.105 -11.757  1.00  0.00     0.016 A 
ATOM     18  C   UNL     1       3.114  -1.995 -12.595  1.00  0.00     0.047 A 
BRANCH  16  19
ATOM     19  O   UNL     1       4.588  -0.289 -13.525  1.00  0.00    -0.508 OA
ATOM     20  H   UNL     1       4.534   0.714 -13.156  1.00  0.00     0.293 HD
ENDBRANCH  16  19
ENDBRANCH   3  13
BRANCH  10  21
ATOM     21  O   UNL     1       5.892  -9.123  -8.478  1.00  0.00    -0.507 OA
ATOM     22  H   UNL     1       6.042  -9.964  -7.956  1.00  0.00     0.293 HD
ENDBRANCH  10  21
BRANCH  11  23
ATOM     23  O   UNL     1       1.098  -9.308  -7.829  1.00  0.00    -0.508 OA
ATOM     24  H   UNL     1       0.210  -8.807  -7.746  1.00  0.00     0.293 HD
ENDBRANCH  11  23
ENDBRANCH   1   2
BRANCH   1  25
ATOM     25  C   UNL     1       6.809  -7.024 -12.110  1.00  0.00     0.339 C 
ATOM     26  C   UNL     1       8.167  -6.651 -12.801  1.00  0.00     0.214 C 
ATOM     27  O   UNL     1       6.138  -7.983 -12.915  1.00  0.00    -0.332 OA
ATOM     28  C   UNL     1       8.746  -7.767 -13.692  1.00  0.00     0.180 C 
ATOM     29  C   UNL     1       6.868  -9.235 -12.930  1.00  0.00     0.179 C 
ATOM     30  C   UNL     1       8.432  -9.152 -13.161  1.00  0.00     0.177 C 
BRANCH  26  31
ATOM     31  O   UNL     1       8.026  -5.465 -13.567  1.00  0.00    -0.384 OA
ATOM     32  H   UNL     1       7.646  -4.782 -12.930  1.00  0.00     0.211 HD
ENDBRANCH  26  31
BRANCH  28  33
ATOM     33  O   UNL     1      10.124  -7.513 -13.913  1.00  0.00    -0.387 OA
ATOM     34  H   UNL     1      10.391  -7.879 -14.825  1.00  0.00     0.211 HD
ENDBRANCH  28  33
BRANCH  29  35
ATOM     35  C   UNL     1       6.511 -10.108 -11.722  1.00  0.00     0.191 C 
BRANCH  35  36
ATOM     36  O   UNL     1       5.188  -9.839 -11.326  1.00  0.00    -0.394 OA
ATOM     37  H   UNL     1       4.945  -8.919 -11.710  1.00  0.00     0.210 HD
ENDBRANCH  35  36
ENDBRANCH  29  35
BRANCH  30  38
ATOM     38  O   UNL     1       8.844 -10.119 -14.118  1.00  0.00    -0.387 OA
ATOM     39  H   UNL     1       9.480  -9.674 -14.744  1.00  0.00     0.211 HD
ENDBRANCH  30  38
ENDBRANCH   1  25
TORSDOF 11
ENDMDL
