MODEL 1
REMARK VINA RESULT:    -6.212      0.000      0.000
REMARK INTER + INTRA:          -7.745
REMARK INTER:                  -7.483
REMARK INTRA:                  -0.262
REMARK UNBOUND:                -0.262
REMARK SMILES O=c1c(O)c(-c2ccc(O)c(O)c2)oc2cc(O)cc(O)c12
REMARK SMILES IDX 5 1 3 2 2 3 1 4 22 5 20 6 19 7 17 8 16 9 15 10 14 11 6 12
REMARK SMILES IDX 7 13 8 14 9 15 13 16 11 17 10 18 12 20 4 22 21 24 18 26
REMARK H PARENT 10 19 12 21 4 23 21 25 18 27
REMARK Flexibility Score: inf
ROOT
ATOM      1  C   UNL     1     -33.954  10.499 -39.134  1.00  0.00     0.180 A 
ATOM      2  C   UNL     1     -32.987   9.844 -39.918  1.00  0.00     0.208 A 
ATOM      3  C   UNL     1     -33.300   9.509 -41.245  1.00  0.00     0.238 A 
ATOM      4  O   UNL     1     -32.450   8.875 -41.923  1.00  0.00    -0.285 OA
ATOM      5  C   UNL     1     -34.566   9.848 -41.778  1.00  0.00     0.111 A 
ATOM      6  C   UNL     1     -34.974   9.594 -43.122  1.00  0.00     0.134 A 
ATOM      7  C   UNL     1     -36.296   9.854 -43.503  1.00  0.00     0.093 A 
ATOM      8  C   UNL     1     -37.207  10.421 -42.607  1.00  0.00     0.123 A 
ATOM      9  C   UNL     1     -36.801  10.728 -41.310  1.00  0.00     0.094 A 
ATOM     10  C   UNL     1     -35.498  10.446 -40.890  1.00  0.00     0.146 A 
ATOM     11  O   UNL     1     -35.155  10.745 -39.642  1.00  0.00    -0.452 OA
ENDROOT
BRANCH   1  12
ATOM     12  C   UNL     1     -33.690  10.906 -37.735  1.00  0.00     0.025 A 
ATOM     13  C   UNL     1     -33.467  12.252 -37.394  1.00  0.00     0.016 A 
ATOM     14  C   UNL     1     -33.244  12.616 -36.063  1.00  0.00     0.051 A 
ATOM     15  C   UNL     1     -33.254  11.644 -35.054  1.00  0.00     0.157 A 
ATOM     16  C   UNL     1     -33.720   9.940 -36.716  1.00  0.00     0.062 A 
ATOM     17  C   UNL     1     -33.496  10.304 -35.382  1.00  0.00     0.158 A 
BRANCH  15  18
ATOM     18  O   UNL     1     -33.031  12.002 -33.726  1.00  0.00    -0.504 OA
ATOM     19  H   UNL     1     -33.437  11.478 -32.960  1.00  0.00     0.293 HD
ENDBRANCH  15  18
BRANCH  17  20
ATOM     20  O   UNL     1     -33.513   9.339 -34.374  1.00  0.00    -0.504 OA
ATOM     21  H   UNL     1     -34.334   8.773 -34.197  1.00  0.00     0.293 HD
ENDBRANCH  17  20
ENDBRANCH   1  12
BRANCH   2  22
ATOM     22  O   UNL     1     -31.751   9.499 -39.364  1.00  0.00    -0.502 OA
ATOM     23  H   UNL     1     -31.638   8.716 -38.732  1.00  0.00     0.293 HD
ENDBRANCH   2  22
BRANCH   6  24
ATOM     24  O   UNL     1     -34.120   9.117 -44.120  1.00  0.00    -0.507 OA
ATOM     25  H   UNL     1     -34.413   8.844 -45.045  1.00  0.00     0.293 HD
ENDBRANCH   6  24
BRANCH   8  26
ATOM     26  O   UNL     1     -38.515  10.691 -42.998  1.00  0.00    -0.508 OA
ATOM     27  H   UNL     1     -38.918  11.616 -42.901  1.00  0.00     0.293 HD
ENDBRANCH   8  26
TORSDOF 6
ENDMDL
MODEL 2
REMARK VINA RESULT:    -4.643      1.527      6.757
REMARK INTER + INTRA:          -5.856
REMARK INTER:                  -5.571
REMARK INTRA:                  -0.285
REMARK UNBOUND:                -0.262
REMARK SMILES O=c1c(O)c(-c2ccc(O)c(O)c2)oc2cc(O)cc(O)c12
REMARK SMILES IDX 5 1 3 2 2 3 1 4 22 5 20 6 19 7 17 8 16 9 15 10 14 11 6 12
REMARK SMILES IDX 7 13 8 14 9 15 13 16 11 17 10 18 12 20 4 22 21 24 18 26
REMARK H PARENT 10 19 12 21 4 23 21 25 18 27
REMARK Flexibility Score: inf
ROOT
ATOM      1  C   UNL     1     -34.114  10.121 -39.574  1.00  0.00     0.180 A 
ATOM      2  C   UNL     1     -32.846   9.512 -39.551  1.00  0.00     0.208 A 
ATOM      3  C   UNL     1     -32.077   9.586 -38.378  1.00  0.00     0.238 A 
ATOM      4  O   UNL     1     -30.922   9.086 -38.382  1.00  0.00    -0.285 OA
ATOM      5  C   UNL     1     -32.591  10.251 -37.240  1.00  0.00     0.111 A 
ATOM      6  C   UNL     1     -31.915  10.351 -35.987  1.00  0.00     0.134 A 
ATOM      7  C   UNL     1     -32.460  11.145 -34.969  1.00  0.00     0.093 A 
ATOM      8  C   UNL     1     -33.689  11.789 -35.138  1.00  0.00     0.123 A 
ATOM      9  C   UNL     1     -34.385  11.648 -36.337  1.00  0.00     0.094 A 
ATOM     10  C   UNL     1     -33.849  10.892 -37.383  1.00  0.00     0.146 A 
ATOM     11  O   UNL     1     -34.539  10.793 -38.513  1.00  0.00    -0.452 OA
ENDROOT
BRANCH   1  12
ATOM     12  C   UNL     1     -34.992  10.065 -40.765  1.00  0.00     0.025 A 
ATOM     13  C   UNL     1     -35.702   8.897 -41.097  1.00  0.00     0.016 A 
ATOM     14  C   UNL     1     -36.544   8.875 -42.211  1.00  0.00     0.051 A 
ATOM     15  C   UNL     1     -36.700  10.021 -43.002  1.00  0.00     0.157 A 
ATOM     16  C   UNL     1     -35.170  11.217 -41.549  1.00  0.00     0.062 A 
ATOM     17  C   UNL     1     -36.014  11.195 -42.668  1.00  0.00     0.158 A 
BRANCH  15  18
ATOM     18  O   UNL     1     -37.538  10.003 -44.115  1.00  0.00    -0.504 OA
ATOM     19  H   UNL     1     -37.167   9.955 -45.057  1.00  0.00     0.293 HD
ENDBRANCH  15  18
BRANCH  17  20
ATOM     20  O   UNL     1     -36.177  12.337 -43.451  1.00  0.00    -0.504 OA
ATOM     21  H   UNL     1     -35.896  12.357 -44.424  1.00  0.00     0.293 HD
ENDBRANCH  17  20
ENDBRANCH   1  12
BRANCH   2  22
ATOM     22  O   UNL     1     -32.349   8.879 -40.694  1.00  0.00    -0.502 OA
ATOM     23  H   UNL     1     -32.779   8.050 -41.088  1.00  0.00     0.293 HD
ENDBRANCH   2  22
BRANCH   6  24
ATOM     24  O   UNL     1     -30.730   9.674 -35.682  1.00  0.00    -0.507 OA
ATOM     25  H   UNL     1     -29.878   9.740 -36.217  1.00  0.00     0.293 HD
ENDBRANCH   6  24
BRANCH   8  26
ATOM     26  O   UNL     1     -34.231  12.564 -34.116  1.00  0.00    -0.508 OA
ATOM     27  H   UNL     1     -35.156  12.378 -33.744  1.00  0.00     0.293 HD
ENDBRANCH   8  26
TORSDOF 6
ENDMDL
