MODEL 1
REMARK VINA RESULT:    -3.242      0.000      0.000
REMARK INTER + INTRA:         -13.097
REMARK INTER:                  -8.549
REMARK INTRA:                  -4.548
REMARK UNBOUND:                -4.548
REMARK SMILES CCCCCCCCCCCCCCCCCCCCCCCCCCCCCC(=O)[O-]
REMARK SMILES IDX 16 1 17 2 18 3 19 4 20 5 21 6 22 7 23 8 24 9 25 10 26 11
REMARK SMILES IDX 27 12 28 13 29 14 30 15 31 16 32 17 15 18 14 19 13 20 12 21
REMARK SMILES IDX 11 22 10 23 9 24 8 25 7 26 6 27 5 28 4 29 3 30 2 31 1 32
REMARK H PARENT
REMARK Flexibility Score: inf
ROOT
ATOM      1  C   UNL     1      21.694  70.843  17.474  1.00  0.00     0.000 C 
ENDROOT
BRANCH   1   2
ATOM      2  C   UNL     1      21.992  70.709  15.969  1.00  0.00     0.000 C 
BRANCH   2   3
ATOM      3  C   UNL     1      21.209  71.670  15.055  1.00  0.00     0.000 C 
BRANCH   3   4
ATOM      4  C   UNL     1      22.023  72.912  14.651  1.00  0.00     0.000 C 
BRANCH   4   5
ATOM      5  C   UNL     1      23.540  72.694  14.783  1.00  0.00     0.000 C 
BRANCH   5   6
ATOM      6  C   UNL     1      24.209  72.329  13.448  1.00  0.00     0.000 C 
BRANCH   6   7
ATOM      7  C   UNL     1      23.436  72.862  12.228  1.00  0.00     0.000 C 
BRANCH   7   8
ATOM      8  C   UNL     1      22.774  71.785  11.346  1.00  0.00     0.000 C 
BRANCH   8   9
ATOM      9  C   UNL     1      23.619  71.308  10.151  1.00  0.00     0.000 C 
BRANCH   9  10
ATOM     10  C   UNL     1      24.154  72.433   9.243  1.00  0.00     0.000 C 
BRANCH  10  11
ATOM     11  C   UNL     1      25.613  72.221   8.780  1.00  0.00     0.000 C 
BRANCH  11  12
ATOM     12  C   UNL     1      26.638  72.560   9.877  1.00  0.00     0.000 C 
BRANCH  12  13
ATOM     13  C   UNL     1      27.346  71.314  10.445  1.00  0.00     0.006 C 
BRANCH  13  14
ATOM     14  C   UNL     1      27.030  71.042  11.926  1.00  0.00     0.053 C 
BRANCH  14  15
ATOM     15  C   UNL     1      27.998  71.711  12.853  1.00  0.00     0.041 C 
ATOM     16  O   UNL     1      27.706  71.870  14.068  1.00  0.00    -0.550 OA
ATOM     17  O   UNL     1      29.213  72.184  12.372  1.00  0.00    -0.550 OA
ENDBRANCH  14  15
ENDBRANCH  13  14
ENDBRANCH  12  13
ENDBRANCH  11  12
ENDBRANCH  10  11
ENDBRANCH   9  10
ENDBRANCH   8   9
ENDBRANCH   7   8
ENDBRANCH   6   7
ENDBRANCH   5   6
ENDBRANCH   4   5
ENDBRANCH   3   4
ENDBRANCH   2   3
ENDBRANCH   1   2
BRANCH   1  18
ATOM     18  C   UNL     1      22.503  69.860  18.340  1.00  0.00     0.000 C 
BRANCH  18  19
ATOM     19  C   UNL     1      22.613  68.458  17.704  1.00  0.00     0.000 C 
BRANCH  19  20
ATOM     20  C   UNL     1      22.657  67.309  18.731  1.00  0.00     0.000 C 
BRANCH  20  21
ATOM     21  C   UNL     1      22.127  65.958  18.220  1.00  0.00     0.000 C 
BRANCH  21  22
ATOM     22  C   UNL     1      21.119  65.314  19.183  1.00  0.00     0.000 C 
BRANCH  22  23
ATOM     23  C   UNL     1      19.706  65.315  18.581  1.00  0.00     0.000 C 
BRANCH  23  24
ATOM     24  C   UNL     1      18.710  66.163  19.393  1.00  0.00    -0.000 C 
BRANCH  24  25
ATOM     25  C   UNL     1      18.050  67.313  18.612  1.00  0.00    -0.000 C 
BRANCH  25  26
ATOM     26  C   UNL     1      19.073  68.211  17.892  1.00  0.00    -0.000 C 
BRANCH  26  27
ATOM     27  C   UNL     1      18.489  68.873  16.635  1.00  0.00    -0.000 C 
BRANCH  27  28
ATOM     28  C   UNL     1      19.232  68.463  15.351  1.00  0.00    -0.000 C 
BRANCH  28  29
ATOM     29  C   UNL     1      19.823  67.041  15.452  1.00  0.00    -0.000 C 
BRANCH  29  30
ATOM     30  C   UNL     1      20.975  66.783  14.466  1.00  0.00    -0.000 C 
BRANCH  30  31
ATOM     31  C   UNL     1      21.565  65.371  14.591  1.00  0.00    -0.003 C 
ATOM     32  C   UNL     1      23.078  65.420  14.777  1.00  0.00     0.004 C 
ENDBRANCH  30  31
ENDBRANCH  29  30
ENDBRANCH  28  29
ENDBRANCH  27  28
ENDBRANCH  26  27
ENDBRANCH  25  26
ENDBRANCH  24  25
ENDBRANCH  23  24
ENDBRANCH  22  23
ENDBRANCH  21  22
ENDBRANCH  20  21
ENDBRANCH  19  20
ENDBRANCH  18  19
ENDBRANCH   1  18
TORSDOF 28
ENDMDL
MODEL 2
REMARK VINA RESULT:    -3.230      3.624      7.711
REMARK INTER + INTRA:         -13.066
REMARK INTER:                  -7.904
REMARK INTRA:                  -5.161
REMARK UNBOUND:                -4.548
REMARK SMILES CCCCCCCCCCCCCCCCCCCCCCCCCCCCCC(=O)[O-]
REMARK SMILES IDX 16 1 17 2 18 3 19 4 20 5 21 6 22 7 23 8 24 9 25 10 26 11
REMARK SMILES IDX 27 12 28 13 29 14 30 15 31 16 32 17 15 18 14 19 13 20 12 21
REMARK SMILES IDX 11 22 10 23 9 24 8 25 7 26 6 27 5 28 4 29 3 30 2 31 1 32
REMARK H PARENT
REMARK Flexibility Score: inf
ROOT
ATOM      1  C   UNL     1      26.770  71.662  12.689  1.00  0.00     0.000 C 
ENDROOT
BRANCH   1   2
ATOM      2  C   UNL     1      27.334  70.857  11.503  1.00  0.00     0.000 C 
BRANCH   2   3
ATOM      3  C   UNL     1      28.393  71.589  10.656  1.00  0.00     0.000 C 
BRANCH   3   4
ATOM      4  C   UNL     1      28.538  71.002   9.241  1.00  0.00     0.000 C 
BRANCH   4   5
ATOM      5  C   UNL     1      27.935  71.913   8.158  1.00  0.00     0.000 C 
BRANCH   5   6
ATOM      6  C   UNL     1      26.414  71.744   8.013  1.00  0.00     0.000 C 
BRANCH   6   7
ATOM      7  C   UNL     1      25.646  73.062   8.220  1.00  0.00     0.000 C 
BRANCH   7   8
ATOM      8  C   UNL     1      26.504  74.258   8.680  1.00  0.00     0.000 C 
BRANCH   8   9
ATOM      9  C   UNL     1      26.335  74.652  10.159  1.00  0.00     0.000 C 
BRANCH   9  10
ATOM     10  C   UNL     1      26.628  76.131  10.476  1.00  0.00     0.000 C 
BRANCH  10  11
ATOM     11  C   UNL     1      25.960  77.124   9.499  1.00  0.00     0.000 C 
BRANCH  11  12
ATOM     12  C   UNL     1      24.808  77.911  10.149  1.00  0.00     0.000 C 
BRANCH  12  13
ATOM     13  C   UNL     1      24.895  77.948  11.687  1.00  0.00     0.006 C 
BRANCH  13  14
ATOM     14  C   UNL     1      25.524  79.238  12.242  1.00  0.00     0.053 C 
BRANCH  14  15
ATOM     15  C   UNL     1      24.809  79.751  13.455  1.00  0.00     0.041 C 
ATOM     16  O   UNL     1      24.181  80.841  13.406  1.00  0.00    -0.550 OA
ATOM     17  O   UNL     1      24.858  79.039  14.648  1.00  0.00    -0.550 OA
ENDBRANCH  14  15
ENDBRANCH  13  14
ENDBRANCH  12  13
ENDBRANCH  11  12
ENDBRANCH  10  11
ENDBRANCH   9  10
ENDBRANCH   8   9
ENDBRANCH   7   8
ENDBRANCH   6   7
ENDBRANCH   5   6
ENDBRANCH   4   5
ENDBRANCH   3   4
ENDBRANCH   2   3
ENDBRANCH   1   2
BRANCH   1  18
ATOM     18  C   UNL     1      25.273  71.992  12.536  1.00  0.00     0.000 C 
BRANCH  18  19
ATOM     19  C   UNL     1      24.646  71.350  11.281  1.00  0.00     0.000 C 
BRANCH  19  20
ATOM     20  C   UNL     1      23.110  71.238  11.338  1.00  0.00     0.000 C 
BRANCH  20  21
ATOM     21  C   UNL     1      22.360  72.012  10.241  1.00  0.00     0.000 C 
BRANCH  21  22
ATOM     22  C   UNL     1      21.716  73.305  10.762  1.00  0.00     0.000 C 
BRANCH  22  23
ATOM     23  C   UNL     1      22.754  74.431  10.868  1.00  0.00     0.000 C 
BRANCH  23  24
ATOM     24  C   UNL     1      22.942  74.939  12.309  1.00  0.00    -0.000 C 
BRANCH  24  25
ATOM     25  C   UNL     1      21.645  75.062  13.128  1.00  0.00    -0.000 C 
BRANCH  25  26
ATOM     26  C   UNL     1      21.700  74.283  14.454  1.00  0.00    -0.000 C 
BRANCH  26  27
ATOM     27  C   UNL     1      23.134  73.902  14.852  1.00  0.00    -0.000 C 
BRANCH  27  28
ATOM     28  C   UNL     1      23.235  72.468  15.402  1.00  0.00    -0.000 C 
BRANCH  28  29
ATOM     29  C   UNL     1      22.064  71.582  14.929  1.00  0.00    -0.000 C 
BRANCH  29  30
ATOM     30  C   UNL     1      21.861  70.322  15.788  1.00  0.00    -0.000 C 
BRANCH  30  31
ATOM     31  C   UNL     1      21.444  70.642  17.230  1.00  0.00    -0.003 C 
ATOM     32  C   UNL     1      22.551  70.282  18.216  1.00  0.00     0.004 C 
ENDBRANCH  30  31
ENDBRANCH  29  30
ENDBRANCH  28  29
ENDBRANCH  27  28
ENDBRANCH  26  27
ENDBRANCH  25  26
ENDBRANCH  24  25
ENDBRANCH  23  24
ENDBRANCH  22  23
ENDBRANCH  21  22
ENDBRANCH  20  21
ENDBRANCH  19  20
ENDBRANCH  18  19
ENDBRANCH   1  18
TORSDOF 28
ENDMDL
MODEL 3
REMARK VINA RESULT:    -3.196      3.228      8.822
REMARK INTER + INTRA:         -12.976
REMARK INTER:                  -7.119
REMARK INTRA:                  -5.857
REMARK UNBOUND:                -4.548
REMARK SMILES CCCCCCCCCCCCCCCCCCCCCCCCCCCCCC(=O)[O-]
REMARK SMILES IDX 16 1 17 2 18 3 19 4 20 5 21 6 22 7 23 8 24 9 25 10 26 11
REMARK SMILES IDX 27 12 28 13 29 14 30 15 31 16 32 17 15 18 14 19 13 20 12 21
REMARK SMILES IDX 11 22 10 23 9 24 8 25 7 26 6 27 5 28 4 29 3 30 2 31 1 32
REMARK H PARENT
REMARK Flexibility Score: inf
ROOT
ATOM      1  C   UNL     1      28.340  72.301  11.555  1.00  0.00     0.000 C 
ENDROOT
BRANCH   1   2
ATOM      2  C   UNL     1      27.341  72.019  12.693  1.00  0.00     0.000 C 
BRANCH   2   3
ATOM      3  C   UNL     1      26.041  71.309  12.267  1.00  0.00     0.000 C 
BRANCH   3   4
ATOM      4  C   UNL     1      24.836  72.263  12.184  1.00  0.00     0.000 C 
BRANCH   4   5
ATOM      5  C   UNL     1      23.780  71.977  13.265  1.00  0.00     0.000 C 
BRANCH   5   6
ATOM      6  C   UNL     1      24.040  72.742  14.573  1.00  0.00     0.000 C 
BRANCH   6   7
ATOM      7  C   UNL     1      23.054  73.904  14.789  1.00  0.00     0.000 C 
BRANCH   7   8
ATOM      8  C   UNL     1      21.629  73.666  14.251  1.00  0.00     0.000 C 
BRANCH   8   9
ATOM      9  C   UNL     1      20.533  73.560  15.327  1.00  0.00     0.000 C 
BRANCH   9  10
ATOM     10  C   UNL     1      19.863  72.177  15.439  1.00  0.00     0.000 C 
BRANCH  10  11
ATOM     11  C   UNL     1      20.574  71.070  14.628  1.00  0.00     0.000 C 
BRANCH  11  12
ATOM     12  C   UNL     1      21.477  70.182  15.501  1.00  0.00     0.000 C 
BRANCH  12  13
ATOM     13  C   UNL     1      21.096  70.218  16.994  1.00  0.00     0.006 C 
BRANCH  13  14
ATOM     14  C   UNL     1      22.280  69.967  17.943  1.00  0.00     0.053 C 
BRANCH  14  15
ATOM     15  C   UNL     1      22.411  68.526  18.332  1.00  0.00     0.041 C 
ATOM     16  O   UNL     1      21.901  68.111  19.406  1.00  0.00    -0.550 OA
ATOM     17  O   UNL     1      23.119  67.646  17.523  1.00  0.00    -0.550 OA
ENDBRANCH  14  15
ENDBRANCH  13  14
ENDBRANCH  12  13
ENDBRANCH  11  12
ENDBRANCH  10  11
ENDBRANCH   9  10
ENDBRANCH   8   9
ENDBRANCH   7   8
ENDBRANCH   6   7
ENDBRANCH   5   6
ENDBRANCH   4   5
ENDBRANCH   3   4
ENDBRANCH   2   3
ENDBRANCH   1   2
BRANCH   1  18
ATOM     18  C   UNL     1      28.299  71.239  10.440  1.00  0.00     0.000 C 
BRANCH  18  19
ATOM     19  C   UNL     1      27.985  71.842   9.054  1.00  0.00     0.000 C 
BRANCH  19  20
ATOM     20  C   UNL     1      26.529  71.627   8.596  1.00  0.00     0.000 C 
BRANCH  20  21
ATOM     21  C   UNL     1      25.620  72.861   8.715  1.00  0.00     0.000 C 
BRANCH  21  22
ATOM     22  C   UNL     1      26.411  74.177   8.764  1.00  0.00     0.000 C 
BRANCH  22  23
ATOM     23  C   UNL     1      26.102  74.955  10.052  1.00  0.00     0.000 C 
BRANCH  23  24
ATOM     24  C   UNL     1      24.779  75.738   9.976  1.00  0.00    -0.000 C 
BRANCH  24  25
ATOM     25  C   UNL     1      23.921  75.689  11.252  1.00  0.00    -0.000 C 
BRANCH  25  26
ATOM     26  C   UNL     1      22.449  75.338  10.970  1.00  0.00    -0.000 C 
BRANCH  26  27
ATOM     27  C   UNL     1      22.304  74.156   9.999  1.00  0.00    -0.000 C 
BRANCH  27  28
ATOM     28  C   UNL     1      21.473  73.004  10.590  1.00  0.00    -0.000 C 
BRANCH  28  29
ATOM     29  C   UNL     1      21.812  71.649   9.935  1.00  0.00    -0.000 C 
BRANCH  29  30
ATOM     30  C   UNL     1      21.501  70.437  10.831  1.00  0.00    -0.000 C 
BRANCH  30  31
ATOM     31  C   UNL     1      22.312  69.190  10.453  1.00  0.00    -0.003 C 
ATOM     32  C   UNL     1      23.650  69.570   9.828  1.00  0.00     0.004 C 
ENDBRANCH  30  31
ENDBRANCH  29  30
ENDBRANCH  28  29
ENDBRANCH  27  28
ENDBRANCH  26  27
ENDBRANCH  25  26
ENDBRANCH  24  25
ENDBRANCH  23  24
ENDBRANCH  22  23
ENDBRANCH  21  22
ENDBRANCH  20  21
ENDBRANCH  19  20
ENDBRANCH  18  19
ENDBRANCH   1  18
TORSDOF 28
ENDMDL
MODEL 4
REMARK VINA RESULT:    -3.141      1.868      4.857
REMARK INTER + INTRA:         -12.831
REMARK INTER:                  -6.690
REMARK INTRA:                  -6.141
REMARK UNBOUND:                -4.548
REMARK SMILES CCCCCCCCCCCCCCCCCCCCCCCCCCCCCC(=O)[O-]
REMARK SMILES IDX 16 1 17 2 18 3 19 4 20 5 21 6 22 7 23 8 24 9 25 10 26 11
REMARK SMILES IDX 27 12 28 13 29 14 30 15 31 16 32 17 15 18 14 19 13 20 12 21
REMARK SMILES IDX 11 22 10 23 9 24 8 25 7 26 6 27 5 28 4 29 3 30 2 31 1 32
REMARK H PARENT
REMARK Flexibility Score: inf
ROOT
ATOM      1  C   UNL     1      22.436  68.414  18.297  1.00  0.00     0.000 C 
ENDROOT
BRANCH   1   2
ATOM      2  C   UNL     1      22.396  69.953  18.352  1.00  0.00     0.000 C 
BRANCH   2   3
ATOM      3  C   UNL     1      21.566  70.630  17.245  1.00  0.00     0.000 C 
BRANCH   3   4
ATOM      4  C   UNL     1      21.731  69.954  15.873  1.00  0.00     0.000 C 
BRANCH   4   5
ATOM      5  C   UNL     1      20.385  69.704  15.171  1.00  0.00     0.000 C 
BRANCH   5   6
ATOM      6  C   UNL     1      19.213  70.436  15.845  1.00  0.00     0.000 C 
BRANCH   6   7
ATOM      7  C   UNL     1      18.390  71.280  14.855  1.00  0.00     0.000 C 
BRANCH   7   8
ATOM      8  C   UNL     1      18.394  72.798  15.123  1.00  0.00     0.000 C 
BRANCH   8   9
ATOM      9  C   UNL     1      19.742  73.375  15.593  1.00  0.00     0.000 C 
BRANCH   9  10
ATOM     10  C   UNL     1      20.798  73.549  14.484  1.00  0.00     0.000 C 
BRANCH  10  11
ATOM     11  C   UNL     1      22.254  73.524  14.998  1.00  0.00     0.000 C 
BRANCH  11  12
ATOM     12  C   UNL     1      23.285  73.467  13.857  1.00  0.00     0.000 C 
BRANCH  12  13
ATOM     13  C   UNL     1      23.767  72.036  13.551  1.00  0.00     0.006 C 
BRANCH  13  14
ATOM     14  C   UNL     1      24.506  71.904  12.208  1.00  0.00     0.053 C 
BRANCH  14  15
ATOM     15  C   UNL     1      25.954  71.561  12.379  1.00  0.00     0.041 C 
ATOM     16  O   UNL     1      26.545  70.859  11.516  1.00  0.00    -0.550 OA
ATOM     17  O   UNL     1      26.646  71.994  13.503  1.00  0.00    -0.550 OA
ENDBRANCH  14  15
ENDBRANCH  13  14
ENDBRANCH  12  13
ENDBRANCH  11  12
ENDBRANCH  10  11
ENDBRANCH   9  10
ENDBRANCH   8   9
ENDBRANCH   7   8
ENDBRANCH   6   7
ENDBRANCH   5   6
ENDBRANCH   4   5
ENDBRANCH   3   4
ENDBRANCH   2   3
ENDBRANCH   1   2
BRANCH   1  18
ATOM     18  C   UNL     1      21.527  67.749  19.348  1.00  0.00     0.000 C 
BRANCH  18  19
ATOM     19  C   UNL     1      20.072  67.587  18.860  1.00  0.00     0.000 C 
BRANCH  19  20
ATOM     20  C   UNL     1      19.949  66.923  17.474  1.00  0.00     0.000 C 
BRANCH  20  21
ATOM     21  C   UNL     1      20.241  65.414  17.447  1.00  0.00     0.000 C 
BRANCH  21  22
ATOM     22  C   UNL     1      21.340  65.042  16.440  1.00  0.00     0.000 C 
BRANCH  22  23
ATOM     23  C   UNL     1      21.624  66.206  15.481  1.00  0.00     0.000 C 
BRANCH  23  24
ATOM     24  C   UNL     1      21.106  65.946  14.055  1.00  0.00    -0.000 C 
BRANCH  24  25
ATOM     25  C   UNL     1      19.636  66.334  13.817  1.00  0.00    -0.000 C 
BRANCH  25  26
ATOM     26  C   UNL     1      19.455  67.294  12.628  1.00  0.00    -0.000 C 
BRANCH  26  27
ATOM     27  C   UNL     1      20.778  67.580  11.899  1.00  0.00    -0.000 C 
BRANCH  27  28
ATOM     28  C   UNL     1      20.697  68.819  10.991  1.00  0.00    -0.000 C 
BRANCH  28  29
ATOM     29  C   UNL     1      21.210  70.091  11.698  1.00  0.00    -0.000 C 
BRANCH  29  30
ATOM     30  C   UNL     1      20.234  71.278  11.613  1.00  0.00    -0.000 C 
BRANCH  30  31
ATOM     31  C   UNL     1      20.894  72.557  11.077  1.00  0.00    -0.003 C 
ATOM     32  C   UNL     1      21.697  72.274   9.811  1.00  0.00     0.004 C 
ENDBRANCH  30  31
ENDBRANCH  29  30
ENDBRANCH  28  29
ENDBRANCH  27  28
ENDBRANCH  26  27
ENDBRANCH  25  26
ENDBRANCH  24  25
ENDBRANCH  23  24
ENDBRANCH  22  23
ENDBRANCH  21  22
ENDBRANCH  20  21
ENDBRANCH  19  20
ENDBRANCH  18  19
ENDBRANCH   1  18
TORSDOF 28
ENDMDL
MODEL 5
REMARK VINA RESULT:    -3.117      2.863      6.531
REMARK INTER + INTRA:         -12.767
REMARK INTER:                  -8.034
REMARK INTRA:                  -4.733
REMARK UNBOUND:                -4.548
REMARK SMILES CCCCCCCCCCCCCCCCCCCCCCCCCCCCCC(=O)[O-]
REMARK SMILES IDX 16 1 17 2 18 3 19 4 20 5 21 6 22 7 23 8 24 9 25 10 26 11
REMARK SMILES IDX 27 12 28 13 29 14 30 15 31 16 32 17 15 18 14 19 13 20 12 21
REMARK SMILES IDX 11 22 10 23 9 24 8 25 7 26 6 27 5 28 4 29 3 30 2 31 1 32
REMARK H PARENT
REMARK Flexibility Score: inf
ROOT
ATOM      1  C   UNL     1      26.454  71.885  12.753  1.00  0.00     0.000 C 
ENDROOT
BRANCH   1   2
ATOM      2  C   UNL     1      27.481  72.700  11.944  1.00  0.00     0.000 C 
BRANCH   2   3
ATOM      3  C   UNL     1      28.732  71.922  11.494  1.00  0.00     0.000 C 
BRANCH   3   4
ATOM      4  C   UNL     1      28.434  70.898  10.385  1.00  0.00     0.000 C 
BRANCH   4   5
ATOM      5  C   UNL     1      28.318  71.547   8.995  1.00  0.00     0.000 C 
BRANCH   5   6
ATOM      6  C   UNL     1      27.045  71.126   8.243  1.00  0.00     0.000 C 
BRANCH   6   7
ATOM      7  C   UNL     1      26.116  72.315   7.934  1.00  0.00     0.000 C 
BRANCH   7   8
ATOM      8  C   UNL     1      26.575  73.673   8.500  1.00  0.00     0.000 C 
BRANCH   8   9
ATOM      9  C   UNL     1      25.469  74.510   9.169  1.00  0.00     0.000 C 
BRANCH   9  10
ATOM     10  C   UNL     1      24.060  73.886   9.117  1.00  0.00     0.000 C 
BRANCH  10  11
ATOM     11  C   UNL     1      23.119  74.375  10.240  1.00  0.00     0.000 C 
BRANCH  11  12
ATOM     12  C   UNL     1      23.806  75.357  11.205  1.00  0.00     0.000 C 
BRANCH  12  13
ATOM     13  C   UNL     1      22.817  76.319  11.891  1.00  0.00     0.006 C 
BRANCH  13  14
ATOM     14  C   UNL     1      23.411  77.062  13.100  1.00  0.00     0.053 C 
BRANCH  14  15
ATOM     15  C   UNL     1      23.758  78.486  12.786  1.00  0.00     0.041 C 
ATOM     16  O   UNL     1      24.926  78.911  12.985  1.00  0.00    -0.550 OA
ATOM     17  O   UNL     1      22.786  79.351  12.300  1.00  0.00    -0.550 OA
ENDBRANCH  14  15
ENDBRANCH  13  14
ENDBRANCH  12  13
ENDBRANCH  11  12
ENDBRANCH  10  11
ENDBRANCH   9  10
ENDBRANCH   8   9
ENDBRANCH   7   8
ENDBRANCH   6   7
ENDBRANCH   5   6
ENDBRANCH   4   5
ENDBRANCH   3   4
ENDBRANCH   2   3
ENDBRANCH   1   2
BRANCH   1  18
ATOM     18  C   UNL     1      25.108  71.718  12.025  1.00  0.00     0.000 C 
BRANCH  18  19
ATOM     19  C   UNL     1      23.896  71.894  12.964  1.00  0.00     0.000 C 
BRANCH  19  20
ATOM     20  C   UNL     1      24.206  72.709  14.236  1.00  0.00     0.000 C 
BRANCH  20  21
ATOM     21  C   UNL     1      23.102  73.688  14.667  1.00  0.00     0.000 C 
BRANCH  21  22
ATOM     22  C   UNL     1      21.787  73.473  13.903  1.00  0.00     0.000 C 
BRANCH  22  23
ATOM     23  C   UNL     1      20.579  73.591  14.844  1.00  0.00     0.000 C 
BRANCH  23  24
ATOM     24  C   UNL     1      20.389  72.347  15.731  1.00  0.00    -0.000 C 
BRANCH  24  25
ATOM     25  C   UNL     1      20.662  71.004  15.033  1.00  0.00    -0.000 C 
BRANCH  25  26
ATOM     26  C   UNL     1      21.449  70.020  15.917  1.00  0.00    -0.000 C 
BRANCH  26  27
ATOM     27  C   UNL     1      22.373  70.737  16.914  1.00  0.00    -0.000 C 
BRANCH  27  28
ATOM     28  C   UNL     1      22.346  70.096  18.313  1.00  0.00    -0.000 C 
BRANCH  28  29
ATOM     29  C   UNL     1      22.489  68.561  18.251  1.00  0.00    -0.000 C 
BRANCH  29  30
ATOM     30  C   UNL     1      21.436  67.812  19.086  1.00  0.00    -0.000 C 
BRANCH  30  31
ATOM     31  C   UNL     1      20.211  67.388  18.265  1.00  0.00    -0.003 C 
ATOM     32  C   UNL     1      18.930  67.505  19.085  1.00  0.00     0.004 C 
ENDBRANCH  30  31
ENDBRANCH  29  30
ENDBRANCH  28  29
ENDBRANCH  27  28
ENDBRANCH  26  27
ENDBRANCH  25  26
ENDBRANCH  24  25
ENDBRANCH  23  24
ENDBRANCH  22  23
ENDBRANCH  21  22
ENDBRANCH  20  21
ENDBRANCH  19  20
ENDBRANCH  18  19
ENDBRANCH   1  18
TORSDOF 28
ENDMDL
MODEL 6
REMARK VINA RESULT:    -3.115      3.267      9.348
REMARK INTER + INTRA:         -12.763
REMARK INTER:                  -7.768
REMARK INTRA:                  -4.995
REMARK UNBOUND:                -4.548
REMARK SMILES CCCCCCCCCCCCCCCCCCCCCCCCCCCCCC(=O)[O-]
REMARK SMILES IDX 16 1 17 2 18 3 19 4 20 5 21 6 22 7 23 8 24 9 25 10 26 11
REMARK SMILES IDX 27 12 28 13 29 14 30 15 31 16 32 17 15 18 14 19 13 20 12 21
REMARK SMILES IDX 11 22 10 23 9 24 8 25 7 26 6 27 5 28 4 29 3 30 2 31 1 32
REMARK H PARENT
REMARK Flexibility Score: inf
ROOT
ATOM      1  C   UNL     1      25.046  71.624  12.389  1.00  0.00     0.000 C 
ENDROOT
BRANCH   1   2
ATOM      2  C   UNL     1      23.764  72.221  13.000  1.00  0.00     0.000 C 
BRANCH   2   3
ATOM      3  C   UNL     1      23.894  72.711  14.454  1.00  0.00     0.000 C 
BRANCH   3   4
ATOM      4  C   UNL     1      23.210  74.068  14.694  1.00  0.00     0.000 C 
BRANCH   4   5
ATOM      5  C   UNL     1      21.686  73.942  14.859  1.00  0.00     0.000 C 
BRANCH   5   6
ATOM      6  C   UNL     1      20.904  74.575  13.696  1.00  0.00     0.000 C 
BRANCH   6   7
ATOM      7  C   UNL     1      20.578  73.567  12.579  1.00  0.00     0.000 C 
BRANCH   7   8
ATOM      8  C   UNL     1      19.680  72.386  13.000  1.00  0.00     0.000 C 
BRANCH   8   9
ATOM      9  C   UNL     1      20.362  71.006  12.976  1.00  0.00     0.000 C 
BRANCH   9  10
ATOM     10  C   UNL     1      20.565  70.356  14.358  1.00  0.00     0.000 C 
BRANCH  10  11
ATOM     11  C   UNL     1      19.812  71.072  15.502  1.00  0.00     0.000 C 
BRANCH  11  12
ATOM     12  C   UNL     1      20.500  70.894  16.867  1.00  0.00     0.000 C 
BRANCH  12  13
ATOM     13  C   UNL     1      21.978  70.474  16.747  1.00  0.00     0.006 C 
BRANCH  13  14
ATOM     14  C   UNL     1      22.610  70.037  18.080  1.00  0.00     0.053 C 
BRANCH  14  15
ATOM     15  C   UNL     1      22.467  68.567  18.330  1.00  0.00     0.041 C 
ATOM     16  O   UNL     1      23.113  67.740  17.635  1.00  0.00    -0.550 OA
ATOM     17  O   UNL     1      21.599  68.107  19.314  1.00  0.00    -0.550 OA
ENDBRANCH  14  15
ENDBRANCH  13  14
ENDBRANCH  12  13
ENDBRANCH  11  12
ENDBRANCH  10  11
ENDBRANCH   9  10
ENDBRANCH   8   9
ENDBRANCH   7   8
ENDBRANCH   6   7
ENDBRANCH   5   6
ENDBRANCH   4   5
ENDBRANCH   3   4
ENDBRANCH   2   3
ENDBRANCH   1   2
BRANCH   1  18
ATOM     18  C   UNL     1      26.317  71.993  13.177  1.00  0.00     0.000 C 
BRANCH  18  19
ATOM     19  C   UNL     1      27.612  71.710  12.385  1.00  0.00     0.000 C 
BRANCH  19  20
ATOM     20  C   UNL     1      27.382  70.946  11.066  1.00  0.00     0.000 C 
BRANCH  20  21
ATOM     21  C   UNL     1      28.351  71.306   9.927  1.00  0.00     0.000 C 
BRANCH  21  22
ATOM     22  C   UNL     1      27.626  71.632   8.613  1.00  0.00     0.000 C 
BRANCH  22  23
ATOM     23  C   UNL     1      26.103  71.542   8.788  1.00  0.00     0.000 C 
BRANCH  23  24
ATOM     24  C   UNL     1      25.385  72.865   8.468  1.00  0.00    -0.000 C 
BRANCH  24  25
ATOM     25  C   UNL     1      26.180  74.136   8.816  1.00  0.00    -0.000 C 
BRANCH  25  26
ATOM     26  C   UNL     1      25.873  74.665  10.229  1.00  0.00    -0.000 C 
BRANCH  26  27
ATOM     27  C   UNL     1      24.366  74.708  10.524  1.00  0.00    -0.000 C 
BRANCH  27  28
ATOM     28  C   UNL     1      23.676  75.937   9.906  1.00  0.00    -0.000 C 
BRANCH  28  29
ATOM     29  C   UNL     1      22.827  76.707  10.939  1.00  0.00    -0.000 C 
BRANCH  29  30
ATOM     30  C   UNL     1      23.537  76.910  12.289  1.00  0.00    -0.000 C 
BRANCH  30  31
ATOM     31  C   UNL     1      24.600  78.016  12.246  1.00  0.00    -0.003 C 
ATOM     32  C   UNL     1      24.305  79.104  13.274  1.00  0.00     0.004 C 
ENDBRANCH  30  31
ENDBRANCH  29  30
ENDBRANCH  28  29
ENDBRANCH  27  28
ENDBRANCH  26  27
ENDBRANCH  25  26
ENDBRANCH  24  25
ENDBRANCH  23  24
ENDBRANCH  22  23
ENDBRANCH  21  22
ENDBRANCH  20  21
ENDBRANCH  19  20
ENDBRANCH  18  19
ENDBRANCH   1  18
TORSDOF 28
ENDMDL
MODEL 7
REMARK VINA RESULT:    -3.106      2.908      8.648
REMARK INTER + INTRA:         -12.738
REMARK INTER:                  -7.396
REMARK INTRA:                  -5.342
REMARK UNBOUND:                -4.548
REMARK SMILES CCCCCCCCCCCCCCCCCCCCCCCCCCCCCC(=O)[O-]
REMARK SMILES IDX 16 1 17 2 18 3 19 4 20 5 21 6 22 7 23 8 24 9 25 10 26 11
REMARK SMILES IDX 27 12 28 13 29 14 30 15 31 16 32 17 15 18 14 19 13 20 12 21
REMARK SMILES IDX 11 22 10 23 9 24 8 25 7 26 6 27 5 28 4 29 3 30 2 31 1 32
REMARK H PARENT
REMARK Flexibility Score: inf
ROOT
ATOM      1  C   UNL     1      26.678  71.998  13.384  1.00  0.00     0.000 C 
ENDROOT
BRANCH   1   2
ATOM      2  C   UNL     1      25.400  71.803  12.547  1.00  0.00     0.000 C 
BRANCH   2   3
ATOM      3  C   UNL     1      24.077  71.989  13.314  1.00  0.00     0.000 C 
BRANCH   3   4
ATOM      4  C   UNL     1      24.262  72.693  14.670  1.00  0.00     0.000 C 
BRANCH   4   5
ATOM      5  C   UNL     1      23.064  73.581  15.044  1.00  0.00     0.000 C 
BRANCH   5   6
ATOM      6  C   UNL     1      22.084  73.786  13.878  1.00  0.00     0.000 C 
BRANCH   6   7
ATOM      7  C   UNL     1      20.696  73.178  14.152  1.00  0.00     0.000 C 
BRANCH   7   8
ATOM      8  C   UNL     1      20.342  71.940  13.304  1.00  0.00     0.000 C 
BRANCH   8   9
ATOM      9  C   UNL     1      20.119  70.643  14.104  1.00  0.00     0.000 C 
BRANCH   9  10
ATOM     10  C   UNL     1      21.375  70.082  14.797  1.00  0.00     0.000 C 
BRANCH  10  11
ATOM     11  C   UNL     1      21.404  70.318  16.324  1.00  0.00     0.000 C 
BRANCH  11  12
ATOM     12  C   UNL     1      20.660  69.222  17.107  1.00  0.00     0.000 C 
BRANCH  12  13
ATOM     13  C   UNL     1      21.406  68.780  18.381  1.00  0.00     0.006 C 
BRANCH  13  14
ATOM     14  C   UNL     1      22.867  68.368  18.134  1.00  0.00     0.053 C 
BRANCH  14  15
ATOM     15  C   UNL     1      22.988  66.984  17.573  1.00  0.00     0.041 C 
ATOM     16  O   UNL     1      22.961  65.985  18.339  1.00  0.00    -0.550 OA
ATOM     17  O   UNL     1      23.157  66.797  16.206  1.00  0.00    -0.550 OA
ENDBRANCH  14  15
ENDBRANCH  13  14
ENDBRANCH  12  13
ENDBRANCH  11  12
ENDBRANCH  10  11
ENDBRANCH   9  10
ENDBRANCH   8   9
ENDBRANCH   7   8
ENDBRANCH   6   7
ENDBRANCH   5   6
ENDBRANCH   4   5
ENDBRANCH   3   4
ENDBRANCH   2   3
ENDBRANCH   1   2
BRANCH   1  18
ATOM     18  C   UNL     1      27.937  72.215  12.522  1.00  0.00     0.000 C 
BRANCH  18  19
ATOM     19  C   UNL     1      27.623  72.260  11.012  1.00  0.00     0.000 C 
BRANCH  19  20
ATOM     20  C   UNL     1      28.476  71.291  10.168  1.00  0.00     0.000 C 
BRANCH  20  21
ATOM     21  C   UNL     1      27.826  70.827   8.854  1.00  0.00     0.000 C 
BRANCH  21  22
ATOM     22  C   UNL     1      26.418  71.406   8.652  1.00  0.00     0.000 C 
BRANCH  22  23
ATOM     23  C   UNL     1      25.390  70.286   8.437  1.00  0.00     0.000 C 
BRANCH  23  24
ATOM     24  C   UNL     1      24.840  69.717   9.757  1.00  0.00    -0.000 C 
BRANCH  24  25
ATOM     25  C   UNL     1      23.349  69.336   9.729  1.00  0.00    -0.000 C 
BRANCH  25  26
ATOM     26  C   UNL     1      22.486  70.234  10.634  1.00  0.00    -0.000 C 
BRANCH  26  27
ATOM     27  C   UNL     1      21.748  71.327   9.845  1.00  0.00    -0.000 C 
BRANCH  27  28
ATOM     28  C   UNL     1      22.188  72.746  10.248  1.00  0.00    -0.000 C 
BRANCH  28  29
ATOM     29  C   UNL     1      23.448  73.201   9.484  1.00  0.00    -0.000 C 
BRANCH  29  30
ATOM     30  C   UNL     1      24.232  74.315  10.200  1.00  0.00    -0.000 C 
BRANCH  30  31
ATOM     31  C   UNL     1      25.289  74.975   9.303  1.00  0.00    -0.003 C 
ATOM     32  C   UNL     1      26.404  75.601  10.134  1.00  0.00     0.004 C 
ENDBRANCH  30  31
ENDBRANCH  29  30
ENDBRANCH  28  29
ENDBRANCH  27  28
ENDBRANCH  26  27
ENDBRANCH  25  26
ENDBRANCH  24  25
ENDBRANCH  23  24
ENDBRANCH  22  23
ENDBRANCH  21  22
ENDBRANCH  20  21
ENDBRANCH  19  20
ENDBRANCH  18  19
ENDBRANCH   1  18
TORSDOF 28
ENDMDL
MODEL 8
REMARK VINA RESULT:    -3.081      3.102      9.120
REMARK INTER + INTRA:         -12.673
REMARK INTER:                  -7.054
REMARK INTRA:                  -5.619
REMARK UNBOUND:                -4.548
REMARK SMILES CCCCCCCCCCCCCCCCCCCCCCCCCCCCCC(=O)[O-]
REMARK SMILES IDX 16 1 17 2 18 3 19 4 20 5 21 6 22 7 23 8 24 9 25 10 26 11
REMARK SMILES IDX 27 12 28 13 29 14 30 15 31 16 32 17 15 18 14 19 13 20 12 21
REMARK SMILES IDX 11 22 10 23 9 24 8 25 7 26 6 27 5 28 4 29 3 30 2 31 1 32
REMARK H PARENT
REMARK Flexibility Score: inf
ROOT
ATOM      1  C   UNL     1      28.063  72.345  12.317  1.00  0.00     0.000 C 
ENDROOT
BRANCH   1   2
ATOM      2  C   UNL     1      26.780  71.495  12.364  1.00  0.00     0.000 C 
BRANCH   2   3
ATOM      3  C   UNL     1      25.604  72.120  13.138  1.00  0.00     0.000 C 
BRANCH   3   4
ATOM      4  C   UNL     1      24.232  71.752  12.546  1.00  0.00     0.000 C 
BRANCH   4   5
ATOM      5  C   UNL     1      23.103  71.809  13.588  1.00  0.00     0.000 C 
BRANCH   5   6
ATOM      6  C   UNL     1      23.495  72.589  14.854  1.00  0.00     0.000 C 
BRANCH   6   7
ATOM      7  C   UNL     1      22.751  73.931  14.981  1.00  0.00     0.000 C 
BRANCH   7   8
ATOM      8  C   UNL     1      21.336  73.958  14.370  1.00  0.00     0.000 C 
BRANCH   8   9
ATOM      9  C   UNL     1      20.242  73.295  15.227  1.00  0.00     0.000 C 
BRANCH   9  10
ATOM     10  C   UNL     1      19.732  71.941  14.697  1.00  0.00     0.000 C 
BRANCH  10  11
ATOM     11  C   UNL     1      20.071  70.743  15.612  1.00  0.00     0.000 C 
BRANCH  11  12
ATOM     12  C   UNL     1      20.694  71.177  16.950  1.00  0.00     0.000 C 
BRANCH  12  13
ATOM     13  C   UNL     1      21.923  70.335  17.345  1.00  0.00     0.006 C 
BRANCH  13  14
ATOM     14  C   UNL     1      21.887  68.894  16.806  1.00  0.00     0.053 C 
BRANCH  14  15
ATOM     15  C   UNL     1      22.621  67.931  17.688  1.00  0.00     0.041 C 
ATOM     16  O   UNL     1      23.467  67.139  17.195  1.00  0.00    -0.550 OA
ATOM     17  O   UNL     1      22.352  67.888  19.050  1.00  0.00    -0.550 OA
ENDBRANCH  14  15
ENDBRANCH  13  14
ENDBRANCH  12  13
ENDBRANCH  11  12
ENDBRANCH  10  11
ENDBRANCH   9  10
ENDBRANCH   8   9
ENDBRANCH   7   8
ENDBRANCH   6   7
ENDBRANCH   5   6
ENDBRANCH   4   5
ENDBRANCH   3   4
ENDBRANCH   2   3
ENDBRANCH   1   2
BRANCH   1  18
ATOM     18  C   UNL     1      28.974  71.999  11.124  1.00  0.00     0.000 C 
BRANCH  18  19
ATOM     19  C   UNL     1      28.385  70.888  10.229  1.00  0.00     0.000 C 
BRANCH  19  20
ATOM     20  C   UNL     1      28.548  71.152   8.719  1.00  0.00     0.000 C 
BRANCH  20  21
ATOM     21  C   UNL     1      27.234  71.205   7.921  1.00  0.00     0.000 C 
BRANCH  21  22
ATOM     22  C   UNL     1      26.016  70.790   8.758  1.00  0.00     0.000 C 
BRANCH  22  23
ATOM     23  C   UNL     1      25.080  71.984   8.996  1.00  0.00     0.000 C 
BRANCH  23  24
ATOM     24  C   UNL     1      25.723  73.332   8.623  1.00  0.00    -0.000 C 
BRANCH  24  25
ATOM     25  C   UNL     1      26.077  74.235   9.818  1.00  0.00    -0.000 C 
BRANCH  25  26
ATOM     26  C   UNL     1      24.841  74.899  10.452  1.00  0.00    -0.000 C 
BRANCH  26  27
ATOM     27  C   UNL     1      23.861  75.439   9.399  1.00  0.00    -0.000 C 
BRANCH  27  28
ATOM     28  C   UNL     1      22.411  75.489   9.913  1.00  0.00    -0.000 C 
BRANCH  28  29
ATOM     29  C   UNL     1      22.108  74.351  10.909  1.00  0.00    -0.000 C 
BRANCH  29  30
ATOM     30  C   UNL     1      21.718  73.027  10.230  1.00  0.00    -0.000 C 
BRANCH  30  31
ATOM     31  C   UNL     1      20.480  72.373  10.859  1.00  0.00    -0.003 C 
ATOM     32  C   UNL     1      19.440  73.420  11.244  1.00  0.00     0.004 C 
ENDBRANCH  30  31
ENDBRANCH  29  30
ENDBRANCH  28  29
ENDBRANCH  27  28
ENDBRANCH  26  27
ENDBRANCH  25  26
ENDBRANCH  24  25
ENDBRANCH  23  24
ENDBRANCH  22  23
ENDBRANCH  21  22
ENDBRANCH  20  21
ENDBRANCH  19  20
ENDBRANCH  18  19
ENDBRANCH   1  18
TORSDOF 28
ENDMDL
MODEL 9
REMARK VINA RESULT:    -3.079      1.841      4.233
REMARK INTER + INTRA:         -12.667
REMARK INTER:                  -6.804
REMARK INTRA:                  -5.863
REMARK UNBOUND:                -4.548
REMARK SMILES CCCCCCCCCCCCCCCCCCCCCCCCCCCCCC(=O)[O-]
REMARK SMILES IDX 16 1 17 2 18 3 19 4 20 5 21 6 22 7 23 8 24 9 25 10 26 11
REMARK SMILES IDX 27 12 28 13 29 14 30 15 31 16 32 17 15 18 14 19 13 20 12 21
REMARK SMILES IDX 11 22 10 23 9 24 8 25 7 26 6 27 5 28 4 29 3 30 2 31 1 32
REMARK H PARENT
REMARK Flexibility Score: inf
ROOT
ATOM      1  C   UNL     1      22.306  74.177  13.609  1.00  0.00     0.000 C 
ENDROOT
BRANCH   1   2
ATOM      2  C   UNL     1      20.772  74.306  13.660  1.00  0.00     0.000 C 
BRANCH   2   3
ATOM      3  C   UNL     1      20.140  74.109  15.051  1.00  0.00     0.000 C 
BRANCH   3   4
ATOM      4  C   UNL     1      18.961  73.122  15.040  1.00  0.00     0.000 C 
BRANCH   4   5
ATOM      5  C   UNL     1      18.844  72.353  13.713  1.00  0.00     0.000 C 
BRANCH   5   6
ATOM      6  C   UNL     1      18.160  70.986  13.871  1.00  0.00     0.000 C 
BRANCH   6   7
ATOM      7  C   UNL     1      18.530  70.001  12.748  1.00  0.00     0.000 C 
BRANCH   7   8
ATOM      8  C   UNL     1      19.056  70.649  11.451  1.00  0.00     0.000 C 
BRANCH   8   9
ATOM      9  C   UNL     1      20.383  70.073  10.925  1.00  0.00     0.000 C 
BRANCH   9  10
ATOM     10  C   UNL     1      21.633  70.911  11.254  1.00  0.00     0.000 C 
BRANCH  10  11
ATOM     11  C   UNL     1      21.733  72.227  10.450  1.00  0.00     0.000 C 
BRANCH  11  12
ATOM     12  C   UNL     1      23.183  72.717  10.291  1.00  0.00     0.000 C 
BRANCH  12  13
ATOM     13  C   UNL     1      24.217  71.742  10.889  1.00  0.00     0.006 C 
BRANCH  13  14
ATOM     14  C   UNL     1      25.251  72.419  11.804  1.00  0.00     0.053 C 
BRANCH  14  15
ATOM     15  C   UNL     1      26.431  71.540  12.089  1.00  0.00     0.041 C 
ATOM     16  O   UNL     1      27.099  71.699  13.145  1.00  0.00    -0.550 OA
ATOM     17  O   UNL     1      26.810  70.562  11.177  1.00  0.00    -0.550 OA
ENDBRANCH  14  15
ENDBRANCH  13  14
ENDBRANCH  12  13
ENDBRANCH  11  12
ENDBRANCH  10  11
ENDBRANCH   9  10
ENDBRANCH   8   9
ENDBRANCH   7   8
ENDBRANCH   6   7
ENDBRANCH   5   6
ENDBRANCH   4   5
ENDBRANCH   3   4
ENDBRANCH   2   3
ENDBRANCH   1   2
BRANCH   1  18
ATOM     18  C   UNL     1      22.956  74.159  15.005  1.00  0.00     0.000 C 
BRANCH  18  19
ATOM     19  C   UNL     1      23.484  72.763  15.398  1.00  0.00     0.000 C 
BRANCH  19  20
ATOM     20  C   UNL     1      23.088  71.646  14.413  1.00  0.00     0.000 C 
BRANCH  20  21
ATOM     21  C   UNL     1      21.934  70.744  14.880  1.00  0.00     0.000 C 
BRANCH  21  22
ATOM     22  C   UNL     1      21.631  70.897  16.378  1.00  0.00     0.000 C 
BRANCH  22  23
ATOM     23  C   UNL     1      20.407  70.062  16.779  1.00  0.00     0.000 C 
BRANCH  23  24
ATOM     24  C   UNL     1      20.235  68.799  15.916  1.00  0.00    -0.000 C 
BRANCH  24  25
ATOM     25  C   UNL     1      19.320  67.719  16.520  1.00  0.00    -0.000 C 
BRANCH  25  26
ATOM     26  C   UNL     1      18.867  68.053  17.953  1.00  0.00    -0.000 C 
BRANCH  26  27
ATOM     27  C   UNL     1      18.920  66.832  18.885  1.00  0.00    -0.000 C 
BRANCH  27  28
ATOM     28  C   UNL     1      19.794  65.697  18.323  1.00  0.00    -0.000 C 
BRANCH  28  29
ATOM     29  C   UNL     1      21.197  65.672  18.966  1.00  0.00    -0.000 C 
BRANCH  29  30
ATOM     30  C   UNL     1      22.343  65.736  17.942  1.00  0.00    -0.000 C 
BRANCH  30  31
ATOM     31  C   UNL     1      22.912  67.152  17.769  1.00  0.00    -0.003 C 
ATOM     32  C   UNL     1      22.496  68.058  18.924  1.00  0.00     0.004 C 
ENDBRANCH  30  31
ENDBRANCH  29  30
ENDBRANCH  28  29
ENDBRANCH  27  28
ENDBRANCH  26  27
ENDBRANCH  25  26
ENDBRANCH  24  25
ENDBRANCH  23  24
ENDBRANCH  22  23
ENDBRANCH  21  22
ENDBRANCH  20  21
ENDBRANCH  19  20
ENDBRANCH  18  19
ENDBRANCH   1  18
TORSDOF 28
ENDMDL
