MODEL 1
REMARK VINA RESULT:    -2.980      0.000      0.000
REMARK INTER + INTRA:          -8.530
REMARK INTER:                  -7.508
REMARK INTRA:                  -1.022
REMARK UNBOUND:                -1.022
REMARK SMILES CCCCCCCCCCCCCCCCCCCCCCCCCCCC(=O)[O-]
REMARK SMILES IDX 15 1 16 2 17 3 18 4 19 5 20 6 21 7 22 8 23 9 24 10 25 11
REMARK SMILES IDX 26 12 27 13 28 14 29 15 30 16 14 17 13 18 12 19 11 20 10 21
REMARK SMILES IDX 9 22 8 23 7 24 6 25 5 26 4 27 3 28 2 29 1 30
REMARK H PARENT
REMARK Flexibility Score: inf
ROOT
ATOM      1  C   UNL     1       0.961   9.020   9.161  1.00  0.00     0.000 C 
ENDROOT
BRANCH   1   2
ATOM      2  C   UNL     1       1.173   7.499   9.267  1.00  0.00     0.000 C 
BRANCH   2   3
ATOM      3  C   UNL     1       0.104   6.801  10.124  1.00  0.00     0.000 C 
BRANCH   3   4
ATOM      4  C   UNL     1      -1.316   7.326   9.850  1.00  0.00     0.000 C 
BRANCH   4   5
ATOM      5  C   UNL     1      -2.006   6.511   8.746  1.00  0.00     0.000 C 
BRANCH   5   6
ATOM      6  C   UNL     1      -2.514   5.149   9.254  1.00  0.00     0.000 C 
BRANCH   6   7
ATOM      7  C   UNL     1      -1.705   3.971   8.685  1.00  0.00     0.000 C 
BRANCH   7   8
ATOM      8  C   UNL     1      -1.004   3.149   9.789  1.00  0.00     0.000 C 
BRANCH   8   9
ATOM      9  C   UNL     1       0.445   3.589  10.058  1.00  0.00     0.000 C 
BRANCH   9  10
ATOM     10  C   UNL     1       1.474   2.505   9.695  1.00  0.00     0.000 C 
BRANCH  10  11
ATOM     11  C   UNL     1       2.907   2.899  10.085  1.00  0.00     0.000 C 
BRANCH  11  12
ATOM     12  C   UNL     1       3.867   2.893   8.882  1.00  0.00     0.006 C 
BRANCH  12  13
ATOM     13  C   UNL     1       4.361   1.480   8.543  1.00  0.00     0.053 C 
BRANCH  13  14
ATOM     14  C   UNL     1       4.521   1.283   7.066  1.00  0.00     0.041 C 
ATOM     15  O   UNL     1       3.512   1.299   6.310  1.00  0.00    -0.550 OA
ATOM     16  O   UNL     1       5.781   1.056   6.526  1.00  0.00    -0.550 OA
ENDBRANCH  13  14
ENDBRANCH  12  13
ENDBRANCH  11  12
ENDBRANCH  10  11
ENDBRANCH   9  10
ENDBRANCH   8   9
ENDBRANCH   7   8
ENDBRANCH   6   7
ENDBRANCH   5   6
ENDBRANCH   4   5
ENDBRANCH   3   4
ENDBRANCH   2   3
ENDBRANCH   1   2
BRANCH   1  17
ATOM     17  C   UNL     1       1.961   9.693   8.206  1.00  0.00     0.000 C 
BRANCH  17  18
ATOM     18  C   UNL     1       2.064  11.225   8.334  1.00  0.00     0.000 C 
BRANCH  18  19
ATOM     19  C   UNL     1       2.317  11.720   9.773  1.00  0.00     0.000 C 
BRANCH  19  20
ATOM     20  C   UNL     1       3.755  12.232   9.988  1.00  0.00     0.000 C 
BRANCH  20  21
ATOM     21  C   UNL     1       4.370  12.869   8.724  1.00  0.00     0.000 C 
BRANCH  21  22
ATOM     22  C   UNL     1       5.768  13.488   8.929  1.00  0.00    -0.000 C 
BRANCH  22  23
ATOM     23  C   UNL     1       6.657  12.677   9.888  1.00  0.00    -0.000 C 
BRANCH  23  24
ATOM     24  C   UNL     1       6.480  11.154   9.734  1.00  0.00    -0.000 C 
BRANCH  24  25
ATOM     25  C   UNL     1       7.788  10.336   9.720  1.00  0.00    -0.000 C 
BRANCH  25  26
ATOM     26  C   UNL     1       7.827   9.275   8.606  1.00  0.00    -0.000 C 
BRANCH  26  27
ATOM     27  C   UNL     1       9.269   8.878   8.228  1.00  0.00    -0.000 C 
BRANCH  27  28
ATOM     28  C   UNL     1      10.177   8.583   9.439  1.00  0.00    -0.000 C 
BRANCH  28  29
ATOM     29  C   UNL     1      11.133   7.392   9.236  1.00  0.00    -0.003 C 
ATOM     30  C   UNL     1      10.483   6.231   8.484  1.00  0.00     0.004 C 
ENDBRANCH  28  29
ENDBRANCH  27  28
ENDBRANCH  26  27
ENDBRANCH  25  26
ENDBRANCH  24  25
ENDBRANCH  23  24
ENDBRANCH  22  23
ENDBRANCH  21  22
ENDBRANCH  20  21
ENDBRANCH  19  20
ENDBRANCH  18  19
ENDBRANCH  17  18
ENDBRANCH   1  17
TORSDOF 26
ENDMDL
MODEL 2
REMARK VINA RESULT:    -2.646      2.279      6.495
REMARK INTER + INTRA:          -7.689
REMARK INTER:                  -6.355
REMARK INTRA:                  -1.334
REMARK UNBOUND:                -1.022
REMARK SMILES CCCCCCCCCCCCCCCCCCCCCCCCCCCC(=O)[O-]
REMARK SMILES IDX 15 1 16 2 17 3 18 4 19 5 20 6 21 7 22 8 23 9 24 10 25 11
REMARK SMILES IDX 26 12 27 13 28 14 29 15 30 16 14 17 13 18 12 19 11 20 10 21
REMARK SMILES IDX 9 22 8 23 7 24 6 25 5 26 4 27 3 28 2 29 1 30
REMARK H PARENT
REMARK Flexibility Score: inf
ROOT
ATOM      1  C   UNL     1       4.931  12.462   7.209  1.00  0.00     0.000 C 
ENDROOT
BRANCH   1   2
ATOM      2  C   UNL     1       3.798  13.499   7.103  1.00  0.00     0.000 C 
BRANCH   2   3
ATOM      3  C   UNL     1       3.199  13.878   8.468  1.00  0.00     0.000 C 
BRANCH   3   4
ATOM      4  C   UNL     1       1.671  14.045   8.422  1.00  0.00     0.000 C 
BRANCH   4   5
ATOM      5  C   UNL     1       0.961  12.835   9.046  1.00  0.00     0.000 C 
BRANCH   5   6
ATOM      6  C   UNL     1       1.802  11.550   8.952  1.00  0.00     0.000 C 
BRANCH   6   7
ATOM      7  C   UNL     1       1.355  10.479   9.963  1.00  0.00     0.000 C 
BRANCH   7   8
ATOM      8  C   UNL     1       2.366   9.317  10.075  1.00  0.00     0.000 C 
BRANCH   8   9
ATOM      9  C   UNL     1       1.705   7.928  10.111  1.00  0.00     0.000 C 
BRANCH   9  10
ATOM     10  C   UNL     1       0.230   7.958   9.677  1.00  0.00     0.000 C 
BRANCH  10  11
ATOM     11  C   UNL     1      -0.540   6.703  10.117  1.00  0.00     0.000 C 
BRANCH  11  12
ATOM     12  C   UNL     1      -1.962   6.651   9.534  1.00  0.00     0.006 C 
BRANCH  12  13
ATOM     13  C   UNL     1      -2.233   5.340   8.783  1.00  0.00     0.053 C 
BRANCH  13  14
ATOM     14  C   UNL     1      -1.316   4.241   9.227  1.00  0.00     0.041 C 
ATOM     15  O   UNL     1      -1.696   3.410  10.096  1.00  0.00    -0.550 OA
ATOM     16  O   UNL     1      -0.034   4.149   8.701  1.00  0.00    -0.550 OA
ENDBRANCH  13  14
ENDBRANCH  12  13
ENDBRANCH  11  12
ENDBRANCH  10  11
ENDBRANCH   9  10
ENDBRANCH   8   9
ENDBRANCH   7   8
ENDBRANCH   6   7
ENDBRANCH   5   6
ENDBRANCH   4   5
ENDBRANCH   3   4
ENDBRANCH   2   3
ENDBRANCH   1   2
BRANCH   1  17
ATOM     17  C   UNL     1       6.185  13.024   7.897  1.00  0.00     0.000 C 
BRANCH  17  18
ATOM     18  C   UNL     1       7.038  11.989   8.656  1.00  0.00     0.000 C 
BRANCH  18  19
ATOM     19  C   UNL     1       6.642  10.524   8.380  1.00  0.00     0.000 C 
BRANCH  19  20
ATOM     20  C   UNL     1       7.829   9.660   7.909  1.00  0.00     0.000 C 
BRANCH  20  21
ATOM     21  C   UNL     1       8.989   9.610   8.925  1.00  0.00     0.000 C 
BRANCH  21  22
ATOM     22  C   UNL     1       9.049   8.324   9.774  1.00  0.00    -0.000 C 
BRANCH  22  23
ATOM     23  C   UNL     1       8.102   7.220   9.271  1.00  0.00    -0.000 C 
BRANCH  23  24
ATOM     24  C   UNL     1       8.811   5.871   9.046  1.00  0.00    -0.000 C 
BRANCH  24  25
ATOM     25  C   UNL     1       8.540   4.796  10.118  1.00  0.00    -0.000 C 
BRANCH  25  26
ATOM     26  C   UNL     1       7.088   4.285  10.111  1.00  0.00    -0.000 C 
BRANCH  26  27
ATOM     27  C   UNL     1       6.704   3.636   8.765  1.00  0.00    -0.000 C 
BRANCH  27  28
ATOM     28  C   UNL     1       5.948   2.299   8.906  1.00  0.00    -0.000 C 
BRANCH  28  29
ATOM     29  C   UNL     1       4.672   2.201   8.049  1.00  0.00    -0.003 C 
ATOM     30  C   UNL     1       3.418   1.935   8.881  1.00  0.00     0.004 C 
ENDBRANCH  28  29
ENDBRANCH  27  28
ENDBRANCH  26  27
ENDBRANCH  25  26
ENDBRANCH  24  25
ENDBRANCH  23  24
ENDBRANCH  22  23
ENDBRANCH  21  22
ENDBRANCH  20  21
ENDBRANCH  19  20
ENDBRANCH  18  19
ENDBRANCH  17  18
ENDBRANCH   1  17
TORSDOF 26
ENDMDL
MODEL 3
REMARK VINA RESULT:    -2.323      5.011      8.718
REMARK INTER + INTRA:          -6.877
REMARK INTER:                  -5.482
REMARK INTRA:                  -1.395
REMARK UNBOUND:                -1.022
REMARK SMILES CCCCCCCCCCCCCCCCCCCCCCCCCCCC(=O)[O-]
REMARK SMILES IDX 15 1 16 2 17 3 18 4 19 5 20 6 21 7 22 8 23 9 24 10 25 11
REMARK SMILES IDX 26 12 27 13 28 14 29 15 30 16 14 17 13 18 12 19 11 20 10 21
REMARK SMILES IDX 9 22 8 23 7 24 6 25 5 26 4 27 3 28 2 29 1 30
REMARK H PARENT
REMARK Flexibility Score: inf
ROOT
ATOM      1  C   UNL     1       5.072   2.149   7.878  1.00  0.00     0.000 C 
ENDROOT
BRANCH   1   2
ATOM      2  C   UNL     1       5.645   1.009   8.740  1.00  0.00     0.000 C 
BRANCH   2   3
ATOM      3  C   UNL     1       4.558   0.092   9.325  1.00  0.00     0.000 C 
BRANCH   3   4
ATOM      4  C   UNL     1       5.138  -1.166   9.994  1.00  0.00     0.000 C 
BRANCH   4   5
ATOM      5  C   UNL     1       5.278  -2.316   8.987  1.00  0.00     0.000 C 
BRANCH   5   6
ATOM      6  C   UNL     1       4.884  -3.676   9.592  1.00  0.00     0.000 C 
BRANCH   6   7
ATOM      7  C   UNL     1       6.099  -4.457  10.122  1.00  0.00     0.000 C 
BRANCH   7   8
ATOM      8  C   UNL     1       7.440  -3.836   9.672  1.00  0.00     0.000 C 
BRANCH   8   9
ATOM      9  C   UNL     1       8.667  -4.686  10.045  1.00  0.00     0.000 C 
BRANCH   9  10
ATOM     10  C   UNL     1       9.911  -4.335   9.211  1.00  0.00     0.000 C 
BRANCH  10  11
ATOM     11  C   UNL     1      10.742  -5.574   8.843  1.00  0.00     0.000 C 
BRANCH  11  12
ATOM     12  C   UNL     1      10.864  -5.770   7.322  1.00  0.00     0.006 C 
BRANCH  12  13
ATOM     13  C   UNL     1       9.504  -6.034   6.661  1.00  0.00     0.053 C 
BRANCH  13  14
ATOM     14  C   UNL     1       9.377  -5.331   5.344  1.00  0.00     0.041 C 
ATOM     15  O   UNL     1      10.369  -4.736   4.843  1.00  0.00    -0.550 OA
ATOM     16  O   UNL     1       8.157  -5.313   4.680  1.00  0.00    -0.550 OA
ENDBRANCH  13  14
ENDBRANCH  12  13
ENDBRANCH  11  12
ENDBRANCH  10  11
ENDBRANCH   9  10
ENDBRANCH   8   9
ENDBRANCH   7   8
ENDBRANCH   6   7
ENDBRANCH   5   6
ENDBRANCH   4   5
ENDBRANCH   3   4
ENDBRANCH   2   3
ENDBRANCH   1   2
BRANCH   1  17
ATOM     17  C   UNL     1       4.388   3.240   8.718  1.00  0.00     0.000 C 
BRANCH  17  18
ATOM     18  C   UNL     1       5.027   3.508  10.094  1.00  0.00     0.000 C 
BRANCH  18  19
ATOM     19  C   UNL     1       6.093   4.624  10.086  1.00  0.00     0.000 C 
BRANCH  19  20
ATOM     20  C   UNL     1       7.404   4.196   9.398  1.00  0.00     0.000 C 
BRANCH  20  21
ATOM     21  C   UNL     1       8.144   5.365   8.715  1.00  0.00     0.000 C 
BRANCH  21  22
ATOM     22  C   UNL     1       8.837   6.345   9.683  1.00  0.00    -0.000 C 
BRANCH  22  23
ATOM     23  C   UNL     1       8.932   7.778   9.131  1.00  0.00    -0.000 C 
BRANCH  23  24
ATOM     24  C   UNL     1       8.417   8.843  10.119  1.00  0.00    -0.000 C 
BRANCH  24  25
ATOM     25  C   UNL     1       7.041   9.449   9.777  1.00  0.00    -0.000 C 
BRANCH  25  26
ATOM     26  C   UNL     1       7.085  10.419   8.583  1.00  0.00    -0.000 C 
BRANCH  26  27
ATOM     27  C   UNL     1       6.601  11.834   8.962  1.00  0.00    -0.000 C 
BRANCH  27  28
ATOM     28  C   UNL     1       5.083  12.045   8.790  1.00  0.00    -0.000 C 
BRANCH  28  29
ATOM     29  C   UNL     1       4.555  11.721   7.380  1.00  0.00    -0.003 C 
ATOM     30  C   UNL     1       3.886  12.919   6.707  1.00  0.00     0.004 C 
ENDBRANCH  28  29
ENDBRANCH  27  28
ENDBRANCH  26  27
ENDBRANCH  25  26
ENDBRANCH  24  25
ENDBRANCH  23  24
ENDBRANCH  22  23
ENDBRANCH  21  22
ENDBRANCH  20  21
ENDBRANCH  19  20
ENDBRANCH  18  19
ENDBRANCH  17  18
ENDBRANCH   1  17
TORSDOF 26
ENDMDL
MODEL 4
REMARK VINA RESULT:    -2.270      5.408     12.653
REMARK INTER + INTRA:          -6.743
REMARK INTER:                  -5.929
REMARK INTRA:                  -0.814
REMARK UNBOUND:                -1.022
REMARK SMILES CCCCCCCCCCCCCCCCCCCCCCCCCCCC(=O)[O-]
REMARK SMILES IDX 15 1 16 2 17 3 18 4 19 5 20 6 21 7 22 8 23 9 24 10 25 11
REMARK SMILES IDX 26 12 27 13 28 14 29 15 30 16 14 17 13 18 12 19 11 20 10 21
REMARK SMILES IDX 9 22 8 23 7 24 6 25 5 26 4 27 3 28 2 29 1 30
REMARK H PARENT
REMARK Flexibility Score: inf
ROOT
ATOM      1  C   UNL     1       4.308   2.743   8.133  1.00  0.00     0.000 C 
ENDROOT
BRANCH   1   2
ATOM      2  C   UNL     1       5.058   3.405   9.303  1.00  0.00     0.000 C 
BRANCH   2   3
ATOM      3  C   UNL     1       6.397   4.034   8.882  1.00  0.00     0.000 C 
BRANCH   3   4
ATOM      4  C   UNL     1       7.442   4.022  10.011  1.00  0.00     0.000 C 
BRANCH   4   5
ATOM      5  C   UNL     1       8.731   4.738   9.582  1.00  0.00     0.000 C 
BRANCH   5   6
ATOM      6  C   UNL     1       8.451   6.094   8.909  1.00  0.00     0.000 C 
BRANCH   6   7
ATOM      7  C   UNL     1       8.270   7.230   9.930  1.00  0.00     0.000 C 
BRANCH   7   8
ATOM      8  C   UNL     1       8.662   8.608   9.353  1.00  0.00     0.000 C 
BRANCH   8   9
ATOM      9  C   UNL     1       7.615   9.705   9.612  1.00  0.00     0.000 C 
BRANCH   9  10
ATOM     10  C   UNL     1       7.275  10.515   8.350  1.00  0.00     0.000 C 
BRANCH  10  11
ATOM     11  C   UNL     1       6.534  11.822   8.671  1.00  0.00     0.000 C 
BRANCH  11  12
ATOM     12  C   UNL     1       5.033  11.600   8.925  1.00  0.00     0.006 C 
BRANCH  12  13
ATOM     13  C   UNL     1       4.240  11.454   7.618  1.00  0.00     0.053 C 
BRANCH  13  14
ATOM     14  C   UNL     1       3.506  12.712   7.265  1.00  0.00     0.041 C 
ATOM     15  O   UNL     1       2.752  13.265   8.111  1.00  0.00    -0.550 OA
ATOM     16  O   UNL     1       3.635  13.260   5.995  1.00  0.00    -0.550 OA
ENDBRANCH  13  14
ENDBRANCH  12  13
ENDBRANCH  11  12
ENDBRANCH  10  11
ENDBRANCH   9  10
ENDBRANCH   8   9
ENDBRANCH   7   8
ENDBRANCH   6   7
ENDBRANCH   5   6
ENDBRANCH   4   5
ENDBRANCH   3   4
ENDBRANCH   2   3
ENDBRANCH   1   2
BRANCH   1  17
ATOM     17  C   UNL     1       4.079   1.238   8.351  1.00  0.00     0.000 C 
BRANCH  17  18
ATOM     18  C   UNL     1       4.833   0.624   9.546  1.00  0.00     0.000 C 
BRANCH  18  19
ATOM     19  C   UNL     1       4.496  -0.858   9.808  1.00  0.00     0.000 C 
BRANCH  19  20
ATOM     20  C   UNL     1       5.727  -1.781   9.705  1.00  0.00     0.000 C 
BRANCH  20  21
ATOM     21  C   UNL     1       5.412  -3.149   9.065  1.00  0.00     0.000 C 
BRANCH  21  22
ATOM     22  C   UNL     1       5.168  -4.292  10.072  1.00  0.00    -0.000 C 
BRANCH  22  23
ATOM     23  C   UNL     1       5.333  -5.691   9.453  1.00  0.00    -0.000 C 
BRANCH  23  24
ATOM     24  C   UNL     1       6.620  -5.835   8.619  1.00  0.00    -0.000 C 
BRANCH  24  25
ATOM     25  C   UNL     1       6.574  -5.194   7.217  1.00  0.00    -0.000 C 
BRANCH  25  26
ATOM     26  C   UNL     1       5.957  -6.114   6.149  1.00  0.00    -0.000 C 
BRANCH  26  27
ATOM     27  C   UNL     1       6.520  -5.834   4.740  1.00  0.00    -0.000 C 
BRANCH  27  28
ATOM     28  C   UNL     1       5.443  -5.500   3.689  1.00  0.00    -0.000 C 
BRANCH  28  29
ATOM     29  C   UNL     1       4.036  -6.024   4.036  1.00  0.00    -0.003 C 
ATOM     30  C   UNL     1       2.933  -5.015   3.722  1.00  0.00     0.004 C 
ENDBRANCH  28  29
ENDBRANCH  27  28
ENDBRANCH  26  27
ENDBRANCH  25  26
ENDBRANCH  24  25
ENDBRANCH  23  24
ENDBRANCH  22  23
ENDBRANCH  21  22
ENDBRANCH  20  21
ENDBRANCH  19  20
ENDBRANCH  18  19
ENDBRANCH  17  18
ENDBRANCH   1  17
TORSDOF 26
ENDMDL
MODEL 5
REMARK VINA RESULT:    -2.261      3.751      7.585
REMARK INTER + INTRA:          -6.720
REMARK INTER:                  -5.380
REMARK INTRA:                  -1.340
REMARK UNBOUND:                -1.022
REMARK SMILES CCCCCCCCCCCCCCCCCCCCCCCCCCCC(=O)[O-]
REMARK SMILES IDX 15 1 16 2 17 3 18 4 19 5 20 6 21 7 22 8 23 9 24 10 25 11
REMARK SMILES IDX 26 12 27 13 28 14 29 15 30 16 14 17 13 18 12 19 11 20 10 21
REMARK SMILES IDX 9 22 8 23 7 24 6 25 5 26 4 27 3 28 2 29 1 30
REMARK H PARENT
REMARK Flexibility Score: inf
ROOT
ATOM      1  C   UNL     1       8.272   5.600   8.722  1.00  0.00     0.000 C 
ENDROOT
BRANCH   1   2
ATOM      2  C   UNL     1       8.651   4.353   9.542  1.00  0.00     0.000 C 
BRANCH   2   3
ATOM      3  C   UNL     1       7.429   3.622  10.124  1.00  0.00     0.000 C 
BRANCH   3   4
ATOM      4  C   UNL     1       7.324   2.164   9.645  1.00  0.00     0.000 C 
BRANCH   4   5
ATOM      5  C   UNL     1       5.904   1.614   9.846  1.00  0.00     0.000 C 
BRANCH   5   6
ATOM      6  C   UNL     1       5.590   0.443   8.898  1.00  0.00     0.000 C 
BRANCH   6   7
ATOM      7  C   UNL     1       4.650  -0.594   9.537  1.00  0.00     0.000 C 
BRANCH   7   8
ATOM      8  C   UNL     1       5.415  -1.800  10.125  1.00  0.00     0.000 C 
BRANCH   8   9
ATOM      9  C   UNL     1       4.798  -3.160   9.755  1.00  0.00     0.000 C 
BRANCH   9  10
ATOM     10  C   UNL     1       5.857  -4.243   9.491  1.00  0.00     0.000 C 
BRANCH  10  11
ATOM     11  C   UNL     1       6.284  -4.301   8.016  1.00  0.00     0.000 C 
BRANCH  11  12
ATOM     12  C   UNL     1       5.123  -4.683   7.082  1.00  0.00     0.006 C 
BRANCH  12  13
ATOM     13  C   UNL     1       5.618  -5.159   5.709  1.00  0.00     0.053 C 
BRANCH  13  14
ATOM     14  C   UNL     1       4.483  -5.416   4.764  1.00  0.00     0.041 C 
ATOM     15  O   UNL     1       4.711  -5.838   3.599  1.00  0.00    -0.550 OA
ATOM     16  O   UNL     1       3.176  -5.165   5.161  1.00  0.00    -0.550 OA
ENDBRANCH  13  14
ENDBRANCH  12  13
ENDBRANCH  11  12
ENDBRANCH  10  11
ENDBRANCH   9  10
ENDBRANCH   8   9
ENDBRANCH   7   8
ENDBRANCH   6   7
ENDBRANCH   5   6
ENDBRANCH   4   5
ENDBRANCH   3   4
ENDBRANCH   2   3
ENDBRANCH   1   2
BRANCH   1  17
ATOM     17  C   UNL     1       9.361   6.685   8.758  1.00  0.00     0.000 C 
BRANCH  17  18
ATOM     18  C   UNL     1       9.299   7.717   7.615  1.00  0.00     0.000 C 
BRANCH  18  19
ATOM     19  C   UNL     1       8.456   8.967   7.942  1.00  0.00     0.000 C 
BRANCH  19  20
ATOM     20  C   UNL     1       8.737   9.529   9.350  1.00  0.00     0.000 C 
BRANCH  20  21
ATOM     21  C   UNL     1       7.487  10.128  10.028  1.00  0.00     0.000 C 
BRANCH  21  22
ATOM     22  C   UNL     1       7.467  11.669  10.100  1.00  0.00    -0.000 C 
BRANCH  22  23
ATOM     23  C   UNL     1       6.099  12.276   9.744  1.00  0.00    -0.000 C 
BRANCH  23  24
ATOM     24  C   UNL     1       6.184  13.365   8.658  1.00  0.00    -0.000 C 
BRANCH  24  25
ATOM     25  C   UNL     1       4.846  14.043   8.298  1.00  0.00    -0.000 C 
BRANCH  25  26
ATOM     26  C   UNL     1       4.094  13.333   7.158  1.00  0.00    -0.000 C 
BRANCH  26  27
ATOM     27  C   UNL     1       2.639  12.994   7.542  1.00  0.00    -0.000 C 
BRANCH  27  28
ATOM     28  C   UNL     1       2.352  13.077   9.055  1.00  0.00    -0.000 C 
BRANCH  28  29
ATOM     29  C   UNL     1       1.430  11.963   9.586  1.00  0.00    -0.003 C 
ATOM     30  C   UNL     1       1.640  10.629   8.872  1.00  0.00     0.004 C 
ENDBRANCH  28  29
ENDBRANCH  27  28
ENDBRANCH  26  27
ENDBRANCH  25  26
ENDBRANCH  24  25
ENDBRANCH  23  24
ENDBRANCH  22  23
ENDBRANCH  21  22
ENDBRANCH  20  21
ENDBRANCH  19  20
ENDBRANCH  18  19
ENDBRANCH  17  18
ENDBRANCH   1  17
TORSDOF 26
ENDMDL
MODEL 6
REMARK VINA RESULT:    -2.241      4.645      8.379
REMARK INTER + INTRA:          -6.669
REMARK INTER:                  -5.271
REMARK INTRA:                  -1.398
REMARK UNBOUND:                -1.022
REMARK SMILES CCCCCCCCCCCCCCCCCCCCCCCCCCCC(=O)[O-]
REMARK SMILES IDX 15 1 16 2 17 3 18 4 19 5 20 6 21 7 22 8 23 9 24 10 25 11
REMARK SMILES IDX 26 12 27 13 28 14 29 15 30 16 14 17 13 18 12 19 11 20 10 21
REMARK SMILES IDX 9 22 8 23 7 24 6 25 5 26 4 27 3 28 2 29 1 30
REMARK H PARENT
REMARK Flexibility Score: inf
ROOT
ATOM      1  C   UNL     1       5.416   2.733   8.176  1.00  0.00     0.000 C 
ENDROOT
BRANCH   1   2
ATOM      2  C   UNL     1       6.059   1.400   8.598  1.00  0.00     0.000 C 
BRANCH   2   3
ATOM      3  C   UNL     1       5.239   0.645   9.658  1.00  0.00     0.000 C 
BRANCH   3   4
ATOM      4  C   UNL     1       4.488  -0.567   9.079  1.00  0.00     0.000 C 
BRANCH   4   5
ATOM      5  C   UNL     1       4.342  -1.682  10.125  1.00  0.00     0.000 C 
BRANCH   5   6
ATOM      6  C   UNL     1       5.467  -2.728  10.026  1.00  0.00     0.000 C 
BRANCH   6   7
ATOM      7  C   UNL     1       4.936  -4.170  10.101  1.00  0.00     0.000 C 
BRANCH   7   8
ATOM      8  C   UNL     1       5.819  -5.164   9.316  1.00  0.00     0.000 C 
BRANCH   8   9
ATOM      9  C   UNL     1       7.254  -4.662   9.083  1.00  0.00     0.000 C 
BRANCH   9  10
ATOM     10  C   UNL     1       8.259  -5.806   8.871  1.00  0.00     0.000 C 
BRANCH  10  11
ATOM     11  C   UNL     1       9.590  -5.565   9.600  1.00  0.00     0.000 C 
BRANCH  11  12
ATOM     12  C   UNL     1       9.819  -4.080   9.930  1.00  0.00     0.006 C 
BRANCH  12  13
ATOM     13  C   UNL     1      10.680  -3.378   8.870  1.00  0.00     0.053 C 
BRANCH  13  14
ATOM     14  C   UNL     1      11.152  -2.034   9.333  1.00  0.00     0.041 C 
ATOM     15  O   UNL     1      10.323  -1.106   9.539  1.00  0.00    -0.550 OA
ATOM     16  O   UNL     1      12.509  -1.796   9.514  1.00  0.00    -0.550 OA
ENDBRANCH  13  14
ENDBRANCH  12  13
ENDBRANCH  11  12
ENDBRANCH  10  11
ENDBRANCH   9  10
ENDBRANCH   8   9
ENDBRANCH   7   8
ENDBRANCH   6   7
ENDBRANCH   5   6
ENDBRANCH   4   5
ENDBRANCH   3   4
ENDBRANCH   2   3
ENDBRANCH   1   2
BRANCH   1  17
ATOM     17  C   UNL     1       5.548   3.822   9.254  1.00  0.00     0.000 C 
BRANCH  17  18
ATOM     18  C   UNL     1       6.906   3.867   9.980  1.00  0.00     0.000 C 
BRANCH  18  19
ATOM     19  C   UNL     1       8.028   4.552   9.172  1.00  0.00     0.000 C 
BRANCH  19  20
ATOM     20  C   UNL     1       8.071   6.078   9.379  1.00  0.00     0.000 C 
BRANCH  20  21
ATOM     21  C   UNL     1       9.207   6.768   8.594  1.00  0.00     0.000 C 
BRANCH  21  22
ATOM     22  C   UNL     1       9.776   8.037   9.262  1.00  0.00    -0.000 C 
BRANCH  22  23
ATOM     23  C   UNL     1       8.977   9.309   8.927  1.00  0.00    -0.000 C 
BRANCH  23  24
ATOM     24  C   UNL     1       8.066   9.772  10.079  1.00  0.00    -0.000 C 
BRANCH  24  25
ATOM     25  C   UNL     1       6.618  10.120   9.677  1.00  0.00    -0.000 C 
BRANCH  25  26
ATOM     26  C   UNL     1       6.296  11.619   9.808  1.00  0.00    -0.000 C 
BRANCH  26  27
ATOM     27  C   UNL     1       4.857  11.949   9.360  1.00  0.00    -0.000 C 
BRANCH  27  28
ATOM     28  C   UNL     1       4.652  13.419   8.940  1.00  0.00    -0.000 C 
BRANCH  28  29
ATOM     29  C   UNL     1       4.843  13.678   7.434  1.00  0.00    -0.003 C 
ATOM     30  C   UNL     1       3.597  13.346   6.613  1.00  0.00     0.004 C 
ENDBRANCH  28  29
ENDBRANCH  27  28
ENDBRANCH  26  27
ENDBRANCH  25  26
ENDBRANCH  24  25
ENDBRANCH  23  24
ENDBRANCH  22  23
ENDBRANCH  21  22
ENDBRANCH  20  21
ENDBRANCH  19  20
ENDBRANCH  18  19
ENDBRANCH  17  18
ENDBRANCH   1  17
TORSDOF 26
ENDMDL
MODEL 7
REMARK VINA RESULT:    -2.222      3.414     11.167
REMARK INTER + INTRA:          -6.622
REMARK INTER:                  -6.524
REMARK INTRA:                  -0.098
REMARK UNBOUND:                -1.022
REMARK SMILES CCCCCCCCCCCCCCCCCCCCCCCCCCCC(=O)[O-]
REMARK SMILES IDX 15 1 16 2 17 3 18 4 19 5 20 6 21 7 22 8 23 9 24 10 25 11
REMARK SMILES IDX 26 12 27 13 28 14 29 15 30 16 14 17 13 18 12 19 11 20 10 21
REMARK SMILES IDX 9 22 8 23 7 24 6 25 5 26 4 27 3 28 2 29 1 30
REMARK H PARENT
REMARK Flexibility Score: inf
ROOT
ATOM      1  C   UNL     1       8.206   4.152   9.637  1.00  0.00     0.000 C 
ENDROOT
BRANCH   1   2
ATOM      2  C   UNL     1       7.688   5.480   9.057  1.00  0.00     0.000 C 
BRANCH   2   3
ATOM      3  C   UNL     1       8.781   6.558   8.952  1.00  0.00     0.000 C 
BRANCH   3   4
ATOM      4  C   UNL     1      10.198   5.988   9.132  1.00  0.00     0.000 C 
BRANCH   4   5
ATOM      5  C   UNL     1      11.237   6.838   8.387  1.00  0.00     0.000 C 
BRANCH   5   6
ATOM      6  C   UNL     1      12.198   7.562   9.347  1.00  0.00     0.000 C 
BRANCH   6   7
ATOM      7  C   UNL     1      11.569   8.820   9.969  1.00  0.00     0.000 C 
BRANCH   7   8
ATOM      8  C   UNL     1      10.037   8.700  10.119  1.00  0.00     0.000 C 
BRANCH   8   9
ATOM      9  C   UNL     1       9.307  10.054  10.082  1.00  0.00     0.000 C 
BRANCH   9  10
ATOM     10  C   UNL     1       7.831   9.925   9.670  1.00  0.00     0.000 C 
BRANCH  10  11
ATOM     11  C   UNL     1       7.018  11.190   9.985  1.00  0.00     0.000 C 
BRANCH  11  12
ATOM     12  C   UNL     1       5.859  11.405   8.997  1.00  0.00     0.006 C 
BRANCH  12  13
ATOM     13  C   UNL     1       4.529  11.677   9.715  1.00  0.00     0.053 C 
BRANCH  13  14
ATOM     14  C   UNL     1       3.631  12.566   8.910  1.00  0.00     0.041 C 
ATOM     15  O   UNL     1       4.116  13.505   8.224  1.00  0.00    -0.550 OA
ATOM     16  O   UNL     1       2.255  12.372   8.937  1.00  0.00    -0.550 OA
ENDBRANCH  13  14
ENDBRANCH  12  13
ENDBRANCH  11  12
ENDBRANCH  10  11
ENDBRANCH   9  10
ENDBRANCH   8   9
ENDBRANCH   7   8
ENDBRANCH   6   7
ENDBRANCH   5   6
ENDBRANCH   4   5
ENDBRANCH   3   4
ENDBRANCH   2   3
ENDBRANCH   1   2
BRANCH   1  17
ATOM     17  C   UNL     1       7.071   3.236  10.124  1.00  0.00     0.000 C 
BRANCH  17  18
ATOM     18  C   UNL     1       6.749   2.041   9.206  1.00  0.00     0.000 C 
BRANCH  18  19
ATOM     19  C   UNL     1       6.181   2.443   7.829  1.00  0.00     0.000 C 
BRANCH  19  20
ATOM     20  C   UNL     1       4.653   2.642   7.845  1.00  0.00     0.000 C 
BRANCH  20  21
ATOM     21  C   UNL     1       3.883   1.416   8.379  1.00  0.00     0.000 C 
BRANCH  21  22
ATOM     22  C   UNL     1       3.440   1.524   9.853  1.00  0.00    -0.000 C 
BRANCH  22  23
ATOM     23  C   UNL     1       1.913   1.466  10.032  1.00  0.00    -0.000 C 
BRANCH  23  24
ATOM     24  C   UNL     1       1.181   2.650   9.371  1.00  0.00    -0.000 C 
BRANCH  24  25
ATOM     25  C   UNL     1      -0.079   3.143  10.111  1.00  0.00    -0.000 C 
BRANCH  25  26
ATOM     26  C   UNL     1      -1.324   3.213   9.209  1.00  0.00    -0.000 C 
BRANCH  26  27
ATOM     27  C   UNL     1      -1.671   4.660   8.802  1.00  0.00    -0.000 C 
BRANCH  27  28
ATOM     28  C   UNL     1      -2.403   5.461   9.898  1.00  0.00    -0.000 C 
BRANCH  28  29
ATOM     29  C   UNL     1      -1.844   6.879  10.125  1.00  0.00    -0.003 C 
ATOM     30  C   UNL     1      -0.347   6.979   9.834  1.00  0.00     0.004 C 
ENDBRANCH  28  29
ENDBRANCH  27  28
ENDBRANCH  26  27
ENDBRANCH  25  26
ENDBRANCH  24  25
ENDBRANCH  23  24
ENDBRANCH  22  23
ENDBRANCH  21  22
ENDBRANCH  20  21
ENDBRANCH  19  20
ENDBRANCH  18  19
ENDBRANCH  17  18
ENDBRANCH   1  17
TORSDOF 26
ENDMDL
MODEL 8
REMARK VINA RESULT:    -1.914      4.887     11.373
REMARK INTER + INTRA:          -5.845
REMARK INTER:                  -4.645
REMARK INTRA:                  -1.200
REMARK UNBOUND:                -1.022
REMARK SMILES CCCCCCCCCCCCCCCCCCCCCCCCCCCC(=O)[O-]
REMARK SMILES IDX 15 1 16 2 17 3 18 4 19 5 20 6 21 7 22 8 23 9 24 10 25 11
REMARK SMILES IDX 26 12 27 13 28 14 29 15 30 16 14 17 13 18 12 19 11 20 10 21
REMARK SMILES IDX 9 22 8 23 7 24 6 25 5 26 4 27 3 28 2 29 1 30
REMARK H PARENT
REMARK Flexibility Score: inf
ROOT
ATOM      1  C   UNL     1       4.161   2.981   7.655  1.00  0.00     0.000 C 
ENDROOT
BRANCH   1   2
ATOM      2  C   UNL     1       4.705   3.650   8.930  1.00  0.00     0.000 C 
BRANCH   2   3
ATOM      3  C   UNL     1       3.594   4.179   9.853  1.00  0.00     0.000 C 
BRANCH   3   4
ATOM      4  C   UNL     1       2.279   4.456   9.104  1.00  0.00     0.000 C 
BRANCH   4   5
ATOM      5  C   UNL     1       1.252   5.141  10.018  1.00  0.00     0.000 C 
BRANCH   5   6
ATOM      6  C   UNL     1       1.484   6.659  10.125  1.00  0.00     0.000 C 
BRANCH   6   7
ATOM      7  C   UNL     1       0.300   7.474   9.577  1.00  0.00     0.000 C 
BRANCH   7   8
ATOM      8  C   UNL     1       0.408   8.975   9.925  1.00  0.00     0.000 C 
BRANCH   8   9
ATOM      9  C   UNL     1       1.852   9.505   9.922  1.00  0.00     0.000 C 
BRANCH   9  10
ATOM     10  C   UNL     1       2.060  10.661   8.929  1.00  0.00     0.000 C 
BRANCH  10  11
ATOM     11  C   UNL     1       2.726  11.884   9.580  1.00  0.00     0.000 C 
BRANCH  11  12
ATOM     12  C   UNL     1       4.021  12.300   8.862  1.00  0.00     0.006 C 
BRANCH  12  13
ATOM     13  C   UNL     1       5.248  12.209   9.780  1.00  0.00     0.053 C 
BRANCH  13  14
ATOM     14  C   UNL     1       6.371  11.453   9.140  1.00  0.00     0.041 C 
ATOM     15  O   UNL     1       6.322  11.160   7.915  1.00  0.00    -0.550 OA
ATOM     16  O   UNL     1       7.461  11.049   9.901  1.00  0.00    -0.550 OA
ENDBRANCH  13  14
ENDBRANCH  12  13
ENDBRANCH  11  12
ENDBRANCH  10  11
ENDBRANCH   9  10
ENDBRANCH   8   9
ENDBRANCH   7   8
ENDBRANCH   6   7
ENDBRANCH   5   6
ENDBRANCH   4   5
ENDBRANCH   3   4
ENDBRANCH   2   3
ENDBRANCH   1   2
BRANCH   1  17
ATOM     17  C   UNL     1       3.942   1.469   7.827  1.00  0.00     0.000 C 
BRANCH  17  18
ATOM     18  C   UNL     1       4.504   0.866   9.129  1.00  0.00     0.000 C 
BRANCH  18  19
ATOM     19  C   UNL     1       3.524  -0.072   9.863  1.00  0.00     0.000 C 
BRANCH  19  20
ATOM     20  C   UNL     1       4.114  -1.471  10.124  1.00  0.00     0.000 C 
BRANCH  20  21
ATOM     21  C   UNL     1       5.266  -1.837   9.164  1.00  0.00     0.000 C 
BRANCH  21  22
ATOM     22  C   UNL     1       5.642  -3.333   9.147  1.00  0.00    -0.000 C 
BRANCH  22  23
ATOM     23  C   UNL     1       6.914  -3.647   9.954  1.00  0.00    -0.000 C 
BRANCH  23  24
ATOM     24  C   UNL     1       7.996  -4.363   9.123  1.00  0.00    -0.000 C 
BRANCH  24  25
ATOM     25  C   UNL     1       7.522  -5.619   8.363  1.00  0.00    -0.000 C 
BRANCH  25  26
ATOM     26  C   UNL     1       6.994  -5.309   6.951  1.00  0.00    -0.000 C 
BRANCH  26  27
ATOM     27  C   UNL     1       5.670  -6.042   6.648  1.00  0.00    -0.000 C 
BRANCH  27  28
ATOM     28  C   UNL     1       5.328  -6.125   5.147  1.00  0.00    -0.000 C 
BRANCH  28  29
ATOM     29  C   UNL     1       3.973  -5.495   4.772  1.00  0.00    -0.003 C 
ATOM     30  C   UNL     1       3.503  -5.890   3.373  1.00  0.00     0.004 C 
ENDBRANCH  28  29
ENDBRANCH  27  28
ENDBRANCH  26  27
ENDBRANCH  25  26
ENDBRANCH  24  25
ENDBRANCH  23  24
ENDBRANCH  22  23
ENDBRANCH  21  22
ENDBRANCH  20  21
ENDBRANCH  19  20
ENDBRANCH  18  19
ENDBRANCH  17  18
ENDBRANCH   1  17
TORSDOF 26
ENDMDL
