MODEL 1
REMARK VINA RESULT:    -5.110      0.000      0.000
REMARK INTER + INTRA:         -15.000
REMARK INTER:                 -11.683
REMARK INTRA:                  -3.317
REMARK UNBOUND:                -3.317
REMARK SMILES CCCCCCCCCCCCCCCCCCCCCCCC(=O)[O-]
REMARK SMILES IDX 13 1 14 2 15 3 16 4 17 5 18 6 19 7 20 8 21 9 22 10 23 11
REMARK SMILES IDX 24 12 25 13 26 14 12 15 11 16 10 17 9 18 8 19 7 20 6 21 5 22
REMARK SMILES IDX 4 23 3 24 2 25 1 26
REMARK H PARENT
REMARK Flexibility Score: inf
ROOT
ATOM      1  C   UNL     1      14.740 -29.892  22.898  1.00  0.00     0.000 C 
ENDROOT
BRANCH   1   2
ATOM      2  C   UNL     1      15.838 -29.596  21.857  1.00  0.00     0.000 C 
BRANCH   2   3
ATOM      3  C   UNL     1      17.201 -30.255  22.146  1.00  0.00     0.000 C 
BRANCH   3   4
ATOM      4  C   UNL     1      17.806 -31.039  20.964  1.00  0.00     0.000 C 
BRANCH   4   5
ATOM      5  C   UNL     1      19.345 -31.012  20.880  1.00  0.00     0.000 C 
BRANCH   5   6
ATOM      6  C   UNL     1      20.029 -29.942  21.751  1.00  0.00     0.000 C 
BRANCH   6   7
ATOM      7  C   UNL     1      20.566 -28.756  20.931  1.00  0.00     0.000 C 
BRANCH   7   8
ATOM      8  C   UNL     1      19.464 -27.745  20.574  1.00  0.00     0.000 C 
BRANCH   8   9
ATOM      9  C   UNL     1      19.871 -26.297  20.883  1.00  0.00     0.000 C 
BRANCH   9  10
ATOM     10  C   UNL     1      21.358 -26.212  21.247  1.00  0.00     0.006 C 
BRANCH  10  11
ATOM     11  C   UNL     1      22.019 -24.996  20.591  1.00  0.00     0.053 C 
BRANCH  11  12
ATOM     12  C   UNL     1      23.011 -25.431  19.559  1.00  0.00     0.041 C 
ATOM     13  O   UNL     1      23.298 -26.649  19.430  1.00  0.00    -0.550 OA
ATOM     14  O   UNL     1      23.581 -24.495  18.705  1.00  0.00    -0.550 OA
ENDBRANCH  11  12
ENDBRANCH  10  11
ENDBRANCH   9  10
ENDBRANCH   8   9
ENDBRANCH   7   8
ENDBRANCH   6   7
ENDBRANCH   5   6
ENDBRANCH   4   5
ENDBRANCH   3   4
ENDBRANCH   2   3
ENDBRANCH   1   2
BRANCH   1  15
ATOM     15  C   UNL     1      14.234 -31.349  22.916  1.00  0.00     0.000 C 
BRANCH  15  16
ATOM     16  C   UNL     1      14.128 -32.019  21.532  1.00  0.00     0.000 C 
BRANCH  16  17
ATOM     17  C   UNL     1      14.842 -33.380  21.412  1.00  0.00     0.000 C 
BRANCH  17  18
ATOM     18  C   UNL     1      14.910 -33.953  19.983  1.00  0.00    -0.000 C 
BRANCH  18  19
ATOM     19  C   UNL     1      16.326 -34.307  19.488  1.00  0.00    -0.000 C 
BRANCH  19  20
ATOM     20  C   UNL     1      16.639 -35.813  19.434  1.00  0.00    -0.000 C 
BRANCH  20  21
ATOM     21  C   UNL     1      17.229 -36.349  20.747  1.00  0.00    -0.000 C 
BRANCH  21  22
ATOM     22  C   UNL     1      18.231 -35.351  21.347  1.00  0.00    -0.000 C 
BRANCH  22  23
ATOM     23  C   UNL     1      18.003 -35.115  22.849  1.00  0.00    -0.000 C 
BRANCH  23  24
ATOM     24  C   UNL     1      18.273 -33.659  23.266  1.00  0.00    -0.000 C 
BRANCH  24  25
ATOM     25  C   UNL     1      17.374 -33.204  24.426  1.00  0.00    -0.003 C 
ATOM     26  C   UNL     1      16.190 -34.140  24.659  1.00  0.00     0.004 C 
ENDBRANCH  24  25
ENDBRANCH  23  24
ENDBRANCH  22  23
ENDBRANCH  21  22
ENDBRANCH  20  21
ENDBRANCH  19  20
ENDBRANCH  18  19
ENDBRANCH  17  18
ENDBRANCH  16  17
ENDBRANCH  15  16
ENDBRANCH   1  15
TORSDOF 22
ENDMDL
MODEL 2
REMARK VINA RESULT:    -5.079      1.338      2.157
REMARK INTER + INTRA:         -14.929
REMARK INTER:                 -11.857
REMARK INTRA:                  -3.073
REMARK UNBOUND:                -3.317
REMARK SMILES CCCCCCCCCCCCCCCCCCCCCCCC(=O)[O-]
REMARK SMILES IDX 13 1 14 2 15 3 16 4 17 5 18 6 19 7 20 8 21 9 22 10 23 11
REMARK SMILES IDX 24 12 25 13 26 14 12 15 11 16 10 17 9 18 8 19 7 20 6 21 5 22
REMARK SMILES IDX 4 23 3 24 2 25 1 26
REMARK H PARENT
REMARK Flexibility Score: inf
ROOT
ATOM      1  C   UNL     1      13.414 -30.784  23.240  1.00  0.00     0.000 C 
ENDROOT
BRANCH   1   2
ATOM      2  C   UNL     1      14.280 -29.511  23.315  1.00  0.00     0.000 C 
BRANCH   2   3
ATOM      3  C   UNL     1      15.782 -29.730  23.053  1.00  0.00     0.000 C 
BRANCH   3   4
ATOM      4  C   UNL     1      16.395 -30.949  23.770  1.00  0.00     0.000 C 
BRANCH   4   5
ATOM      5  C   UNL     1      17.472 -31.707  22.968  1.00  0.00     0.000 C 
BRANCH   5   6
ATOM      6  C   UNL     1      17.533 -31.364  21.468  1.00  0.00     0.000 C 
BRANCH   6   7
ATOM      7  C   UNL     1      18.958 -31.439  20.894  1.00  0.00     0.000 C 
BRANCH   7   8
ATOM      8  C   UNL     1      19.738 -30.128  21.089  1.00  0.00     0.000 C 
BRANCH   8   9
ATOM      9  C   UNL     1      18.873 -28.885  20.833  1.00  0.00     0.000 C 
BRANCH   9  10
ATOM     10  C   UNL     1      19.721 -27.608  20.886  1.00  0.00     0.006 C 
BRANCH  10  11
ATOM     11  C   UNL     1      21.214 -27.932  20.783  1.00  0.00     0.053 C 
BRANCH  11  12
ATOM     12  C   UNL     1      22.000 -26.695  20.486  1.00  0.00     0.041 C 
ATOM     13  O   UNL     1      21.409 -25.624  20.189  1.00  0.00    -0.550 OA
ATOM     14  O   UNL     1      23.385 -26.711  20.589  1.00  0.00    -0.550 OA
ENDBRANCH  11  12
ENDBRANCH  10  11
ENDBRANCH   9  10
ENDBRANCH   8   9
ENDBRANCH   7   8
ENDBRANCH   6   7
ENDBRANCH   5   6
ENDBRANCH   4   5
ENDBRANCH   3   4
ENDBRANCH   2   3
ENDBRANCH   1   2
BRANCH   1  15
ATOM     15  C   UNL     1      12.569 -30.922  21.957  1.00  0.00     0.000 C 
BRANCH  15  16
ATOM     16  C   UNL     1      13.299 -31.568  20.763  1.00  0.00     0.000 C 
BRANCH  16  17
ATOM     17  C   UNL     1      14.200 -32.766  21.121  1.00  0.00     0.000 C 
BRANCH  17  18
ATOM     18  C   UNL     1      14.647 -33.624  19.921  1.00  0.00    -0.000 C 
BRANCH  18  19
ATOM     19  C   UNL     1      15.587 -34.794  20.268  1.00  0.00    -0.000 C 
BRANCH  19  20
ATOM     20  C   UNL     1      16.867 -34.875  19.417  1.00  0.00    -0.000 C 
BRANCH  20  21
ATOM     21  C   UNL     1      18.108 -35.259  20.237  1.00  0.00    -0.000 C 
BRANCH  21  22
ATOM     22  C   UNL     1      17.707 -35.902  21.573  1.00  0.00    -0.000 C 
BRANCH  22  23
ATOM     23  C   UNL     1      18.207 -35.104  22.787  1.00  0.00    -0.000 C 
BRANCH  23  24
ATOM     24  C   UNL     1      17.222 -35.145  23.969  1.00  0.00    -0.000 C 
BRANCH  24  25
ATOM     25  C   UNL     1      17.930 -35.350  25.317  1.00  0.00    -0.003 C 
ATOM     26  C   UNL     1      17.184 -36.318  26.234  1.00  0.00     0.004 C 
ENDBRANCH  24  25
ENDBRANCH  23  24
ENDBRANCH  22  23
ENDBRANCH  21  22
ENDBRANCH  20  21
ENDBRANCH  19  20
ENDBRANCH  18  19
ENDBRANCH  17  18
ENDBRANCH  16  17
ENDBRANCH  15  16
ENDBRANCH   1  15
TORSDOF 22
ENDMDL
MODEL 3
REMARK VINA RESULT:    -5.072      3.286      7.397
REMARK INTER + INTRA:         -14.913
REMARK INTER:                 -11.378
REMARK INTRA:                  -3.535
REMARK UNBOUND:                -3.317
REMARK SMILES CCCCCCCCCCCCCCCCCCCCCCCC(=O)[O-]
REMARK SMILES IDX 13 1 14 2 15 3 16 4 17 5 18 6 19 7 20 8 21 9 22 10 23 11
REMARK SMILES IDX 24 12 25 13 26 14 12 15 11 16 10 17 9 18 8 19 7 20 6 21 5 22
REMARK SMILES IDX 4 23 3 24 2 25 1 26
REMARK H PARENT
REMARK Flexibility Score: inf
ROOT
ATOM      1  C   UNL     1      13.334 -30.790  22.103  1.00  0.00     0.000 C 
ENDROOT
BRANCH   1   2
ATOM      2  C   UNL     1      13.492 -31.706  20.872  1.00  0.00     0.000 C 
BRANCH   2   3
ATOM      3  C   UNL     1      14.365 -32.955  21.098  1.00  0.00     0.000 C 
BRANCH   3   4
ATOM      4  C   UNL     1      14.702 -33.751  19.822  1.00  0.00     0.000 C 
BRANCH   4   5
ATOM      5  C   UNL     1      16.184 -34.153  19.673  1.00  0.00     0.000 C 
BRANCH   5   6
ATOM      6  C   UNL     1      16.438 -35.662  19.505  1.00  0.00     0.000 C 
BRANCH   6   7
ATOM      7  C   UNL     1      17.279 -36.258  20.647  1.00  0.00     0.000 C 
BRANCH   7   8
ATOM      8  C   UNL     1      18.237 -35.227  21.268  1.00  0.00     0.000 C 
BRANCH   8   9
ATOM      9  C   UNL     1      18.126 -35.168  22.799  1.00  0.00     0.000 C 
BRANCH   9  10
ATOM     10  C   UNL     1      16.772 -34.590  23.228  1.00  0.00     0.006 C 
BRANCH  10  11
ATOM     11  C   UNL     1      16.951 -33.282  24.003  1.00  0.00     0.053 C 
BRANCH  11  12
ATOM     12  C   UNL     1      17.331 -33.561  25.423  1.00  0.00     0.041 C 
ATOM     13  O   UNL     1      16.867 -34.569  26.016  1.00  0.00    -0.550 OA
ATOM     14  O   UNL     1      18.238 -32.736  26.075  1.00  0.00    -0.550 OA
ENDBRANCH  11  12
ENDBRANCH  10  11
ENDBRANCH   9  10
ENDBRANCH   8   9
ENDBRANCH   7   8
ENDBRANCH   6   7
ENDBRANCH   5   6
ENDBRANCH   4   5
ENDBRANCH   3   4
ENDBRANCH   2   3
ENDBRANCH   1   2
BRANCH   1  15
ATOM     15  C   UNL     1      14.657 -30.286  22.714  1.00  0.00     0.000 C 
BRANCH  15  16
ATOM     16  C   UNL     1      15.680 -29.744  21.696  1.00  0.00     0.000 C 
BRANCH  16  17
ATOM     17  C   UNL     1      17.137 -30.182  21.943  1.00  0.00     0.000 C 
BRANCH  17  18
ATOM     18  C   UNL     1      17.793 -30.941  20.773  1.00  0.00    -0.000 C 
BRANCH  18  19
ATOM     19  C   UNL     1      18.987 -31.836  21.161  1.00  0.00    -0.000 C 
BRANCH  19  20
ATOM     20  C   UNL     1      19.650 -31.489  22.506  1.00  0.00    -0.000 C 
BRANCH  20  21
ATOM     21  C   UNL     1      21.113 -31.048  22.357  1.00  0.00    -0.000 C 
BRANCH  21  22
ATOM     22  C   UNL     1      21.220 -29.517  22.275  1.00  0.00    -0.000 C 
BRANCH  22  23
ATOM     23  C   UNL     1      21.021 -28.986  20.847  1.00  0.00    -0.000 C 
BRANCH  23  24
ATOM     24  C   UNL     1      19.972 -27.862  20.775  1.00  0.00    -0.000 C 
BRANCH  24  25
ATOM     25  C   UNL     1      20.552 -26.492  21.160  1.00  0.00    -0.003 C 
ATOM     26  C   UNL     1      20.371 -25.444  20.063  1.00  0.00     0.004 C 
ENDBRANCH  24  25
ENDBRANCH  23  24
ENDBRANCH  22  23
ENDBRANCH  21  22
ENDBRANCH  20  21
ENDBRANCH  19  20
ENDBRANCH  18  19
ENDBRANCH  17  18
ENDBRANCH  16  17
ENDBRANCH  15  16
ENDBRANCH   1  15
TORSDOF 22
ENDMDL
MODEL 4
REMARK VINA RESULT:    -5.065      4.067      6.764
REMARK INTER + INTRA:         -14.896
REMARK INTER:                 -10.705
REMARK INTRA:                  -4.190
REMARK UNBOUND:                -3.317
REMARK SMILES CCCCCCCCCCCCCCCCCCCCCCCC(=O)[O-]
REMARK SMILES IDX 13 1 14 2 15 3 16 4 17 5 18 6 19 7 20 8 21 9 22 10 23 11
REMARK SMILES IDX 24 12 25 13 26 14 12 15 11 16 10 17 9 18 8 19 7 20 6 21 5 22
REMARK SMILES IDX 4 23 3 24 2 25 1 26
REMARK H PARENT
REMARK Flexibility Score: inf
ROOT
ATOM      1  C   UNL     1      17.429 -31.044  21.011  1.00  0.00     0.000 C 
ENDROOT
BRANCH   1   2
ATOM      2  C   UNL     1      18.889 -31.532  20.916  1.00  0.00     0.000 C 
BRANCH   2   3
ATOM      3  C   UNL     1      19.953 -30.479  21.278  1.00  0.00     0.000 C 
BRANCH   3   4
ATOM      4  C   UNL     1      20.799 -30.813  22.523  1.00  0.00     0.000 C 
BRANCH   4   5
ATOM      5  C   UNL     1      20.180 -31.858  23.474  1.00  0.00     0.000 C 
BRANCH   5   6
ATOM      6  C   UNL     1      19.705 -31.306  24.830  1.00  0.00     0.000 C 
BRANCH   6   7
ATOM      7  C   UNL     1      18.197 -31.003  24.858  1.00  0.00     0.000 C 
BRANCH   7   8
ATOM      8  C   UNL     1      17.344 -32.243  24.542  1.00  0.00     0.000 C 
BRANCH   8   9
ATOM      9  C   UNL     1      17.512 -33.355  25.588  1.00  0.00     0.000 C 
BRANCH   9  10
ATOM     10  C   UNL     1      16.902 -34.671  25.091  1.00  0.00     0.006 C 
BRANCH  10  11
ATOM     11  C   UNL     1      17.957 -35.546  24.408  1.00  0.00     0.053 C 
BRANCH  11  12
ATOM     12  C   UNL     1      19.075 -35.853  25.352  1.00  0.00     0.041 C 
ATOM     13  O   UNL     1      20.225 -35.383  25.146  1.00  0.00    -0.550 OA
ATOM     14  O   UNL     1      18.837 -36.614  26.489  1.00  0.00    -0.550 OA
ENDBRANCH  11  12
ENDBRANCH  10  11
ENDBRANCH   9  10
ENDBRANCH   8   9
ENDBRANCH   7   8
ENDBRANCH   6   7
ENDBRANCH   5   6
ENDBRANCH   4   5
ENDBRANCH   3   4
ENDBRANCH   2   3
ENDBRANCH   1   2
BRANCH   1  15
ATOM     15  C   UNL     1      17.252 -29.634  21.610  1.00  0.00     0.000 C 
BRANCH  15  16
ATOM     16  C   UNL     1      15.791 -29.198  21.831  1.00  0.00     0.000 C 
BRANCH  16  17
ATOM     17  C   UNL     1      15.197 -29.587  23.199  1.00  0.00     0.000 C 
BRANCH  17  18
ATOM     18  C   UNL     1      14.073 -30.640  23.142  1.00  0.00    -0.000 C 
BRANCH  18  19
ATOM     19  C   UNL     1      13.582 -30.998  21.726  1.00  0.00    -0.000 C 
BRANCH  19  20
ATOM     20  C   UNL     1      14.088 -32.345  21.182  1.00  0.00    -0.000 C 
BRANCH  20  21
ATOM     21  C   UNL     1      14.698 -33.240  22.272  1.00  0.00    -0.000 C 
BRANCH  21  22
ATOM     22  C   UNL     1      15.717 -34.220  21.671  1.00  0.00    -0.000 C 
BRANCH  22  23
ATOM     23  C   UNL     1      15.314 -34.710  20.272  1.00  0.00    -0.000 C 
BRANCH  23  24
ATOM     24  C   UNL     1      16.513 -34.814  19.313  1.00  0.00    -0.000 C 
BRANCH  24  25
ATOM     25  C   UNL     1      17.721 -35.512  19.956  1.00  0.00    -0.003 C 
ATOM     26  C   UNL     1      17.523 -37.020  20.104  1.00  0.00     0.004 C 
ENDBRANCH  24  25
ENDBRANCH  23  24
ENDBRANCH  22  23
ENDBRANCH  21  22
ENDBRANCH  20  21
ENDBRANCH  19  20
ENDBRANCH  18  19
ENDBRANCH  17  18
ENDBRANCH  16  17
ENDBRANCH  15  16
ENDBRANCH   1  15
TORSDOF 22
ENDMDL
MODEL 5
REMARK VINA RESULT:    -5.005      3.482      5.496
REMARK INTER + INTRA:         -14.760
REMARK INTER:                 -10.764
REMARK INTRA:                  -3.996
REMARK UNBOUND:                -3.317
REMARK SMILES CCCCCCCCCCCCCCCCCCCCCCCC(=O)[O-]
REMARK SMILES IDX 13 1 14 2 15 3 16 4 17 5 18 6 19 7 20 8 21 9 22 10 23 11
REMARK SMILES IDX 24 12 25 13 26 14 12 15 11 16 10 17 9 18 8 19 7 20 6 21 5 22
REMARK SMILES IDX 4 23 3 24 2 25 1 26
REMARK H PARENT
REMARK Flexibility Score: inf
ROOT
ATOM      1  C   UNL     1      15.617 -29.689  21.894  1.00  0.00     0.000 C 
ENDROOT
BRANCH   1   2
ATOM      2  C   UNL     1      14.815 -29.838  23.202  1.00  0.00     0.000 C 
BRANCH   2   3
ATOM      3  C   UNL     1      13.927 -31.094  23.282  1.00  0.00     0.000 C 
BRANCH   3   4
ATOM      4  C   UNL     1      14.227 -32.169  22.218  1.00  0.00     0.000 C 
BRANCH   4   5
ATOM      5  C   UNL     1      14.987 -33.407  22.736  1.00  0.00     0.000 C 
BRANCH   5   6
ATOM      6  C   UNL     1      15.221 -33.441  24.257  1.00  0.00     0.000 C 
BRANCH   6   7
ATOM      7  C   UNL     1      16.504 -34.195  24.649  1.00  0.00     0.000 C 
BRANCH   7   8
ATOM      8  C   UNL     1      17.516 -33.292  25.373  1.00  0.00     0.000 C 
BRANCH   8   9
ATOM      9  C   UNL     1      18.085 -32.195  24.460  1.00  0.00     0.000 C 
BRANCH   9  10
ATOM     10  C   UNL     1      18.194 -30.862  25.209  1.00  0.00     0.006 C 
BRANCH  10  11
ATOM     11  C   UNL     1      19.115 -30.985  26.426  1.00  0.00     0.053 C 
BRANCH  11  12
ATOM     12  C   UNL     1      19.659 -29.646  26.810  1.00  0.00     0.041 C 
ATOM     13  O   UNL     1      19.023 -28.908  27.607  1.00  0.00    -0.550 OA
ATOM     14  O   UNL     1      20.896 -29.234  26.330  1.00  0.00    -0.550 OA
ENDBRANCH  11  12
ENDBRANCH  10  11
ENDBRANCH   9  10
ENDBRANCH   8   9
ENDBRANCH   7   8
ENDBRANCH   6   7
ENDBRANCH   5   6
ENDBRANCH   4   5
ENDBRANCH   3   4
ENDBRANCH   2   3
ENDBRANCH   1   2
BRANCH   1  15
ATOM     15  C   UNL     1      17.139 -29.523  22.078  1.00  0.00     0.000 C 
BRANCH  15  16
ATOM     16  C   UNL     1      17.991 -29.922  20.857  1.00  0.00     0.000 C 
BRANCH  16  17
ATOM     17  C   UNL     1      18.622 -31.325  20.935  1.00  0.00     0.000 C 
BRANCH  17  18
ATOM     18  C   UNL     1      17.638 -32.492  20.726  1.00  0.00    -0.000 C 
BRANCH  18  19
ATOM     19  C   UNL     1      17.971 -33.427  19.547  1.00  0.00    -0.000 C 
BRANCH  19  20
ATOM     20  C   UNL     1      16.760 -34.138  18.917  1.00  0.00    -0.000 C 
BRANCH  20  21
ATOM     21  C   UNL     1      16.290 -35.354  19.730  1.00  0.00    -0.000 C 
BRANCH  21  22
ATOM     22  C   UNL     1      17.182 -36.574  19.457  1.00  0.00    -0.000 C 
BRANCH  22  23
ATOM     23  C   UNL     1      17.754 -37.189  20.744  1.00  0.00    -0.000 C 
BRANCH  23  24
ATOM     24  C   UNL     1      17.908 -36.156  21.875  1.00  0.00    -0.000 C 
BRANCH  24  25
ATOM     25  C   UNL     1      19.321 -36.151  22.478  1.00  0.00    -0.003 C 
ATOM     26  C   UNL     1      19.923 -34.750  22.559  1.00  0.00     0.004 C 
ENDBRANCH  24  25
ENDBRANCH  23  24
ENDBRANCH  22  23
ENDBRANCH  21  22
ENDBRANCH  20  21
ENDBRANCH  19  20
ENDBRANCH  18  19
ENDBRANCH  17  18
ENDBRANCH  16  17
ENDBRANCH  15  16
ENDBRANCH   1  15
TORSDOF 22
ENDMDL
MODEL 6
REMARK VINA RESULT:    -4.996      3.086      7.461
REMARK INTER + INTRA:         -14.739
REMARK INTER:                 -10.401
REMARK INTRA:                  -4.338
REMARK UNBOUND:                -3.317
REMARK SMILES CCCCCCCCCCCCCCCCCCCCCCCC(=O)[O-]
REMARK SMILES IDX 13 1 14 2 15 3 16 4 17 5 18 6 19 7 20 8 21 9 22 10 23 11
REMARK SMILES IDX 24 12 25 13 26 14 12 15 11 16 10 17 9 18 8 19 7 20 6 21 5 22
REMARK SMILES IDX 4 23 3 24 2 25 1 26
REMARK H PARENT
REMARK Flexibility Score: inf
ROOT
ATOM      1  C   UNL     1      17.520 -31.116  21.119  1.00  0.00     0.000 C 
ENDROOT
BRANCH   1   2
ATOM      2  C   UNL     1      17.266 -29.674  21.603  1.00  0.00     0.000 C 
BRANCH   2   3
ATOM      3  C   UNL     1      15.781 -29.286  21.740  1.00  0.00     0.000 C 
BRANCH   3   4
ATOM      4  C   UNL     1      15.158 -29.582  23.119  1.00  0.00     0.000 C 
BRANCH   4   5
ATOM      5  C   UNL     1      13.957 -30.549  23.099  1.00  0.00     0.000 C 
BRANCH   5   6
ATOM      6  C   UNL     1      14.232 -31.945  23.688  1.00  0.00     0.000 C 
BRANCH   6   7
ATOM      7  C   UNL     1      14.538 -32.999  22.611  1.00  0.00     0.000 C 
BRANCH   7   8
ATOM      8  C   UNL     1      14.150 -32.525  21.200  1.00  0.00     0.000 C 
BRANCH   8   9
ATOM      9  C   UNL     1      14.540 -33.536  20.112  1.00  0.00     0.000 C 
BRANCH   9  10
ATOM     10  C   UNL     1      15.341 -34.700  20.707  1.00  0.00     0.006 C 
BRANCH  10  11
ATOM     11  C   UNL     1      16.172 -35.406  19.632  1.00  0.00     0.053 C 
BRANCH  11  12
ATOM     12  C   UNL     1      17.577 -34.895  19.635  1.00  0.00     0.041 C 
ATOM     13  O   UNL     1      17.932 -34.013  18.810  1.00  0.00    -0.550 OA
ATOM     14  O   UNL     1      18.482 -35.354  20.583  1.00  0.00    -0.550 OA
ENDBRANCH  11  12
ENDBRANCH  10  11
ENDBRANCH   9  10
ENDBRANCH   8   9
ENDBRANCH   7   8
ENDBRANCH   6   7
ENDBRANCH   5   6
ENDBRANCH   4   5
ENDBRANCH   3   4
ENDBRANCH   2   3
ENDBRANCH   1   2
BRANCH   1  15
ATOM     15  C   UNL     1      18.540 -31.913  21.957  1.00  0.00     0.000 C 
BRANCH  15  16
ATOM     16  C   UNL     1      17.925 -32.926  22.942  1.00  0.00     0.000 C 
BRANCH  16  17
ATOM     17  C   UNL     1      17.779 -32.418  24.390  1.00  0.00     0.000 C 
BRANCH  17  18
ATOM     18  C   UNL     1      18.304 -30.989  24.633  1.00  0.00    -0.000 C 
BRANCH  18  19
ATOM     19  C   UNL     1      19.430 -30.874  25.679  1.00  0.00    -0.000 C 
BRANCH  19  20
ATOM     20  C   UNL     1      20.781 -30.385  25.129  1.00  0.00    -0.000 C 
BRANCH  20  21
ATOM     21  C   UNL     1      21.469 -31.418  24.224  1.00  0.00    -0.000 C 
BRANCH  21  22
ATOM     22  C   UNL     1      21.843 -30.799  22.869  1.00  0.00    -0.000 C 
BRANCH  22  23
ATOM     23  C   UNL     1      21.132 -29.460  22.614  1.00  0.00    -0.000 C 
BRANCH  23  24
ATOM     24  C   UNL     1      20.991 -29.141  21.115  1.00  0.00    -0.000 C 
BRANCH  24  25
ATOM     25  C   UNL     1      20.266 -27.811  20.863  1.00  0.00    -0.003 C 
ATOM     26  C   UNL     1      21.229 -26.637  20.688  1.00  0.00     0.004 C 
ENDBRANCH  24  25
ENDBRANCH  23  24
ENDBRANCH  22  23
ENDBRANCH  21  22
ENDBRANCH  20  21
ENDBRANCH  19  20
ENDBRANCH  18  19
ENDBRANCH  17  18
ENDBRANCH  16  17
ENDBRANCH  15  16
ENDBRANCH   1  15
TORSDOF 22
ENDMDL
MODEL 7
REMARK VINA RESULT:    -4.987      3.796      5.927
REMARK INTER + INTRA:         -14.719
REMARK INTER:                 -10.499
REMARK INTRA:                  -4.220
REMARK UNBOUND:                -3.317
REMARK SMILES CCCCCCCCCCCCCCCCCCCCCCCC(=O)[O-]
REMARK SMILES IDX 13 1 14 2 15 3 16 4 17 5 18 6 19 7 20 8 21 9 22 10 23 11
REMARK SMILES IDX 24 12 25 13 26 14 12 15 11 16 10 17 9 18 8 19 7 20 6 21 5 22
REMARK SMILES IDX 4 23 3 24 2 25 1 26
REMARK H PARENT
REMARK Flexibility Score: inf
ROOT
ATOM      1  C   UNL     1      18.288 -31.301  20.870  1.00  0.00     0.000 C 
ENDROOT
BRANCH   1   2
ATOM      2  C   UNL     1      16.885 -30.792  21.257  1.00  0.00     0.000 C 
BRANCH   2   3
ATOM      3  C   UNL     1      16.857 -29.777  22.415  1.00  0.00     0.000 C 
BRANCH   3   4
ATOM      4  C   UNL     1      15.481 -29.595  23.085  1.00  0.00     0.000 C 
BRANCH   4   5
ATOM      5  C   UNL     1      14.351 -30.473  22.509  1.00  0.00     0.000 C 
BRANCH   5   6
ATOM      6  C   UNL     1      13.484 -31.194  23.557  1.00  0.00     0.000 C 
BRANCH   6   7
ATOM      7  C   UNL     1      14.118 -32.501  24.061  1.00  0.00     0.000 C 
BRANCH   7   8
ATOM      8  C   UNL     1      14.786 -33.302  22.931  1.00  0.00     0.000 C 
BRANCH   8   9
ATOM      9  C   UNL     1      16.163 -33.853  23.333  1.00  0.00     0.000 C 
BRANCH   9  10
ATOM     10  C   UNL     1      16.819 -32.963  24.396  1.00  0.00     0.006 C 
BRANCH  10  11
ATOM     11  C   UNL     1      18.336 -33.166  24.426  1.00  0.00     0.053 C 
BRANCH  11  12
ATOM     12  C   UNL     1      19.022 -31.931  24.917  1.00  0.00     0.041 C 
ATOM     13  O   UNL     1      19.682 -31.214  24.121  1.00  0.00    -0.550 OA
ATOM     14  O   UNL     1      18.888 -31.543  26.244  1.00  0.00    -0.550 OA
ENDBRANCH  11  12
ENDBRANCH  10  11
ENDBRANCH   9  10
ENDBRANCH   8   9
ENDBRANCH   7   8
ENDBRANCH   6   7
ENDBRANCH   5   6
ENDBRANCH   4   5
ENDBRANCH   3   4
ENDBRANCH   2   3
ENDBRANCH   1   2
BRANCH   1  15
ATOM     15  C   UNL     1      18.400 -32.828  20.683  1.00  0.00     0.000 C 
BRANCH  15  16
ATOM     16  C   UNL     1      17.473 -33.422  19.606  1.00  0.00     0.000 C 
BRANCH  16  17
ATOM     17  C   UNL     1      17.901 -34.802  19.069  1.00  0.00     0.000 C 
BRANCH  17  18
ATOM     18  C   UNL     1      17.036 -35.983  19.552  1.00  0.00    -0.000 C 
BRANCH  18  19
ATOM     19  C   UNL     1      17.739 -36.957  20.518  1.00  0.00    -0.000 C 
BRANCH  19  20
ATOM     20  C   UNL     1      17.932 -36.427  21.950  1.00  0.00    -0.000 C 
BRANCH  20  21
ATOM     21  C   UNL     1      19.400 -36.444  22.402  1.00  0.00    -0.000 C 
BRANCH  21  22
ATOM     22  C   UNL     1      19.584 -37.344  23.634  1.00  0.00    -0.000 C 
BRANCH  22  23
ATOM     23  C   UNL     1      20.330 -36.637  24.776  1.00  0.00    -0.000 C 
BRANCH  23  24
ATOM     24  C   UNL     1      19.539 -36.647  26.096  1.00  0.00    -0.000 C 
BRANCH  24  25
ATOM     25  C   UNL     1      18.139 -37.260  25.938  1.00  0.00    -0.003 C 
ATOM     26  C   UNL     1      17.020 -36.249  26.183  1.00  0.00     0.004 C 
ENDBRANCH  24  25
ENDBRANCH  23  24
ENDBRANCH  22  23
ENDBRANCH  21  22
ENDBRANCH  20  21
ENDBRANCH  19  20
ENDBRANCH  18  19
ENDBRANCH  17  18
ENDBRANCH  16  17
ENDBRANCH  15  16
ENDBRANCH   1  15
TORSDOF 22
ENDMDL
MODEL 8
REMARK VINA RESULT:    -4.946      1.399      3.523
REMARK INTER + INTRA:         -14.626
REMARK INTER:                 -11.722
REMARK INTRA:                  -2.903
REMARK UNBOUND:                -3.317
REMARK SMILES CCCCCCCCCCCCCCCCCCCCCCCC(=O)[O-]
REMARK SMILES IDX 13 1 14 2 15 3 16 4 17 5 18 6 19 7 20 8 21 9 22 10 23 11
REMARK SMILES IDX 24 12 25 13 26 14 12 15 11 16 10 17 9 18 8 19 7 20 6 21 5 22
REMARK SMILES IDX 4 23 3 24 2 25 1 26
REMARK H PARENT
REMARK Flexibility Score: inf
ROOT
ATOM      1  C   UNL     1      17.888 -33.480  22.882  1.00  0.00     0.000 C 
ENDROOT
BRANCH   1   2
ATOM      2  C   UNL     1      19.130 -33.000  22.105  1.00  0.00     0.000 C 
BRANCH   2   3
ATOM      3  C   UNL     1      18.828 -32.169  20.843  1.00  0.00     0.000 C 
BRANCH   3   4
ATOM      4  C   UNL     1      17.878 -30.975  21.065  1.00  0.00     0.000 C 
BRANCH   4   5
ATOM      5  C   UNL     1      18.561 -29.593  21.098  1.00  0.00     0.000 C 
BRANCH   5   6
ATOM      6  C   UNL     1      20.098 -29.626  21.182  1.00  0.00     0.000 C 
BRANCH   6   7
ATOM      7  C   UNL     1      20.751 -28.313  20.717  1.00  0.00     0.000 C 
BRANCH   7   8
ATOM      8  C   UNL     1      19.788 -27.117  20.806  1.00  0.00     0.000 C 
BRANCH   8   9
ATOM      9  C   UNL     1      20.387 -25.834  20.210  1.00  0.00     0.000 C 
BRANCH   9  10
ATOM     10  C   UNL     1      21.892 -25.995  19.964  1.00  0.00     0.006 C 
BRANCH  10  11
ATOM     11  C   UNL     1      22.629 -24.667  20.159  1.00  0.00     0.053 C 
BRANCH  11  12
ATOM     12  C   UNL     1      22.840 -24.391  21.614  1.00  0.00     0.041 C 
ATOM     13  O   UNL     1      22.793 -25.331  22.449  1.00  0.00    -0.550 OA
ATOM     14  O   UNL     1      23.141 -23.104  22.041  1.00  0.00    -0.550 OA
ENDBRANCH  11  12
ENDBRANCH  10  11
ENDBRANCH   9  10
ENDBRANCH   8   9
ENDBRANCH   7   8
ENDBRANCH   6   7
ENDBRANCH   5   6
ENDBRANCH   4   5
ENDBRANCH   3   4
ENDBRANCH   2   3
ENDBRANCH   1   2
BRANCH   1  15
ATOM     15  C   UNL     1      17.901 -34.972  23.273  1.00  0.00     0.000 C 
BRANCH  15  16
ATOM     16  C   UNL     1      18.752 -35.877  22.362  1.00  0.00     0.000 C 
BRANCH  16  17
ATOM     17  C   UNL     1      17.977 -36.563  21.220  1.00  0.00     0.000 C 
BRANCH  17  18
ATOM     18  C   UNL     1      17.910 -35.759  19.907  1.00  0.00    -0.000 C 
BRANCH  18  19
ATOM     19  C   UNL     1      16.489 -35.488  19.376  1.00  0.00    -0.000 C 
BRANCH  19  20
ATOM     20  C   UNL     1      15.918 -34.101  19.723  1.00  0.00    -0.000 C 
BRANCH  20  21
ATOM     21  C   UNL     1      14.891 -34.144  20.864  1.00  0.00    -0.000 C 
BRANCH  21  22
ATOM     22  C   UNL     1      14.345 -32.740  21.165  1.00  0.00    -0.000 C 
BRANCH  22  23
ATOM     23  C   UNL     1      14.539 -32.331  22.633  1.00  0.00    -0.000 C 
BRANCH  23  24
ATOM     24  C   UNL     1      13.430 -31.391  23.138  1.00  0.00    -0.000 C 
BRANCH  24  25
ATOM     25  C   UNL     1      13.750 -29.911  22.875  1.00  0.00    -0.003 C 
ATOM     26  C   UNL     1      15.204 -29.557  23.184  1.00  0.00     0.004 C 
ENDBRANCH  24  25
ENDBRANCH  23  24
ENDBRANCH  22  23
ENDBRANCH  21  22
ENDBRANCH  20  21
ENDBRANCH  19  20
ENDBRANCH  18  19
ENDBRANCH  17  18
ENDBRANCH  16  17
ENDBRANCH  15  16
ENDBRANCH   1  15
TORSDOF 22
ENDMDL
MODEL 9
REMARK VINA RESULT:    -4.939      1.304      3.043
REMARK INTER + INTRA:         -14.609
REMARK INTER:                 -10.269
REMARK INTRA:                  -4.340
REMARK UNBOUND:                -3.317
REMARK SMILES CCCCCCCCCCCCCCCCCCCCCCCC(=O)[O-]
REMARK SMILES IDX 13 1 14 2 15 3 16 4 17 5 18 6 19 7 20 8 21 9 22 10 23 11
REMARK SMILES IDX 24 12 25 13 26 14 12 15 11 16 10 17 9 18 8 19 7 20 6 21 5 22
REMARK SMILES IDX 4 23 3 24 2 25 1 26
REMARK H PARENT
REMARK Flexibility Score: inf
ROOT
ATOM      1  C   UNL     1      14.089 -32.300  21.102  1.00  0.00     0.000 C 
ENDROOT
BRANCH   1   2
ATOM      2  C   UNL     1      14.298 -32.044  22.608  1.00  0.00     0.000 C 
BRANCH   2   3
ATOM      3  C   UNL     1      14.816 -30.637  22.963  1.00  0.00     0.000 C 
BRANCH   3   4
ATOM      4  C   UNL     1      15.531 -29.899  21.813  1.00  0.00     0.000 C 
BRANCH   4   5
ATOM      5  C   UNL     1      17.067 -30.034  21.804  1.00  0.00     0.000 C 
BRANCH   5   6
ATOM      6  C   UNL     1      17.620 -31.156  20.906  1.00  0.00     0.000 C 
BRANCH   6   7
ATOM      7  C   UNL     1      19.156 -31.156  20.825  1.00  0.00     0.000 C 
BRANCH   7   8
ATOM      8  C   UNL     1      19.814 -30.935  22.197  1.00  0.00     0.000 C 
BRANCH   8   9
ATOM      9  C   UNL     1      20.713 -29.690  22.225  1.00  0.00     0.000 C 
BRANCH   9  10
ATOM     10  C   UNL     1      20.812 -29.054  20.833  1.00  0.00     0.006 C 
BRANCH  10  11
ATOM     11  C   UNL     1      20.271 -27.621  20.840  1.00  0.00     0.053 C 
BRANCH  11  12
ATOM     12  C   UNL     1      21.347 -26.656  21.222  1.00  0.00     0.041 C 
ATOM     13  O   UNL     1      21.088 -25.686  21.981  1.00  0.00    -0.550 OA
ATOM     14  O   UNL     1      22.649 -26.857  20.782  1.00  0.00    -0.550 OA
ENDBRANCH  11  12
ENDBRANCH  10  11
ENDBRANCH   9  10
ENDBRANCH   8   9
ENDBRANCH   7   8
ENDBRANCH   6   7
ENDBRANCH   5   6
ENDBRANCH   4   5
ENDBRANCH   3   4
ENDBRANCH   2   3
ENDBRANCH   1   2
BRANCH   1  15
ATOM     15  C   UNL     1      14.805 -33.548  20.547  1.00  0.00     0.000 C 
BRANCH  15  16
ATOM     16  C   UNL     1      15.664 -34.315  21.571  1.00  0.00     0.000 C 
BRANCH  16  17
ATOM     17  C   UNL     1      16.692 -35.286  20.959  1.00  0.00     0.000 C 
BRANCH  17  18
ATOM     18  C   UNL     1      18.105 -34.700  20.769  1.00  0.00    -0.000 C 
BRANCH  18  19
ATOM     19  C   UNL     1      19.118 -35.063  21.872  1.00  0.00    -0.000 C 
BRANCH  19  20
ATOM     20  C   UNL     1      19.074 -36.529  22.339  1.00  0.00    -0.000 C 
BRANCH  20  21
ATOM     21  C   UNL     1      18.800 -36.671  23.844  1.00  0.00    -0.000 C 
BRANCH  21  22
ATOM     22  C   UNL     1      18.540 -35.300  24.486  1.00  0.00    -0.000 C 
BRANCH  22  23
ATOM     23  C   UNL     1      17.135 -35.190  25.098  1.00  0.00    -0.000 C 
BRANCH  23  24
ATOM     24  C   UNL     1      16.605 -33.745  25.108  1.00  0.00    -0.000 C 
BRANCH  24  25
ATOM     25  C   UNL     1      17.536 -32.773  24.369  1.00  0.00    -0.003 C 
ATOM     26  C   UNL     1      18.007 -31.619  25.253  1.00  0.00     0.004 C 
ENDBRANCH  24  25
ENDBRANCH  23  24
ENDBRANCH  22  23
ENDBRANCH  21  22
ENDBRANCH  20  21
ENDBRANCH  19  20
ENDBRANCH  18  19
ENDBRANCH  17  18
ENDBRANCH  16  17
ENDBRANCH  15  16
ENDBRANCH   1  15
TORSDOF 22
ENDMDL
