MODEL 1
REMARK VINA RESULT:    -0.288      0.000      0.000
REMARK INTER + INTRA:          -1.616
REMARK INTER:                  -0.624
REMARK INTRA:                  -0.992
REMARK UNBOUND:                -0.992
REMARK SMILES CCCCCCCCCCCCCCCCCCCCCC(=O)[O-]
REMARK SMILES IDX 12 1 11 2 10 3 9 4 8 5 7 6 6 7 5 8 4 9 3 10 2 11 1 12 13 13
REMARK SMILES IDX 14 14 15 15 16 16 17 17 18 18 19 19 20 20 21 21 22 22 23 23
REMARK SMILES IDX 24 24
REMARK H PARENT
REMARK Flexibility Score: inf
ROOT
ATOM      1  C   UNL     1     -24.618   2.816 -32.947  1.00  0.00     0.000 C 
ENDROOT
BRANCH   1   2
ATOM      2  C   UNL     1     -24.912   4.292 -32.620  1.00  0.00     0.000 C 
BRANCH   2   3
ATOM      3  C   UNL     1     -26.383   4.550 -32.258  1.00  0.00     0.000 C 
BRANCH   3   4
ATOM      4  C   UNL     1     -27.151   5.121 -33.461  1.00  0.00    -0.000 C 
BRANCH   4   5
ATOM      5  C   UNL     1     -28.603   4.622 -33.533  1.00  0.00    -0.000 C 
BRANCH   5   6
ATOM      6  C   UNL     1     -28.721   3.248 -34.217  1.00  0.00    -0.000 C 
BRANCH   6   7
ATOM      7  C   UNL     1     -29.124   3.356 -35.696  1.00  0.00    -0.000 C 
BRANCH   7   8
ATOM      8  C   UNL     1     -28.560   4.615 -36.376  1.00  0.00    -0.000 C 
BRANCH   8   9
ATOM      9  C   UNL     1     -28.371   4.433 -37.891  1.00  0.00    -0.000 C 
BRANCH   9  10
ATOM     10  C   UNL     1     -27.098   5.122 -38.415  1.00  0.00    -0.000 C 
BRANCH  10  11
ATOM     11  C   UNL     1     -25.927   4.143 -38.582  1.00  0.00    -0.003 C 
ATOM     12  C   UNL     1     -24.641   4.835 -39.035  1.00  0.00     0.004 C 
ENDBRANCH  10  11
ENDBRANCH   9  10
ENDBRANCH   8   9
ENDBRANCH   7   8
ENDBRANCH   6   7
ENDBRANCH   5   6
ENDBRANCH   4   5
ENDBRANCH   3   4
ENDBRANCH   2   3
ENDBRANCH   1   2
BRANCH   1  13
ATOM     13  C   UNL     1     -25.262   2.303 -34.252  1.00  0.00     0.000 C 
BRANCH  13  14
ATOM     14  C   UNL     1     -24.950   3.167 -35.493  1.00  0.00     0.000 C 
BRANCH  14  15
ATOM     15  C   UNL     1     -24.071   4.398 -35.200  1.00  0.00     0.000 C 
BRANCH  15  16
ATOM     16  C   UNL     1     -22.654   4.308 -35.799  1.00  0.00     0.000 C 
BRANCH  16  17
ATOM     17  C   UNL     1     -22.269   2.870 -36.178  1.00  0.00     0.000 C 
BRANCH  17  18
ATOM     18  C   UNL     1     -22.142   2.720 -37.700  1.00  0.00     0.000 C 
BRANCH  18  19
ATOM     19  C   UNL     1     -23.385   2.081 -38.337  1.00  0.00     0.000 C 
BRANCH  19  20
ATOM     20  C   UNL     1     -23.056   0.800 -39.125  1.00  0.00     0.006 C 
BRANCH  20  21
ATOM     21  C   UNL     1     -22.418  -0.277 -38.239  1.00  0.00     0.053 C 
BRANCH  21  22
ATOM     22  C   UNL     1     -23.026  -1.625 -38.476  1.00  0.00     0.041 C 
ATOM     23  O   UNL     1     -24.164  -1.722 -39.008  1.00  0.00    -0.550 OA
ATOM     24  O   UNL     1     -22.319  -2.775 -38.151  1.00  0.00    -0.550 OA
ENDBRANCH  21  22
ENDBRANCH  20  21
ENDBRANCH  19  20
ENDBRANCH  18  19
ENDBRANCH  17  18
ENDBRANCH  16  17
ENDBRANCH  15  16
ENDBRANCH  14  15
ENDBRANCH  13  14
ENDBRANCH   1  13
TORSDOF 20
ENDMDL
MODEL 2
REMARK VINA RESULT:    -0.215      2.204      6.419
REMARK INTER + INTRA:          -1.459
REMARK INTER:                  -0.819
REMARK INTRA:                  -0.639
REMARK UNBOUND:                -0.992
REMARK SMILES CCCCCCCCCCCCCCCCCCCCCC(=O)[O-]
REMARK SMILES IDX 12 1 11 2 10 3 9 4 8 5 7 6 6 7 5 8 4 9 3 10 2 11 1 12 13 13
REMARK SMILES IDX 14 14 15 15 16 16 17 17 18 18 19 19 20 20 21 21 22 22 23 23
REMARK SMILES IDX 24 24
REMARK H PARENT
REMARK Flexibility Score: inf
ROOT
ATOM      1  C   UNL     1     -24.741   2.764 -34.131  1.00  0.00     0.000 C 
ENDROOT
BRANCH   1   2
ATOM      2  C   UNL     1     -23.368   3.409 -33.863  1.00  0.00     0.000 C 
BRANCH   2   3
ATOM      3  C   UNL     1     -22.207   2.403 -33.908  1.00  0.00     0.000 C 
BRANCH   3   4
ATOM      4  C   UNL     1     -22.262   1.564 -35.195  1.00  0.00    -0.000 C 
BRANCH   4   5
ATOM      5  C   UNL     1     -22.772   2.361 -36.406  1.00  0.00    -0.000 C 
BRANCH   5   6
ATOM      6  C   UNL     1     -23.253   1.452 -37.551  1.00  0.00    -0.000 C 
BRANCH   6   7
ATOM      7  C   UNL     1     -22.334   0.239 -37.769  1.00  0.00    -0.000 C 
BRANCH   7   8
ATOM      8  C   UNL     1     -22.608  -0.482 -39.100  1.00  0.00    -0.000 C 
BRANCH   8   9
ATOM      9  C   UNL     1     -23.744  -1.511 -38.990  1.00  0.00    -0.000 C 
BRANCH   9  10
ATOM     10  C   UNL     1     -23.232  -2.925 -38.666  1.00  0.00    -0.000 C 
BRANCH  10  11
ATOM     11  C   UNL     1     -21.714  -2.962 -38.437  1.00  0.00    -0.003 C 
ATOM     12  C   UNL     1     -21.338  -2.855 -36.959  1.00  0.00     0.004 C 
ENDBRANCH  10  11
ENDBRANCH   9  10
ENDBRANCH   8   9
ENDBRANCH   7   8
ENDBRANCH   6   7
ENDBRANCH   5   6
ENDBRANCH   4   5
ENDBRANCH   3   4
ENDBRANCH   2   3
ENDBRANCH   1   2
BRANCH   1  13
ATOM     13  C   UNL     1     -25.830   3.111 -33.095  1.00  0.00     0.000 C 
BRANCH  13  14
ATOM     14  C   UNL     1     -26.279   4.588 -33.120  1.00  0.00     0.000 C 
BRANCH  14  15
ATOM     15  C   UNL     1     -27.685   4.810 -33.709  1.00  0.00     0.000 C 
BRANCH  15  16
ATOM     16  C   UNL     1     -28.329   3.532 -34.283  1.00  0.00     0.000 C 
BRANCH  16  17
ATOM     17  C   UNL     1     -29.125   3.804 -35.569  1.00  0.00     0.000 C 
BRANCH  17  18
ATOM     18  C   UNL     1     -28.572   5.033 -36.305  1.00  0.00     0.000 C 
BRANCH  18  19
ATOM     19  C   UNL     1     -28.528   4.839 -37.828  1.00  0.00     0.000 C 
BRANCH  19  20
ATOM     20  C   UNL     1     -27.132   5.099 -38.420  1.00  0.00     0.006 C 
BRANCH  20  21
ATOM     21  C   UNL     1     -26.039   5.106 -37.344  1.00  0.00     0.053 C 
BRANCH  21  22
ATOM     22  C   UNL     1     -24.700   4.745 -37.910  1.00  0.00     0.041 C 
ATOM     23  O   UNL     1     -23.648   5.010 -37.269  1.00  0.00    -0.550 OA
ATOM     24  O   UNL     1     -24.614   4.077 -39.124  1.00  0.00    -0.550 OA
ENDBRANCH  21  22
ENDBRANCH  20  21
ENDBRANCH  19  20
ENDBRANCH  18  19
ENDBRANCH  17  18
ENDBRANCH  16  17
ENDBRANCH  15  16
ENDBRANCH  14  15
ENDBRANCH  13  14
ENDBRANCH   1  13
TORSDOF 20
ENDMDL
MODEL 3
REMARK VINA RESULT:     2.188     14.055     16.527
REMARK INTER + INTRA:           3.755
REMARK INTER:                   4.409
REMARK INTRA:                  -0.654
REMARK UNBOUND:                -0.992
REMARK SMILES CCCCCCCCCCCCCCCCCCCCCC(=O)[O-]
REMARK SMILES IDX 12 1 11 2 10 3 9 4 8 5 7 6 6 7 5 8 4 9 3 10 2 11 1 12 13 13
REMARK SMILES IDX 14 14 15 15 16 16 17 17 18 18 19 19 20 20 21 21 22 22 23 23
REMARK SMILES IDX 24 24
REMARK H PARENT
REMARK Flexibility Score: inf
ROOT
ATOM      1  C   UNL     1      -9.271  -1.217 -38.223  1.00  0.00     0.000 C 
ENDROOT
BRANCH   1   2
ATOM      2  C   UNL     1      -9.914  -2.371 -39.015  1.00  0.00     0.000 C 
BRANCH   2   3
ATOM      3  C   UNL     1      -9.009  -3.609 -39.124  1.00  0.00     0.000 C 
BRANCH   3   4
ATOM      4  C   UNL     1      -9.561  -4.766 -38.276  1.00  0.00    -0.000 C 
BRANCH   4   5
ATOM      5  C   UNL     1     -10.822  -4.378 -37.488  1.00  0.00    -0.000 C 
BRANCH   5   6
ATOM      6  C   UNL     1     -11.258  -5.474 -36.498  1.00  0.00    -0.000 C 
BRANCH   6   7
ATOM      7  C   UNL     1     -11.276  -4.982 -35.042  1.00  0.00    -0.000 C 
BRANCH   7   8
ATOM      8  C   UNL     1     -12.409  -3.978 -34.768  1.00  0.00    -0.000 C 
BRANCH   8   9
ATOM      9  C   UNL     1     -11.893  -2.542 -34.587  1.00  0.00    -0.000 C 
BRANCH   9  10
ATOM     10  C   UNL     1     -10.499  -2.332 -35.206  1.00  0.00    -0.000 C 
BRANCH  10  11
ATOM     11  C   UNL     1     -10.157  -0.846 -35.392  1.00  0.00    -0.003 C 
ATOM     12  C   UNL     1     -11.319  -0.041 -35.973  1.00  0.00     0.004 C 
ENDBRANCH  10  11
ENDBRANCH   9  10
ENDBRANCH   8   9
ENDBRANCH   7   8
ENDBRANCH   6   7
ENDBRANCH   5   6
ENDBRANCH   4   5
ENDBRANCH   3   4
ENDBRANCH   2   3
ENDBRANCH   1   2
BRANCH   1  13
ATOM     13  C   UNL     1      -8.965   0.045 -39.056  1.00  0.00     0.000 C 
BRANCH  13  14
ATOM     14  C   UNL     1      -9.406   1.366 -38.388  1.00  0.00     0.000 C 
BRANCH  14  15
ATOM     15  C   UNL     1     -10.864   1.765 -38.684  1.00  0.00     0.000 C 
BRANCH  15  16
ATOM     16  C   UNL     1     -11.515   2.614 -37.573  1.00  0.00     0.000 C 
BRANCH  16  17
ATOM     17  C   UNL     1     -12.015   3.971 -38.091  1.00  0.00     0.000 C 
BRANCH  17  18
ATOM     18  C   UNL     1     -11.235   5.125 -37.444  1.00  0.00     0.000 C 
BRANCH  18  19
ATOM     19  C   UNL     1      -9.730   5.063 -37.743  1.00  0.00     0.000 C 
BRANCH  19  20
ATOM     20  C   UNL     1      -8.875   4.965 -36.467  1.00  0.00     0.006 C 
BRANCH  20  21
ATOM     21  C   UNL     1      -9.722   5.077 -35.192  1.00  0.00     0.053 C 
BRANCH  21  22
ATOM     22  C   UNL     1      -9.689   3.813 -34.390  1.00  0.00     0.041 C 
ATOM     23  O   UNL     1      -9.293   2.739 -34.915  1.00  0.00    -0.550 OA
ATOM     24  O   UNL     1     -10.053   3.829 -33.050  1.00  0.00    -0.550 OA
ENDBRANCH  21  22
ENDBRANCH  20  21
ENDBRANCH  19  20
ENDBRANCH  18  19
ENDBRANCH  17  18
ENDBRANCH  16  17
ENDBRANCH  15  16
ENDBRANCH  14  15
ENDBRANCH  13  14
ENDBRANCH   1  13
TORSDOF 20
ENDMDL
MODEL 4
REMARK VINA RESULT:     2.430     13.577     15.925
REMARK INTER + INTRA:           4.280
REMARK INTER:                   4.195
REMARK INTRA:                   0.085
REMARK UNBOUND:                -0.992
REMARK SMILES CCCCCCCCCCCCCCCCCCCCCC(=O)[O-]
REMARK SMILES IDX 12 1 11 2 10 3 9 4 8 5 7 6 6 7 5 8 4 9 3 10 2 11 1 12 13 13
REMARK SMILES IDX 14 14 15 15 16 16 17 17 18 18 19 19 20 20 21 21 22 22 23 23
REMARK SMILES IDX 24 24
REMARK H PARENT
REMARK Flexibility Score: inf
ROOT
ATOM      1  C   UNL     1     -10.483  -0.557 -35.795  1.00  0.00     0.000 C 
ENDROOT
BRANCH   1   2
ATOM      2  C   UNL     1     -10.148   0.848 -36.331  1.00  0.00     0.000 C 
BRANCH   2   3
ATOM      3  C   UNL     1     -10.585   1.059 -37.789  1.00  0.00     0.000 C 
BRANCH   3   4
ATOM      4  C   UNL     1     -12.009   1.634 -37.855  1.00  0.00    -0.000 C 
BRANCH   4   5
ATOM      5  C   UNL     1     -12.109   3.047 -37.257  1.00  0.00    -0.000 C 
BRANCH   5   6
ATOM      6  C   UNL     1     -11.152   4.043 -37.934  1.00  0.00    -0.000 C 
BRANCH   6   7
ATOM      7  C   UNL     1     -10.642   5.125 -36.969  1.00  0.00    -0.000 C 
BRANCH   7   8
ATOM      8  C   UNL     1      -9.170   4.921 -36.572  1.00  0.00    -0.000 C 
BRANCH   8   9
ATOM      9  C   UNL     1      -8.938   5.082 -35.061  1.00  0.00    -0.000 C 
BRANCH   9  10
ATOM     10  C   UNL     1     -10.169   4.683 -34.229  1.00  0.00    -0.000 C 
BRANCH  10  11
ATOM     11  C   UNL     1      -9.869   3.539 -33.249  1.00  0.00    -0.003 C 
ATOM     12  C   UNL     1      -9.221   4.027 -31.953  1.00  0.00     0.004 C 
ENDBRANCH  10  11
ENDBRANCH   9  10
ENDBRANCH   8   9
ENDBRANCH   7   8
ENDBRANCH   6   7
ENDBRANCH   5   6
ENDBRANCH   4   5
ENDBRANCH   3   4
ENDBRANCH   2   3
ENDBRANCH   1   2
BRANCH   1  13
ATOM     13  C   UNL     1     -10.286  -1.700 -36.814  1.00  0.00     0.000 C 
BRANCH  13  14
ATOM     14  C   UNL     1      -9.963  -1.222 -38.246  1.00  0.00     0.000 C 
BRANCH  14  15
ATOM     15  C   UNL     1      -9.277  -2.285 -39.125  1.00  0.00     0.000 C 
BRANCH  15  16
ATOM     16  C   UNL     1      -9.928  -3.679 -39.040  1.00  0.00     0.000 C 
BRANCH  16  17
ATOM     17  C   UNL     1      -8.887  -4.807 -38.972  1.00  0.00     0.000 C 
BRANCH  17  18
ATOM     18  C   UNL     1      -9.336  -5.909 -38.000  1.00  0.00     0.000 C 
BRANCH  18  19
ATOM     19  C   UNL     1     -10.772  -5.703 -37.495  1.00  0.00     0.000 C 
BRANCH  19  20
ATOM     20  C   UNL     1     -10.823  -5.168 -36.054  1.00  0.00     0.006 C 
BRANCH  20  21
ATOM     21  C   UNL     1     -11.823  -4.014 -35.900  1.00  0.00     0.053 C 
BRANCH  21  22
ATOM     22  C   UNL     1     -12.204  -3.796 -34.468  1.00  0.00     0.041 C 
ATOM     23  O   UNL     1     -11.909  -2.716 -33.890  1.00  0.00    -0.550 OA
ATOM     24  O   UNL     1     -12.924  -4.766 -33.783  1.00  0.00    -0.550 OA
ENDBRANCH  21  22
ENDBRANCH  20  21
ENDBRANCH  19  20
ENDBRANCH  18  19
ENDBRANCH  17  18
ENDBRANCH  16  17
ENDBRANCH  15  16
ENDBRANCH  14  15
ENDBRANCH  13  14
ENDBRANCH   1  13
TORSDOF 20
ENDMDL
