MODEL 1
REMARK VINA RESULT:    -7.163      0.000      0.000
REMARK INTER + INTRA:          -8.633
REMARK INTER:                  -8.420
REMARK INTRA:                  -0.213
REMARK UNBOUND:                -0.213
REMARK SMILES O=c1c(O)c(-c2ccc(O)cc2)oc2cc(O)cc(O)c12
REMARK SMILES IDX 5 1 3 2 2 3 1 4 21 5 19 6 18 7 16 8 15 9 14 10 13 11 6 12
REMARK SMILES IDX 7 13 8 14 9 15 12 16 11 17 10 18 4 20 20 22 17 24
REMARK H PARENT 10 19 4 21 20 23 17 25
REMARK Flexibility Score: inf
ROOT
ATOM      1  C   UNL     1       2.502  -2.284  16.234  1.00  0.00     0.180 A 
ATOM      2  C   UNL     1       2.423  -2.567  17.608  1.00  0.00     0.208 A 
ATOM      3  C   UNL     1       3.610  -2.755  18.335  1.00  0.00     0.238 A 
ATOM      4  O   UNL     1       3.533  -2.954  19.576  1.00  0.00    -0.285 OA
ATOM      5  C   UNL     1       4.859  -2.676  17.675  1.00  0.00     0.111 A 
ATOM      6  C   UNL     1       6.123  -2.890  18.305  1.00  0.00     0.134 A 
ATOM      7  C   UNL     1       7.301  -2.657  17.584  1.00  0.00     0.093 A 
ATOM      8  C   UNL     1       7.261  -2.281  16.239  1.00  0.00     0.123 A 
ATOM      9  C   UNL     1       6.033  -2.127  15.600  1.00  0.00     0.094 A 
ATOM     10  C   UNL     1       4.840  -2.317  16.303  1.00  0.00     0.146 A 
ATOM     11  O   UNL     1       3.692  -2.150  15.658  1.00  0.00    -0.452 OA
ENDROOT
BRANCH   1  12
ATOM     12  C   UNL     1       1.296  -2.097  15.396  1.00  0.00     0.021 A 
ATOM     13  C   UNL     1       0.566  -0.900  15.492  1.00  0.00     0.016 A 
ATOM     14  C   UNL     1      -0.563  -0.694  14.694  1.00  0.00     0.047 A 
ATOM     15  C   UNL     1      -0.968  -1.672  13.779  1.00  0.00     0.115 A 
ATOM     16  C   UNL     1       0.896  -3.068  14.460  1.00  0.00     0.016 A 
ATOM     17  C   UNL     1      -0.234  -2.858  13.662  1.00  0.00     0.047 A 
BRANCH  15  18
ATOM     18  O   UNL     1      -2.095  -1.453  12.992  1.00  0.00    -0.508 OA
ATOM     19  H   UNL     1      -2.603  -2.221  12.569  1.00  0.00     0.293 HD
ENDBRANCH  15  18
ENDBRANCH   1  12
BRANCH   2  20
ATOM     20  O   UNL     1       1.179  -2.618  18.244  1.00  0.00    -0.502 OA
ATOM     21  H   UNL     1       0.344  -2.955  17.780  1.00  0.00     0.293 HD
ENDBRANCH   2  20
BRANCH   6  22
ATOM     22  O   UNL     1       6.274  -3.353  19.615  1.00  0.00    -0.507 OA
ATOM     23  H   UNL     1       7.128  -3.299  20.149  1.00  0.00     0.293 HD
ENDBRANCH   6  22
BRANCH   8  24
ATOM     24  O   UNL     1       8.439  -2.066  15.526  1.00  0.00    -0.508 OA
ATOM     25  H   UNL     1       9.059  -2.831  15.284  1.00  0.00     0.293 HD
ENDBRANCH   8  24
TORSDOF 5
ENDMDL
MODEL 2
REMARK VINA RESULT:    -7.112      1.245      2.968
REMARK INTER + INTRA:          -8.573
REMARK INTER:                  -8.347
REMARK INTRA:                  -0.226
REMARK UNBOUND:                -0.213
REMARK SMILES O=c1c(O)c(-c2ccc(O)cc2)oc2cc(O)cc(O)c12
REMARK SMILES IDX 5 1 3 2 2 3 1 4 21 5 19 6 18 7 16 8 15 9 14 10 13 11 6 12
REMARK SMILES IDX 7 13 8 14 9 15 12 16 11 17 10 18 4 20 20 22 17 24
REMARK H PARENT 10 19 4 21 20 23 17 25
REMARK Flexibility Score: inf
ROOT
ATOM      1  C   UNL     1       2.879  -2.234  15.912  1.00  0.00     0.180 A 
ATOM      2  C   UNL     1       4.127  -2.140  15.274  1.00  0.00     0.208 A 
ATOM      3  C   UNL     1       5.296  -2.304  16.036  1.00  0.00     0.238 A 
ATOM      4  O   UNL     1       6.409  -2.273  15.449  1.00  0.00    -0.285 OA
ATOM      5  C   UNL     1       5.201  -2.543  17.428  1.00  0.00     0.111 A 
ATOM      6  C   UNL     1       6.320  -2.684  18.304  1.00  0.00     0.134 A 
ATOM      7  C   UNL     1       6.109  -3.048  19.640  1.00  0.00     0.093 A 
ATOM      8  C   UNL     1       4.817  -3.212  20.147  1.00  0.00     0.123 A 
ATOM      9  C   UNL     1       3.718  -3.018  19.315  1.00  0.00     0.094 A 
ATOM     10  C   UNL     1       3.897  -2.690  17.968  1.00  0.00     0.146 A 
ATOM     11  O   UNL     1       2.822  -2.525  17.207  1.00  0.00    -0.452 OA
ENDROOT
BRANCH   1  12
ATOM     12  C   UNL     1       1.604  -2.049  15.182  1.00  0.00     0.021 A 
ATOM     13  C   UNL     1       0.910  -0.832  15.297  1.00  0.00     0.016 A 
ATOM     14  C   UNL     1      -0.283  -0.629  14.598  1.00  0.00     0.047 A 
ATOM     15  C   UNL     1      -0.790  -1.630  13.763  1.00  0.00     0.115 A 
ATOM     16  C   UNL     1       1.101  -3.044  14.324  1.00  0.00     0.016 A 
ATOM     17  C   UNL     1      -0.093  -2.837  13.625  1.00  0.00     0.047 A 
BRANCH  15  18
ATOM     18  O   UNL     1      -1.980  -1.414  13.073  1.00  0.00    -0.508 OA
ATOM     19  H   UNL     1      -2.880  -1.599  13.500  1.00  0.00     0.293 HD
ENDBRANCH  15  18
ENDBRANCH   1  12
BRANCH   2  20
ATOM     20  O   UNL     1       4.198  -1.926  13.895  1.00  0.00    -0.502 OA
ATOM     21  H   UNL     1       4.038  -1.017  13.476  1.00  0.00     0.293 HD
ENDBRANCH   2  20
BRANCH   6  22
ATOM     22  O   UNL     1       7.645  -2.453  17.922  1.00  0.00    -0.507 OA
ATOM     23  H   UNL     1       8.150  -1.595  18.089  1.00  0.00     0.293 HD
ENDBRANCH   6  22
BRANCH   8  24
ATOM     24  O   UNL     1       4.617  -3.559  21.481  1.00  0.00    -0.508 OA
ATOM     25  H   UNL     1       4.808  -4.494  21.821  1.00  0.00     0.293 HD
ENDBRANCH   8  24
TORSDOF 5
ENDMDL
MODEL 3
REMARK VINA RESULT:    -7.061      2.162      6.763
REMARK INTER + INTRA:          -8.512
REMARK INTER:                  -8.286
REMARK INTRA:                  -0.226
REMARK UNBOUND:                -0.213
REMARK SMILES O=c1c(O)c(-c2ccc(O)cc2)oc2cc(O)cc(O)c12
REMARK SMILES IDX 5 1 3 2 2 3 1 4 21 5 19 6 18 7 16 8 15 9 14 10 13 11 6 12
REMARK SMILES IDX 7 13 8 14 9 15 12 16 11 17 10 18 4 20 20 22 17 24
REMARK H PARENT 10 19 4 21 20 23 17 25
REMARK Flexibility Score: inf
ROOT
ATOM      1  C   UNL     1       4.723  -2.340  17.192  1.00  0.00     0.180 A 
ATOM      2  C   UNL     1       5.686  -2.302  16.169  1.00  0.00     0.208 A 
ATOM      3  C   UNL     1       5.299  -1.885  14.885  1.00  0.00     0.238 A 
ATOM      4  O   UNL     1       6.177  -1.802  13.986  1.00  0.00    -0.285 OA
ATOM      5  C   UNL     1       3.952  -1.529  14.636  1.00  0.00     0.111 A 
ATOM      6  C   UNL     1       3.440  -1.131  13.363  1.00  0.00     0.134 A 
ATOM      7  C   UNL     1       2.120  -0.675  13.263  1.00  0.00     0.093 A 
ATOM      8  C   UNL     1       1.274  -0.663  14.375  1.00  0.00     0.123 A 
ATOM      9  C   UNL     1       1.747  -1.105  15.608  1.00  0.00     0.094 A 
ATOM     10  C   UNL     1       3.070  -1.532  15.748  1.00  0.00     0.146 A 
ATOM     11  O   UNL     1       3.482  -1.935  16.944  1.00  0.00    -0.452 OA
ENDROOT
BRANCH   1  12
ATOM     12  C   UNL     1       5.049  -2.790  18.565  1.00  0.00     0.021 A 
ATOM     13  C   UNL     1       4.675  -4.080  18.977  1.00  0.00     0.016 A 
ATOM     14  C   UNL     1       4.992  -4.533  20.261  1.00  0.00     0.047 A 
ATOM     15  C   UNL     1       5.701  -3.710  21.143  1.00  0.00     0.115 A 
ATOM     16  C   UNL     1       5.780  -1.975  19.449  1.00  0.00     0.016 A 
ATOM     17  C   UNL     1       6.097  -2.431  20.732  1.00  0.00     0.047 A 
BRANCH  15  18
ATOM     18  O   UNL     1       6.010  -4.174  22.419  1.00  0.00    -0.508 OA
ATOM     19  H   UNL     1       6.956  -4.432  22.674  1.00  0.00     0.293 HD
ENDBRANCH  15  18
ENDBRANCH   1  12
BRANCH   2  20
ATOM     20  O   UNL     1       7.015  -2.637  16.442  1.00  0.00    -0.502 OA
ATOM     21  H   UNL     1       7.276  -3.252  17.203  1.00  0.00     0.293 HD
ENDBRANCH   2  20
BRANCH   6  22
ATOM     22  O   UNL     1       4.172  -1.192  12.174  1.00  0.00    -0.507 OA
ATOM     23  H   UNL     1       3.779  -1.086  11.251  1.00  0.00     0.293 HD
ENDBRANCH   6  22
BRANCH   8  24
ATOM     24  O   UNL     1      -0.043  -0.222  14.261  1.00  0.00    -0.508 OA
ATOM     25  H   UNL     1      -0.780  -0.832  13.927  1.00  0.00     0.293 HD
ENDBRANCH   8  24
TORSDOF 5
ENDMDL
MODEL 4
REMARK VINA RESULT:    -7.003      2.288      6.053
REMARK INTER + INTRA:          -8.444
REMARK INTER:                  -8.195
REMARK INTRA:                  -0.249
REMARK UNBOUND:                -0.213
REMARK SMILES O=c1c(O)c(-c2ccc(O)cc2)oc2cc(O)cc(O)c12
REMARK SMILES IDX 5 1 3 2 2 3 1 4 21 5 19 6 18 7 16 8 15 9 14 10 13 11 6 12
REMARK SMILES IDX 7 13 8 14 9 15 12 16 11 17 10 18 4 20 20 22 17 24
REMARK H PARENT 10 19 4 21 20 23 17 25
REMARK Flexibility Score: inf
ROOT
ATOM      1  C   UNL     1       3.403  -2.508  17.311  1.00  0.00     0.180 A 
ATOM      2  C   UNL     1       2.067  -2.078  17.386  1.00  0.00     0.208 A 
ATOM      3  C   UNL     1       1.466  -1.520  16.245  1.00  0.00     0.238 A 
ATOM      4  O   UNL     1       0.253  -1.187  16.303  1.00  0.00    -0.285 OA
ATOM      5  C   UNL     1       2.213  -1.384  15.051  1.00  0.00     0.111 A 
ATOM      6  C   UNL     1       1.718  -0.796  13.848  1.00  0.00     0.134 A 
ATOM      7  C   UNL     1       2.502  -0.833  12.688  1.00  0.00     0.093 A 
ATOM      8  C   UNL     1       3.788  -1.377  12.705  1.00  0.00     0.123 A 
ATOM      9  C   UNL     1       4.303  -1.900  13.889  1.00  0.00     0.094 A 
ATOM     10  C   UNL     1       3.531  -1.910  15.054  1.00  0.00     0.146 A 
ATOM     11  O   UNL     1       4.056  -2.427  16.157  1.00  0.00    -0.452 OA
ENDROOT
BRANCH   1  12
ATOM     12  C   UNL     1       4.112  -3.083  18.477  1.00  0.00     0.021 A 
ATOM     13  C   UNL     1       4.978  -2.273  19.229  1.00  0.00     0.016 A 
ATOM     14  C   UNL     1       5.640  -2.790  20.346  1.00  0.00     0.047 A 
ATOM     15  C   UNL     1       5.433  -4.117  20.736  1.00  0.00     0.115 A 
ATOM     16  C   UNL     1       3.891  -4.412  18.886  1.00  0.00     0.016 A 
ATOM     17  C   UNL     1       4.554  -4.926  20.005  1.00  0.00     0.047 A 
BRANCH  15  18
ATOM     18  O   UNL     1       6.099  -4.620  21.851  1.00  0.00    -0.508 OA
ATOM     19  H   UNL     1       5.601  -5.080  22.603  1.00  0.00     0.293 HD
ENDBRANCH  15  18
ENDBRANCH   1  12
BRANCH   2  20
ATOM     20  O   UNL     1       1.340  -2.242  18.569  1.00  0.00    -0.502 OA
ATOM     21  H   UNL     1       1.194  -3.149  18.996  1.00  0.00     0.293 HD
ENDBRANCH   2  20
BRANCH   6  22
ATOM     22  O   UNL     1       0.485  -0.145  13.747  1.00  0.00    -0.507 OA
ATOM     23  H   UNL     1      -0.045   0.206  14.531  1.00  0.00     0.293 HD
ENDBRANCH   6  22
BRANCH   8  24
ATOM     24  O   UNL     1       4.567  -1.395  11.550  1.00  0.00    -0.508 OA
ATOM     25  H   UNL     1       5.226  -2.143  11.365  1.00  0.00     0.293 HD
ENDBRANCH   8  24
TORSDOF 5
ENDMDL
MODEL 5
REMARK VINA RESULT:    -6.980      2.310      6.109
REMARK INTER + INTRA:          -8.417
REMARK INTER:                  -8.160
REMARK INTRA:                  -0.257
REMARK UNBOUND:                -0.213
REMARK SMILES O=c1c(O)c(-c2ccc(O)cc2)oc2cc(O)cc(O)c12
REMARK SMILES IDX 5 1 3 2 2 3 1 4 21 5 19 6 18 7 16 8 15 9 14 10 13 11 6 12
REMARK SMILES IDX 7 13 8 14 9 15 12 16 11 17 10 18 4 20 20 22 17 24
REMARK H PARENT 10 19 4 21 20 23 17 25
REMARK Flexibility Score: inf
ROOT
ATOM      1  C   UNL     1       3.350  -2.521  17.360  1.00  0.00     0.180 A 
ATOM      2  C   UNL     1       2.015  -2.085  17.412  1.00  0.00     0.208 A 
ATOM      3  C   UNL     1       1.437  -1.522  16.263  1.00  0.00     0.238 A 
ATOM      4  O   UNL     1       0.225  -1.183  16.300  1.00  0.00    -0.285 OA
ATOM      5  C   UNL     1       2.205  -1.388  15.082  1.00  0.00     0.111 A 
ATOM      6  C   UNL     1       1.734  -0.795  13.871  1.00  0.00     0.134 A 
ATOM      7  C   UNL     1       2.538  -0.834  12.725  1.00  0.00     0.093 A 
ATOM      8  C   UNL     1       3.821  -1.386  12.763  1.00  0.00     0.123 A 
ATOM      9  C   UNL     1       4.312  -1.913  13.955  1.00  0.00     0.094 A 
ATOM     10  C   UNL     1       3.520  -1.921  15.106  1.00  0.00     0.146 A 
ATOM     11  O   UNL     1       4.024  -2.443  16.218  1.00  0.00    -0.452 OA
ENDROOT
BRANCH   1  12
ATOM     12  C   UNL     1       4.036  -3.103  18.537  1.00  0.00     0.021 A 
ATOM     13  C   UNL     1       3.823  -4.452  18.866  1.00  0.00     0.016 A 
ATOM     14  C   UNL     1       4.478  -5.026  19.959  1.00  0.00     0.047 A 
ATOM     15  C   UNL     1       5.366  -4.265  20.727  1.00  0.00     0.115 A 
ATOM     16  C   UNL     1       4.946  -2.348  19.300  1.00  0.00     0.016 A 
ATOM     17  C   UNL     1       5.601  -2.926  20.393  1.00  0.00     0.047 A 
BRANCH  15  18
ATOM     18  O   UNL     1       6.011  -4.850  21.814  1.00  0.00    -0.508 OA
ATOM     19  H   UNL     1       6.987  -5.118  21.769  1.00  0.00     0.293 HD
ENDBRANCH  15  18
ENDBRANCH   1  12
BRANCH   2  20
ATOM     20  O   UNL     1       1.268  -2.247  18.582  1.00  0.00    -0.502 OA
ATOM     21  H   UNL     1       0.327  -2.624  18.579  1.00  0.00     0.293 HD
ENDBRANCH   2  20
BRANCH   6  22
ATOM     22  O   UNL     1       0.506  -0.138  13.750  1.00  0.00    -0.507 OA
ATOM     23  H   UNL     1       0.306   0.587  13.079  1.00  0.00     0.293 HD
ENDBRANCH   6  22
BRANCH   8  24
ATOM     24  O   UNL     1       4.619  -1.406  11.622  1.00  0.00    -0.508 OA
ATOM     25  H   UNL     1       5.162  -2.223  11.368  1.00  0.00     0.293 HD
ENDBRANCH   8  24
TORSDOF 5
ENDMDL
MODEL 6
REMARK VINA RESULT:    -6.945      1.938      7.080
REMARK INTER + INTRA:          -8.376
REMARK INTER:                  -8.084
REMARK INTRA:                  -0.292
REMARK UNBOUND:                -0.213
REMARK SMILES O=c1c(O)c(-c2ccc(O)cc2)oc2cc(O)cc(O)c12
REMARK SMILES IDX 5 1 3 2 2 3 1 4 21 5 19 6 18 7 16 8 15 9 14 10 13 11 6 12
REMARK SMILES IDX 7 13 8 14 9 15 12 16 11 17 10 18 4 20 20 22 17 24
REMARK H PARENT 10 19 4 21 20 23 17 25
REMARK Flexibility Score: inf
ROOT
ATOM      1  C   UNL     1       2.476  -2.244  14.752  1.00  0.00     0.180 A 
ATOM      2  C   UNL     1       1.635  -1.118  14.761  1.00  0.00     0.208 A 
ATOM      3  C   UNL     1       0.386  -1.196  14.123  1.00  0.00     0.238 A 
ATOM      4  O   UNL     1      -0.385  -0.202  14.181  1.00  0.00    -0.285 OA
ATOM      5  C   UNL     1       0.002  -2.392  13.471  1.00  0.00     0.111 A 
ATOM      6  C   UNL     1      -1.223  -2.569  12.758  1.00  0.00     0.134 A 
ATOM      7  C   UNL     1      -1.556  -3.836  12.264  1.00  0.00     0.093 A 
ATOM      8  C   UNL     1      -0.680  -4.916  12.399  1.00  0.00     0.123 A 
ATOM      9  C   UNL     1       0.543  -4.739  13.041  1.00  0.00     0.094 A 
ATOM     10  C   UNL     1       0.888  -3.495  13.577  1.00  0.00     0.146 A 
ATOM     11  O   UNL     1       2.059  -3.373  14.189  1.00  0.00    -0.452 OA
ENDROOT
BRANCH   1  12
ATOM     12  C   UNL     1       3.817  -2.231  15.382  1.00  0.00     0.021 A 
ATOM     13  C   UNL     1       3.951  -2.601  16.731  1.00  0.00     0.016 A 
ATOM     14  C   UNL     1       5.210  -2.618  17.338  1.00  0.00     0.047 A 
ATOM     15  C   UNL     1       6.351  -2.282  16.603  1.00  0.00     0.115 A 
ATOM     16  C   UNL     1       4.971  -1.914  14.642  1.00  0.00     0.016 A 
ATOM     17  C   UNL     1       6.229  -1.933  15.253  1.00  0.00     0.047 A 
BRANCH  15  18
ATOM     18  O   UNL     1       7.599  -2.302  17.222  1.00  0.00    -0.508 OA
ATOM     19  H   UNL     1       8.440  -2.539  16.710  1.00  0.00     0.293 HD
ENDBRANCH  15  18
ENDBRANCH   1  12
BRANCH   2  20
ATOM     20  O   UNL     1       2.025   0.046  15.430  1.00  0.00    -0.502 OA
ATOM     21  H   UNL     1       1.360   0.749  15.731  1.00  0.00     0.293 HD
ENDBRANCH   2  20
BRANCH   6  22
ATOM     22  O   UNL     1      -2.125  -1.536  12.488  1.00  0.00    -0.507 OA
ATOM     23  H   UNL     1      -2.896  -1.277  13.083  1.00  0.00     0.293 HD
ENDBRANCH   6  22
BRANCH   8  24
ATOM     24  O   UNL     1      -1.014  -6.169  11.890  1.00  0.00    -0.508 OA
ATOM     25  H   UNL     1      -0.919  -7.011  12.447  1.00  0.00     0.293 HD
ENDBRANCH   8  24
TORSDOF 5
ENDMDL
MODEL 7
REMARK VINA RESULT:    -6.697      2.698      5.017
REMARK INTER + INTRA:          -8.084
REMARK INTER:                  -8.011
REMARK INTRA:                  -0.073
REMARK UNBOUND:                -0.213
REMARK SMILES O=c1c(O)c(-c2ccc(O)cc2)oc2cc(O)cc(O)c12
REMARK SMILES IDX 5 1 3 2 2 3 1 4 21 5 19 6 18 7 16 8 15 9 14 10 13 11 6 12
REMARK SMILES IDX 7 13 8 14 9 15 12 16 11 17 10 18 4 20 20 22 17 24
REMARK H PARENT 10 19 4 21 20 23 17 25
REMARK Flexibility Score: inf
ROOT
ATOM      1  C   UNL     1       3.446  -3.293  18.330  1.00  0.00     0.180 A 
ATOM      2  C   UNL     1       2.893  -3.152  17.046  1.00  0.00     0.208 A 
ATOM      3  C   UNL     1       3.721  -2.742  15.988  1.00  0.00     0.238 A 
ATOM      4  O   UNL     1       3.231  -2.670  14.831  1.00  0.00    -0.285 OA
ATOM      5  C   UNL     1       5.087  -2.461  16.232  1.00  0.00     0.111 A 
ATOM      6  C   UNL     1       6.008  -1.999  15.243  1.00  0.00     0.134 A 
ATOM      7  C   UNL     1       7.365  -1.880  15.567  1.00  0.00     0.093 A 
ATOM      8  C   UNL     1       7.823  -2.143  16.860  1.00  0.00     0.123 A 
ATOM      9  C   UNL     1       6.923  -2.537  17.847  1.00  0.00     0.094 A 
ATOM     10  C   UNL     1       5.568  -2.700  17.545  1.00  0.00     0.146 A 
ATOM     11  O   UNL     1       4.746  -3.087  18.513  1.00  0.00    -0.452 OA
ENDROOT
BRANCH   1  12
ATOM     12  C   UNL     1       2.632  -3.698  19.499  1.00  0.00     0.021 A 
ATOM     13  C   UNL     1       3.037  -4.795  20.278  1.00  0.00     0.016 A 
ATOM     14  C   UNL     1       2.296  -5.180  21.398  1.00  0.00     0.047 A 
ATOM     15  C   UNL     1       1.151  -4.465  21.765  1.00  0.00     0.115 A 
ATOM     16  C   UNL     1       1.491  -2.970  19.884  1.00  0.00     0.016 A 
ATOM     17  C   UNL     1       0.752  -3.357  21.007  1.00  0.00     0.047 A 
BRANCH  15  18
ATOM     18  O   UNL     1       0.421  -4.861  22.883  1.00  0.00    -0.508 OA
ATOM     19  H   UNL     1       0.283  -4.240  23.672  1.00  0.00     0.293 HD
ENDBRANCH  15  18
ENDBRANCH   1  12
BRANCH   2  20
ATOM     20  O   UNL     1       1.546  -3.455  16.823  1.00  0.00    -0.502 OA
ATOM     21  H   UNL     1       1.252  -4.260  16.284  1.00  0.00     0.293 HD
ENDBRANCH   2  20
BRANCH   6  22
ATOM     22  O   UNL     1       5.639  -1.622  13.949  1.00  0.00    -0.507 OA
ATOM     23  H   UNL     1       5.159  -0.767  13.714  1.00  0.00     0.293 HD
ENDBRANCH   6  22
BRANCH   8  24
ATOM     24  O   UNL     1       9.173  -2.007  17.177  1.00  0.00    -0.508 OA
ATOM     25  H   UNL     1       9.483  -1.408  17.934  1.00  0.00     0.293 HD
ENDBRANCH   8  24
TORSDOF 5
ENDMDL
MODEL 8
REMARK VINA RESULT:    -6.689      2.133      3.836
REMARK INTER + INTRA:          -8.074
REMARK INTER:                  -7.901
REMARK INTRA:                  -0.174
REMARK UNBOUND:                -0.213
REMARK SMILES O=c1c(O)c(-c2ccc(O)cc2)oc2cc(O)cc(O)c12
REMARK SMILES IDX 5 1 3 2 2 3 1 4 21 5 19 6 18 7 16 8 15 9 14 10 13 11 6 12
REMARK SMILES IDX 7 13 8 14 9 15 12 16 11 17 10 18 4 20 20 22 17 24
REMARK H PARENT 10 19 4 21 20 23 17 25
REMARK Flexibility Score: inf
ROOT
ATOM      1  C   UNL     1       3.807  -2.255  15.236  1.00  0.00     0.180 A 
ATOM      2  C   UNL     1       5.205  -2.141  15.334  1.00  0.00     0.208 A 
ATOM      3  C   UNL     1       5.818  -2.332  16.583  1.00  0.00     0.238 A 
ATOM      4  O   UNL     1       7.074  -2.281  16.653  1.00  0.00    -0.285 OA
ATOM      5  C   UNL     1       5.025  -2.617  17.720  1.00  0.00     0.111 A 
ATOM      6  C   UNL     1       5.537  -2.788  19.043  1.00  0.00     0.134 A 
ATOM      7  C   UNL     1       4.675  -3.197  20.068  1.00  0.00     0.093 A 
ATOM      8  C   UNL     1       3.310  -3.377  19.833  1.00  0.00     0.123 A 
ATOM      9  C   UNL     1       2.791  -3.154  18.560  1.00  0.00     0.094 A 
ATOM     10  C   UNL     1       3.632  -2.781  17.508  1.00  0.00     0.146 A 
ATOM     11  O   UNL     1       3.098  -2.590  16.308  1.00  0.00    -0.452 OA
ENDROOT
BRANCH   1  12
ATOM     12  C   UNL     1       3.087  -2.045  13.959  1.00  0.00     0.021 A 
ATOM     13  C   UNL     1       2.370  -3.108  13.386  1.00  0.00     0.016 A 
ATOM     14  C   UNL     1       1.665  -2.925  12.193  1.00  0.00     0.047 A 
ATOM     15  C   UNL     1       1.653  -1.674  11.567  1.00  0.00     0.115 A 
ATOM     16  C   UNL     1       3.054  -0.784  13.336  1.00  0.00     0.016 A 
ATOM     17  C   UNL     1       2.346  -0.603  12.143  1.00  0.00     0.047 A 
BRANCH  15  18
ATOM     18  O   UNL     1       0.946  -1.506  10.379  1.00  0.00    -0.508 OA
ATOM     19  H   UNL     1      -0.056  -1.361  10.374  1.00  0.00     0.293 HD
ENDBRANCH  15  18
ENDBRANCH   1  12
BRANCH   2  20
ATOM     20  O   UNL     1       5.971  -1.881  14.194  1.00  0.00    -0.502 OA
ATOM     21  H   UNL     1       6.598  -2.567  13.791  1.00  0.00     0.293 HD
ENDBRANCH   2  20
BRANCH   6  22
ATOM     22  O   UNL     1       6.865  -2.545  19.403  1.00  0.00    -0.507 OA
ATOM     23  H   UNL     1       7.655  -2.641  18.783  1.00  0.00     0.293 HD
ENDBRANCH   6  22
BRANCH   8  24
ATOM     24  O   UNL     1       2.457  -3.768  20.864  1.00  0.00    -0.508 OA
ATOM     25  H   UNL     1       2.062  -4.701  20.900  1.00  0.00     0.293 HD
ENDBRANCH   8  24
TORSDOF 5
ENDMDL
MODEL 9
REMARK VINA RESULT:    -6.607      2.201      2.396
REMARK INTER + INTRA:          -7.979
REMARK INTER:                  -7.760
REMARK INTRA:                  -0.219
REMARK UNBOUND:                -0.213
REMARK SMILES O=c1c(O)c(-c2ccc(O)cc2)oc2cc(O)cc(O)c12
REMARK SMILES IDX 5 1 3 2 2 3 1 4 21 5 19 6 18 7 16 8 15 9 14 10 13 11 6 12
REMARK SMILES IDX 7 13 8 14 9 15 12 16 11 17 10 18 4 20 20 22 17 24
REMARK H PARENT 10 19 4 21 20 23 17 25
REMARK Flexibility Score: inf
ROOT
ATOM      1  C   UNL     1       3.312  -2.168  14.847  1.00  0.00     0.180 A 
ATOM      2  C   UNL     1       2.481  -2.273  15.975  1.00  0.00     0.208 A 
ATOM      3  C   UNL     1       3.068  -2.417  17.243  1.00  0.00     0.238 A 
ATOM      4  O   UNL     1       2.319  -2.456  18.254  1.00  0.00    -0.285 OA
ATOM      5  C   UNL     1       4.477  -2.471  17.365  1.00  0.00     0.111 A 
ATOM      6  C   UNL     1       5.178  -2.656  18.595  1.00  0.00     0.134 A 
ATOM      7  C   UNL     1       6.574  -2.562  18.614  1.00  0.00     0.093 A 
ATOM      8  C   UNL     1       7.299  -2.356  17.438  1.00  0.00     0.123 A 
ATOM      9  C   UNL     1       6.628  -2.234  16.224  1.00  0.00     0.094 A 
ATOM     10  C   UNL     1       5.232  -2.286  16.177  1.00  0.00     0.146 A 
ATOM     11  O   UNL     1       4.632  -2.155  15.001  1.00  0.00    -0.452 OA
ENDROOT
BRANCH   1  12
ATOM     12  C   UNL     1       2.768  -2.038  13.476  1.00  0.00     0.021 A 
ATOM     13  C   UNL     1       2.937  -0.832  12.775  1.00  0.00     0.016 A 
ATOM     14  C   UNL     1       2.450  -0.696  11.472  1.00  0.00     0.047 A 
ATOM     15  C   UNL     1       1.805  -1.767  10.846  1.00  0.00     0.115 A 
ATOM     16  C   UNL     1       2.136  -3.119  12.833  1.00  0.00     0.016 A 
ATOM     17  C   UNL     1       1.652  -2.980  11.528  1.00  0.00     0.047 A 
BRANCH  15  18
ATOM     18  O   UNL     1       1.325  -1.617   9.547  1.00  0.00    -0.508 OA
ATOM     19  H   UNL     1       0.660  -2.269   9.149  1.00  0.00     0.293 HD
ENDBRANCH  15  18
ENDBRANCH   1  12
BRANCH   2  20
ATOM     20  O   UNL     1       1.092  -2.195  15.835  1.00  0.00    -0.502 OA
ATOM     21  H   UNL     1       0.631  -1.390  15.426  1.00  0.00     0.293 HD
ENDBRANCH   2  20
BRANCH   6  22
ATOM     22  O   UNL     1       4.555  -2.957  19.810  1.00  0.00    -0.507 OA
ATOM     23  H   UNL     1       3.700  -3.485  19.902  1.00  0.00     0.293 HD
ENDBRANCH   6  22
BRANCH   8  24
ATOM     24  O   UNL     1       8.690  -2.280  17.464  1.00  0.00    -0.508 OA
ATOM     25  H   UNL     1       9.170  -1.474  17.850  1.00  0.00     0.293 HD
ENDBRANCH   8  24
TORSDOF 5
ENDMDL
