MODEL 1
REMARK VINA RESULT:    -7.699      0.000      0.000
REMARK INTER + INTRA:          -9.151
REMARK INTER:                  -9.275
REMARK INTRA:                   0.124
REMARK UNBOUND:                 0.124
REMARK SMILES O=c1c(O)c(-c2ccc(O)c(O)c2)oc2cc(O)cc(O)c12
REMARK SMILES IDX 5 1 3 2 2 3 1 4 22 5 20 6 19 7 17 8 16 9 15 10 14 11 6 12
REMARK SMILES IDX 7 13 8 14 9 15 13 16 11 17 10 18 12 20 4 22 21 24 18 26
REMARK H PARENT 10 19 12 21 4 23 21 25 18 27
REMARK Flexibility Score: inf
ROOT
ATOM      1  C   UNL     1     -25.707  12.298 -25.646  1.00  0.00     0.180 A 
ATOM      2  C   UNL     1     -26.955  11.871 -25.154  1.00  0.00     0.208 A 
ATOM      3  C   UNL     1     -27.790  11.112 -25.988  1.00  0.00     0.238 A 
ATOM      4  O   UNL     1     -28.915  10.733 -25.561  1.00  0.00    -0.285 OA
ATOM      5  C   UNL     1     -27.359  10.777 -27.288  1.00  0.00     0.111 A 
ATOM      6  C   UNL     1     -28.137  10.012 -28.189  1.00  0.00     0.134 A 
ATOM      7  C   UNL     1     -27.633   9.711 -29.463  1.00  0.00     0.093 A 
ATOM      8  C   UNL     1     -26.369  10.159 -29.852  1.00  0.00     0.123 A 
ATOM      9  C   UNL     1     -25.594  10.914 -28.966  1.00  0.00     0.094 A 
ATOM     10  C   UNL     1     -26.080  11.226 -27.693  1.00  0.00     0.146 A 
ATOM     11  O   UNL     1     -25.327  11.950 -26.873  1.00  0.00    -0.452 OA
ENDROOT
BRANCH   1  12
ATOM     12  C   UNL     1     -24.779  13.118 -24.835  1.00  0.00     0.025 A 
ATOM     13  C   UNL     1     -24.079  14.200 -25.394  1.00  0.00     0.016 A 
ATOM     14  C   UNL     1     -23.189  14.945 -24.615  1.00  0.00     0.051 A 
ATOM     15  C   UNL     1     -22.975  14.613 -23.274  1.00  0.00     0.157 A 
ATOM     16  C   UNL     1     -24.546  12.773 -23.493  1.00  0.00     0.062 A 
ATOM     17  C   UNL     1     -23.653  13.520 -22.710  1.00  0.00     0.158 A 
BRANCH  15  18
ATOM     18  O   UNL     1     -22.083  15.375 -22.521  1.00  0.00    -0.504 OA
ATOM     19  H   UNL     1     -21.618  15.006 -21.700  1.00  0.00     0.293 HD
ENDBRANCH  15  18
BRANCH  17  20
ATOM     20  O   UNL     1     -23.439  13.178 -21.376  1.00  0.00    -0.504 OA
ATOM     21  H   UNL     1     -23.001  12.302 -21.115  1.00  0.00     0.293 HD
ENDBRANCH  17  20
ENDBRANCH   1  12
BRANCH   2  22
ATOM     22  O   UNL     1     -27.338  12.175 -23.845  1.00  0.00    -0.502 OA
ATOM     23  H   UNL     1     -26.677  12.491 -23.146  1.00  0.00     0.293 HD
ENDBRANCH   2  22
BRANCH   6  24
ATOM     24  O   UNL     1     -29.405   9.549 -27.830  1.00  0.00    -0.507 OA
ATOM     25  H   UNL     1     -30.184  10.183 -27.694  1.00  0.00     0.293 HD
ENDBRANCH   6  24
BRANCH   8  26
ATOM     26  O   UNL     1     -25.890   9.845 -31.123  1.00  0.00    -0.508 OA
ATOM     27  H   UNL     1     -25.986   8.914 -31.510  1.00  0.00     0.293 HD
ENDBRANCH   8  26
TORSDOF 6
ENDMDL
MODEL 2
REMARK VINA RESULT:    -7.575      1.590      6.831
REMARK INTER + INTRA:          -9.001
REMARK INTER:                  -8.889
REMARK INTRA:                  -0.112
REMARK UNBOUND:                 0.124
REMARK SMILES O=c1c(O)c(-c2ccc(O)c(O)c2)oc2cc(O)cc(O)c12
REMARK SMILES IDX 5 1 3 2 2 3 1 4 22 5 20 6 19 7 17 8 16 9 15 10 14 11 6 12
REMARK SMILES IDX 7 13 8 14 9 15 13 16 11 17 10 18 12 20 4 22 21 24 18 26
REMARK H PARENT 10 19 12 21 4 23 21 25 18 27
REMARK Flexibility Score: inf
ROOT
ATOM      1  C   UNL     1     -25.282  12.610 -26.507  1.00  0.00     0.180 A 
ATOM      2  C   UNL     1     -25.811  12.411 -25.217  1.00  0.00     0.208 A 
ATOM      3  C   UNL     1     -25.130  12.948 -24.114  1.00  0.00     0.238 A 
ATOM      4  O   UNL     1     -25.589  12.767 -22.953  1.00  0.00    -0.285 OA
ATOM      5  C   UNL     1     -23.948  13.689 -24.318  1.00  0.00     0.111 A 
ATOM      6  C   UNL     1     -23.205  14.268 -23.260  1.00  0.00     0.134 A 
ATOM      7  C   UNL     1     -22.043  15.000 -23.546  1.00  0.00     0.093 A 
ATOM      8  C   UNL     1     -21.611  15.165 -24.863  1.00  0.00     0.123 A 
ATOM      9  C   UNL     1     -22.341  14.597 -25.912  1.00  0.00     0.094 A 
ATOM     10  C   UNL     1     -23.500  13.863 -25.648  1.00  0.00     0.146 A 
ATOM     11  O   UNL     1     -24.172  13.328 -26.662  1.00  0.00    -0.452 OA
ENDROOT
BRANCH   1  12
ATOM     12  C   UNL     1     -25.931  12.060 -27.719  1.00  0.00     0.025 A 
ATOM     13  C   UNL     1     -27.245  12.415 -28.070  1.00  0.00     0.016 A 
ATOM     14  C   UNL     1     -27.846  11.863 -29.205  1.00  0.00     0.051 A 
ATOM     15  C   UNL     1     -27.152  10.944 -29.996  1.00  0.00     0.157 A 
ATOM     16  C   UNL     1     -25.244  11.119 -28.504  1.00  0.00     0.062 A 
ATOM     17  C   UNL     1     -25.846  10.566 -29.644  1.00  0.00     0.158 A 
BRANCH  15  18
ATOM     18  O   UNL     1     -27.776  10.412 -31.124  1.00  0.00    -0.504 OA
ATOM     19  H   UNL     1     -27.280  10.259 -31.993  1.00  0.00     0.293 HD
ENDBRANCH  15  18
BRANCH  17  20
ATOM     20  O   UNL     1     -25.151   9.643 -30.424  1.00  0.00    -0.504 OA
ATOM     21  H   UNL     1     -24.140   9.653 -30.483  1.00  0.00     0.293 HD
ENDBRANCH  17  20
ENDBRANCH   1  12
BRANCH   2  22
ATOM     22  O   UNL     1     -27.010  11.715 -25.047  1.00  0.00    -0.502 OA
ATOM     23  H   UNL     1     -27.907  12.184 -24.994  1.00  0.00     0.293 HD
ENDBRANCH   2  22
BRANCH   6  24
ATOM     24  O   UNL     1     -23.611  14.121 -21.933  1.00  0.00    -0.507 OA
ATOM     25  H   UNL     1     -23.601  14.899 -21.283  1.00  0.00     0.293 HD
ENDBRANCH   6  24
BRANCH   8  26
ATOM     26  O   UNL     1     -20.454  15.898 -25.119  1.00  0.00    -0.508 OA
ATOM     27  H   UNL     1     -20.117  16.044 -26.064  1.00  0.00     0.293 HD
ENDBRANCH   8  26
TORSDOF 6
ENDMDL
MODEL 3
REMARK VINA RESULT:    -7.481      1.237      2.954
REMARK INTER + INTRA:          -8.887
REMARK INTER:                  -9.322
REMARK INTRA:                   0.435
REMARK UNBOUND:                 0.124
REMARK SMILES O=c1c(O)c(-c2ccc(O)c(O)c2)oc2cc(O)cc(O)c12
REMARK SMILES IDX 5 1 3 2 2 3 1 4 22 5 20 6 19 7 17 8 16 9 15 10 14 11 6 12
REMARK SMILES IDX 7 13 8 14 9 15 13 16 11 17 10 18 12 20 4 22 21 24 18 26
REMARK H PARENT 10 19 12 21 4 23 21 25 18 27
REMARK Flexibility Score: inf
ROOT
ATOM      1  C   UNL     1     -24.775  12.586 -26.618  1.00  0.00     0.180 A 
ATOM      2  C   UNL     1     -24.261  12.702 -27.924  1.00  0.00     0.208 A 
ATOM      3  C   UNL     1     -24.920  12.043 -28.974  1.00  0.00     0.238 A 
ATOM      4  O   UNL     1     -24.462  12.131 -30.146  1.00  0.00    -0.285 OA
ATOM      5  C   UNL     1     -26.088  11.300 -28.706  1.00  0.00     0.111 A 
ATOM      6  C   UNL     1     -26.813  10.610 -29.707  1.00  0.00     0.134 A 
ATOM      7  C   UNL     1     -27.972   9.900 -29.362  1.00  0.00     0.093 A 
ATOM      8  C   UNL     1     -28.419   9.866 -28.039  1.00  0.00     0.123 A 
ATOM      9  C   UNL     1     -27.708  10.545 -27.046  1.00  0.00     0.094 A 
ATOM     10  C   UNL     1     -26.549  11.257 -27.369  1.00  0.00     0.146 A 
ATOM     11  O   UNL     1     -25.887  11.888 -26.406  1.00  0.00    -0.452 OA
ENDROOT
BRANCH   1  12
ATOM     12  C   UNL     1     -24.126  13.235 -25.456  1.00  0.00     0.025 A 
ATOM     13  C   UNL     1     -23.118  14.200 -25.626  1.00  0.00     0.016 A 
ATOM     14  C   UNL     1     -22.503  14.781 -24.514  1.00  0.00     0.051 A 
ATOM     15  C   UNL     1     -22.874  14.401 -23.221  1.00  0.00     0.157 A 
ATOM     16  C   UNL     1     -24.482  12.840 -24.156  1.00  0.00     0.062 A 
ATOM     17  C   UNL     1     -23.866  13.423 -23.039  1.00  0.00     0.158 A 
BRANCH  15  18
ATOM     18  O   UNL     1     -22.245  15.001 -22.131  1.00  0.00    -0.504 OA
ATOM     19  H   UNL     1     -22.736  15.623 -21.500  1.00  0.00     0.293 HD
ENDBRANCH  15  18
BRANCH  17  20
ATOM     20  O   UNL     1     -24.236  13.034 -21.753  1.00  0.00    -0.504 OA
ATOM     21  H   UNL     1     -24.119  12.080 -21.433  1.00  0.00     0.293 HD
ENDBRANCH  17  20
ENDBRANCH   1  12
BRANCH   2  22
ATOM     22  O   UNL     1     -23.130  13.485 -28.170  1.00  0.00    -0.502 OA
ATOM     23  H   UNL     1     -22.200  13.088 -28.236  1.00  0.00     0.293 HD
ENDBRANCH   2  22
BRANCH   6  24
ATOM     24  O   UNL     1     -26.393  10.626 -31.038  1.00  0.00    -0.507 OA
ATOM     25  H   UNL     1     -25.650  11.238 -31.355  1.00  0.00     0.293 HD
ENDBRANCH   6  24
BRANCH   8  26
ATOM     26  O   UNL     1     -29.575   9.153 -27.723  1.00  0.00    -0.508 OA
ATOM     27  H   UNL     1     -30.348   9.082 -28.374  1.00  0.00     0.293 HD
ENDBRANCH   8  26
TORSDOF 6
ENDMDL
MODEL 4
REMARK VINA RESULT:    -7.401      1.670      7.209
REMARK INTER + INTRA:          -8.791
REMARK INTER:                  -9.155
REMARK INTRA:                   0.364
REMARK UNBOUND:                 0.124
REMARK SMILES O=c1c(O)c(-c2ccc(O)c(O)c2)oc2cc(O)cc(O)c12
REMARK SMILES IDX 5 1 3 2 2 3 1 4 22 5 20 6 19 7 17 8 16 9 15 10 14 11 6 12
REMARK SMILES IDX 7 13 8 14 9 15 13 16 11 17 10 18 12 20 4 22 21 24 18 26
REMARK H PARENT 10 19 12 21 4 23 21 25 18 27
REMARK Flexibility Score: inf
ROOT
ATOM      1  C   UNL     1     -26.008  11.898 -27.261  1.00  0.00     0.180 A 
ATOM      2  C   UNL     1     -24.816  12.563 -27.607  1.00  0.00     0.208 A 
ATOM      3  C   UNL     1     -24.114  13.259 -26.611  1.00  0.00     0.238 A 
ATOM      4  O   UNL     1     -23.050  13.867 -26.912  1.00  0.00    -0.285 OA
ATOM      5  C   UNL     1     -24.600  13.262 -25.288  1.00  0.00     0.111 A 
ATOM      6  C   UNL     1     -23.950  13.934 -24.226  1.00  0.00     0.134 A 
ATOM      7  C   UNL     1     -24.492  13.882 -22.933  1.00  0.00     0.093 A 
ATOM      8  C   UNL     1     -25.669  13.172 -22.683  1.00  0.00     0.123 A 
ATOM      9  C   UNL     1     -26.316  12.505 -23.727  1.00  0.00     0.094 A 
ATOM     10  C   UNL     1     -25.792  12.547 -25.023  1.00  0.00     0.146 A 
ATOM     11  O   UNL     1     -26.429  11.910 -25.999  1.00  0.00    -0.452 OA
ENDROOT
BRANCH   1  12
ATOM     12  C   UNL     1     -26.816  11.159 -28.258  1.00  0.00     0.025 A 
ATOM     13  C   UNL     1     -26.672  11.396 -29.636  1.00  0.00     0.016 A 
ATOM     14  C   UNL     1     -27.463  10.703 -30.558  1.00  0.00     0.051 A 
ATOM     15  C   UNL     1     -28.413   9.777 -30.119  1.00  0.00     0.157 A 
ATOM     16  C   UNL     1     -27.786  10.244 -27.819  1.00  0.00     0.062 A 
ATOM     17  C   UNL     1     -28.580   9.547 -28.743  1.00  0.00     0.158 A 
BRANCH  15  18
ATOM     18  O   UNL     1     -29.186   9.100 -31.062  1.00  0.00    -0.504 OA
ATOM     19  H   UNL     1     -28.984   8.147 -31.340  1.00  0.00     0.293 HD
ENDBRANCH  15  18
BRANCH  17  20
ATOM     20  O   UNL     1     -29.531   8.631 -28.298  1.00  0.00    -0.504 OA
ATOM     21  H   UNL     1     -29.291   7.885 -27.656  1.00  0.00     0.293 HD
ENDBRANCH  17  20
ENDBRANCH   1  12
BRANCH   2  22
ATOM     22  O   UNL     1     -24.330  12.504 -28.916  1.00  0.00    -0.502 OA
ATOM     23  H   UNL     1     -23.539  13.055 -29.226  1.00  0.00     0.293 HD
ENDBRANCH   2  22
BRANCH   6  24
ATOM     24  O   UNL     1     -22.772  14.652 -24.443  1.00  0.00    -0.507 OA
ATOM     25  H   UNL     1     -21.949  14.512 -23.869  1.00  0.00     0.293 HD
ENDBRANCH   6  24
BRANCH   8  26
ATOM     26  O   UNL     1     -26.186  13.135 -21.389  1.00  0.00    -0.508 OA
ATOM     27  H   UNL     1     -25.685  13.538 -20.606  1.00  0.00     0.293 HD
ENDBRANCH   8  26
TORSDOF 6
ENDMDL
MODEL 5
REMARK VINA RESULT:    -7.359      1.933      7.350
REMARK INTER + INTRA:          -8.741
REMARK INTER:                  -9.264
REMARK INTRA:                   0.524
REMARK UNBOUND:                 0.124
REMARK SMILES O=c1c(O)c(-c2ccc(O)c(O)c2)oc2cc(O)cc(O)c12
REMARK SMILES IDX 5 1 3 2 2 3 1 4 22 5 20 6 19 7 17 8 16 9 15 10 14 11 6 12
REMARK SMILES IDX 7 13 8 14 9 15 13 16 11 17 10 18 12 20 4 22 21 24 18 26
REMARK H PARENT 10 19 12 21 4 23 21 25 18 27
REMARK Flexibility Score: inf
ROOT
ATOM      1  C   UNL     1     -25.546  11.731 -27.703  1.00  0.00     0.180 A 
ATOM      2  C   UNL     1     -24.501  11.879 -28.635  1.00  0.00     0.208 A 
ATOM      3  C   UNL     1     -23.417  12.709 -28.312  1.00  0.00     0.238 A 
ATOM      4  O   UNL     1     -22.479  12.858 -29.144  1.00  0.00    -0.285 OA
ATOM      5  C   UNL     1     -23.385  13.359 -27.062  1.00  0.00     0.111 A 
ATOM      6  C   UNL     1     -22.327  14.209 -26.657  1.00  0.00     0.134 A 
ATOM      7  C   UNL     1     -22.365  14.812 -25.391  1.00  0.00     0.093 A 
ATOM      8  C   UNL     1     -23.434  14.583 -24.524  1.00  0.00     0.123 A 
ATOM      9  C   UNL     1     -24.482  13.744 -24.917  1.00  0.00     0.094 A 
ATOM     10  C   UNL     1     -24.464  13.135 -26.175  1.00  0.00     0.146 A 
ATOM     11  O   UNL     1     -25.475  12.348 -26.527  1.00  0.00    -0.452 OA
ENDROOT
BRANCH   1  12
ATOM     12  C   UNL     1     -26.732  10.888 -27.978  1.00  0.00     0.025 A 
ATOM     13  C   UNL     1     -27.660  10.580 -26.968  1.00  0.00     0.016 A 
ATOM     14  C   UNL     1     -28.759   9.762 -27.244  1.00  0.00     0.051 A 
ATOM     15  C   UNL     1     -28.941   9.230 -28.523  1.00  0.00     0.157 A 
ATOM     16  C   UNL     1     -26.906  10.334 -29.257  1.00  0.00     0.062 A 
ATOM     17  C   UNL     1     -28.009   9.514 -29.536  1.00  0.00     0.158 A 
BRANCH  15  18
ATOM     18  O   UNL     1     -30.048   8.419 -28.770  1.00  0.00    -0.504 OA
ATOM     19  H   UNL     1     -30.997   8.748 -28.638  1.00  0.00     0.293 HD
ENDBRANCH  15  18
BRANCH  17  20
ATOM     20  O   UNL     1     -28.180   8.981 -30.812  1.00  0.00    -0.504 OA
ATOM     21  H   UNL     1     -27.996   9.527 -31.645  1.00  0.00     0.293 HD
ENDBRANCH  17  20
ENDBRANCH   1  12
BRANCH   2  22
ATOM     22  O   UNL     1     -24.533  11.185 -29.847  1.00  0.00    -0.502 OA
ATOM     23  H   UNL     1     -25.400  10.963 -30.322  1.00  0.00     0.293 HD
ENDBRANCH   2  22
BRANCH   6  24
ATOM     24  O   UNL     1     -21.243  14.458 -27.501  1.00  0.00    -0.507 OA
ATOM     25  H   UNL     1     -20.861  15.390 -27.616  1.00  0.00     0.293 HD
ENDBRANCH   6  24
BRANCH   8  26
ATOM     26  O   UNL     1     -23.446  15.193 -23.272  1.00  0.00    -0.508 OA
ATOM     27  H   UNL     1     -23.893  16.091 -23.124  1.00  0.00     0.293 HD
ENDBRANCH   8  26
TORSDOF 6
ENDMDL
MODEL 6
REMARK VINA RESULT:    -7.244      1.413      6.742
REMARK INTER + INTRA:          -8.602
REMARK INTER:                  -8.862
REMARK INTRA:                   0.259
REMARK UNBOUND:                 0.124
REMARK SMILES O=c1c(O)c(-c2ccc(O)c(O)c2)oc2cc(O)cc(O)c12
REMARK SMILES IDX 5 1 3 2 2 3 1 4 22 5 20 6 19 7 17 8 16 9 15 10 14 11 6 12
REMARK SMILES IDX 7 13 8 14 9 15 13 16 11 17 10 18 12 20 4 22 21 24 18 26
REMARK H PARENT 10 19 12 21 4 23 21 25 18 27
REMARK Flexibility Score: inf
ROOT
ATOM      1  C   UNL     1     -27.076  11.608 -26.133  1.00  0.00     0.180 A 
ATOM      2  C   UNL     1     -27.898  11.550 -24.992  1.00  0.00     0.208 A 
ATOM      3  C   UNL     1     -27.423  12.086 -23.785  1.00  0.00     0.238 A 
ATOM      4  O   UNL     1     -28.146  12.030 -22.753  1.00  0.00    -0.285 OA
ATOM      5  C   UNL     1     -26.147  12.685 -23.743  1.00  0.00     0.111 A 
ATOM      6  C   UNL     1     -25.596  13.252 -22.569  1.00  0.00     0.134 A 
ATOM      7  C   UNL     1     -24.323  13.839 -22.611  1.00  0.00     0.093 A 
ATOM      8  C   UNL     1     -23.593  13.872 -23.801  1.00  0.00     0.123 A 
ATOM      9  C   UNL     1     -24.131  13.314 -24.964  1.00  0.00     0.094 A 
ATOM     10  C   UNL     1     -25.398  12.723 -24.942  1.00  0.00     0.146 A 
ATOM     11  O   UNL     1     -25.884  12.194 -26.060  1.00  0.00    -0.452 OA
ENDROOT
BRANCH   1  12
ATOM     12  C   UNL     1     -27.498  11.048 -27.438  1.00  0.00     0.025 A 
ATOM     13  C   UNL     1     -27.149  11.671 -28.648  1.00  0.00     0.016 A 
ATOM     14  C   UNL     1     -27.580  11.139 -29.867  1.00  0.00     0.051 A 
ATOM     15  C   UNL     1     -28.374   9.989 -29.895  1.00  0.00     0.157 A 
ATOM     16  C   UNL     1     -28.314   9.905 -27.468  1.00  0.00     0.062 A 
ATOM     17  C   UNL     1     -28.746   9.369 -28.690  1.00  0.00     0.158 A 
BRANCH  15  18
ATOM     18  O   UNL     1     -28.786   9.479 -31.125  1.00  0.00    -0.504 OA
ATOM     19  H   UNL     1     -29.320  10.031 -31.786  1.00  0.00     0.293 HD
ENDBRANCH  15  18
BRANCH  17  20
ATOM     20  O   UNL     1     -29.544   8.227 -28.710  1.00  0.00    -0.504 OA
ATOM     21  H   UNL     1     -29.487   7.526 -27.980  1.00  0.00     0.293 HD
ENDBRANCH  17  20
ENDBRANCH   1  12
BRANCH   2  22
ATOM     22  O   UNL     1     -29.178  10.994 -25.072  1.00  0.00    -0.502 OA
ATOM     23  H   UNL     1     -29.936  11.447 -25.568  1.00  0.00     0.293 HD
ENDBRANCH   2  22
BRANCH   6  24
ATOM     24  O   UNL     1     -26.302  13.236 -21.364  1.00  0.00    -0.507 OA
ATOM     25  H   UNL     1     -26.216  12.469 -20.707  1.00  0.00     0.293 HD
ENDBRANCH   6  24
BRANCH   8  26
ATOM     26  O   UNL     1     -22.331  14.462 -23.816  1.00  0.00    -0.508 OA
ATOM     27  H   UNL     1     -21.891  14.752 -24.682  1.00  0.00     0.293 HD
ENDBRANCH   8  26
TORSDOF 6
ENDMDL
MODEL 7
REMARK VINA RESULT:    -7.067      2.310      3.829
REMARK INTER + INTRA:          -8.388
REMARK INTER:                  -8.912
REMARK INTRA:                   0.524
REMARK UNBOUND:                 0.124
REMARK SMILES O=c1c(O)c(-c2ccc(O)c(O)c2)oc2cc(O)cc(O)c12
REMARK SMILES IDX 5 1 3 2 2 3 1 4 22 5 20 6 19 7 17 8 16 9 15 10 14 11 6 12
REMARK SMILES IDX 7 13 8 14 9 15 13 16 11 17 10 18 12 20 4 22 21 24 18 26
REMARK H PARENT 10 19 12 21 4 23 21 25 18 27
REMARK Flexibility Score: inf
ROOT
ATOM      1  C   UNL     1     -25.694  12.242 -26.232  1.00  0.00     0.180 A 
ATOM      2  C   UNL     1     -26.515  11.429 -27.039  1.00  0.00     0.208 A 
ATOM      3  C   UNL     1     -26.153  11.217 -28.378  1.00  0.00     0.238 A 
ATOM      4  O   UNL     1     -26.886  10.500 -29.113  1.00  0.00    -0.285 OA
ATOM      5  C   UNL     1     -24.972  11.801 -28.882  1.00  0.00     0.111 A 
ATOM      6  C   UNL     1     -24.535  11.632 -30.218  1.00  0.00     0.134 A 
ATOM      7  C   UNL     1     -23.342  12.238 -30.641  1.00  0.00     0.093 A 
ATOM      8  C   UNL     1     -22.581  13.006 -29.757  1.00  0.00     0.123 A 
ATOM      9  C   UNL     1     -23.007  13.176 -28.436  1.00  0.00     0.094 A 
ATOM     10  C   UNL     1     -24.194  12.582 -27.996  1.00  0.00     0.146 A 
ATOM     11  O   UNL     1     -24.580  12.763 -26.738  1.00  0.00    -0.452 OA
ENDROOT
BRANCH   1  12
ATOM     12  C   UNL     1     -26.018  12.528 -24.816  1.00  0.00     0.025 A 
ATOM     13  C   UNL     1     -25.085  13.142 -23.963  1.00  0.00     0.016 A 
ATOM     14  C   UNL     1     -25.404  13.381 -22.623  1.00  0.00     0.051 A 
ATOM     15  C   UNL     1     -26.649  13.000 -22.113  1.00  0.00     0.157 A 
ATOM     16  C   UNL     1     -27.260  12.127 -24.296  1.00  0.00     0.062 A 
ATOM     17  C   UNL     1     -27.581  12.367 -22.952  1.00  0.00     0.158 A 
BRANCH  15  18
ATOM     18  O   UNL     1     -26.940  13.253 -20.773  1.00  0.00    -0.504 OA
ATOM     19  H   UNL     1     -27.545  12.649 -20.230  1.00  0.00     0.293 HD
ENDBRANCH  15  18
BRANCH  17  20
ATOM     20  O   UNL     1     -28.821  11.977 -22.449  1.00  0.00    -0.504 OA
ATOM     21  H   UNL     1     -29.310  11.166 -22.809  1.00  0.00     0.293 HD
ENDBRANCH  17  20
ENDBRANCH   1  12
BRANCH   2  22
ATOM     22  O   UNL     1     -27.653  10.823 -26.501  1.00  0.00    -0.502 OA
ATOM     23  H   UNL     1     -27.790  10.716 -25.503  1.00  0.00     0.293 HD
ENDBRANCH   2  22
BRANCH   6  24
ATOM     24  O   UNL     1     -25.273  10.870 -31.125  1.00  0.00    -0.507 OA
ATOM     25  H   UNL     1     -26.059  10.303 -30.829  1.00  0.00     0.293 HD
ENDBRANCH   6  24
BRANCH   8  26
ATOM     26  O   UNL     1     -21.400  13.596 -30.203  1.00  0.00    -0.508 OA
ATOM     27  H   UNL     1     -20.589  13.678 -29.601  1.00  0.00     0.293 HD
ENDBRANCH   8  26
TORSDOF 6
ENDMDL
MODEL 8
REMARK VINA RESULT:    -6.917      2.453      6.980
REMARK INTER + INTRA:          -8.209
REMARK INTER:                  -8.579
REMARK INTRA:                   0.371
REMARK UNBOUND:                 0.124
REMARK SMILES O=c1c(O)c(-c2ccc(O)c(O)c2)oc2cc(O)cc(O)c12
REMARK SMILES IDX 5 1 3 2 2 3 1 4 22 5 20 6 19 7 17 8 16 9 15 10 14 11 6 12
REMARK SMILES IDX 7 13 8 14 9 15 13 16 11 17 10 18 12 20 4 22 21 24 18 26
REMARK H PARENT 10 19 12 21 4 23 21 25 18 27
REMARK Flexibility Score: inf
ROOT
ATOM      1  C   UNL     1     -26.527  10.926 -28.548  1.00  0.00     0.180 A 
ATOM      2  C   UNL     1     -26.654  11.410 -27.232  1.00  0.00     0.208 A 
ATOM      3  C   UNL     1     -25.638  12.224 -26.707  1.00  0.00     0.238 A 
ATOM      4  O   UNL     1     -25.736  12.654 -25.525  1.00  0.00    -0.285 OA
ATOM      5  C   UNL     1     -24.526  12.555 -27.509  1.00  0.00     0.111 A 
ATOM      6  C   UNL     1     -23.462  13.372 -27.057  1.00  0.00     0.134 A 
ATOM      7  C   UNL     1     -22.395  13.664 -27.920  1.00  0.00     0.093 A 
ATOM      8  C   UNL     1     -22.371  13.157 -29.221  1.00  0.00     0.123 A 
ATOM      9  C   UNL     1     -23.419  12.350 -29.673  1.00  0.00     0.094 A 
ATOM     10  C   UNL     1     -24.491  12.046 -28.828  1.00  0.00     0.146 A 
ATOM     11  O   UNL     1     -25.471  11.271 -29.280  1.00  0.00    -0.452 OA
ENDROOT
BRANCH   1  12
ATOM     12  C   UNL     1     -27.546  10.048 -29.166  1.00  0.00     0.025 A 
ATOM     13  C   UNL     1     -27.750  10.030 -30.557  1.00  0.00     0.016 A 
ATOM     14  C   UNL     1     -28.735   9.211 -31.116  1.00  0.00     0.051 A 
ATOM     15  C   UNL     1     -29.537   8.411 -30.298  1.00  0.00     0.157 A 
ATOM     16  C   UNL     1     -28.368   9.258 -28.345  1.00  0.00     0.062 A 
ATOM     17  C   UNL     1     -29.356   8.435 -28.905  1.00  0.00     0.158 A 
BRANCH  15  18
ATOM     18  O   UNL     1     -30.510   7.602 -30.884  1.00  0.00    -0.504 OA
ATOM     19  H   UNL     1     -31.298   7.241 -30.360  1.00  0.00     0.293 HD
ENDBRANCH  15  18
BRANCH  17  20
ATOM     20  O   UNL     1     -30.157   7.645 -28.082  1.00  0.00    -0.504 OA
ATOM     21  H   UNL     1     -29.810   6.791 -27.663  1.00  0.00     0.293 HD
ENDBRANCH  17  20
ENDBRANCH   1  12
BRANCH   2  22
ATOM     22  O   UNL     1     -27.789  11.107 -26.476  1.00  0.00    -0.502 OA
ATOM     23  H   UNL     1     -28.346  11.822 -26.023  1.00  0.00     0.293 HD
ENDBRANCH   2  22
BRANCH   6  24
ATOM     24  O   UNL     1     -23.457  13.894 -25.763  1.00  0.00    -0.507 OA
ATOM     25  H   UNL     1     -24.251  13.789 -25.142  1.00  0.00     0.293 HD
ENDBRANCH   6  24
BRANCH   8  26
ATOM     26  O   UNL     1     -21.300  13.464 -30.057  1.00  0.00    -0.508 OA
ATOM     27  H   UNL     1     -21.138  12.956 -30.919  1.00  0.00     0.293 HD
ENDBRANCH   8  26
TORSDOF 6
ENDMDL
MODEL 9
REMARK VINA RESULT:    -6.808      2.055      3.658
REMARK INTER + INTRA:          -8.077
REMARK INTER:                  -8.475
REMARK INTRA:                   0.398
REMARK UNBOUND:                 0.124
REMARK SMILES O=c1c(O)c(-c2ccc(O)c(O)c2)oc2cc(O)cc(O)c12
REMARK SMILES IDX 5 1 3 2 2 3 1 4 22 5 20 6 19 7 17 8 16 9 15 10 14 11 6 12
REMARK SMILES IDX 7 13 8 14 9 15 13 16 11 17 10 18 12 20 4 22 21 24 18 26
REMARK H PARENT 10 19 12 21 4 23 21 25 18 27
REMARK Flexibility Score: inf
ROOT
ATOM      1  C   UNL     1     -25.715  12.348 -26.275  1.00  0.00     0.180 A 
ATOM      2  C   UNL     1     -24.626  12.918 -26.961  1.00  0.00     0.208 A 
ATOM      3  C   UNL     1     -24.445  12.614 -28.319  1.00  0.00     0.238 A 
ATOM      4  O   UNL     1     -23.466  13.110 -28.941  1.00  0.00    -0.285 OA
ATOM      5  C   UNL     1     -25.362  11.766 -28.972  1.00  0.00     0.111 A 
ATOM      6  C   UNL     1     -25.254  11.414 -30.339  1.00  0.00     0.134 A 
ATOM      7  C   UNL     1     -26.214  10.571 -30.918  1.00  0.00     0.093 A 
ATOM      8  C   UNL     1     -27.278  10.075 -30.160  1.00  0.00     0.123 A 
ATOM      9  C   UNL     1     -27.391  10.420 -28.810  1.00  0.00     0.094 A 
ATOM     10  C   UNL     1     -26.443  11.257 -28.214  1.00  0.00     0.146 A 
ATOM     11  O   UNL     1     -26.569  11.564 -26.927  1.00  0.00    -0.452 OA
ENDROOT
BRANCH   1  12
ATOM     12  C   UNL     1     -25.963  12.605 -24.838  1.00  0.00     0.025 A 
ATOM     13  C   UNL     1     -24.973  13.169 -24.015  1.00  0.00     0.016 A 
ATOM     14  C   UNL     1     -25.221  13.380 -22.655  1.00  0.00     0.051 A 
ATOM     15  C   UNL     1     -26.451  13.021 -22.097  1.00  0.00     0.157 A 
ATOM     16  C   UNL     1     -27.190  12.226 -24.270  1.00  0.00     0.062 A 
ATOM     17  C   UNL     1     -27.441  12.438 -22.906  1.00  0.00     0.158 A 
BRANCH  15  18
ATOM     18  O   UNL     1     -26.671  13.246 -20.738  1.00  0.00    -0.504 OA
ATOM     19  H   UNL     1     -26.637  14.174 -20.333  1.00  0.00     0.293 HD
ENDBRANCH  15  18
BRANCH  17  20
ATOM     20  O   UNL     1     -28.667  12.070 -22.354  1.00  0.00    -0.504 OA
ATOM     21  H   UNL     1     -29.535  12.491 -22.661  1.00  0.00     0.293 HD
ENDBRANCH  17  20
ENDBRANCH   1  12
BRANCH   2  22
ATOM     22  O   UNL     1     -23.759  13.795 -26.303  1.00  0.00    -0.502 OA
ATOM     23  H   UNL     1     -24.062  14.384 -25.537  1.00  0.00     0.293 HD
ENDBRANCH   2  22
BRANCH   6  24
ATOM     24  O   UNL     1     -24.203  11.893 -31.123  1.00  0.00    -0.507 OA
ATOM     25  H   UNL     1     -23.464  12.465 -30.731  1.00  0.00     0.293 HD
ENDBRANCH   6  24
BRANCH   8  26
ATOM     26  O   UNL     1     -28.218   9.241 -30.761  1.00  0.00    -0.508 OA
ATOM     27  H   UNL     1     -27.971   8.317 -31.095  1.00  0.00     0.293 HD
ENDBRANCH   8  26
TORSDOF 6
ENDMDL
