MODEL 1
REMARK VINA RESULT:    -5.666      0.000      0.000
REMARK INTER + INTRA:          -7.136
REMARK INTER:                  -6.825
REMARK INTRA:                  -0.311
REMARK UNBOUND:                -0.311
REMARK SMILES Oc1cc(O)c2cc(O)c(-c3ccc(O)c(O)c3)[o+]c2c1
REMARK SMILES IDX 10 1 19 2 20 3 21 4 2 5 3 6 4 7 6 8 7 9 8 10 11 11 12 12
REMARK SMILES IDX 13 13 14 14 18 15 16 16 15 17 17 19 9 21 1 23 5 25
REMARK H PARENT 15 18 17 20 9 22 1 24 5 26
REMARK Flexibility Score: inf
ROOT
ATOM      1  C   UNL     1      24.439   7.156 -21.837  1.00  0.00     0.402 A 
ATOM      2  O   UNL     1      23.954   6.657 -22.971  1.00  0.00    -0.202 OA
ATOM      3  C   UNL     1      24.580   6.760 -24.140  1.00  0.00     0.368 A 
ATOM      4  C   UNL     1      23.989   6.205 -25.279  1.00  0.00     0.162 A 
ATOM      5  C   UNL     1      24.621   6.301 -26.518  1.00  0.00     0.128 A 
ATOM      6  C   UNL     1      25.853   6.956 -26.624  1.00  0.00     0.093 A 
ATOM      7  C   UNL     1      26.466   7.520 -25.498  1.00  0.00     0.136 A 
ATOM      8  C   UNL     1      25.827   7.422 -24.234  1.00  0.00     0.125 A 
ATOM      9  C   UNL     1      26.373   7.947 -23.051  1.00  0.00     0.078 A 
ATOM     10  C   UNL     1      25.685   7.807 -21.841  1.00  0.00     0.223 A 
ENDROOT
BRANCH   1  11
ATOM     11  C   UNL     1      23.641   6.985 -20.601  1.00  0.00     0.087 A 
ATOM     12  C   UNL     1      23.641   5.772 -19.891  1.00  0.00     0.022 A 
ATOM     13  C   UNL     1      22.899   5.642 -18.714  1.00  0.00     0.051 A 
ATOM     14  C   UNL     1      22.157   6.725 -18.223  1.00  0.00     0.157 A 
ATOM     15  C   UNL     1      22.914   8.073 -20.093  1.00  0.00     0.068 A 
ATOM     16  C   UNL     1      22.169   7.947 -18.914  1.00  0.00     0.158 A 
BRANCH  14  17
ATOM     17  O   UNL     1      21.416   6.591 -17.050  1.00  0.00    -0.504 OA
ATOM     18  H   UNL     1      20.780   5.817 -16.909  1.00  0.00     0.293 HD
ENDBRANCH  14  17
BRANCH  16  19
ATOM     19  O   UNL     1      21.448   9.046 -18.448  1.00  0.00    -0.504 OA
ATOM     20  H   UNL     1      21.882   9.784 -17.907  1.00  0.00     0.293 HD
ENDBRANCH  16  19
ENDBRANCH   1  11
BRANCH  10  21
ATOM     21  O   UNL     1      26.250   8.284 -20.658  1.00  0.00    -0.500 OA
ATOM     22  H   UNL     1      25.962   7.936 -19.752  1.00  0.00     0.294 HD
ENDBRANCH  10  21
BRANCH   5  23
ATOM     23  O   UNL     1      24.017   5.740 -27.641  1.00  0.00    -0.507 OA
ATOM     24  H   UNL     1      23.032   5.498 -27.649  1.00  0.00     0.293 HD
ENDBRANCH   5  23
BRANCH   7  25
ATOM     25  O   UNL     1      27.694   8.160 -25.686  1.00  0.00    -0.507 OA
ATOM     26  H   UNL     1      28.189   8.669 -24.968  1.00  0.00     0.293 HD
ENDBRANCH   7  25
TORSDOF 6
ENDMDL
MODEL 2
REMARK VINA RESULT:    -5.611      2.982      3.924
REMARK INTER + INTRA:          -7.070
REMARK INTER:                  -6.768
REMARK INTRA:                  -0.303
REMARK UNBOUND:                -0.311
REMARK SMILES Oc1cc(O)c2cc(O)c(-c3ccc(O)c(O)c3)[o+]c2c1
REMARK SMILES IDX 10 1 19 2 20 3 21 4 2 5 3 6 4 7 6 8 7 9 8 10 11 11 12 12
REMARK SMILES IDX 13 13 14 14 18 15 16 16 15 17 17 19 9 21 1 23 5 25
REMARK H PARENT 15 18 17 20 9 22 1 24 5 26
REMARK Flexibility Score: inf
ROOT
ATOM      1  C   UNL     1      23.105   5.012 -22.617  1.00  0.00     0.402 A 
ATOM      2  O   UNL     1      22.033   4.328 -23.008  1.00  0.00    -0.202 OA
ATOM      3  C   UNL     1      21.956   3.697 -24.175  1.00  0.00     0.368 A 
ATOM      4  C   UNL     1      20.784   3.006 -24.498  1.00  0.00     0.162 A 
ATOM      5  C   UNL     1      20.673   2.338 -25.717  1.00  0.00     0.128 A 
ATOM      6  C   UNL     1      21.740   2.358 -26.623  1.00  0.00     0.093 A 
ATOM      7  C   UNL     1      22.924   3.043 -26.323  1.00  0.00     0.136 A 
ATOM      8  C   UNL     1      23.042   3.722 -25.083  1.00  0.00     0.125 A 
ATOM      9  C   UNL     1      24.194   4.423 -24.693  1.00  0.00     0.078 A 
ATOM     10  C   UNL     1      24.237   5.065 -23.451  1.00  0.00     0.223 A 
ENDROOT
BRANCH   1  11
ATOM     11  C   UNL     1      23.066   5.682 -21.297  1.00  0.00     0.087 A 
ATOM     12  C   UNL     1      23.251   4.961 -20.105  1.00  0.00     0.022 A 
ATOM     13  C   UNL     1      23.232   5.619 -18.872  1.00  0.00     0.051 A 
ATOM     14  C   UNL     1      23.041   7.006 -18.813  1.00  0.00     0.157 A 
ATOM     15  C   UNL     1      22.896   7.074 -21.234  1.00  0.00     0.068 A 
ATOM     16  C   UNL     1      22.876   7.736 -20.001  1.00  0.00     0.158 A 
BRANCH  14  17
ATOM     17  O   UNL     1      23.021   7.658 -17.581  1.00  0.00    -0.504 OA
ATOM     18  H   UNL     1      22.174   8.077 -17.216  1.00  0.00     0.293 HD
ENDBRANCH  14  17
BRANCH  16  19
ATOM     19  O   UNL     1      22.692   9.118 -19.977  1.00  0.00    -0.504 OA
ATOM     20  H   UNL     1      21.873   9.545 -19.562  1.00  0.00     0.293 HD
ENDBRANCH  16  19
ENDBRANCH   1  11
BRANCH  10  21
ATOM     21  O   UNL     1      25.400   5.719 -23.043  1.00  0.00    -0.500 OA
ATOM     22  H   UNL     1      26.300   5.256 -23.042  1.00  0.00     0.294 HD
ENDBRANCH  10  21
BRANCH   5  23
ATOM     23  O   UNL     1      19.498   1.654 -26.020  1.00  0.00    -0.507 OA
ATOM     24  H   UNL     1      18.986   1.140 -25.312  1.00  0.00     0.293 HD
ENDBRANCH   5  23
BRANCH   7  25
ATOM     25  O   UNL     1      23.942   3.019 -27.281  1.00  0.00    -0.507 OA
ATOM     26  H   UNL     1      24.095   3.741 -27.969  1.00  0.00     0.293 HD
ENDBRANCH   7  25
TORSDOF 6
ENDMDL
MODEL 3
REMARK VINA RESULT:    -5.530      1.495      7.207
REMARK INTER + INTRA:          -6.972
REMARK INTER:                  -6.757
REMARK INTRA:                  -0.216
REMARK UNBOUND:                -0.311
REMARK SMILES Oc1cc(O)c2cc(O)c(-c3ccc(O)c(O)c3)[o+]c2c1
REMARK SMILES IDX 10 1 19 2 20 3 21 4 2 5 3 6 4 7 6 8 7 9 8 10 11 11 12 12
REMARK SMILES IDX 13 13 14 14 18 15 16 16 15 17 17 19 9 21 1 23 5 25
REMARK H PARENT 15 18 17 20 9 22 1 24 5 26
REMARK Flexibility Score: inf
ROOT
ATOM      1  C   UNL     1      24.283   5.842 -22.601  1.00  0.00     0.402 A 
ATOM      2  O   UNL     1      23.864   6.805 -21.785  1.00  0.00    -0.202 OA
ATOM      3  C   UNL     1      23.430   6.578 -20.549  1.00  0.00     0.368 A 
ATOM      4  C   UNL     1      23.006   7.657 -19.768  1.00  0.00     0.162 A 
ATOM      5  C   UNL     1      22.544   7.447 -18.469  1.00  0.00     0.128 A 
ATOM      6  C   UNL     1      22.502   6.151 -17.944  1.00  0.00     0.093 A 
ATOM      7  C   UNL     1      22.920   5.053 -18.707  1.00  0.00     0.136 A 
ATOM      8  C   UNL     1      23.394   5.262 -20.028  1.00  0.00     0.125 A 
ATOM      9  C   UNL     1      23.845   4.224 -20.859  1.00  0.00     0.078 A 
ATOM     10  C   UNL     1      24.303   4.509 -22.150  1.00  0.00     0.223 A 
ENDROOT
BRANCH   1  11
ATOM     11  C   UNL     1      24.733   6.222 -23.960  1.00  0.00     0.087 A 
ATOM     12  C   UNL     1      25.903   6.974 -24.160  1.00  0.00     0.022 A 
ATOM     13  C   UNL     1      26.320   7.302 -25.453  1.00  0.00     0.051 A 
ATOM     14  C   UNL     1      25.582   6.871 -26.564  1.00  0.00     0.157 A 
ATOM     15  C   UNL     1      24.009   5.775 -25.076  1.00  0.00     0.068 A 
ATOM     16  C   UNL     1      24.424   6.100 -26.374  1.00  0.00     0.158 A 
BRANCH  14  17
ATOM     17  O   UNL     1      26.000   7.201 -27.853  1.00  0.00    -0.504 OA
ATOM     18  H   UNL     1      25.925   6.544 -28.619  1.00  0.00     0.293 HD
ENDBRANCH  14  17
BRANCH  16  19
ATOM     19  O   UNL     1      23.671   5.650 -27.458  1.00  0.00    -0.504 OA
ATOM     20  H   UNL     1      24.100   5.380 -28.335  1.00  0.00     0.293 HD
ENDBRANCH  16  19
ENDBRANCH   1  11
BRANCH  10  21
ATOM     21  O   UNL     1      24.797   3.485 -22.958  1.00  0.00    -0.500 OA
ATOM     22  H   UNL     1      24.487   2.527 -22.853  1.00  0.00     0.294 HD
ENDBRANCH  10  21
BRANCH   5  23
ATOM     23  O   UNL     1      22.127   8.536 -17.705  1.00  0.00    -0.507 OA
ATOM     24  H   UNL     1      22.140   9.479 -18.076  1.00  0.00     0.293 HD
ENDBRANCH   5  23
BRANCH   7  25
ATOM     25  O   UNL     1      22.844   3.790 -18.113  1.00  0.00    -0.507 OA
ATOM     26  H   UNL     1      23.427   3.483 -17.348  1.00  0.00     0.293 HD
ENDBRANCH   7  25
TORSDOF 6
ENDMDL
MODEL 4
REMARK VINA RESULT:    -5.415      2.506      3.379
REMARK INTER + INTRA:          -6.833
REMARK INTER:                  -6.492
REMARK INTRA:                  -0.341
REMARK UNBOUND:                -0.311
REMARK SMILES Oc1cc(O)c2cc(O)c(-c3ccc(O)c(O)c3)[o+]c2c1
REMARK SMILES IDX 10 1 19 2 20 3 21 4 2 5 3 6 4 7 6 8 7 9 8 10 11 11 12 12
REMARK SMILES IDX 13 13 14 14 18 15 16 16 15 17 17 19 9 21 1 23 5 25
REMARK H PARENT 15 18 17 20 9 22 1 24 5 26
REMARK Flexibility Score: inf
ROOT
ATOM      1  C   UNL     1      23.759   5.292 -22.502  1.00  0.00     0.402 A 
ATOM      2  O   UNL     1      22.814   4.651 -23.186  1.00  0.00    -0.202 OA
ATOM      3  C   UNL     1      23.046   4.013 -24.329  1.00  0.00     0.368 A 
ATOM      4  C   UNL     1      21.986   3.371 -24.976  1.00  0.00     0.162 A 
ATOM      5  C   UNL     1      22.200   2.697 -26.178  1.00  0.00     0.128 A 
ATOM      6  C   UNL     1      23.481   2.663 -26.741  1.00  0.00     0.093 A 
ATOM      7  C   UNL     1      24.559   3.299 -26.112  1.00  0.00     0.136 A 
ATOM      8  C   UNL     1      24.346   3.984 -24.888  1.00  0.00     0.125 A 
ATOM      9  C   UNL     1      25.369   4.638 -24.182  1.00  0.00     0.078 A 
ATOM     10  C   UNL     1      25.083   5.289 -22.978  1.00  0.00     0.223 A 
ENDROOT
BRANCH   1  11
ATOM     11  C   UNL     1      23.373   5.974 -21.246  1.00  0.00     0.087 A 
ATOM     12  C   UNL     1      23.137   7.359 -21.208  1.00  0.00     0.022 A 
ATOM     13  C   UNL     1      22.752   7.978 -20.016  1.00  0.00     0.051 A 
ATOM     14  C   UNL     1      22.584   7.221 -18.848  1.00  0.00     0.157 A 
ATOM     15  C   UNL     1      23.184   5.217 -20.079  1.00  0.00     0.068 A 
ATOM     16  C   UNL     1      22.798   5.833 -18.883  1.00  0.00     0.158 A 
BRANCH  14  17
ATOM     17  O   UNL     1      22.202   7.841 -17.660  1.00  0.00    -0.504 OA
ATOM     18  H   UNL     1      22.824   7.889 -16.862  1.00  0.00     0.293 HD
ENDBRANCH  14  17
BRANCH  16  19
ATOM     19  O   UNL     1      22.633   5.050 -17.741  1.00  0.00    -0.504 OA
ATOM     20  H   UNL     1      22.138   4.167 -17.761  1.00  0.00     0.293 HD
ENDBRANCH  16  19
ENDBRANCH   1  11
BRANCH  10  21
ATOM     21  O   UNL     1      26.108   5.896 -22.251  1.00  0.00    -0.500 OA
ATOM     22  H   UNL     1      26.043   6.033 -21.250  1.00  0.00     0.294 HD
ENDBRANCH  10  21
BRANCH   5  23
ATOM     23  O   UNL     1      21.131   2.061 -26.807  1.00  0.00    -0.507 OA
ATOM     24  H   UNL     1      20.977   1.064 -26.712  1.00  0.00     0.293 HD
ENDBRANCH   5  23
BRANCH   7  25
ATOM     25  O   UNL     1      25.805   3.223 -26.740  1.00  0.00    -0.507 OA
ATOM     26  H   UNL     1      26.511   3.943 -26.697  1.00  0.00     0.293 HD
ENDBRANCH   7  25
TORSDOF 6
ENDMDL
MODEL 5
REMARK VINA RESULT:    -5.247      1.685      6.580
REMARK INTER + INTRA:          -6.631
REMARK INTER:                  -6.545
REMARK INTRA:                  -0.086
REMARK UNBOUND:                -0.311
REMARK SMILES Oc1cc(O)c2cc(O)c(-c3ccc(O)c(O)c3)[o+]c2c1
REMARK SMILES IDX 10 1 19 2 20 3 21 4 2 5 3 6 4 7 6 8 7 9 8 10 11 11 12 12
REMARK SMILES IDX 13 13 14 14 18 15 16 16 15 17 17 19 9 21 1 23 5 25
REMARK H PARENT 15 18 17 20 9 22 1 24 5 26
REMARK Flexibility Score: inf
ROOT
ATOM      1  C   UNL     1      24.516   6.773 -22.986  1.00  0.00     0.402 A 
ATOM      2  O   UNL     1      23.584   6.836 -22.039  1.00  0.00    -0.202 OA
ATOM      3  C   UNL     1      23.788   7.394 -20.850  1.00  0.00     0.368 A 
ATOM      4  C   UNL     1      22.746   7.409 -19.918  1.00  0.00     0.162 A 
ATOM      5  C   UNL     1      22.933   7.984 -18.661  1.00  0.00     0.128 A 
ATOM      6  C   UNL     1      24.170   8.548 -18.329  1.00  0.00     0.093 A 
ATOM      7  C   UNL     1      25.230   8.545 -19.245  1.00  0.00     0.136 A 
ATOM      8  C   UNL     1      25.043   7.963 -20.526  1.00  0.00     0.125 A 
ATOM      9  C   UNL     1      26.044   7.926 -21.510  1.00  0.00     0.078 A 
ATOM     10  C   UNL     1      25.783   7.338 -22.752  1.00  0.00     0.223 A 
ENDROOT
BRANCH   1  11
ATOM     11  C   UNL     1      24.169   6.116 -24.267  1.00  0.00     0.087 A 
ATOM     12  C   UNL     1      24.318   6.783 -25.495  1.00  0.00     0.022 A 
ATOM     13  C   UNL     1      24.005   6.136 -26.694  1.00  0.00     0.051 A 
ATOM     14  C   UNL     1      23.553   4.809 -26.683  1.00  0.00     0.157 A 
ATOM     15  C   UNL     1      23.736   4.781 -24.263  1.00  0.00     0.068 A 
ATOM     16  C   UNL     1      23.422   4.128 -25.461  1.00  0.00     0.158 A 
BRANCH  14  17
ATOM     17  O   UNL     1      23.241   4.166 -27.880  1.00  0.00    -0.504 OA
ATOM     18  H   UNL     1      23.065   3.169 -27.917  1.00  0.00     0.293 HD
ENDBRANCH  14  17
BRANCH  16  19
ATOM     19  O   UNL     1      22.982   2.806 -25.417  1.00  0.00    -0.504 OA
ATOM     20  H   UNL     1      22.000   2.568 -25.357  1.00  0.00     0.293 HD
ENDBRANCH  16  19
ENDBRANCH   1  11
BRANCH  10  21
ATOM     21  O   UNL     1      26.761   7.346 -23.748  1.00  0.00    -0.500 OA
ATOM     22  H   UNL     1      27.021   6.503 -24.245  1.00  0.00     0.294 HD
ENDBRANCH  10  21
BRANCH   5  23
ATOM     23  O   UNL     1      21.882   7.992 -17.747  1.00  0.00    -0.507 OA
ATOM     24  H   UNL     1      21.256   8.784 -17.665  1.00  0.00     0.293 HD
ENDBRANCH   5  23
BRANCH   7  25
ATOM     25  O   UNL     1      26.435   9.125 -18.837  1.00  0.00    -0.507 OA
ATOM     26  H   UNL     1      26.759   9.155 -17.882  1.00  0.00     0.293 HD
ENDBRANCH   7  25
TORSDOF 6
ENDMDL
MODEL 6
REMARK VINA RESULT:    -5.223     16.643     17.901
REMARK INTER + INTRA:          -6.602
REMARK INTER:                  -6.308
REMARK INTRA:                  -0.294
REMARK UNBOUND:                -0.311
REMARK SMILES Oc1cc(O)c2cc(O)c(-c3ccc(O)c(O)c3)[o+]c2c1
REMARK SMILES IDX 10 1 19 2 20 3 21 4 2 5 3 6 4 7 6 8 7 9 8 10 11 11 12 12
REMARK SMILES IDX 13 13 14 14 18 15 16 16 15 17 17 19 9 21 1 23 5 25
REMARK H PARENT 15 18 17 20 9 22 1 24 5 26
REMARK Flexibility Score: inf
ROOT
ATOM      1  C   UNL     1      31.745  -8.176 -27.146  1.00  0.00     0.402 A 
ATOM      2  O   UNL     1      30.538  -7.998 -27.676  1.00  0.00    -0.202 OA
ATOM      3  C   UNL     1      30.317  -7.945 -28.986  1.00  0.00     0.368 A 
ATOM      4  C   UNL     1      29.012  -7.750 -29.448  1.00  0.00     0.162 A 
ATOM      5  C   UNL     1      28.751  -7.687 -30.817  1.00  0.00     0.128 A 
ATOM      6  C   UNL     1      29.800  -7.819 -31.733  1.00  0.00     0.093 A 
ATOM      7  C   UNL     1      31.116  -8.014 -31.296  1.00  0.00     0.136 A 
ATOM      8  C   UNL     1      31.386  -8.081 -29.904  1.00  0.00     0.125 A 
ATOM      9  C   UNL     1      32.670  -8.287 -29.376  1.00  0.00     0.078 A 
ATOM     10  C   UNL     1      32.857  -8.346 -27.991  1.00  0.00     0.223 A 
ENDROOT
BRANCH   1  11
ATOM     11  C   UNL     1      31.864  -8.207 -25.670  1.00  0.00     0.087 A 
ATOM     12  C   UNL     1      31.785  -7.030 -24.905  1.00  0.00     0.022 A 
ATOM     13  C   UNL     1      31.878  -7.086 -23.512  1.00  0.00     0.051 A 
ATOM     14  C   UNL     1      32.036  -8.318 -22.862  1.00  0.00     0.157 A 
ATOM     15  C   UNL     1      32.002  -9.440 -25.014  1.00  0.00     0.068 A 
ATOM     16  C   UNL     1      32.094  -9.500 -23.618  1.00  0.00     0.158 A 
BRANCH  14  17
ATOM     17  O   UNL     1      32.130  -8.370 -21.473  1.00  0.00    -0.504 OA
ATOM     18  H   UNL     1      32.827  -7.838 -20.967  1.00  0.00     0.293 HD
ENDBRANCH  14  17
BRANCH  16  19
ATOM     19  O   UNL     1      32.244 -10.742 -23.003  1.00  0.00    -0.504 OA
ATOM     20  H   UNL     1      33.024 -10.949 -22.390  1.00  0.00     0.293 HD
ENDBRANCH  16  19
ENDBRANCH   1  11
BRANCH  10  21
ATOM     21  O   UNL     1      34.125  -8.600 -27.468  1.00  0.00    -0.500 OA
ATOM     22  H   UNL     1      34.452  -9.543 -27.298  1.00  0.00     0.294 HD
ENDBRANCH  10  21
BRANCH   5  23
ATOM     23  O   UNL     1      27.444  -7.494 -31.257  1.00  0.00    -0.507 OA
ATOM     24  H   UNL     1      27.119  -7.877 -32.138  1.00  0.00     0.293 HD
ENDBRANCH   5  23
BRANCH   7  25
ATOM     25  O   UNL     1      32.108  -8.133 -32.273  1.00  0.00    -0.507 OA
ATOM     26  H   UNL     1      32.033  -8.714 -33.095  1.00  0.00     0.293 HD
ENDBRANCH   7  25
TORSDOF 6
ENDMDL
MODEL 7
REMARK VINA RESULT:    -5.072     12.702     14.726
REMARK INTER + INTRA:          -6.420
REMARK INTER:                  -6.232
REMARK INTRA:                  -0.188
REMARK UNBOUND:                -0.311
REMARK SMILES Oc1cc(O)c2cc(O)c(-c3ccc(O)c(O)c3)[o+]c2c1
REMARK SMILES IDX 10 1 19 2 20 3 21 4 2 5 3 6 4 7 6 8 7 9 8 10 11 11 12 12
REMARK SMILES IDX 13 13 14 14 18 15 16 16 15 17 17 19 9 21 1 23 5 25
REMARK H PARENT 15 18 17 20 9 22 1 24 5 26
REMARK Flexibility Score: inf
ROOT
ATOM      1  C   UNL     1      26.699  -5.106 -28.632  1.00  0.00     0.402 A 
ATOM      2  O   UNL     1      26.794  -6.234 -29.331  1.00  0.00    -0.202 OA
ATOM      3  C   UNL     1      27.812  -6.508 -30.140  1.00  0.00     0.368 A 
ATOM      4  C   UNL     1      27.820  -7.722 -30.835  1.00  0.00     0.162 A 
ATOM      5  C   UNL     1      28.874  -8.034 -31.694  1.00  0.00     0.128 A 
ATOM      6  C   UNL     1      29.928  -7.129 -31.863  1.00  0.00     0.093 A 
ATOM      7  C   UNL     1      29.942  -5.907 -31.179  1.00  0.00     0.136 A 
ATOM      8  C   UNL     1      28.874  -5.586 -30.302  1.00  0.00     0.125 A 
ATOM      9  C   UNL     1      28.811  -4.392 -29.567  1.00  0.00     0.078 A 
ATOM     10  C   UNL     1      27.726  -4.148 -28.718  1.00  0.00     0.223 A 
ENDROOT
BRANCH   1  11
ATOM     11  C   UNL     1      25.510  -4.913 -27.772  1.00  0.00     0.087 A 
ATOM     12  C   UNL     1      24.630  -3.834 -27.970  1.00  0.00     0.022 A 
ATOM     13  C   UNL     1      23.502  -3.685 -27.160  1.00  0.00     0.051 A 
ATOM     14  C   UNL     1      23.228  -4.617 -26.149  1.00  0.00     0.157 A 
ATOM     15  C   UNL     1      25.220  -5.855 -26.773  1.00  0.00     0.068 A 
ATOM     16  C   UNL     1      24.091  -5.709 -25.959  1.00  0.00     0.158 A 
BRANCH  14  17
ATOM     17  O   UNL     1      22.103  -4.465 -25.342  1.00  0.00    -0.504 OA
ATOM     18  H   UNL     1      22.138  -4.635 -24.344  1.00  0.00     0.293 HD
ENDBRANCH  14  17
BRANCH  16  19
ATOM     19  O   UNL     1      23.843  -6.658 -24.968  1.00  0.00    -0.504 OA
ATOM     20  H   UNL     1      23.681  -6.398 -24.002  1.00  0.00     0.293 HD
ENDBRANCH  16  19
ENDBRANCH   1  11
BRANCH  10  21
ATOM     21  O   UNL     1      27.688  -2.984 -27.950  1.00  0.00    -0.500 OA
ATOM     22  H   UNL     1      28.372  -2.246 -28.066  1.00  0.00     0.294 HD
ENDBRANCH  10  21
BRANCH   5  23
ATOM     23  O   UNL     1      28.865  -9.249 -32.376  1.00  0.00    -0.507 OA
ATOM     24  H   UNL     1      29.175  -9.318 -33.339  1.00  0.00     0.293 HD
ENDBRANCH   5  23
BRANCH   7  25
ATOM     25  O   UNL     1      31.028  -5.056 -31.404  1.00  0.00    -0.507 OA
ATOM     26  H   UNL     1      31.732  -4.835 -30.715  1.00  0.00     0.293 HD
ENDBRANCH   7  25
TORSDOF 6
ENDMDL
MODEL 8
REMARK VINA RESULT:    -4.959     13.627     16.647
REMARK INTER + INTRA:          -6.284
REMARK INTER:                  -5.995
REMARK INTRA:                  -0.289
REMARK UNBOUND:                -0.311
REMARK SMILES Oc1cc(O)c2cc(O)c(-c3ccc(O)c(O)c3)[o+]c2c1
REMARK SMILES IDX 10 1 19 2 20 3 21 4 2 5 3 6 4 7 6 8 7 9 8 10 11 11 12 12
REMARK SMILES IDX 13 13 14 14 18 15 16 16 15 17 17 19 9 21 1 23 5 25
REMARK H PARENT 15 18 17 20 9 22 1 24 5 26
REMARK Flexibility Score: inf
ROOT
ATOM      1  C   UNL     1      26.754  -6.530 -28.006  1.00  0.00     0.402 A 
ATOM      2  O   UNL     1      26.371  -7.394 -27.069  1.00  0.00    -0.202 OA
ATOM      3  C   UNL     1      25.418  -7.132 -26.180  1.00  0.00     0.368 A 
ATOM      4  C   UNL     1      25.088  -8.103 -25.230  1.00  0.00     0.162 A 
ATOM      5  C   UNL     1      24.094  -7.854 -24.284  1.00  0.00     0.128 A 
ATOM      6  C   UNL     1      23.424  -6.626 -24.283  1.00  0.00     0.093 A 
ATOM      7  C   UNL     1      23.736  -5.636 -25.224  1.00  0.00     0.136 A 
ATOM      8  C   UNL     1      24.745  -5.886 -26.190  1.00  0.00     0.125 A 
ATOM      9  C   UNL     1      25.115  -4.959 -27.177  1.00  0.00     0.078 A 
ATOM     10  C   UNL     1      26.117  -5.279 -28.099  1.00  0.00     0.223 A 
ENDROOT
BRANCH   1  11
ATOM     11  C   UNL     1      27.836  -6.936 -28.932  1.00  0.00     0.087 A 
ATOM     12  C   UNL     1      29.177  -6.983 -28.515  1.00  0.00     0.022 A 
ATOM     13  C   UNL     1      30.178  -7.391 -29.400  1.00  0.00     0.051 A 
ATOM     14  C   UNL     1      29.853  -7.770 -30.710  1.00  0.00     0.157 A 
ATOM     15  C   UNL     1      27.512  -7.337 -30.237  1.00  0.00     0.068 A 
ATOM     16  C   UNL     1      28.512  -7.747 -31.128  1.00  0.00     0.158 A 
BRANCH  14  17
ATOM     17  O   UNL     1      30.854  -8.175 -31.591  1.00  0.00    -0.504 OA
ATOM     18  H   UNL     1      31.427  -8.989 -31.406  1.00  0.00     0.293 HD
ENDBRANCH  14  17
BRANCH  16  19
ATOM     19  O   UNL     1      28.154  -8.125 -32.421  1.00  0.00    -0.504 OA
ATOM     20  H   UNL     1      28.803  -8.587 -33.046  1.00  0.00     0.293 HD
ENDBRANCH  16  19
ENDBRANCH   1  11
BRANCH  10  21
ATOM     21  O   UNL     1      26.450  -4.378 -29.110  1.00  0.00    -0.500 OA
ATOM     22  H   UNL     1      26.021  -3.463 -29.171  1.00  0.00     0.294 HD
ENDBRANCH  10  21
BRANCH   5  23
ATOM     23  O   UNL     1      23.778  -8.836 -23.347  1.00  0.00    -0.507 OA
ATOM     24  H   UNL     1      22.821  -9.006 -23.059  1.00  0.00     0.293 HD
ENDBRANCH   5  23
BRANCH   7  25
ATOM     25  O   UNL     1      23.025  -4.435 -25.155  1.00  0.00    -0.507 OA
ATOM     26  H   UNL     1      22.988  -3.750 -25.895  1.00  0.00     0.293 HD
ENDBRANCH   7  25
TORSDOF 6
ENDMDL
