MODEL 1
REMARK VINA RESULT:    -4.307      0.000      0.000
REMARK INTER + INTRA:          -7.837
REMARK INTER:                  -6.825
REMARK INTRA:                  -1.012
REMARK UNBOUND:                -1.012
REMARK SMILES CCCCCCCCCCCC(=O)[O-]
REMARK SMILES IDX 7 1 8 2 9 3 10 4 11 5 12 6 13 7 14 8 6 9 5 10 4 11 3 12 2 13
REMARK SMILES IDX 1 14
REMARK H PARENT
REMARK Flexibility Score: inf
ROOT
ATOM      1  C   UNL     1       6.630   6.954  17.314  1.00  0.00     0.000 C 
ENDROOT
BRANCH   1   2
ATOM      2  C   UNL     1       5.977   6.036  16.268  1.00  0.00     0.000 C 
BRANCH   2   3
ATOM      3  C   UNL     1       7.016   5.177  15.513  1.00  0.00     0.000 C 
BRANCH   3   4
ATOM      4  C   UNL     1       8.458   5.702  15.648  1.00  0.00     0.006 C 
BRANCH   4   5
ATOM      5  C   UNL     1       9.298   5.551  14.371  1.00  0.00     0.053 C 
BRANCH   5   6
ATOM      6  C   UNL     1      10.206   6.725  14.160  1.00  0.00     0.041 C 
ATOM      7  O   UNL     1      10.519   7.079  12.993  1.00  0.00    -0.550 OA
ATOM      8  O   UNL     1      10.719   7.417  15.249  1.00  0.00    -0.550 OA
ENDBRANCH   5   6
ENDBRANCH   4   5
ENDBRANCH   3   4
ENDBRANCH   2   3
ENDBRANCH   1   2
BRANCH   1   9
ATOM      9  C   UNL     1       6.343   6.516  18.762  1.00  0.00     0.000 C 
BRANCH   9  10
ATOM     10  C   UNL     1       7.478   5.726  19.438  1.00  0.00    -0.000 C 
BRANCH  10  11
ATOM     11  C   UNL     1       7.375   4.211  19.206  1.00  0.00    -0.000 C 
BRANCH  11  12
ATOM     12  C   UNL     1       5.907   3.757  19.201  1.00  0.00    -0.000 C 
BRANCH  12  13
ATOM     13  C   UNL     1       5.494   3.076  20.514  1.00  0.00    -0.003 C 
ATOM     14  C   UNL     1       4.509   3.913  21.330  1.00  0.00     0.004 C 
ENDBRANCH  12  13
ENDBRANCH  11  12
ENDBRANCH  10  11
ENDBRANCH   9  10
ENDBRANCH   1   9
TORSDOF 10
ENDMDL
MODEL 2
REMARK VINA RESULT:    -4.235      3.799      6.793
REMARK INTER + INTRA:          -7.724
REMARK INTER:                  -6.569
REMARK INTRA:                  -1.155
REMARK UNBOUND:                -1.012
REMARK SMILES CCCCCCCCCCCC(=O)[O-]
REMARK SMILES IDX 7 1 8 2 9 3 10 4 11 5 12 6 13 7 14 8 6 9 5 10 4 11 3 12 2 13
REMARK SMILES IDX 1 14
REMARK H PARENT
REMARK Flexibility Score: inf
ROOT
ATOM      1  C   UNL     1       7.385   4.132  19.056  1.00  0.00     0.000 C 
ENDROOT
BRANCH   1   2
ATOM      2  C   UNL     1       5.958   3.633  19.338  1.00  0.00     0.000 C 
BRANCH   2   3
ATOM      3  C   UNL     1       5.948   2.329  20.166  1.00  0.00     0.000 C 
BRANCH   3   4
ATOM      4  C   UNL     1       5.204   2.462  21.509  1.00  0.00     0.006 C 
BRANCH   4   5
ATOM      5  C   UNL     1       4.541   3.831  21.722  1.00  0.00     0.053 C 
BRANCH   5   6
ATOM      6  C   UNL     1       5.215   4.613  22.809  1.00  0.00     0.041 C 
ATOM      7  O   UNL     1       4.914   4.410  24.014  1.00  0.00    -0.550 OA
ATOM      8  O   UNL     1       6.162   5.578  22.491  1.00  0.00    -0.550 OA
ENDBRANCH   5   6
ENDBRANCH   4   5
ENDBRANCH   3   4
ENDBRANCH   2   3
ENDBRANCH   1   2
BRANCH   1   9
ATOM      9  C   UNL     1       7.537   5.653  19.234  1.00  0.00     0.000 C 
BRANCH   9  10
ATOM     10  C   UNL     1       6.343   6.488  18.736  1.00  0.00    -0.000 C 
BRANCH  10  11
ATOM     11  C   UNL     1       6.519   6.984  17.293  1.00  0.00    -0.000 C 
BRANCH  11  12
ATOM     12  C   UNL     1       5.844   6.027  16.299  1.00  0.00    -0.000 C 
BRANCH  12  13
ATOM     13  C   UNL     1       6.857   5.174  15.520  1.00  0.00    -0.003 C 
ATOM     14  C   UNL     1       8.270   5.758  15.553  1.00  0.00     0.004 C 
ENDBRANCH  12  13
ENDBRANCH  11  12
ENDBRANCH  10  11
ENDBRANCH   9  10
ENDBRANCH   1   9
TORSDOF 10
ENDMDL
MODEL 3
REMARK VINA RESULT:    -4.234      3.613      6.952
REMARK INTER + INTRA:          -7.722
REMARK INTER:                  -7.182
REMARK INTRA:                  -0.540
REMARK UNBOUND:                -1.012
REMARK SMILES CCCCCCCCCCCC(=O)[O-]
REMARK SMILES IDX 7 1 8 2 9 3 10 4 11 5 12 6 13 7 14 8 6 9 5 10 4 11 3 12 2 13
REMARK SMILES IDX 1 14
REMARK H PARENT
REMARK Flexibility Score: inf
ROOT
ATOM      1  C   UNL     1       6.066   5.722  16.319  1.00  0.00     0.000 C 
ENDROOT
BRANCH   1   2
ATOM      2  C   UNL     1       6.318   6.882  17.296  1.00  0.00     0.000 C 
BRANCH   2   3
ATOM      3  C   UNL     1       6.603   6.387  18.731  1.00  0.00     0.000 C 
BRANCH   3   4
ATOM      4  C   UNL     1       6.160   4.932  18.976  1.00  0.00     0.006 C 
BRANCH   4   5
ATOM      5  C   UNL     1       5.599   4.679  20.383  1.00  0.00     0.053 C 
BRANCH   5   6
ATOM      6  C   UNL     1       5.406   3.217  20.651  1.00  0.00     0.041 C 
ATOM      7  O   UNL     1       5.742   2.366  19.787  1.00  0.00    -0.550 OA
ATOM      8  O   UNL     1       4.839   2.795  21.847  1.00  0.00    -0.550 OA
ENDBRANCH   5   6
ENDBRANCH   4   5
ENDBRANCH   3   4
ENDBRANCH   2   3
ENDBRANCH   1   2
BRANCH   1   9
ATOM      9  C   UNL     1       7.338   5.275  15.574  1.00  0.00     0.000 C 
BRANCH   9  10
ATOM     10  C   UNL     1       8.529   6.245  15.684  1.00  0.00    -0.000 C 
BRANCH  10  11
ATOM     11  C   UNL     1       9.766   5.765  14.911  1.00  0.00    -0.000 C 
BRANCH  11  12
ATOM     12  C   UNL     1      10.497   6.947  14.257  1.00  0.00    -0.000 C 
BRANCH  12  13
ATOM     13  C   UNL     1      10.546   6.838  12.726  1.00  0.00    -0.003 C 
ATOM     14  C   UNL     1       9.650   5.724  12.183  1.00  0.00     0.004 C 
ENDBRANCH  12  13
ENDBRANCH  11  12
ENDBRANCH  10  11
ENDBRANCH   9  10
ENDBRANCH   1   9
TORSDOF 10
ENDMDL
MODEL 4
REMARK VINA RESULT:    -4.203      3.288      6.249
REMARK INTER + INTRA:          -7.673
REMARK INTER:                  -6.460
REMARK INTRA:                  -1.213
REMARK UNBOUND:                -1.012
REMARK SMILES CCCCCCCCCCCC(=O)[O-]
REMARK SMILES IDX 7 1 8 2 9 3 10 4 11 5 12 6 13 7 14 8 6 9 5 10 4 11 3 12 2 13
REMARK SMILES IDX 1 14
REMARK H PARENT
REMARK Flexibility Score: inf
ROOT
ATOM      1  C   UNL     1       9.673   5.689  16.383  1.00  0.00     0.000 C 
ENDROOT
BRANCH   1   2
ATOM      2  C   UNL     1       8.486   4.731  16.195  1.00  0.00     0.000 C 
BRANCH   2   3
ATOM      3  C   UNL     1       7.326   5.384  15.412  1.00  0.00     0.000 C 
BRANCH   3   4
ATOM      4  C   UNL     1       6.129   5.772  16.301  1.00  0.00     0.006 C 
BRANCH   4   5
ATOM      5  C   UNL     1       6.387   6.990  17.199  1.00  0.00     0.053 C 
BRANCH   5   6
ATOM      6  C   UNL     1       6.406   6.619  18.651  1.00  0.00     0.041 C 
ATOM      7  O   UNL     1       6.351   5.409  18.995  1.00  0.00    -0.550 OA
ATOM      8  O   UNL     1       6.468   7.608  19.624  1.00  0.00    -0.550 OA
ENDBRANCH   5   6
ENDBRANCH   4   5
ENDBRANCH   3   4
ENDBRANCH   2   3
ENDBRANCH   1   2
BRANCH   1   9
ATOM      9  C   UNL     1       9.736   6.789  15.307  1.00  0.00     0.000 C 
BRANCH   9  10
ATOM     10  C   UNL     1      10.909   6.663  14.318  1.00  0.00    -0.000 C 
BRANCH  10  11
ATOM     11  C   UNL     1      10.486   6.875  12.857  1.00  0.00    -0.000 C 
BRANCH  11  12
ATOM     12  C   UNL     1      10.355   5.531  12.124  1.00  0.00    -0.000 C 
BRANCH  12  13
ATOM     13  C   UNL     1       8.906   5.024  12.076  1.00  0.00    -0.003 C 
ATOM     14  C   UNL     1       8.769   3.579  12.560  1.00  0.00     0.004 C 
ENDBRANCH  12  13
ENDBRANCH  11  12
ENDBRANCH  10  11
ENDBRANCH   9  10
ENDBRANCH   1   9
TORSDOF 10
ENDMDL
MODEL 5
REMARK VINA RESULT:    -4.168      3.831      6.422
REMARK INTER + INTRA:          -7.617
REMARK INTER:                  -6.586
REMARK INTRA:                  -1.031
REMARK UNBOUND:                -1.012
REMARK SMILES CCCCCCCCCCCC(=O)[O-]
REMARK SMILES IDX 7 1 8 2 9 3 10 4 11 5 12 6 13 7 14 8 6 9 5 10 4 11 3 12 2 13
REMARK SMILES IDX 1 14
REMARK H PARENT
REMARK Flexibility Score: inf
ROOT
ATOM      1  C   UNL     1       6.553   6.948  17.436  1.00  0.00     0.000 C 
ENDROOT
BRANCH   1   2
ATOM      2  C   UNL     1       6.419   6.388  18.861  1.00  0.00     0.000 C 
BRANCH   2   3
ATOM      3  C   UNL     1       7.601   5.469  19.242  1.00  0.00     0.000 C 
BRANCH   3   4
ATOM      4  C   UNL     1       7.255   3.969  19.184  1.00  0.00     0.006 C 
BRANCH   4   5
ATOM      5  C   UNL     1       5.754   3.670  19.309  1.00  0.00     0.053 C 
BRANCH   5   6
ATOM      6  C   UNL     1       5.355   3.402  20.729  1.00  0.00     0.041 C 
ATOM      7  O   UNL     1       4.314   3.930  21.203  1.00  0.00    -0.550 OA
ATOM      8  O   UNL     1       6.139   2.586  21.533  1.00  0.00    -0.550 OA
ENDBRANCH   5   6
ENDBRANCH   4   5
ENDBRANCH   3   4
ENDBRANCH   2   3
ENDBRANCH   1   2
BRANCH   1   9
ATOM      9  C   UNL     1       5.800   6.111  16.387  1.00  0.00     0.000 C 
BRANCH   9  10
ATOM     10  C   UNL     1       6.673   5.112  15.605  1.00  0.00    -0.000 C 
BRANCH  10  11
ATOM     11  C   UNL     1       8.140   5.555  15.497  1.00  0.00    -0.000 C 
BRANCH  11  12
ATOM     12  C   UNL     1       8.924   4.628  14.555  1.00  0.00    -0.000 C 
BRANCH  12  13
ATOM     13  C   UNL     1       8.006   3.777  13.664  1.00  0.00    -0.003 C 
ATOM     14  C   UNL     1       8.274   3.982  12.173  1.00  0.00     0.004 C 
ENDBRANCH  12  13
ENDBRANCH  11  12
ENDBRANCH  10  11
ENDBRANCH   9  10
ENDBRANCH   1   9
TORSDOF 10
ENDMDL
MODEL 6
REMARK VINA RESULT:    -4.115      1.765      3.309
REMARK INTER + INTRA:          -7.533
REMARK INTER:                  -6.347
REMARK INTRA:                  -1.186
REMARK UNBOUND:                -1.012
REMARK SMILES CCCCCCCCCCCC(=O)[O-]
REMARK SMILES IDX 7 1 8 2 9 3 10 4 11 5 12 6 13 7 14 8 6 9 5 10 4 11 3 12 2 13
REMARK SMILES IDX 1 14
REMARK H PARENT
REMARK Flexibility Score: inf
ROOT
ATOM      1  C   UNL     1       7.303   3.854  19.214  1.00  0.00     0.000 C 
ENDROOT
BRANCH   1   2
ATOM      2  C   UNL     1       7.566   5.320  18.833  1.00  0.00     0.000 C 
BRANCH   2   3
ATOM      3  C   UNL     1       6.293   6.028  18.319  1.00  0.00     0.000 C 
BRANCH   3   4
ATOM      4  C   UNL     1       6.386   6.460  16.843  1.00  0.00     0.006 C 
BRANCH   4   5
ATOM      5  C   UNL     1       6.312   5.294  15.846  1.00  0.00     0.053 C 
BRANCH   5   6
ATOM      6  C   UNL     1       7.624   5.064  15.159  1.00  0.00     0.041 C 
ATOM      7  O   UNL     1       7.744   4.134  14.319  1.00  0.00    -0.550 OA
ATOM      8  O   UNL     1       8.719   5.865  15.458  1.00  0.00    -0.550 OA
ENDBRANCH   5   6
ENDBRANCH   4   5
ENDBRANCH   3   4
ENDBRANCH   2   3
ENDBRANCH   1   2
BRANCH   1   9
ATOM      9  C   UNL     1       5.811   3.548  19.436  1.00  0.00     0.000 C 
BRANCH   9  10
ATOM     10  C   UNL     1       5.508   2.622  20.629  1.00  0.00    -0.000 C 
BRANCH  10  11
ATOM     11  C   UNL     1       4.762   3.334  21.767  1.00  0.00    -0.000 C 
BRANCH  11  12
ATOM     12  C   UNL     1       4.536   4.816  21.431  1.00  0.00    -0.000 C 
BRANCH  12  13
ATOM     13  C   UNL     1       5.444   5.750  22.244  1.00  0.00    -0.003 C 
ATOM     14  C   UNL     1       5.527   7.157  21.651  1.00  0.00     0.004 C 
ENDBRANCH  12  13
ENDBRANCH  11  12
ENDBRANCH  10  11
ENDBRANCH   9  10
ENDBRANCH   1   9
TORSDOF 10
ENDMDL
MODEL 7
REMARK VINA RESULT:    -4.096      2.900      6.410
REMARK INTER + INTRA:          -7.502
REMARK INTER:                  -6.708
REMARK INTRA:                  -0.794
REMARK UNBOUND:                -1.012
REMARK SMILES CCCCCCCCCCCC(=O)[O-]
REMARK SMILES IDX 7 1 8 2 9 3 10 4 11 5 12 6 13 7 14 8 6 9 5 10 4 11 3 12 2 13
REMARK SMILES IDX 1 14
REMARK H PARENT
REMARK Flexibility Score: inf
ROOT
ATOM      1  C   UNL     1       7.711   5.315  15.486  1.00  0.00     0.000 C 
ENDROOT
BRANCH   1   2
ATOM      2  C   UNL     1       6.258   5.428  15.974  1.00  0.00     0.000 C 
BRANCH   2   3
ATOM      3  C   UNL     1       6.080   6.543  17.028  1.00  0.00     0.000 C 
BRANCH   3   4
ATOM      4  C   UNL     1       6.807   6.254  18.355  1.00  0.00     0.006 C 
BRANCH   4   5
ATOM      5  C   UNL     1       6.032   5.327  19.302  1.00  0.00     0.053 C 
BRANCH   5   6
ATOM      6  C   UNL     1       6.571   3.928  19.280  1.00  0.00     0.041 C 
ATOM      7  O   UNL     1       7.763   3.716  18.935  1.00  0.00    -0.550 OA
ATOM      8  O   UNL     1       5.755   2.859  19.622  1.00  0.00    -0.550 OA
ENDBRANCH   5   6
ENDBRANCH   4   5
ENDBRANCH   3   4
ENDBRANCH   2   3
ENDBRANCH   1   2
BRANCH   1   9
ATOM      9  C   UNL     1       7.866   4.395  14.261  1.00  0.00     0.000 C 
BRANCH   9  10
ATOM     10  C   UNL     1       9.270   4.386  13.629  1.00  0.00    -0.000 C 
BRANCH  10  11
ATOM     11  C   UNL     1       9.417   5.393  12.479  1.00  0.00    -0.000 C 
BRANCH  11  12
ATOM     12  C   UNL     1      10.189   6.639  12.937  1.00  0.00    -0.000 C 
BRANCH  12  13
ATOM     13  C   UNL     1      11.067   6.370  14.169  1.00  0.00    -0.003 C 
ATOM     14  C   UNL     1      10.749   7.303  15.337  1.00  0.00     0.004 C 
ENDBRANCH  12  13
ENDBRANCH  11  12
ENDBRANCH  10  11
ENDBRANCH   9  10
ENDBRANCH   1   9
TORSDOF 10
ENDMDL
MODEL 8
REMARK VINA RESULT:    -4.088      4.043      6.320
REMARK INTER + INTRA:          -7.491
REMARK INTER:                  -6.265
REMARK INTRA:                  -1.226
REMARK UNBOUND:                -1.012
REMARK SMILES CCCCCCCCCCCC(=O)[O-]
REMARK SMILES IDX 7 1 8 2 9 3 10 4 11 5 12 6 13 7 14 8 6 9 5 10 4 11 3 12 2 13
REMARK SMILES IDX 1 14
REMARK H PARENT
REMARK Flexibility Score: inf
ROOT
ATOM      1  C   UNL     1       6.390   6.685  16.970  1.00  0.00     0.000 C 
ENDROOT
BRANCH   1   2
ATOM      2  C   UNL     1       6.397   6.131  18.404  1.00  0.00     0.000 C 
BRANCH   2   3
ATOM      3  C   UNL     1       6.031   4.632  18.453  1.00  0.00     0.000 C 
BRANCH   3   4
ATOM      4  C   UNL     1       6.608   3.900  19.680  1.00  0.00     0.006 C 
BRANCH   4   5
ATOM      5  C   UNL     1       5.794   2.673  20.116  1.00  0.00     0.053 C 
BRANCH   5   6
ATOM      6  C   UNL     1       5.092   2.904  21.420  1.00  0.00     0.041 C 
ATOM      7  O   UNL     1       5.206   2.070  22.355  1.00  0.00    -0.550 OA
ATOM      8  O   UNL     1       4.299   4.030  21.596  1.00  0.00    -0.550 OA
ENDBRANCH   5   6
ENDBRANCH   4   5
ENDBRANCH   3   4
ENDBRANCH   2   3
ENDBRANCH   1   2
BRANCH   1   9
ATOM      9  C   UNL     1       6.248   5.587  15.901  1.00  0.00     0.000 C 
BRANCH   9  10
ATOM     10  C   UNL     1       7.577   5.061  15.328  1.00  0.00    -0.000 C 
BRANCH  10  11
ATOM     11  C   UNL     1       8.750   6.027  15.554  1.00  0.00    -0.000 C 
BRANCH  11  12
ATOM     12  C   UNL     1       9.971   5.284  16.116  1.00  0.00    -0.000 C 
BRANCH  12  13
ATOM     13  C   UNL     1       9.625   4.414  17.334  1.00  0.00    -0.003 C 
ATOM     14  C   UNL     1       9.951   5.099  18.661  1.00  0.00     0.004 C 
ENDBRANCH  12  13
ENDBRANCH  11  12
ENDBRANCH  10  11
ENDBRANCH   9  10
ENDBRANCH   1   9
TORSDOF 10
ENDMDL
MODEL 9
REMARK VINA RESULT:    -4.083      1.993      3.379
REMARK INTER + INTRA:          -7.482
REMARK INTER:                  -6.387
REMARK INTRA:                  -1.095
REMARK UNBOUND:                -1.012
REMARK SMILES CCCCCCCCCCCC(=O)[O-]
REMARK SMILES IDX 7 1 8 2 9 3 10 4 11 5 12 6 13 7 14 8 6 9 5 10 4 11 3 12 2 13
REMARK SMILES IDX 1 14
REMARK H PARENT
REMARK Flexibility Score: inf
ROOT
ATOM      1  C   UNL     1       8.619   4.522  15.875  1.00  0.00     0.000 C 
ENDROOT
BRANCH   1   2
ATOM      2  C   UNL     1       9.853   5.422  16.051  1.00  0.00     0.000 C 
BRANCH   2   3
ATOM      3  C   UNL     1       9.766   6.708  15.199  1.00  0.00     0.000 C 
BRANCH   3   4
ATOM      4  C   UNL     1      10.835   6.783  14.093  1.00  0.00     0.006 C 
BRANCH   4   5
ATOM      5  C   UNL     1      10.261   6.775  12.668  1.00  0.00     0.053 C 
BRANCH   5   6
ATOM      6  C   UNL     1      10.033   5.381  12.167  1.00  0.00     0.041 C 
ATOM      7  O   UNL     1      11.012   4.624  11.936  1.00  0.00    -0.550 OA
ATOM      8  O   UNL     1       8.742   4.924  11.939  1.00  0.00    -0.550 OA
ENDBRANCH   5   6
ENDBRANCH   4   5
ENDBRANCH   3   4
ENDBRANCH   2   3
ENDBRANCH   1   2
BRANCH   1   9
ATOM      9  C   UNL     1       7.445   5.240  15.185  1.00  0.00     0.000 C 
BRANCH   9  10
ATOM     10  C   UNL     1       6.275   5.613  16.114  1.00  0.00    -0.000 C 
BRANCH  10  11
ATOM     11  C   UNL     1       6.378   7.045  16.662  1.00  0.00    -0.000 C 
BRANCH  11  12
ATOM     12  C   UNL     1       6.411   7.042  18.198  1.00  0.00    -0.000 C 
BRANCH  12  13
ATOM     13  C   UNL     1       6.396   5.623  18.787  1.00  0.00    -0.003 C 
ATOM     14  C   UNL     1       6.419   5.618  20.316  1.00  0.00     0.004 C 
ENDBRANCH  12  13
ENDBRANCH  11  12
ENDBRANCH  10  11
ENDBRANCH   9  10
ENDBRANCH   1   9
TORSDOF 10
ENDMDL
