MODEL 1
REMARK VINA RESULT:    -0.236      0.000      0.000
REMARK INTER + INTRA:          -0.567
REMARK INTER:                  -0.278
REMARK INTRA:                  -0.289
REMARK UNBOUND:                -0.289
REMARK SMILES O=c1c(O)c(-c2ccc(O)cc2)oc2cc(O)cc(O)c12
REMARK SMILES IDX 5 1 3 2 2 3 1 4 21 5 19 6 18 7 16 8 15 9 14 10 13 11 6 12
REMARK SMILES IDX 7 13 8 14 9 15 12 16 11 17 10 18 4 20 20 22 17 24
REMARK H PARENT 10 19 4 21 20 23 17 25
REMARK Flexibility Score: inf
ROOT
ATOM      1  C   UNL     1     151.154 159.351 147.307  1.00  0.00     0.180 A 
ATOM      2  C   UNL     1     152.406 159.600 146.720  1.00  0.00     0.208 A 
ATOM      3  C   UNL     1     153.511 159.848 147.550  1.00  0.00     0.238 A 
ATOM      4  O   UNL     1     154.617 160.124 147.018  1.00  0.00    -0.285 OA
ATOM      5  C   UNL     1     153.353 159.827 148.957  1.00  0.00     0.111 A 
ATOM      6  C   UNL     1     154.412 160.025 149.894  1.00  0.00     0.134 A 
ATOM      7  C   UNL     1     154.117 160.114 151.260  1.00  0.00     0.093 A 
ATOM      8  C   UNL     1     152.811 159.947 151.728  1.00  0.00     0.123 A 
ATOM      9  C   UNL     1     151.780 159.694 150.825  1.00  0.00     0.094 A 
ATOM     10  C   UNL     1     152.037 159.636 149.453  1.00  0.00     0.146 A 
ATOM     11  O   UNL     1     151.024 159.404 148.628  1.00  0.00    -0.452 OA
ENDROOT
BRANCH   1  12
ATOM     12  C   UNL     1     149.948 159.056 146.498  1.00  0.00     0.021 A 
ATOM     13  C   UNL     1     149.671 157.730 146.130  1.00  0.00     0.016 A 
ATOM     14  C   UNL     1     148.550 157.431 145.348  1.00  0.00     0.047 A 
ATOM     15  C   UNL     1     147.702 158.457 144.913  1.00  0.00     0.115 A 
ATOM     16  C   UNL     1     149.104 160.084 146.041  1.00  0.00     0.016 A 
ATOM     17  C   UNL     1     147.984 159.782 145.259  1.00  0.00     0.047 A 
BRANCH  15  18
ATOM     18  O   UNL     1     146.583 158.172 144.134  1.00  0.00    -0.508 OA
ATOM     19  H   UNL     1     146.603 157.453 143.421  1.00  0.00     0.293 HD
ENDBRANCH  15  18
ENDBRANCH   1  12
BRANCH   2  20
ATOM     20  O   UNL     1     152.536 159.638 145.328  1.00  0.00    -0.502 OA
ATOM     21  H   UNL     1     152.792 158.824 144.783  1.00  0.00     0.293 HD
ENDBRANCH   2  20
BRANCH   6  22
ATOM     22  O   UNL     1     155.761 160.113 149.540  1.00  0.00    -0.507 OA
ATOM     23  H   UNL     1     156.280 160.974 149.462  1.00  0.00     0.293 HD
ENDBRANCH   6  22
BRANCH   8  24
ATOM     24  O   UNL     1     152.529 160.021 153.090  1.00  0.00    -0.508 OA
ATOM     25  H   UNL     1     153.167 159.650 153.784  1.00  0.00     0.293 HD
ENDBRANCH   8  24
TORSDOF 5
ENDMDL
MODEL 2
REMARK VINA RESULT:    -0.231     18.025     19.596
REMARK INTER + INTRA:          -0.561
REMARK INTER:                  -0.272
REMARK INTRA:                  -0.289
REMARK UNBOUND:                -0.289
REMARK SMILES O=c1c(O)c(-c2ccc(O)cc2)oc2cc(O)cc(O)c12
REMARK SMILES IDX 5 1 3 2 2 3 1 4 21 5 19 6 18 7 16 8 15 9 14 10 13 11 6 12
REMARK SMILES IDX 7 13 8 14 9 15 12 16 11 17 10 18 4 20 20 22 17 24
REMARK H PARENT 10 19 4 21 20 23 17 25
REMARK Flexibility Score: inf
ROOT
ATOM      1  C   UNL     1     148.217 140.641 147.572  1.00  0.00     0.180 A 
ATOM      2  C   UNL     1     146.851 140.440 147.834  1.00  0.00     0.208 A 
ATOM      3  C   UNL     1     146.439 140.207 149.156  1.00  0.00     0.238 A 
ATOM      4  O   UNL     1     145.223 139.973 149.378  1.00  0.00    -0.285 OA
ATOM      5  C   UNL     1     147.396 140.193 150.200  1.00  0.00     0.111 A 
ATOM      6  C   UNL     1     147.085 140.006 151.581  1.00  0.00     0.134 A 
ATOM      7  C   UNL     1     148.124 139.880 152.511  1.00  0.00     0.093 A 
ATOM      8  C   UNL     1     149.460 140.000 152.120  1.00  0.00     0.123 A 
ATOM      9  C   UNL     1     149.771 140.242 150.784  1.00  0.00     0.094 A 
ATOM     10  C   UNL     1     148.757 140.336 149.826  1.00  0.00     0.146 A 
ATOM     11  O   UNL     1     149.098 140.557 148.563  1.00  0.00    -0.452 OA
ENDROOT
BRANCH   1  12
ATOM     12  C   UNL     1     148.725 140.918 146.208  1.00  0.00     0.021 A 
ATOM     13  C   UNL     1     148.778 142.243 145.746  1.00  0.00     0.016 A 
ATOM     14  C   UNL     1     149.233 142.527 144.454  1.00  0.00     0.047 A 
ATOM     15  C   UNL     1     149.627 141.486 143.604  1.00  0.00     0.115 A 
ATOM     16  C   UNL     1     149.104 139.876 145.342  1.00  0.00     0.016 A 
ATOM     17  C   UNL     1     149.557 140.163 144.050  1.00  0.00     0.047 A 
BRANCH  15  18
ATOM     18  O   UNL     1     150.083 141.755 142.315  1.00  0.00    -0.508 OA
ATOM     19  H   UNL     1     149.755 142.560 141.796  1.00  0.00     0.293 HD
ENDBRANCH  15  18
ENDBRANCH   1  12
BRANCH   2  20
ATOM     20  O   UNL     1     145.926 140.435 146.786  1.00  0.00    -0.502 OA
ATOM     21  H   UNL     1     145.208 139.727 146.697  1.00  0.00     0.293 HD
ENDBRANCH   2  20
BRANCH   6  22
ATOM     22  O   UNL     1     145.784 139.964 152.090  1.00  0.00    -0.507 OA
ATOM     23  H   UNL     1     145.420 139.230 152.678  1.00  0.00     0.293 HD
ENDBRANCH   6  22
BRANCH   8  24
ATOM     24  O   UNL     1     150.487 139.889 153.055  1.00  0.00    -0.508 OA
ATOM     25  H   UNL     1     150.323 139.511 153.980  1.00  0.00     0.293 HD
ENDBRANCH   8  24
TORSDOF 5
ENDMDL
MODEL 3
REMARK VINA RESULT:    -0.222     17.815     19.538
REMARK INTER + INTRA:          -0.551
REMARK INTER:                  -0.261
REMARK INTRA:                  -0.290
REMARK UNBOUND:                -0.289
REMARK SMILES O=c1c(O)c(-c2ccc(O)cc2)oc2cc(O)cc(O)c12
REMARK SMILES IDX 5 1 3 2 2 3 1 4 21 5 19 6 18 7 16 8 15 9 14 10 13 11 6 12
REMARK SMILES IDX 7 13 8 14 9 15 12 16 11 17 10 18 4 20 20 22 17 24
REMARK H PARENT 10 19 4 21 20 23 17 25
REMARK Flexibility Score: inf
ROOT
ATOM      1  C   UNL     1     149.448 140.795 148.187  1.00  0.00     0.180 A 
ATOM      2  C   UNL     1     150.168 140.842 149.393  1.00  0.00     0.208 A 
ATOM      3  C   UNL     1     149.488 140.627 150.602  1.00  0.00     0.238 A 
ATOM      4  O   UNL     1     150.127 140.725 151.681  1.00  0.00    -0.285 OA
ATOM      5  C   UNL     1     148.099 140.353 150.589  1.00  0.00     0.111 A 
ATOM      6  C   UNL     1     147.315 140.080 151.751  1.00  0.00     0.134 A 
ATOM      7  C   UNL     1     145.927 139.952 151.633  1.00  0.00     0.093 A 
ATOM      8  C   UNL     1     145.299 140.020 150.386  1.00  0.00     0.123 A 
ATOM      9  C   UNL     1     146.063 140.226 149.239  1.00  0.00     0.094 A 
ATOM     10  C   UNL     1     147.447 140.395 149.329  1.00  0.00     0.146 A 
ATOM     11  O   UNL     1     148.134 140.600 148.213  1.00  0.00    -0.452 OA
ENDROOT
BRANCH   1  12
ATOM     12  C   UNL     1     150.100 140.985 146.871  1.00  0.00     0.021 A 
ATOM     13  C   UNL     1     150.640 139.876 146.200  1.00  0.00     0.016 A 
ATOM     14  C   UNL     1     151.281 140.035 144.967  1.00  0.00     0.047 A 
ATOM     15  C   UNL     1     151.400 141.309 144.397  1.00  0.00     0.115 A 
ATOM     16  C   UNL     1     150.242 142.264 146.302  1.00  0.00     0.016 A 
ATOM     17  C   UNL     1     150.883 142.421 145.069  1.00  0.00     0.047 A 
BRANCH  15  18
ATOM     18  O   UNL     1     152.036 141.481 143.169  1.00  0.00    -0.508 OA
ATOM     19  H   UNL     1     153.007 141.764 143.110  1.00  0.00     0.293 HD
ENDBRANCH  15  18
ENDBRANCH   1  12
BRANCH   2  20
ATOM     20  O   UNL     1     151.535 141.137 149.385  1.00  0.00    -0.502 OA
ATOM     21  H   UNL     1     151.916 141.938 148.897  1.00  0.00     0.293 HD
ENDBRANCH   2  20
BRANCH   6  22
ATOM     22  O   UNL     1     147.853 139.901 153.030  1.00  0.00    -0.507 OA
ATOM     23  H   UNL     1     148.784 139.566 153.220  1.00  0.00     0.293 HD
ENDBRANCH   6  22
BRANCH   8  24
ATOM     24  O   UNL     1     143.919 139.875 150.276  1.00  0.00    -0.508 OA
ATOM     25  H   UNL     1     143.372 139.433 151.006  1.00  0.00     0.293 HD
ENDBRANCH   8  24
TORSDOF 5
ENDMDL
MODEL 4
REMARK VINA RESULT:    -0.218      2.383      3.210
REMARK INTER + INTRA:          -0.546
REMARK INTER:                  -0.249
REMARK INTRA:                  -0.297
REMARK UNBOUND:                -0.289
REMARK SMILES O=c1c(O)c(-c2ccc(O)cc2)oc2cc(O)cc(O)c12
REMARK SMILES IDX 5 1 3 2 2 3 1 4 21 5 19 6 18 7 16 8 15 9 14 10 13 11 6 12
REMARK SMILES IDX 7 13 8 14 9 15 12 16 11 17 10 18 4 20 20 22 17 24
REMARK H PARENT 10 19 4 21 20 23 17 25
REMARK Flexibility Score: inf
ROOT
ATOM      1  C   UNL     1     151.001 159.303 147.297  1.00  0.00     0.180 A 
ATOM      2  C   UNL     1     152.249 159.560 147.891  1.00  0.00     0.208 A 
ATOM      3  C   UNL     1     152.306 159.824 149.268  1.00  0.00     0.238 A 
ATOM      4  O   UNL     1     153.419 160.108 149.784  1.00  0.00    -0.285 OA
ATOM      5  C   UNL     1     151.118 159.812 150.038  1.00  0.00     0.111 A 
ATOM      6  C   UNL     1     151.063 160.027 151.448  1.00  0.00     0.134 A 
ATOM      7  C   UNL     1     149.820 160.123 152.084  1.00  0.00     0.093 A 
ATOM      8  C   UNL     1     148.630 159.946 151.372  1.00  0.00     0.123 A 
ATOM      9  C   UNL     1     148.676 159.677 150.006  1.00  0.00     0.094 A 
ATOM     10  C   UNL     1     149.900 159.612 149.336  1.00  0.00     0.146 A 
ATOM     11  O   UNL     1     149.897 159.364 148.033  1.00  0.00    -0.452 OA
ENDROOT
BRANCH   1  12
ATOM     12  C   UNL     1     150.864 158.991 145.855  1.00  0.00     0.021 A 
ATOM     13  C   UNL     1     150.531 160.017 144.955  1.00  0.00     0.016 A 
ATOM     14  C   UNL     1     150.374 159.741 143.593  1.00  0.00     0.047 A 
ATOM     15  C   UNL     1     150.534 158.433 143.118  1.00  0.00     0.115 A 
ATOM     16  C   UNL     1     151.003 157.677 145.374  1.00  0.00     0.016 A 
ATOM     17  C   UNL     1     150.844 157.404 144.011  1.00  0.00     0.047 A 
BRANCH  15  18
ATOM     18  O   UNL     1     150.380 158.145 141.763  1.00  0.00    -0.508 OA
ATOM     19  H   UNL     1     150.005 158.828 141.116  1.00  0.00     0.293 HD
ENDBRANCH  15  18
ENDBRANCH   1  12
BRANCH   2  20
ATOM     20  O   UNL     1     153.408 159.589 147.109  1.00  0.00    -0.502 OA
ATOM     21  H   UNL     1     153.932 158.754 146.881  1.00  0.00     0.293 HD
ENDBRANCH   2  20
BRANCH   6  22
ATOM     22  O   UNL     1     152.192 160.125 152.267  1.00  0.00    -0.507 OA
ATOM     23  H   UNL     1     152.168 160.278 153.263  1.00  0.00     0.293 HD
ENDBRANCH   6  22
BRANCH   8  24
ATOM     24  O   UNL     1     147.398 160.028 152.016  1.00  0.00    -0.508 OA
ATOM     25  H   UNL     1     146.527 159.938 151.507  1.00  0.00     0.293 HD
ENDBRANCH   8  24
TORSDOF 5
ENDMDL
MODEL 5
REMARK VINA RESULT:    -0.207      1.468      3.043
REMARK INTER + INTRA:          -0.533
REMARK INTER:                  -0.233
REMARK INTRA:                  -0.300
REMARK UNBOUND:                -0.289
REMARK SMILES O=c1c(O)c(-c2ccc(O)cc2)oc2cc(O)cc(O)c12
REMARK SMILES IDX 5 1 3 2 2 3 1 4 21 5 19 6 18 7 16 8 15 9 14 10 13 11 6 12
REMARK SMILES IDX 7 13 8 14 9 15 12 16 11 17 10 18 4 20 20 22 17 24
REMARK H PARENT 10 19 4 21 20 23 17 25
REMARK Flexibility Score: inf
ROOT
ATOM      1  C   UNL     1     151.310 159.169 148.532  1.00  0.00     0.180 A 
ATOM      2  C   UNL     1     150.875 159.420 149.844  1.00  0.00     0.208 A 
ATOM      3  C   UNL     1     151.831 159.582 150.860  1.00  0.00     0.238 A 
ATOM      4  O   UNL     1     151.435 159.752 152.042  1.00  0.00    -0.285 OA
ATOM      5  C   UNL     1     153.210 159.506 150.547  1.00  0.00     0.111 A 
ATOM      6  C   UNL     1     154.266 159.693 151.490  1.00  0.00     0.134 A 
ATOM      7  C   UNL     1     155.590 159.466 151.097  1.00  0.00     0.093 A 
ATOM      8  C   UNL     1     155.902 159.121 149.779  1.00  0.00     0.123 A 
ATOM      9  C   UNL     1     154.883 158.995 148.838  1.00  0.00     0.094 A 
ATOM     10  C   UNL     1     153.548 159.179 149.209  1.00  0.00     0.146 A 
ATOM     11  O   UNL     1     152.608 159.038 148.283  1.00  0.00    -0.452 OA
ENDROOT
BRANCH   1  12
ATOM     12  C   UNL     1     150.363 159.013 147.403  1.00  0.00     0.021 A 
ATOM     13  C   UNL     1     149.943 157.727 147.027  1.00  0.00     0.016 A 
ATOM     14  C   UNL     1     149.066 157.555 145.950  1.00  0.00     0.047 A 
ATOM     15  C   UNL     1     148.612 158.666 145.229  1.00  0.00     0.115 A 
ATOM     16  C   UNL     1     149.918 160.123 146.662  1.00  0.00     0.016 A 
ATOM     17  C   UNL     1     149.043 159.947 145.586  1.00  0.00     0.047 A 
BRANCH  15  18
ATOM     18  O   UNL     1     147.738 158.508 144.155  1.00  0.00    -0.508 OA
ATOM     19  H   UNL     1     147.365 157.600 143.906  1.00  0.00     0.293 HD
ENDBRANCH  15  18
ENDBRANCH   1  12
BRANCH   2  20
ATOM     20  O   UNL     1     149.508 159.470 150.135  1.00  0.00    -0.502 OA
ATOM     21  H   UNL     1     148.988 158.659 150.446  1.00  0.00     0.293 HD
ENDBRANCH   2  20
BRANCH   6  22
ATOM     22  O   UNL     1     154.070 160.125 152.805  1.00  0.00    -0.507 OA
ATOM     23  H   UNL     1     153.290 160.682 153.117  1.00  0.00     0.293 HD
ENDBRANCH   6  22
BRANCH   8  24
ATOM     24  O   UNL     1     157.224 158.912 149.393  1.00  0.00    -0.508 OA
ATOM     25  H   UNL     1     157.517 158.050 148.949  1.00  0.00     0.293 HD
ENDBRANCH   8  24
TORSDOF 5
ENDMDL
MODEL 6
REMARK VINA RESULT:    -0.199      1.882      2.103
REMARK INTER + INTRA:          -0.523
REMARK INTER:                  -0.234
REMARK INTRA:                  -0.289
REMARK UNBOUND:                -0.289
REMARK SMILES O=c1c(O)c(-c2ccc(O)cc2)oc2cc(O)cc(O)c12
REMARK SMILES IDX 5 1 3 2 2 3 1 4 21 5 19 6 18 7 16 8 15 9 14 10 13 11 6 12
REMARK SMILES IDX 7 13 8 14 9 15 12 16 11 17 10 18 4 20 20 22 17 24
REMARK H PARENT 10 19 4 21 20 23 17 25
REMARK Flexibility Score: inf
ROOT
ATOM      1  C   UNL     1     151.205 159.150 147.683  1.00  0.00     0.180 A 
ATOM      2  C   UNL     1     151.886 159.448 146.490  1.00  0.00     0.208 A 
ATOM      3  C   UNL     1     153.256 159.748 146.544  1.00  0.00     0.238 A 
ATOM      4  O   UNL     1     153.848 160.067 145.480  1.00  0.00    -0.285 OA
ATOM      5  C   UNL     1     153.932 159.732 147.788  1.00  0.00     0.111 A 
ATOM      6  C   UNL     1     155.328 159.982 147.956  1.00  0.00     0.134 A 
ATOM      7  C   UNL     1     155.864 160.069 149.246  1.00  0.00     0.093 A 
ATOM      8  C   UNL     1     155.067 159.851 150.374  1.00  0.00     0.123 A 
ATOM      9  C   UNL     1     153.716 159.547 150.218  1.00  0.00     0.094 A 
ATOM     10  C   UNL     1     153.145 159.489 148.944  1.00  0.00     0.146 A 
ATOM     11  O   UNL     1     151.852 159.208 148.842  1.00  0.00    -0.452 OA
ENDROOT
BRANCH   1  12
ATOM     12  C   UNL     1     149.766 158.798 147.703  1.00  0.00     0.021 A 
ATOM     13  C   UNL     1     149.379 157.461 147.517  1.00  0.00     0.016 A 
ATOM     14  C   UNL     1     148.025 157.109 147.511  1.00  0.00     0.047 A 
ATOM     15  C   UNL     1     147.043 158.093 147.675  1.00  0.00     0.115 A 
ATOM     16  C   UNL     1     148.773 159.784 147.848  1.00  0.00     0.016 A 
ATOM     17  C   UNL     1     147.420 159.429 147.840  1.00  0.00     0.047 A 
BRANCH  15  18
ATOM     18  O   UNL     1     145.691 157.755 147.671  1.00  0.00    -0.508 OA
ATOM     19  H   UNL     1     145.382 156.808 147.854  1.00  0.00     0.293 HD
ENDBRANCH  15  18
ENDBRANCH   1  12
BRANCH   2  20
ATOM     20  O   UNL     1     151.195 159.480 145.275  1.00  0.00    -0.502 OA
ATOM     21  H   UNL     1     151.350 158.799 144.542  1.00  0.00     0.293 HD
ENDBRANCH   2  20
BRANCH   6  22
ATOM     22  O   UNL     1     156.228 160.124 146.895  1.00  0.00    -0.507 OA
ATOM     23  H   UNL     1     157.231 160.142 146.992  1.00  0.00     0.293 HD
ENDBRANCH   6  22
BRANCH   8  24
ATOM     24  O   UNL     1     155.612 159.924 151.653  1.00  0.00    -0.508 OA
ATOM     25  H   UNL     1     155.050 160.185 152.455  1.00  0.00     0.293 HD
ENDBRANCH   8  24
TORSDOF 5
ENDMDL
MODEL 7
REMARK VINA RESULT:    -0.197      1.502      2.197
REMARK INTER + INTRA:          -0.521
REMARK INTER:                  -0.220
REMARK INTRA:                  -0.301
REMARK UNBOUND:                -0.289
REMARK SMILES O=c1c(O)c(-c2ccc(O)cc2)oc2cc(O)cc(O)c12
REMARK SMILES IDX 5 1 3 2 2 3 1 4 21 5 19 6 18 7 16 8 15 9 14 10 13 11 6 12
REMARK SMILES IDX 7 13 8 14 9 15 12 16 11 17 10 18 4 20 20 22 17 24
REMARK H PARENT 10 19 4 21 20 23 17 25
REMARK Flexibility Score: inf
ROOT
ATOM      1  C   UNL     1     149.275 159.074 147.074  1.00  0.00     0.180 A 
ATOM      2  C   UNL     1     150.501 159.340 146.441  1.00  0.00     0.208 A 
ATOM      3  C   UNL     1     151.618 159.665 147.228  1.00  0.00     0.238 A 
ATOM      4  O   UNL     1     152.699 159.956 146.653  1.00  0.00    -0.285 OA
ATOM      5  C   UNL     1     151.498 159.704 148.638  1.00  0.00     0.111 A 
ATOM      6  C   UNL     1     152.573 159.983 149.536  1.00  0.00     0.134 A 
ATOM      7  C   UNL     1     152.311 160.125 150.904  1.00  0.00     0.093 A 
ATOM      8  C   UNL     1     151.025 159.933 151.415  1.00  0.00     0.123 A 
ATOM      9  C   UNL     1     149.981 159.601 150.554  1.00  0.00     0.094 A 
ATOM     10  C   UNL     1     150.204 159.490 149.179  1.00  0.00     0.146 A 
ATOM     11  O   UNL     1     149.179 159.183 148.394  1.00  0.00    -0.452 OA
ENDROOT
BRANCH   1  12
ATOM     12  C   UNL     1     148.060 158.699 146.313  1.00  0.00     0.021 A 
ATOM     13  C   UNL     1     147.146 159.696 145.937  1.00  0.00     0.016 A 
ATOM     14  C   UNL     1     145.981 159.362 145.238  1.00  0.00     0.047 A 
ATOM     15  C   UNL     1     145.711 158.025 144.920  1.00  0.00     0.115 A 
ATOM     16  C   UNL     1     147.773 157.356 146.008  1.00  0.00     0.016 A 
ATOM     17  C   UNL     1     146.607 157.025 145.309  1.00  0.00     0.047 A 
BRANCH  15  18
ATOM     18  O   UNL     1     144.555 157.680 144.223  1.00  0.00    -0.508 OA
ATOM     19  H   UNL     1     144.589 157.091 143.400  1.00  0.00     0.293 HD
ENDBRANCH  15  18
ENDBRANCH   1  12
BRANCH   2  20
ATOM     20  O   UNL     1     150.593 159.318 145.046  1.00  0.00    -0.502 OA
ATOM     21  H   UNL     1     151.324 158.817 144.557  1.00  0.00     0.293 HD
ENDBRANCH   2  20
BRANCH   6  22
ATOM     22  O   UNL     1     153.908 160.103 149.140  1.00  0.00    -0.507 OA
ATOM     23  H   UNL     1     154.339 160.957 148.822  1.00  0.00     0.293 HD
ENDBRANCH   6  22
BRANCH   8  24
ATOM     24  O   UNL     1     150.777 160.060 152.780  1.00  0.00    -0.508 OA
ATOM     25  H   UNL     1     151.073 160.878 153.299  1.00  0.00     0.293 HD
ENDBRANCH   8  24
TORSDOF 5
ENDMDL
MODEL 8
REMARK VINA RESULT:    -0.147     18.830     19.739
REMARK INTER + INTRA:          -0.462
REMARK INTER:                  -0.161
REMARK INTRA:                  -0.300
REMARK UNBOUND:                -0.289
REMARK SMILES O=c1c(O)c(-c2ccc(O)cc2)oc2cc(O)cc(O)c12
REMARK SMILES IDX 5 1 3 2 2 3 1 4 21 5 19 6 18 7 16 8 15 9 14 10 13 11 6 12
REMARK SMILES IDX 7 13 8 14 9 15 12 16 11 17 10 18 4 20 20 22 17 24
REMARK H PARENT 10 19 4 21 20 23 17 25
REMARK Flexibility Score: inf
ROOT
ATOM      1  C   UNL     1     147.223 140.654 149.073  1.00  0.00     0.180 A 
ATOM      2  C   UNL     1     148.139 140.451 150.119  1.00  0.00     0.208 A 
ATOM      3  C   UNL     1     149.487 140.213 149.807  1.00  0.00     0.238 A 
ATOM      4  O   UNL     1     150.293 139.978 150.745  1.00  0.00    -0.285 OA
ATOM      5  C   UNL     1     149.905 140.196 148.454  1.00  0.00     0.111 A 
ATOM      6  C   UNL     1     151.253 140.004 148.024  1.00  0.00     0.134 A 
ATOM      7  C   UNL     1     151.530 139.875 146.658  1.00  0.00     0.093 A 
ATOM      8  C   UNL     1     150.517 139.997 145.703  1.00  0.00     0.123 A 
ATOM      9  C   UNL     1     149.208 140.245 146.110  1.00  0.00     0.094 A 
ATOM     10  C   UNL     1     148.894 140.341 147.468  1.00  0.00     0.146 A 
ATOM     11  O   UNL     1     147.633 140.567 147.813  1.00  0.00    -0.452 OA
ENDROOT
BRANCH   1  12
ATOM     12  C   UNL     1     145.790 140.936 149.324  1.00  0.00     0.021 A 
ATOM     13  C   UNL     1     144.870 139.876 149.340  1.00  0.00     0.016 A 
ATOM     14  C   UNL     1     143.509 140.122 149.553  1.00  0.00     0.047 A 
ATOM     15  C   UNL     1     143.052 141.433 149.737  1.00  0.00     0.115 A 
ATOM     16  C   UNL     1     145.322 142.252 149.490  1.00  0.00     0.016 A 
ATOM     17  C   UNL     1     143.960 142.495 149.702  1.00  0.00     0.047 A 
BRANCH  15  18
ATOM     18  O   UNL     1     141.699 141.691 149.950  1.00  0.00    -0.508 OA
ATOM     19  H   UNL     1     140.981 141.227 149.408  1.00  0.00     0.293 HD
ENDBRANCH  15  18
ENDBRANCH   1  12
BRANCH   2  20
ATOM     20  O   UNL     1     147.703 140.450 151.447  1.00  0.00    -0.502 OA
ATOM     21  H   UNL     1     146.887 139.934 151.752  1.00  0.00     0.293 HD
ENDBRANCH   2  20
BRANCH   6  22
ATOM     22  O   UNL     1     152.349 139.960 148.891  1.00  0.00    -0.507 OA
ATOM     23  H   UNL     1     152.794 139.113 149.211  1.00  0.00     0.293 HD
ENDBRANCH   6  22
BRANCH   8  24
ATOM     24  O   UNL     1     150.804 139.884 144.345  1.00  0.00    -0.508 OA
ATOM     25  H   UNL     1     151.248 140.636 143.832  1.00  0.00     0.293 HD
ENDBRANCH   8  24
TORSDOF 5
ENDMDL
