MODEL 1
REMARK VINA RESULT:    -2.063      0.000      0.000
REMARK INTER + INTRA:          -6.110
REMARK INTER:                  -3.751
REMARK INTRA:                  -2.360
REMARK UNBOUND:                -2.360
REMARK SMILES CCCCCCCCCCCCCCCC(=O)[O-]
REMARK SMILES IDX 9 1 10 2 11 3 12 4 13 5 14 6 15 7 16 8 17 9 18 10 8 11 7 12
REMARK SMILES IDX 6 13 5 14 4 15 3 16 2 17 1 18
REMARK H PARENT
REMARK Flexibility Score: inf
ROOT
ATOM      1  C   UNL     1     173.748 206.278 199.518  1.00  0.00     0.000 C 
ENDROOT
BRANCH   1   2
ATOM      2  C   UNL     1     173.965 207.495 198.602  1.00  0.00     0.000 C 
BRANCH   2   3
ATOM      3  C   UNL     1     175.256 207.456 197.759  1.00  0.00     0.000 C 
BRANCH   3   4
ATOM      4  C   UNL     1     175.875 206.056 197.577  1.00  0.00     0.000 C 
BRANCH   4   5
ATOM      5  C   UNL     1     177.216 206.031 196.817  1.00  0.00     0.000 C 
BRANCH   5   6
ATOM      6  C   UNL     1     177.752 207.411 196.397  1.00  0.00     0.006 C 
BRANCH   6   7
ATOM      7  C   UNL     1     178.183 207.461 194.926  1.00  0.00     0.053 C 
BRANCH   7   8
ATOM      8  C   UNL     1     176.992 207.347 194.028  1.00  0.00     0.041 C 
ATOM      9  O   UNL     1     175.997 208.100 194.197  1.00  0.00    -0.550 OA
ATOM     10  O   UNL     1     177.000 206.443 192.973  1.00  0.00    -0.550 OA
ENDBRANCH   7   8
ENDBRANCH   6   7
ENDBRANCH   5   6
ENDBRANCH   4   5
ENDBRANCH   3   4
ENDBRANCH   2   3
ENDBRANCH   1   2
BRANCH   1  11
ATOM     11  C   UNL     1     174.113 206.562 200.985  1.00  0.00     0.000 C 
BRANCH  11  12
ATOM     12  C   UNL     1     174.627 207.997 201.196  1.00  0.00    -0.000 C 
BRANCH  12  13
ATOM     13  C   UNL     1     176.110 208.036 201.604  1.00  0.00    -0.000 C 
BRANCH  13  14
ATOM     14  C   UNL     1     176.729 206.634 201.750  1.00  0.00    -0.000 C 
BRANCH  14  15
ATOM     15  C   UNL     1     177.891 206.331 200.787  1.00  0.00    -0.000 C 
BRANCH  15  16
ATOM     16  C   UNL     1     178.392 207.577 200.041  1.00  0.00    -0.000 C 
BRANCH  16  17
ATOM     17  C   UNL     1     179.796 207.346 199.471  1.00  0.00    -0.003 C 
ATOM     18  C   UNL     1     180.056 205.862 199.225  1.00  0.00     0.004 C 
ENDBRANCH  16  17
ENDBRANCH  15  16
ENDBRANCH  14  15
ENDBRANCH  13  14
ENDBRANCH  12  13
ENDBRANCH  11  12
ENDBRANCH   1  11
TORSDOF 14
ENDMDL
MODEL 2
REMARK VINA RESULT:    -2.030      3.747      5.012
REMARK INTER + INTRA:          -6.051
REMARK INTER:                  -3.346
REMARK INTRA:                  -2.705
REMARK UNBOUND:                -2.360
REMARK SMILES CCCCCCCCCCCCCCCC(=O)[O-]
REMARK SMILES IDX 9 1 10 2 11 3 12 4 13 5 14 6 15 7 16 8 17 9 18 10 8 11 7 12
REMARK SMILES IDX 6 13 5 14 4 15 3 16 2 17 1 18
REMARK H PARENT
REMARK Flexibility Score: inf
ROOT
ATOM      1  C   UNL     1     175.124 204.512 200.773  1.00  0.00     0.000 C 
ENDROOT
BRANCH   1   2
ATOM      2  C   UNL     1     175.497 204.019 199.364  1.00  0.00     0.000 C 
BRANCH   2   3
ATOM      3  C   UNL     1     175.194 205.011 198.222  1.00  0.00     0.000 C 
BRANCH   3   4
ATOM      4  C   UNL     1     173.737 205.510 198.162  1.00  0.00     0.000 C 
BRANCH   4   5
ATOM      5  C   UNL     1     173.572 207.043 198.184  1.00  0.00     0.000 C 
BRANCH   5   6
ATOM      6  C   UNL     1     172.551 207.572 199.207  1.00  0.00     0.006 C 
BRANCH   6   7
ATOM      7  C   UNL     1     171.961 206.464 200.089  1.00  0.00     0.053 C 
BRANCH   7   8
ATOM      8  C   UNL     1     172.141 206.798 201.536  1.00  0.00     0.041 C 
ATOM      9  O   UNL     1     172.258 205.879 202.388  1.00  0.00    -0.550 OA
ATOM     10  O   UNL     1     172.230 208.125 201.938  1.00  0.00    -0.550 OA
ENDBRANCH   7   8
ENDBRANCH   6   7
ENDBRANCH   5   6
ENDBRANCH   4   5
ENDBRANCH   3   4
ENDBRANCH   2   3
ENDBRANCH   1   2
BRANCH   1  11
ATOM     11  C   UNL     1     176.355 204.796 201.651  1.00  0.00     0.000 C 
BRANCH  11  12
ATOM     12  C   UNL     1     176.273 206.160 202.357  1.00  0.00    -0.000 C 
BRANCH  12  13
ATOM     13  C   UNL     1     175.691 207.258 201.448  1.00  0.00    -0.000 C 
BRANCH  13  14
ATOM     14  C   UNL     1     176.776 208.125 200.785  1.00  0.00    -0.000 C 
BRANCH  14  15
ATOM     15  C   UNL     1     176.894 207.968 199.258  1.00  0.00    -0.000 C 
BRANCH  15  16
ATOM     16  C   UNL     1     178.230 207.349 198.821  1.00  0.00    -0.000 C 
BRANCH  16  17
ATOM     17  C   UNL     1     179.150 207.123 200.027  1.00  0.00    -0.003 C 
ATOM     18  C   UNL     1     179.547 205.654 200.150  1.00  0.00     0.004 C 
ENDBRANCH  16  17
ENDBRANCH  15  16
ENDBRANCH  14  15
ENDBRANCH  13  14
ENDBRANCH  12  13
ENDBRANCH  11  12
ENDBRANCH   1  11
TORSDOF 14
ENDMDL
MODEL 3
REMARK VINA RESULT:    -2.026      3.377      5.819
REMARK INTER + INTRA:          -6.045
REMARK INTER:                  -4.203
REMARK INTRA:                  -1.841
REMARK UNBOUND:                -2.360
REMARK SMILES CCCCCCCCCCCCCCCC(=O)[O-]
REMARK SMILES IDX 9 1 10 2 11 3 12 4 13 5 14 6 15 7 16 8 17 9 18 10 8 11 7 12
REMARK SMILES IDX 6 13 5 14 4 15 3 16 2 17 1 18
REMARK H PARENT
REMARK Flexibility Score: inf
ROOT
ATOM      1  C   UNL     1     175.826 208.043 199.372  1.00  0.00     0.000 C 
ENDROOT
BRANCH   1   2
ATOM      2  C   UNL     1     176.869 208.073 200.504  1.00  0.00     0.000 C 
BRANCH   2   3
ATOM      3  C   UNL     1     176.403 207.455 201.838  1.00  0.00     0.000 C 
BRANCH   3   4
ATOM      4  C   UNL     1     176.529 205.921 201.925  1.00  0.00     0.000 C 
BRANCH   4   5
ATOM      5  C   UNL     1     175.224 205.179 202.274  1.00  0.00     0.000 C 
BRANCH   5   6
ATOM      6  C   UNL     1     174.001 205.581 201.430  1.00  0.00     0.006 C 
BRANCH   6   7
ATOM      7  C   UNL     1     172.762 205.885 202.282  1.00  0.00     0.053 C 
BRANCH   7   8
ATOM      8  C   UNL     1     172.198 207.223 201.925  1.00  0.00     0.041 C 
ATOM      9  O   UNL     1     172.948 208.125 201.465  1.00  0.00    -0.550 OA
ATOM     10  O   UNL     1     170.835 207.461 202.051  1.00  0.00    -0.550 OA
ENDBRANCH   7   8
ENDBRANCH   6   7
ENDBRANCH   5   6
ENDBRANCH   4   5
ENDBRANCH   3   4
ENDBRANCH   2   3
ENDBRANCH   1   2
BRANCH   1  11
ATOM     11  C   UNL     1     176.464 207.926 197.976  1.00  0.00     0.000 C 
BRANCH  11  12
ATOM     12  C   UNL     1     177.400 206.712 197.857  1.00  0.00    -0.000 C 
BRANCH  12  13
ATOM     13  C   UNL     1     178.810 207.101 197.380  1.00  0.00    -0.000 C 
BRANCH  13  14
ATOM     14  C   UNL     1     179.882 206.922 198.471  1.00  0.00    -0.000 C 
BRANCH  14  15
ATOM     15  C   UNL     1     180.276 205.462 198.764  1.00  0.00    -0.000 C 
BRANCH  15  16
ATOM     16  C   UNL     1     179.785 204.972 200.134  1.00  0.00    -0.000 C 
BRANCH  16  17
ATOM     17  C   UNL     1     180.226 205.928 201.248  1.00  0.00    -0.003 C 
ATOM     18  C   UNL     1     180.105 205.270 202.620  1.00  0.00     0.004 C 
ENDBRANCH  16  17
ENDBRANCH  15  16
ENDBRANCH  14  15
ENDBRANCH  13  14
ENDBRANCH  12  13
ENDBRANCH  11  12
ENDBRANCH   1  11
TORSDOF 14
ENDMDL
MODEL 4
REMARK VINA RESULT:    -2.026      2.771      3.672
REMARK INTER + INTRA:          -6.043
REMARK INTER:                  -3.758
REMARK INTRA:                  -2.286
REMARK UNBOUND:                -2.360
REMARK SMILES CCCCCCCCCCCCCCCC(=O)[O-]
REMARK SMILES IDX 9 1 10 2 11 3 12 4 13 5 14 6 15 7 16 8 17 9 18 10 8 11 7 12
REMARK SMILES IDX 6 13 5 14 4 15 3 16 2 17 1 18
REMARK H PARENT
REMARK Flexibility Score: inf
ROOT
ATOM      1  C   UNL     1     175.798 208.125 200.528  1.00  0.00     0.000 C 
ENDROOT
BRANCH   1   2
ATOM      2  C   UNL     1     174.810 207.134 199.887  1.00  0.00     0.000 C 
BRANCH   2   3
ATOM      3  C   UNL     1     175.123 206.754 198.425  1.00  0.00     0.000 C 
BRANCH   3   4
ATOM      4  C   UNL     1     175.665 207.904 197.553  1.00  0.00     0.000 C 
BRANCH   4   5
ATOM      5  C   UNL     1     177.091 207.690 197.006  1.00  0.00     0.000 C 
BRANCH   5   6
ATOM      6  C   UNL     1     177.936 206.660 197.777  1.00  0.00     0.006 C 
BRANCH   6   7
ATOM      7  C   UNL     1     178.955 207.311 198.721  1.00  0.00     0.053 C 
BRANCH   7   8
ATOM      8  C   UNL     1     180.349 206.970 198.299  1.00  0.00     0.041 C 
ATOM      9  O   UNL     1     181.124 206.376 199.095  1.00  0.00    -0.550 OA
ATOM     10  O   UNL     1     180.778 207.262 197.010  1.00  0.00    -0.550 OA
ENDBRANCH   7   8
ENDBRANCH   6   7
ENDBRANCH   5   6
ENDBRANCH   4   5
ENDBRANCH   3   4
ENDBRANCH   2   3
ENDBRANCH   1   2
BRANCH   1  11
ATOM     11  C   UNL     1     176.279 207.673 201.918  1.00  0.00     0.000 C 
BRANCH  11  12
ATOM     12  C   UNL     1     176.128 206.157 202.129  1.00  0.00    -0.000 C 
BRANCH  12  13
ATOM     13  C   UNL     1     177.392 205.519 202.731  1.00  0.00    -0.000 C 
BRANCH  13  14
ATOM     14  C   UNL     1     178.626 205.660 201.822  1.00  0.00    -0.000 C 
BRANCH  14  15
ATOM     15  C   UNL     1     179.269 204.330 201.385  1.00  0.00    -0.000 C 
BRANCH  15  16
ATOM     16  C   UNL     1     178.235 203.252 201.033  1.00  0.00    -0.000 C 
BRANCH  16  17
ATOM     17  C   UNL     1     177.959 203.229 199.525  1.00  0.00    -0.003 C 
ATOM     18  C   UNL     1     176.465 203.343 199.235  1.00  0.00     0.004 C 
ENDBRANCH  16  17
ENDBRANCH  15  16
ENDBRANCH  14  15
ENDBRANCH  13  14
ENDBRANCH  12  13
ENDBRANCH  11  12
ENDBRANCH   1  11
TORSDOF 14
ENDMDL
MODEL 5
REMARK VINA RESULT:    -2.000      2.936      5.363
REMARK INTER + INTRA:          -5.996
REMARK INTER:                  -3.594
REMARK INTRA:                  -2.402
REMARK UNBOUND:                -2.360
REMARK SMILES CCCCCCCCCCCCCCCC(=O)[O-]
REMARK SMILES IDX 9 1 10 2 11 3 12 4 13 5 14 6 15 7 16 8 17 9 18 10 8 11 7 12
REMARK SMILES IDX 6 13 5 14 4 15 3 16 2 17 1 18
REMARK H PARENT
REMARK Flexibility Score: inf
ROOT
ATOM      1  C   UNL     1     177.092 204.133 200.913  1.00  0.00     0.000 C 
ENDROOT
BRANCH   1   2
ATOM      2  C   UNL     1     177.053 205.046 202.151  1.00  0.00     0.000 C 
BRANCH   2   3
ATOM      3  C   UNL     1     175.877 206.044 202.190  1.00  0.00     0.000 C 
BRANCH   3   4
ATOM      4  C   UNL     1     176.257 207.511 201.910  1.00  0.00     0.000 C 
BRANCH   4   5
ATOM      5  C   UNL     1     176.562 207.835 200.434  1.00  0.00     0.000 C 
BRANCH   5   6
ATOM      6  C   UNL     1     178.042 208.125 200.124  1.00  0.00     0.006 C 
BRANCH   6   7
ATOM      7  C   UNL     1     178.556 207.357 198.900  1.00  0.00     0.053 C 
BRANCH   7   8
ATOM      8  C   UNL     1     179.975 206.932 199.108  1.00  0.00     0.041 C 
ATOM      9  O   UNL     1     180.368 206.572 200.250  1.00  0.00    -0.550 OA
ATOM     10  O   UNL     1     180.853 206.884 198.032  1.00  0.00    -0.550 OA
ENDBRANCH   7   8
ENDBRANCH   6   7
ENDBRANCH   5   6
ENDBRANCH   4   5
ENDBRANCH   3   4
ENDBRANCH   2   3
ENDBRANCH   1   2
BRANCH   1  11
ATOM     11  C   UNL     1     175.812 204.222 200.064  1.00  0.00     0.000 C 
BRANCH  11  12
ATOM     12  C   UNL     1     176.102 204.585 198.598  1.00  0.00    -0.000 C 
BRANCH  12  13
ATOM     13  C   UNL     1     174.819 204.707 197.757  1.00  0.00    -0.000 C 
BRANCH  13  14
ATOM     14  C   UNL     1     173.746 205.587 198.425  1.00  0.00    -0.000 C 
BRANCH  14  15
ATOM     15  C   UNL     1     173.900 207.100 198.181  1.00  0.00    -0.000 C 
BRANCH  15  16
ATOM     16  C   UNL     1     173.106 207.952 199.181  1.00  0.00    -0.000 C 
BRANCH  16  17
ATOM     17  C   UNL     1     172.834 207.171 200.472  1.00  0.00    -0.003 C 
ATOM     18  C   UNL     1     172.500 208.112 201.626  1.00  0.00     0.004 C 
ENDBRANCH  16  17
ENDBRANCH  15  16
ENDBRANCH  14  15
ENDBRANCH  13  14
ENDBRANCH  12  13
ENDBRANCH  11  12
ENDBRANCH   1  11
TORSDOF 14
ENDMDL
MODEL 6
REMARK VINA RESULT:    -1.984      2.808      4.737
REMARK INTER + INTRA:          -5.968
REMARK INTER:                  -3.481
REMARK INTRA:                  -2.486
REMARK UNBOUND:                -2.360
REMARK SMILES CCCCCCCCCCCCCCCC(=O)[O-]
REMARK SMILES IDX 9 1 10 2 11 3 12 4 13 5 14 6 15 7 16 8 17 9 18 10 8 11 7 12
REMARK SMILES IDX 6 13 5 14 4 15 3 16 2 17 1 18
REMARK H PARENT
REMARK Flexibility Score: inf
ROOT
ATOM      1  C   UNL     1     174.803 204.654 201.358  1.00  0.00     0.000 C 
ENDROOT
BRANCH   1   2
ATOM      2  C   UNL     1     176.209 205.269 201.251  1.00  0.00     0.000 C 
BRANCH   2   3
ATOM      3  C   UNL     1     176.474 206.461 202.193  1.00  0.00     0.000 C 
BRANCH   3   4
ATOM      4  C   UNL     1     176.288 207.852 201.555  1.00  0.00     0.000 C 
BRANCH   4   5
ATOM      5  C   UNL     1     176.827 207.986 200.117  1.00  0.00     0.000 C 
BRANCH   5   6
ATOM      6  C   UNL     1     178.361 208.018 199.998  1.00  0.00     0.006 C 
BRANCH   6   7
ATOM      7  C   UNL     1     178.887 207.168 198.834  1.00  0.00     0.053 C 
BRANCH   7   8
ATOM      8  C   UNL     1     179.415 205.863 199.337  1.00  0.00     0.041 C 
ATOM      9  O   UNL     1     179.845 205.765 200.517  1.00  0.00    -0.550 OA
ATOM     10  O   UNL     1     179.388 204.739 198.520  1.00  0.00    -0.550 OA
ENDBRANCH   7   8
ENDBRANCH   6   7
ENDBRANCH   5   6
ENDBRANCH   4   5
ENDBRANCH   3   4
ENDBRANCH   2   3
ENDBRANCH   1   2
BRANCH   1  11
ATOM     11  C   UNL     1     174.039 205.124 202.608  1.00  0.00     0.000 C 
BRANCH  11  12
ATOM     12  C   UNL     1     172.850 206.036 202.262  1.00  0.00    -0.000 C 
BRANCH  12  13
ATOM     13  C   UNL     1     172.484 205.983 200.768  1.00  0.00    -0.000 C 
BRANCH  13  14
ATOM     14  C   UNL     1     172.677 207.334 200.055  1.00  0.00    -0.000 C 
BRANCH  14  15
ATOM     15  C   UNL     1     172.811 207.250 198.524  1.00  0.00    -0.000 C 
BRANCH  15  16
ATOM     16  C   UNL     1     174.256 207.018 198.060  1.00  0.00    -0.000 C 
BRANCH  16  17
ATOM     17  C   UNL     1     174.486 205.545 197.702  1.00  0.00    -0.003 C 
ATOM     18  C   UNL     1     175.975 205.231 197.585  1.00  0.00     0.004 C 
ENDBRANCH  16  17
ENDBRANCH  15  16
ENDBRANCH  14  15
ENDBRANCH  13  14
ENDBRANCH  12  13
ENDBRANCH  11  12
ENDBRANCH   1  11
TORSDOF 14
ENDMDL
MODEL 7
REMARK VINA RESULT:    -1.972      1.756      4.251
REMARK INTER + INTRA:          -5.945
REMARK INTER:                  -3.561
REMARK INTRA:                  -2.384
REMARK UNBOUND:                -2.360
REMARK SMILES CCCCCCCCCCCCCCCC(=O)[O-]
REMARK SMILES IDX 9 1 10 2 11 3 12 4 13 5 14 6 15 7 16 8 17 9 18 10 8 11 7 12
REMARK SMILES IDX 6 13 5 14 4 15 3 16 2 17 1 18
REMARK H PARENT
REMARK Flexibility Score: inf
ROOT
ATOM      1  C   UNL     1     178.971 205.581 201.603  1.00  0.00     0.000 C 
ENDROOT
BRANCH   1   2
ATOM      2  C   UNL     1     180.030 205.994 200.565  1.00  0.00     0.000 C 
BRANCH   2   3
ATOM      3  C   UNL     1     179.738 207.313 199.822  1.00  0.00     0.000 C 
BRANCH   3   4
ATOM      4  C   UNL     1     179.211 207.148 198.383  1.00  0.00     0.000 C 
BRANCH   4   5
ATOM      5  C   UNL     1     177.697 207.382 198.212  1.00  0.00     0.000 C 
BRANCH   5   6
ATOM      6  C   UNL     1     176.909 206.177 197.668  1.00  0.00     0.006 C 
BRANCH   6   7
ATOM      7  C   UNL     1     177.819 205.045 197.173  1.00  0.00     0.053 C 
BRANCH   7   8
ATOM      8  C   UNL     1     177.841 205.009 195.678  1.00  0.00     0.041 C 
ATOM      9  O   UNL     1     178.599 205.782 195.036  1.00  0.00    -0.550 OA
ATOM     10  O   UNL     1     177.061 204.085 194.993  1.00  0.00    -0.550 OA
ENDBRANCH   7   8
ENDBRANCH   6   7
ENDBRANCH   5   6
ENDBRANCH   4   5
ENDBRANCH   3   4
ENDBRANCH   2   3
ENDBRANCH   1   2
BRANCH   1  11
ATOM     11  C   UNL     1     177.826 204.756 200.990  1.00  0.00     0.000 C 
BRANCH  11  12
ATOM     12  C   UNL     1     176.448 205.396 201.228  1.00  0.00    -0.000 C 
BRANCH  12  13
ATOM     13  C   UNL     1     176.528 206.654 202.111  1.00  0.00    -0.000 C 
BRANCH  13  14
ATOM     14  C   UNL     1     176.095 207.933 201.372  1.00  0.00    -0.000 C 
BRANCH  14  15
ATOM     15  C   UNL     1     174.587 208.039 201.079  1.00  0.00    -0.000 C 
BRANCH  15  16
ATOM     16  C   UNL     1     174.272 208.124 199.579  1.00  0.00    -0.000 C 
BRANCH  16  17
ATOM     17  C   UNL     1     173.735 206.786 199.055  1.00  0.00    -0.003 C 
ATOM     18  C   UNL     1     172.212 206.729 199.145  1.00  0.00     0.004 C 
ENDBRANCH  16  17
ENDBRANCH  15  16
ENDBRANCH  14  15
ENDBRANCH  13  14
ENDBRANCH  12  13
ENDBRANCH  11  12
ENDBRANCH   1  11
TORSDOF 14
ENDMDL
MODEL 8
REMARK VINA RESULT:    -1.960      2.493      4.135
REMARK INTER + INTRA:          -5.924
REMARK INTER:                  -3.630
REMARK INTRA:                  -2.294
REMARK UNBOUND:                -2.360
REMARK SMILES CCCCCCCCCCCCCCCC(=O)[O-]
REMARK SMILES IDX 9 1 10 2 11 3 12 4 13 5 14 6 15 7 16 8 17 9 18 10 8 11 7 12
REMARK SMILES IDX 6 13 5 14 4 15 3 16 2 17 1 18
REMARK H PARENT
REMARK Flexibility Score: inf
ROOT
ATOM      1  C   UNL     1     176.438 206.200 202.253  1.00  0.00     0.000 C 
ENDROOT
BRANCH   1   2
ATOM      2  C   UNL     1     176.487 207.605 201.627  1.00  0.00     0.000 C 
BRANCH   2   3
ATOM      3  C   UNL     1     175.141 208.125 201.082  1.00  0.00     0.000 C 
BRANCH   3   4
ATOM      4  C   UNL     1     174.982 208.047 199.551  1.00  0.00     0.000 C 
BRANCH   4   5
ATOM      5  C   UNL     1     176.286 207.772 198.774  1.00  0.00     0.000 C 
BRANCH   5   6
ATOM      6  C   UNL     1     176.172 206.706 197.670  1.00  0.00     0.006 C 
BRANCH   6   7
ATOM      7  C   UNL     1     176.276 205.274 198.211  1.00  0.00     0.053 C 
BRANCH   7   8
ATOM      8  C   UNL     1     174.923 204.759 198.588  1.00  0.00     0.041 C 
ATOM      9  O   UNL     1     173.997 204.726 197.735  1.00  0.00    -0.550 OA
ATOM     10  O   UNL     1     174.697 204.268 199.867  1.00  0.00    -0.550 OA
ENDBRANCH   7   8
ENDBRANCH   6   7
ENDBRANCH   5   6
ENDBRANCH   4   5
ENDBRANCH   3   4
ENDBRANCH   2   3
ENDBRANCH   1   2
BRANCH   1  11
ATOM     11  C   UNL     1     177.807 205.497 202.249  1.00  0.00     0.000 C 
BRANCH  11  12
ATOM     12  C   UNL     1     178.474 205.517 200.863  1.00  0.00    -0.000 C 
BRANCH  12  13
ATOM     13  C   UNL     1     179.811 206.281 200.866  1.00  0.00    -0.000 C 
BRANCH  13  14
ATOM     14  C   UNL     1     179.883 207.366 199.776  1.00  0.00    -0.000 C 
BRANCH  14  15
ATOM     15  C   UNL     1     180.651 206.962 198.504  1.00  0.00    -0.000 C 
BRANCH  15  16
ATOM     16  C   UNL     1     179.778 206.991 197.242  1.00  0.00    -0.000 C 
BRANCH  16  17
ATOM     17  C   UNL     1     179.618 205.584 196.653  1.00  0.00    -0.003 C 
ATOM     18  C   UNL     1     180.442 204.563 197.433  1.00  0.00     0.004 C 
ENDBRANCH  16  17
ENDBRANCH  15  16
ENDBRANCH  14  15
ENDBRANCH  13  14
ENDBRANCH  12  13
ENDBRANCH  11  12
ENDBRANCH   1  11
TORSDOF 14
ENDMDL
MODEL 9
REMARK VINA RESULT:    -0.902      3.419      5.277
REMARK INTER + INTRA:          -4.000
REMARK INTER:                  -1.775
REMARK INTRA:                  -2.225
REMARK UNBOUND:                -2.360
REMARK SMILES CCCCCCCCCCCCCCCC(=O)[O-]
REMARK SMILES IDX 9 1 10 2 11 3 12 4 13 5 14 6 15 7 16 8 17 9 18 10 8 11 7 12
REMARK SMILES IDX 6 13 5 14 4 15 3 16 2 17 1 18
REMARK H PARENT
REMARK Flexibility Score: inf
ROOT
ATOM      1  C   UNL     1     174.549 207.327 197.980  1.00  0.00     0.000 C 
ENDROOT
BRANCH   1   2
ATOM      2  C   UNL     1     174.663 208.050 199.334  1.00  0.00     0.000 C 
BRANCH   2   3
ATOM      3  C   UNL     1     176.089 208.125 199.916  1.00  0.00     0.000 C 
BRANCH   3   4
ATOM      4  C   UNL     1     176.170 208.080 201.455  1.00  0.00     0.000 C 
BRANCH   4   5
ATOM      5  C   UNL     1     176.612 206.726 202.045  1.00  0.00     0.000 C 
BRANCH   5   6
ATOM      6  C   UNL     1     176.424 205.517 201.111  1.00  0.00     0.006 C 
BRANCH   6   7
ATOM      7  C   UNL     1     177.292 204.317 201.507  1.00  0.00     0.053 C 
BRANCH   7   8
ATOM      8  C   UNL     1     176.466 203.072 201.570  1.00  0.00     0.041 C 
ATOM      9  O   UNL     1     175.282 203.117 201.999  1.00  0.00    -0.550 OA
ATOM     10  O   UNL     1     176.983 201.868 201.107  1.00  0.00    -0.550 OA
ENDBRANCH   7   8
ENDBRANCH   6   7
ENDBRANCH   5   6
ENDBRANCH   4   5
ENDBRANCH   3   4
ENDBRANCH   2   3
ENDBRANCH   1   2
BRANCH   1  11
ATOM     11  C   UNL     1     175.374 208.003 196.871  1.00  0.00     0.000 C 
BRANCH  11  12
ATOM     12  C   UNL     1     176.486 207.092 196.327  1.00  0.00    -0.000 C 
BRANCH  12  13
ATOM     13  C   UNL     1     176.673 205.821 197.175  1.00  0.00    -0.000 C 
BRANCH  13  14
ATOM     14  C   UNL     1     178.042 205.766 197.877  1.00  0.00    -0.000 C 
BRANCH  14  15
ATOM     15  C   UNL     1     179.005 206.913 197.521  1.00  0.00    -0.000 C 
BRANCH  15  16
ATOM     16  C   UNL     1     180.188 207.026 198.493  1.00  0.00    -0.000 C 
BRANCH  16  17
ATOM     17  C   UNL     1     179.699 207.235 199.931  1.00  0.00    -0.003 C 
ATOM     18  C   UNL     1     180.364 206.251 200.889  1.00  0.00     0.004 C 
ENDBRANCH  16  17
ENDBRANCH  15  16
ENDBRANCH  14  15
ENDBRANCH  13  14
ENDBRANCH  12  13
ENDBRANCH  11  12
ENDBRANCH   1  11
TORSDOF 14
ENDMDL
