MODEL 1
REMARK VINA RESULT:    -5.049      0.000      0.000
REMARK INTER + INTRA:          -6.405
REMARK INTER:                  -6.082
REMARK INTRA:                  -0.322
REMARK UNBOUND:                -0.322
REMARK SMILES O=c1c(O)c(-c2ccc(O)c(O)c2)oc2cc(O)cc(O)c12
REMARK SMILES IDX 5 1 3 2 2 3 1 4 22 5 20 6 19 7 17 8 16 9 15 10 14 11 6 12
REMARK SMILES IDX 7 13 8 14 9 15 13 16 11 17 10 18 12 20 4 22 21 24 18 26
REMARK H PARENT 10 19 12 21 4 23 21 25 18 27
REMARK Flexibility Score: inf
ROOT
ATOM      1  C   UNL     1      -2.318 -10.432   5.588  1.00  0.00     0.180 A 
ATOM      2  C   UNL     1      -1.384  -9.394   5.435  1.00  0.00     0.208 A 
ATOM      3  C   UNL     1      -0.020  -9.715   5.332  1.00  0.00     0.238 A 
ATOM      4  O   UNL     1       0.817  -8.779   5.250  1.00  0.00    -0.285 OA
ATOM      5  C   UNL     1       0.388 -11.069   5.366  1.00  0.00     0.111 A 
ATOM      6  C   UNL     1       1.739 -11.512   5.228  1.00  0.00     0.134 A 
ATOM      7  C   UNL     1       2.044 -12.867   5.409  1.00  0.00     0.093 A 
ATOM      8  C   UNL     1       1.041 -13.803   5.654  1.00  0.00     0.123 A 
ATOM      9  C   UNL     1      -0.290 -13.391   5.732  1.00  0.00     0.094 A 
ATOM     10  C   UNL     1      -0.621 -12.041   5.592  1.00  0.00     0.146 A 
ATOM     11  O   UNL     1      -1.898 -11.687   5.682  1.00  0.00    -0.452 OA
ENDROOT
BRANCH   1  12
ATOM     12  C   UNL     1      -3.775 -10.174   5.679  1.00  0.00     0.025 A 
ATOM     13  C   UNL     1      -4.535 -10.082   4.503  1.00  0.00     0.016 A 
ATOM     14  C   UNL     1      -5.905  -9.819   4.565  1.00  0.00     0.051 A 
ATOM     15  C   UNL     1      -6.534  -9.630   5.799  1.00  0.00     0.157 A 
ATOM     16  C   UNL     1      -4.404  -9.964   6.919  1.00  0.00     0.062 A 
ATOM     17  C   UNL     1      -5.780  -9.698   6.983  1.00  0.00     0.158 A 
BRANCH  15  18
ATOM     18  O   UNL     1      -7.904  -9.372   5.830  1.00  0.00    -0.504 OA
ATOM     19  H   UNL     1      -8.324  -8.778   6.535  1.00  0.00     0.293 HD
ENDBRANCH  15  18
BRANCH  17  20
ATOM     20  O   UNL     1      -6.398  -9.497   8.216  1.00  0.00    -0.504 OA
ATOM     21  H   UNL     1      -6.499 -10.249   8.888  1.00  0.00     0.293 HD
ENDBRANCH  17  20
ENDBRANCH   1  12
BRANCH   2  22
ATOM     22  O   UNL     1      -1.807  -8.062   5.426  1.00  0.00    -0.502 OA
ATOM     23  H   UNL     1      -2.775  -7.800   5.277  1.00  0.00     0.293 HD
ENDBRANCH   2  22
BRANCH   6  24
ATOM     24  O   UNL     1       2.805 -10.672   4.893  1.00  0.00    -0.507 OA
ATOM     25  H   UNL     1       3.740 -10.755   5.262  1.00  0.00     0.293 HD
ENDBRANCH   6  24
BRANCH   8  26
ATOM     26  O   UNL     1       1.378 -15.146   5.813  1.00  0.00    -0.508 OA
ATOM     27  H   UNL     1       0.672 -15.854   5.980  1.00  0.00     0.293 HD
ENDBRANCH   8  26
TORSDOF 6
ENDMDL
MODEL 2
REMARK VINA RESULT:    -4.952      0.678      1.431
REMARK INTER + INTRA:          -6.288
REMARK INTER:                  -6.023
REMARK INTRA:                  -0.265
REMARK UNBOUND:                -0.322
REMARK SMILES O=c1c(O)c(-c2ccc(O)c(O)c2)oc2cc(O)cc(O)c12
REMARK SMILES IDX 5 1 3 2 2 3 1 4 22 5 20 6 19 7 17 8 16 9 15 10 14 11 6 12
REMARK SMILES IDX 7 13 8 14 9 15 13 16 11 17 10 18 12 20 4 22 21 24 18 26
REMARK H PARENT 10 19 12 21 4 23 21 25 18 27
REMARK Flexibility Score: inf
ROOT
ATOM      1  C   UNL     1      -2.448 -10.252   5.694  1.00  0.00     0.180 A 
ATOM      2  C   UNL     1      -1.500  -9.214   5.692  1.00  0.00     0.208 A 
ATOM      3  C   UNL     1      -0.139  -9.535   5.563  1.00  0.00     0.238 A 
ATOM      4  O   UNL     1       0.708  -8.606   5.616  1.00  0.00    -0.285 OA
ATOM      5  C   UNL     1       0.255 -10.887   5.422  1.00  0.00     0.111 A 
ATOM      6  C   UNL     1       1.603 -11.324   5.243  1.00  0.00     0.134 A 
ATOM      7  C   UNL     1       1.890 -12.694   5.246  1.00  0.00     0.093 A 
ATOM      8  C   UNL     1       0.874 -13.643   5.353  1.00  0.00     0.123 A 
ATOM      9  C   UNL     1      -0.453 -13.229   5.469  1.00  0.00     0.094 A 
ATOM     10  C   UNL     1      -0.768 -11.868   5.505  1.00  0.00     0.146 A 
ATOM     11  O   UNL     1      -2.042 -11.513   5.627  1.00  0.00    -0.452 OA
ENDROOT
BRANCH   1  12
ATOM     12  C   UNL     1      -3.902  -9.991   5.802  1.00  0.00     0.025 A 
ATOM     13  C   UNL     1      -4.583 -10.344   6.976  1.00  0.00     0.016 A 
ATOM     14  C   UNL     1      -5.958 -10.127   7.091  1.00  0.00     0.051 A 
ATOM     15  C   UNL     1      -6.676  -9.567   6.029  1.00  0.00     0.157 A 
ATOM     16  C   UNL     1      -4.629  -9.447   4.727  1.00  0.00     0.062 A 
ATOM     17  C   UNL     1      -6.010  -9.229   4.839  1.00  0.00     0.158 A 
BRANCH  15  18
ATOM     18  O   UNL     1      -8.048  -9.359   6.174  1.00  0.00    -0.504 OA
ATOM     19  H   UNL     1      -8.673 -10.092   6.487  1.00  0.00     0.293 HD
ENDBRANCH  15  18
BRANCH  17  20
ATOM     20  O   UNL     1      -6.722  -8.684   3.772  1.00  0.00    -0.504 OA
ATOM     21  H   UNL     1      -6.932  -7.694   3.724  1.00  0.00     0.293 HD
ENDBRANCH  17  20
ENDBRANCH   1  12
BRANCH   2  22
ATOM     22  O   UNL     1      -1.910  -7.888   5.855  1.00  0.00    -0.502 OA
ATOM     23  H   UNL     1      -1.256  -7.114   5.864  1.00  0.00     0.293 HD
ENDBRANCH   2  22
BRANCH   6  24
ATOM     24  O   UNL     1       2.682 -10.460   5.034  1.00  0.00    -0.507 OA
ATOM     25  H   UNL     1       3.431 -10.625   4.379  1.00  0.00     0.293 HD
ENDBRANCH   6  24
BRANCH   8  26
ATOM     26  O   UNL     1       1.195 -14.999   5.336  1.00  0.00    -0.508 OA
ATOM     27  H   UNL     1       1.032 -15.592   6.142  1.00  0.00     0.293 HD
ENDBRANCH   8  26
TORSDOF 6
ENDMDL
MODEL 3
REMARK VINA RESULT:    -4.873     10.120     13.185
REMARK INTER + INTRA:          -6.192
REMARK INTER:                  -5.873
REMARK INTRA:                  -0.320
REMARK UNBOUND:                -0.322
REMARK SMILES O=c1c(O)c(-c2ccc(O)c(O)c2)oc2cc(O)cc(O)c12
REMARK SMILES IDX 5 1 3 2 2 3 1 4 22 5 20 6 19 7 17 8 16 9 15 10 14 11 6 12
REMARK SMILES IDX 7 13 8 14 9 15 13 16 11 17 10 18 12 20 4 22 21 24 18 26
REMARK H PARENT 10 19 12 21 4 23 21 25 18 27
REMARK Flexibility Score: inf
ROOT
ATOM      1  C   UNL     1      -2.698 -22.734   8.879  1.00  0.00     0.180 A 
ATOM      2  C   UNL     1      -1.372 -22.423   8.533  1.00  0.00     0.208 A 
ATOM      3  C   UNL     1      -0.964 -21.079   8.541  1.00  0.00     0.238 A 
ATOM      4  O   UNL     1       0.208 -20.802   8.178  1.00  0.00    -0.285 OA
ATOM      5  C   UNL     1      -1.882 -20.067   8.910  1.00  0.00     0.111 A 
ATOM      6  C   UNL     1      -1.566 -18.677   8.992  1.00  0.00     0.134 A 
ATOM      7  C   UNL     1      -2.585 -17.750   9.240  1.00  0.00     0.093 A 
ATOM      8  C   UNL     1      -3.895 -18.166   9.474  1.00  0.00     0.123 A 
ATOM      9  C   UNL     1      -4.205 -19.526   9.455  1.00  0.00     0.094 A 
ATOM     10  C   UNL     1      -3.216 -20.472   9.175  1.00  0.00     0.146 A 
ATOM     11  O   UNL     1      -3.553 -21.757   9.156  1.00  0.00    -0.452 OA
ENDROOT
BRANCH   1  12
ATOM     12  C   UNL     1      -3.196 -24.129   8.918  1.00  0.00     0.025 A 
ATOM     13  C   UNL     1      -3.004 -24.900  10.074  1.00  0.00     0.016 A 
ATOM     14  C   UNL     1      -3.446 -26.223  10.125  1.00  0.00     0.051 A 
ATOM     15  C   UNL     1      -4.074 -26.802   9.017  1.00  0.00     0.157 A 
ATOM     16  C   UNL     1      -3.809 -24.718   7.797  1.00  0.00     0.062 A 
ATOM     17  C   UNL     1      -4.253 -26.048   7.845  1.00  0.00     0.158 A 
BRANCH  15  18
ATOM     18  O   UNL     1      -4.508 -28.125   9.098  1.00  0.00    -0.504 OA
ATOM     19  H   UNL     1      -4.822 -28.535   9.970  1.00  0.00     0.293 HD
ENDBRANCH  15  18
BRANCH  17  20
ATOM     20  O   UNL     1      -4.866 -26.623   6.732  1.00  0.00    -0.504 OA
ATOM     21  H   UNL     1      -5.852 -26.491   6.542  1.00  0.00     0.293 HD
ENDBRANCH  17  20
ENDBRANCH   1  12
BRANCH   2  22
ATOM     22  O   UNL     1      -0.489 -23.436   8.151  1.00  0.00    -0.502 OA
ATOM     23  H   UNL     1      -0.549 -24.377   8.521  1.00  0.00     0.293 HD
ENDBRANCH   2  22
BRANCH   6  24
ATOM     24  O   UNL     1      -0.272 -18.162   8.865  1.00  0.00    -0.507 OA
ATOM     25  H   UNL     1       0.534 -18.698   8.582  1.00  0.00     0.293 HD
ENDBRANCH   6  24
BRANCH   8  26
ATOM     26  O   UNL     1      -4.882 -17.217   9.734  1.00  0.00    -0.508 OA
ATOM     27  H   UNL     1      -5.301 -16.672   8.989  1.00  0.00     0.293 HD
ENDBRANCH   8  26
TORSDOF 6
ENDMDL
MODEL 4
REMARK VINA RESULT:    -4.726     11.952     14.099
REMARK INTER + INTRA:          -6.015
REMARK INTER:                  -5.685
REMARK INTRA:                  -0.331
REMARK UNBOUND:                -0.322
REMARK SMILES O=c1c(O)c(-c2ccc(O)c(O)c2)oc2cc(O)cc(O)c12
REMARK SMILES IDX 5 1 3 2 2 3 1 4 22 5 20 6 19 7 17 8 16 9 15 10 14 11 6 12
REMARK SMILES IDX 7 13 8 14 9 15 13 16 11 17 10 18 12 20 4 22 21 24 18 26
REMARK H PARENT 10 19 12 21 4 23 21 25 18 27
REMARK Flexibility Score: inf
ROOT
ATOM      1  C   UNL     1     -14.583 -12.597   3.080  1.00  0.00     0.180 A 
ATOM      2  C   UNL     1     -15.152 -13.482   2.149  1.00  0.00     0.208 A 
ATOM      3  C   UNL     1     -15.253 -13.085   0.805  1.00  0.00     0.238 A 
ATOM      4  O   UNL     1     -15.813 -13.860  -0.013  1.00  0.00    -0.285 OA
ATOM      5  C   UNL     1     -14.768 -11.817   0.408  1.00  0.00     0.111 A 
ATOM      6  C   UNL     1     -14.781 -11.328  -0.934  1.00  0.00     0.134 A 
ATOM      7  C   UNL     1     -14.395 -10.007  -1.192  1.00  0.00     0.093 A 
ATOM      8  C   UNL     1     -13.934  -9.180  -0.169  1.00  0.00     0.123 A 
ATOM      9  C   UNL     1     -13.861  -9.665   1.137  1.00  0.00     0.094 A 
ATOM     10  C   UNL     1     -14.273 -10.967   1.431  1.00  0.00     0.146 A 
ATOM     11  O   UNL     1     -14.197 -11.389   2.688  1.00  0.00    -0.452 OA
ENDROOT
BRANCH   1  12
ATOM     12  C   UNL     1     -14.420 -12.953   4.509  1.00  0.00     0.025 A 
ATOM     13  C   UNL     1     -15.382 -12.534   5.439  1.00  0.00     0.016 A 
ATOM     14  C   UNL     1     -15.238 -12.840   6.794  1.00  0.00     0.051 A 
ATOM     15  C   UNL     1     -14.123 -13.556   7.243  1.00  0.00     0.157 A 
ATOM     16  C   UNL     1     -13.289 -13.655   4.963  1.00  0.00     0.062 A 
ATOM     17  C   UNL     1     -13.141 -13.962   6.324  1.00  0.00     0.158 A 
BRANCH  15  18
ATOM     18  O   UNL     1     -14.008 -13.850   8.601  1.00  0.00    -0.504 OA
ATOM     19  H   UNL     1     -14.786 -14.210   9.141  1.00  0.00     0.293 HD
ENDBRANCH  15  18
BRANCH  17  20
ATOM     20  O   UNL     1     -12.020 -14.664   6.766  1.00  0.00    -0.504 OA
ATOM     21  H   UNL     1     -11.141 -14.631   6.263  1.00  0.00     0.293 HD
ENDBRANCH  17  20
ENDBRANCH   1  12
BRANCH   2  22
ATOM     22  O   UNL     1     -15.645 -14.721   2.568  1.00  0.00    -0.502 OA
ATOM     23  H   UNL     1     -16.080 -14.855   3.473  1.00  0.00     0.293 HD
ENDBRANCH   2  22
BRANCH   6  24
ATOM     24  O   UNL     1     -15.136 -12.102  -2.043  1.00  0.00    -0.507 OA
ATOM     25  H   UNL     1     -15.201 -13.109  -2.044  1.00  0.00     0.293 HD
ENDBRANCH   6  24
BRANCH   8  26
ATOM     26  O   UNL     1     -13.544  -7.875  -0.464  1.00  0.00    -0.508 OA
ATOM     27  H   UNL     1     -12.799  -7.416   0.048  1.00  0.00     0.293 HD
ENDBRANCH   8  26
TORSDOF 6
ENDMDL
MODEL 5
REMARK VINA RESULT:    -4.707      1.621      7.228
REMARK INTER + INTRA:          -5.992
REMARK INTER:                  -5.677
REMARK INTRA:                  -0.315
REMARK UNBOUND:                -0.322
REMARK SMILES O=c1c(O)c(-c2ccc(O)c(O)c2)oc2cc(O)cc(O)c12
REMARK SMILES IDX 5 1 3 2 2 3 1 4 22 5 20 6 19 7 17 8 16 9 15 10 14 11 6 12
REMARK SMILES IDX 7 13 8 14 9 15 13 16 11 17 10 18 12 20 4 22 21 24 18 26
REMARK H PARENT 10 19 12 21 4 23 21 25 18 27
REMARK Flexibility Score: inf
ROOT
ATOM      1  C   UNL     1      -2.432 -11.388   6.372  1.00  0.00     0.180 A 
ATOM      2  C   UNL     1      -3.081 -11.636   7.593  1.00  0.00     0.208 A 
ATOM      3  C   UNL     1      -4.403 -11.195   7.763  1.00  0.00     0.238 A 
ATOM      4  O   UNL     1      -4.961 -11.372   8.878  1.00  0.00    -0.285 OA
ATOM      5  C   UNL     1      -5.064 -10.527   6.705  1.00  0.00     0.111 A 
ATOM      6  C   UNL     1      -6.417 -10.073   6.753  1.00  0.00     0.134 A 
ATOM      7  C   UNL     1      -6.927  -9.308   5.696  1.00  0.00     0.093 A 
ATOM      8  C   UNL     1      -6.156  -9.038   4.566  1.00  0.00     0.123 A 
ATOM      9  C   UNL     1      -4.852  -9.527   4.482  1.00  0.00     0.094 A 
ATOM     10  C   UNL     1      -4.304 -10.262   5.536  1.00  0.00     0.146 A 
ATOM     11  O   UNL     1      -3.055 -10.701   5.423  1.00  0.00    -0.452 OA
ENDROOT
BRANCH   1  12
ATOM     12  C   UNL     1      -1.046 -11.843   6.109  1.00  0.00     0.025 A 
ATOM     13  C   UNL     1       0.011 -10.925   6.194  1.00  0.00     0.016 A 
ATOM     14  C   UNL     1       1.321 -11.328   5.929  1.00  0.00     0.051 A 
ATOM     15  C   UNL     1       1.595 -12.649   5.561  1.00  0.00     0.157 A 
ATOM     16  C   UNL     1      -0.774 -13.167   5.719  1.00  0.00     0.062 A 
ATOM     17  C   UNL     1       0.542 -13.573   5.451  1.00  0.00     0.158 A 
BRANCH  15  18
ATOM     18  O   UNL     1       2.914 -13.023   5.306  1.00  0.00    -0.504 OA
ATOM     19  H   UNL     1       3.181 -13.505   4.455  1.00  0.00     0.293 HD
ENDBRANCH  15  18
BRANCH  17  20
ATOM     20  O   UNL     1       0.805 -14.888   5.071  1.00  0.00    -0.504 OA
ATOM     21  H   UNL     1       0.065 -15.513   4.772  1.00  0.00     0.293 HD
ENDBRANCH  17  20
ENDBRANCH   1  12
BRANCH   2  22
ATOM     22  O   UNL     1      -2.402 -12.277   8.633  1.00  0.00    -0.502 OA
ATOM     23  H   UNL     1      -2.468 -13.276   8.790  1.00  0.00     0.293 HD
ENDBRANCH   2  22
BRANCH   6  24
ATOM     24  O   UNL     1      -7.303 -10.366   7.794  1.00  0.00    -0.507 OA
ATOM     25  H   UNL     1      -8.111  -9.813   8.034  1.00  0.00     0.293 HD
ENDBRANCH   6  24
BRANCH   8  26
ATOM     26  O   UNL     1      -6.701  -8.287   3.527  1.00  0.00    -0.508 OA
ATOM     27  H   UNL     1      -6.117  -7.728   2.914  1.00  0.00     0.293 HD
ENDBRANCH   8  26
TORSDOF 6
ENDMDL
MODEL 6
REMARK VINA RESULT:    -4.647      1.256      1.859
REMARK INTER + INTRA:          -5.920
REMARK INTER:                  -5.892
REMARK INTRA:                  -0.028
REMARK UNBOUND:                -0.322
REMARK SMILES O=c1c(O)c(-c2ccc(O)c(O)c2)oc2cc(O)cc(O)c12
REMARK SMILES IDX 5 1 3 2 2 3 1 4 22 5 20 6 19 7 17 8 16 9 15 10 14 11 6 12
REMARK SMILES IDX 7 13 8 14 9 15 13 16 11 17 10 18 12 20 4 22 21 24 18 26
REMARK H PARENT 10 19 12 21 4 23 21 25 18 27
REMARK Flexibility Score: inf
ROOT
ATOM      1  C   UNL     1      -2.535 -10.577   5.755  1.00  0.00     0.180 A 
ATOM      2  C   UNL     1      -1.422  -9.874   5.265  1.00  0.00     0.208 A 
ATOM      3  C   UNL     1      -0.150 -10.463   5.359  1.00  0.00     0.238 A 
ATOM      4  O   UNL     1       0.850  -9.806   4.968  1.00  0.00    -0.285 OA
ATOM      5  C   UNL     1      -0.011 -11.752   5.926  1.00  0.00     0.111 A 
ATOM      6  C   UNL     1       1.224 -12.461   6.034  1.00  0.00     0.134 A 
ATOM      7  C   UNL     1       1.264 -13.675   6.731  1.00  0.00     0.093 A 
ATOM      8  C   UNL     1       0.105 -14.237   7.265  1.00  0.00     0.123 A 
ATOM      9  C   UNL     1      -1.117 -13.582   7.114  1.00  0.00     0.094 A 
ATOM     10  C   UNL     1      -1.183 -12.352   6.455  1.00  0.00     0.146 A 
ATOM     11  O   UNL     1      -2.364 -11.755   6.341  1.00  0.00    -0.452 OA
ENDROOT
BRANCH   1  12
ATOM     12  C   UNL     1      -3.911 -10.033   5.670  1.00  0.00     0.025 A 
ATOM     13  C   UNL     1      -4.735 -10.056   6.805  1.00  0.00     0.016 A 
ATOM     14  C   UNL     1      -6.042  -9.567   6.741  1.00  0.00     0.051 A 
ATOM     15  C   UNL     1      -6.551  -9.063   5.540  1.00  0.00     0.157 A 
ATOM     16  C   UNL     1      -4.430  -9.544   4.457  1.00  0.00     0.062 A 
ATOM     17  C   UNL     1      -5.743  -9.055   4.391  1.00  0.00     0.158 A 
BRANCH  15  18
ATOM     18  O   UNL     1      -7.858  -8.579   5.508  1.00  0.00    -0.504 OA
ATOM     19  H   UNL     1      -8.434  -8.640   4.676  1.00  0.00     0.293 HD
ENDBRANCH  15  18
BRANCH  17  20
ATOM     20  O   UNL     1      -6.248  -8.566   3.186  1.00  0.00    -0.504 OA
ATOM     21  H   UNL     1      -5.764  -7.848   2.660  1.00  0.00     0.293 HD
ENDBRANCH  17  20
ENDBRANCH   1  12
BRANCH   2  22
ATOM     22  O   UNL     1      -1.579  -8.593   4.730  1.00  0.00    -0.502 OA
ATOM     23  H   UNL     1      -0.947  -8.213   4.035  1.00  0.00     0.293 HD
ENDBRANCH   2  22
BRANCH   6  24
ATOM     24  O   UNL     1       2.422 -12.033   5.457  1.00  0.00    -0.507 OA
ATOM     25  H   UNL     1       3.312 -12.008   5.932  1.00  0.00     0.293 HD
ENDBRANCH   6  24
BRANCH   8  26
ATOM     26  O   UNL     1       0.180 -15.455   7.939  1.00  0.00    -0.508 OA
ATOM     27  H   UNL     1      -0.634 -16.047   8.053  1.00  0.00     0.293 HD
ENDBRANCH   8  26
TORSDOF 6
ENDMDL
MODEL 7
REMARK VINA RESULT:    -4.643     10.319     13.139
REMARK INTER + INTRA:          -5.915
REMARK INTER:                  -5.647
REMARK INTRA:                  -0.268
REMARK UNBOUND:                -0.322
REMARK SMILES O=c1c(O)c(-c2ccc(O)c(O)c2)oc2cc(O)cc(O)c12
REMARK SMILES IDX 5 1 3 2 2 3 1 4 22 5 20 6 19 7 17 8 16 9 15 10 14 11 6 12
REMARK SMILES IDX 7 13 8 14 9 15 13 16 11 17 10 18 12 20 4 22 21 24 18 26
REMARK H PARENT 10 19 12 21 4 23 21 25 18 27
REMARK Flexibility Score: inf
ROOT
ATOM      1  C   UNL     1     -14.107 -13.014   4.482  1.00  0.00     0.180 A 
ATOM      2  C   UNL     1     -15.067 -13.779   5.165  1.00  0.00     0.208 A 
ATOM      3  C   UNL     1     -14.924 -13.973   6.549  1.00  0.00     0.238 A 
ATOM      4  O   UNL     1     -15.757 -14.704   7.145  1.00  0.00    -0.285 OA
ATOM      5  C   UNL     1     -13.833 -13.387   7.233  1.00  0.00     0.111 A 
ATOM      6  C   UNL     1     -13.612 -13.484   8.640  1.00  0.00     0.134 A 
ATOM      7  C   UNL     1     -12.429 -12.975   9.190  1.00  0.00     0.093 A 
ATOM      8  C   UNL     1     -11.492 -12.315   8.397  1.00  0.00     0.123 A 
ATOM      9  C   UNL     1     -11.725 -12.161   7.030  1.00  0.00     0.094 A 
ATOM     10  C   UNL     1     -12.879 -12.690   6.446  1.00  0.00     0.146 A 
ATOM     11  O   UNL     1     -13.060 -12.532   5.140  1.00  0.00    -0.452 OA
ENDROOT
BRANCH   1  12
ATOM     12  C   UNL     1     -14.203 -12.744   3.028  1.00  0.00     0.025 A 
ATOM     13  C   UNL     1     -13.833 -13.742   2.114  1.00  0.00     0.016 A 
ATOM     14  C   UNL     1     -13.895 -13.502   0.740  1.00  0.00     0.051 A 
ATOM     15  C   UNL     1     -14.313 -12.258   0.257  1.00  0.00     0.157 A 
ATOM     16  C   UNL     1     -14.604 -11.486   2.543  1.00  0.00     0.062 A 
ATOM     17  C   UNL     1     -14.666 -11.242   1.163  1.00  0.00     0.158 A 
BRANCH  15  18
ATOM     18  O   UNL     1     -14.368 -12.048  -1.120  1.00  0.00    -0.504 OA
ATOM     19  H   UNL     1     -15.070 -12.489  -1.704  1.00  0.00     0.293 HD
ENDBRANCH  15  18
BRANCH  17  20
ATOM     20  O   UNL     1     -15.070  -9.995   0.689  1.00  0.00    -0.504 OA
ATOM     21  H   UNL     1     -14.633  -9.138   1.009  1.00  0.00     0.293 HD
ENDBRANCH  17  20
ENDBRANCH   1  12
BRANCH   2  22
ATOM     22  O   UNL     1     -16.125 -14.367   4.466  1.00  0.00    -0.502 OA
ATOM     23  H   UNL     1     -16.818 -14.950   4.919  1.00  0.00     0.293 HD
ENDBRANCH   2  22
BRANCH   6  24
ATOM     24  O   UNL     1     -14.528 -14.043   9.537  1.00  0.00    -0.507 OA
ATOM     25  H   UNL     1     -14.473 -13.960  10.541  1.00  0.00     0.293 HD
ENDBRANCH   6  24
BRANCH   8  26
ATOM     26  O   UNL     1     -10.334 -11.807   8.981  1.00  0.00    -0.508 OA
ATOM     27  H   UNL     1     -10.212 -11.789   9.987  1.00  0.00     0.293 HD
ENDBRANCH   8  26
TORSDOF 6
ENDMDL
MODEL 8
REMARK VINA RESULT:    -4.575      2.218      7.504
REMARK INTER + INTRA:          -5.834
REMARK INTER:                  -5.602
REMARK INTRA:                  -0.232
REMARK UNBOUND:                -0.322
REMARK SMILES O=c1c(O)c(-c2ccc(O)c(O)c2)oc2cc(O)cc(O)c12
REMARK SMILES IDX 5 1 3 2 2 3 1 4 22 5 20 6 19 7 17 8 16 9 15 10 14 11 6 12
REMARK SMILES IDX 7 13 8 14 9 15 13 16 11 17 10 18 12 20 4 22 21 24 18 26
REMARK H PARENT 10 19 12 21 4 23 21 25 18 27
REMARK Flexibility Score: inf
ROOT
ATOM      1  C   UNL     1       1.334 -13.306   5.993  1.00  0.00     0.180 A 
ATOM      2  C   UNL     1       2.078 -12.228   5.486  1.00  0.00     0.208 A 
ATOM      3  C   UNL     1       1.426 -11.010   5.232  1.00  0.00     0.238 A 
ATOM      4  O   UNL     1       2.086 -10.065   4.728  1.00  0.00    -0.285 OA
ATOM      5  C   UNL     1       0.044 -10.882   5.505  1.00  0.00     0.111 A 
ATOM      6  C   UNL     1      -0.710  -9.682   5.324  1.00  0.00     0.134 A 
ATOM      7  C   UNL     1      -2.099  -9.706   5.501  1.00  0.00     0.093 A 
ATOM      8  C   UNL     1      -2.752 -10.867   5.916  1.00  0.00     0.123 A 
ATOM      9  C   UNL     1      -2.018 -12.029   6.152  1.00  0.00     0.094 A 
ATOM     10  C   UNL     1      -0.636 -12.046   5.950  1.00  0.00     0.146 A 
ATOM     11  O   UNL     1       0.026 -13.175   6.176  1.00  0.00    -0.452 OA
ENDROOT
BRANCH   1  12
ATOM     12  C   UNL     1       1.956 -14.614   6.309  1.00  0.00     0.025 A 
ATOM     13  C   UNL     1       2.176 -14.969   7.648  1.00  0.00     0.016 A 
ATOM     14  C   UNL     1       2.779 -16.187   7.967  1.00  0.00     0.051 A 
ATOM     15  C   UNL     1       3.185 -17.062   6.955  1.00  0.00     0.157 A 
ATOM     16  C   UNL     1       2.383 -15.485   5.290  1.00  0.00     0.062 A 
ATOM     17  C   UNL     1       2.990 -16.708   5.609  1.00  0.00     0.158 A 
BRANCH  15  18
ATOM     18  O   UNL     1       3.782 -18.273   7.305  1.00  0.00    -0.504 OA
ATOM     19  H   UNL     1       3.563 -18.751   8.171  1.00  0.00     0.293 HD
ENDBRANCH  15  18
BRANCH  17  20
ATOM     20  O   UNL     1       3.405 -17.570   4.594  1.00  0.00    -0.504 OA
ATOM     21  H   UNL     1       3.897 -17.229   3.777  1.00  0.00     0.293 HD
ENDBRANCH  17  20
ENDBRANCH   1  12
BRANCH   2  22
ATOM     22  O   UNL     1       3.438 -12.383   5.204  1.00  0.00    -0.502 OA
ATOM     23  H   UNL     1       3.902 -11.869   4.464  1.00  0.00     0.293 HD
ENDBRANCH   2  22
BRANCH   6  24
ATOM     24  O   UNL     1      -0.144  -8.446   5.001  1.00  0.00    -0.507 OA
ATOM     25  H   UNL     1       0.139  -8.169   4.073  1.00  0.00     0.293 HD
ENDBRANCH   6  24
BRANCH   8  26
ATOM     26  O   UNL     1      -4.133 -10.850   6.097  1.00  0.00    -0.508 OA
ATOM     27  H   UNL     1      -4.768 -10.695   5.321  1.00  0.00     0.293 HD
ENDBRANCH   8  26
TORSDOF 6
ENDMDL
