MODEL 1
REMARK VINA RESULT:    -6.451      0.000      0.000
REMARK INTER + INTRA:         -19.830
REMARK INTER:                 -17.011
REMARK INTRA:                  -2.818
REMARK UNBOUND:                -2.818
REMARK SMILES CCCCCCCCCCCCCCCCCCCCCCCCCCCCCC(=O)[O-]
REMARK SMILES IDX 16 1 17 2 18 3 19 4 20 5 21 6 22 7 23 8 24 9 25 10 26 11
REMARK SMILES IDX 27 12 28 13 29 14 30 15 31 16 32 17 15 18 14 19 13 20 12 21
REMARK SMILES IDX 11 22 10 23 9 24 8 25 7 26 6 27 5 28 4 29 3 30 2 31 1 32
REMARK H PARENT
REMARK Flexibility Score: inf
ROOT
ATOM      1  C   UNL     1     -11.358  11.448   5.840  1.00  0.00     0.000 C 
ENDROOT
BRANCH   1   2
ATOM      2  C   UNL     1     -12.020  10.337   6.673  1.00  0.00     0.000 C 
BRANCH   2   3
ATOM      3  C   UNL     1     -11.978  10.623   8.181  1.00  0.00     0.000 C 
BRANCH   3   4
ATOM      4  C   UNL     1     -11.961  12.128   8.505  1.00  0.00     0.000 C 
BRANCH   4   5
ATOM      5  C   UNL     1     -10.737  12.553   9.341  1.00  0.00     0.000 C 
BRANCH   5   6
ATOM      6  C   UNL     1     -10.386  14.051   9.265  1.00  0.00     0.000 C 
BRANCH   6   7
ATOM      7  C   UNL     1      -9.064  14.315   8.533  1.00  0.00     0.000 C 
BRANCH   7   8
ATOM      8  C   UNL     1      -7.918  14.702   9.489  1.00  0.00     0.000 C 
BRANCH   8   9
ATOM      9  C   UNL     1      -8.255  15.885  10.431  1.00  0.00     0.000 C 
BRANCH   9  10
ATOM     10  C   UNL     1      -7.573  15.798  11.810  1.00  0.00     0.000 C 
BRANCH  10  11
ATOM     11  C   UNL     1      -7.132  14.365  12.165  1.00  0.00     0.000 C 
BRANCH  11  12
ATOM     12  C   UNL     1      -8.279  13.521  12.742  1.00  0.00     0.000 C 
BRANCH  12  13
ATOM     13  C   UNL     1      -8.096  12.023  12.445  1.00  0.00     0.006 C 
BRANCH  13  14
ATOM     14  C   UNL     1      -6.624  11.674  12.189  1.00  0.00     0.053 C 
BRANCH  14  15
ATOM     15  C   UNL     1      -6.421  10.193  12.260  1.00  0.00     0.041 C 
ATOM     16  O   UNL     1      -6.883   9.537  13.232  1.00  0.00    -0.550 OA
ATOM     17  O   UNL     1      -5.757   9.530  11.233  1.00  0.00    -0.550 OA
ENDBRANCH  14  15
ENDBRANCH  13  14
ENDBRANCH  12  13
ENDBRANCH  11  12
ENDBRANCH  10  11
ENDBRANCH   9  10
ENDBRANCH   8   9
ENDBRANCH   7   8
ENDBRANCH   6   7
ENDBRANCH   5   6
ENDBRANCH   4   5
ENDBRANCH   3   4
ENDBRANCH   2   3
ENDBRANCH   1   2
BRANCH   1  18
ATOM     18  C   UNL     1     -11.453  11.131   4.338  1.00  0.00     0.000 C 
BRANCH  18  19
ATOM     19  C   UNL     1     -10.085  11.218   3.641  1.00  0.00     0.000 C 
BRANCH  19  20
ATOM     20  C   UNL     1      -9.876  12.543   2.875  1.00  0.00     0.000 C 
BRANCH  20  21
ATOM     21  C   UNL     1      -9.120  13.583   3.720  1.00  0.00     0.000 C 
BRANCH  21  22
ATOM     22  C   UNL     1      -7.590  13.375   3.672  1.00  0.00     0.000 C 
BRANCH  22  23
ATOM     23  C   UNL     1      -7.033  13.193   2.248  1.00  0.00     0.000 C 
BRANCH  23  24
ATOM     24  C   UNL     1      -5.954  12.102   2.159  1.00  0.00    -0.000 C 
BRANCH  24  25
ATOM     25  C   UNL     1      -5.784  11.319   3.473  1.00  0.00    -0.000 C 
BRANCH  25  26
ATOM     26  C   UNL     1      -5.876   9.787   3.338  1.00  0.00    -0.000 C 
BRANCH  26  27
ATOM     27  C   UNL     1      -4.789   9.050   4.144  1.00  0.00    -0.000 C 
BRANCH  27  28
ATOM     28  C   UNL     1      -4.275   9.875   5.336  1.00  0.00    -0.000 C 
BRANCH  28  29
ATOM     29  C   UNL     1      -4.214   9.061   6.636  1.00  0.00    -0.000 C 
BRANCH  29  30
ATOM     30  C   UNL     1      -5.104   7.817   6.538  1.00  0.00    -0.000 C 
BRANCH  30  31
ATOM     31  C   UNL     1      -5.529   7.284   7.915  1.00  0.00    -0.003 C 
ATOM     32  C   UNL     1      -6.362   6.006   7.820  1.00  0.00     0.004 C 
ENDBRANCH  30  31
ENDBRANCH  29  30
ENDBRANCH  28  29
ENDBRANCH  27  28
ENDBRANCH  26  27
ENDBRANCH  25  26
ENDBRANCH  24  25
ENDBRANCH  23  24
ENDBRANCH  22  23
ENDBRANCH  21  22
ENDBRANCH  20  21
ENDBRANCH  19  20
ENDBRANCH  18  19
ENDBRANCH   1  18
TORSDOF 28
ENDMDL
MODEL 2
REMARK VINA RESULT:    -6.309      1.287      1.942
REMARK INTER + INTRA:         -19.455
REMARK INTER:                 -16.830
REMARK INTRA:                  -2.625
REMARK UNBOUND:                -2.818
REMARK SMILES CCCCCCCCCCCCCCCCCCCCCCCCCCCCCC(=O)[O-]
REMARK SMILES IDX 16 1 17 2 18 3 19 4 20 5 21 6 22 7 23 8 24 9 25 10 26 11
REMARK SMILES IDX 27 12 28 13 29 14 30 15 31 16 32 17 15 18 14 19 13 20 12 21
REMARK SMILES IDX 11 22 10 23 9 24 8 25 7 26 6 27 5 28 4 29 3 30 2 31 1 32
REMARK H PARENT
REMARK Flexibility Score: inf
ROOT
ATOM      1  C   UNL     1     -10.894  11.497   5.288  1.00  0.00     0.000 C 
ENDROOT
BRANCH   1   2
ATOM      2  C   UNL     1     -12.008  10.585   5.826  1.00  0.00     0.000 C 
BRANCH   2   3
ATOM      3  C   UNL     1     -12.062  10.558   7.361  1.00  0.00     0.000 C 
BRANCH   3   4
ATOM      4  C   UNL     1     -13.113  11.521   7.941  1.00  0.00     0.000 C 
BRANCH   4   5
ATOM      5  C   UNL     1     -12.500  12.630   8.819  1.00  0.00     0.000 C 
BRANCH   5   6
ATOM      6  C   UNL     1     -10.963  12.618   8.904  1.00  0.00     0.000 C 
BRANCH   6   7
ATOM      7  C   UNL     1     -10.375  13.997   9.230  1.00  0.00     0.000 C 
BRANCH   7   8
ATOM      8  C   UNL     1      -9.010  14.239   8.557  1.00  0.00     0.000 C 
BRANCH   8   9
ATOM      9  C   UNL     1      -7.937  14.834   9.503  1.00  0.00     0.000 C 
BRANCH   9  10
ATOM     10  C   UNL     1      -8.494  15.308  10.859  1.00  0.00     0.000 C 
BRANCH  10  11
ATOM     11  C   UNL     1      -7.509  15.074  12.020  1.00  0.00     0.000 C 
BRANCH  11  12
ATOM     12  C   UNL     1      -7.027  13.617  12.099  1.00  0.00     0.000 C 
BRANCH  12  13
ATOM     13  C   UNL     1      -8.201  12.627  12.201  1.00  0.00     0.006 C 
BRANCH  13  14
ATOM     14  C   UNL     1      -7.722  11.222  12.591  1.00  0.00     0.053 C 
BRANCH  14  15
ATOM     15  C   UNL     1      -8.830  10.459  13.247  1.00  0.00     0.041 C 
ATOM     16  O   UNL     1      -8.723  10.098  14.450  1.00  0.00    -0.550 OA
ATOM     17  O   UNL     1      -9.996  10.182  12.544  1.00  0.00    -0.550 OA
ENDBRANCH  14  15
ENDBRANCH  13  14
ENDBRANCH  12  13
ENDBRANCH  11  12
ENDBRANCH  10  11
ENDBRANCH   9  10
ENDBRANCH   8   9
ENDBRANCH   7   8
ENDBRANCH   6   7
ENDBRANCH   5   6
ENDBRANCH   4   5
ENDBRANCH   3   4
ENDBRANCH   2   3
ENDBRANCH   1   2
BRANCH   1  18
ATOM     18  C   UNL     1     -11.097  11.778   3.790  1.00  0.00     0.000 C 
BRANCH  18  19
ATOM     19  C   UNL     1     -10.039  12.746   3.233  1.00  0.00     0.000 C 
BRANCH  19  20
ATOM     20  C   UNL     1      -9.058  13.258   4.311  1.00  0.00     0.000 C 
BRANCH  20  21
ATOM     21  C   UNL     1      -7.632  13.421   3.759  1.00  0.00     0.000 C 
BRANCH  21  22
ATOM     22  C   UNL     1      -7.586  13.327   2.217  1.00  0.00     0.000 C 
BRANCH  22  23
ATOM     23  C   UNL     1      -6.515  12.354   1.687  1.00  0.00     0.000 C 
BRANCH  23  24
ATOM     24  C   UNL     1      -5.622  11.780   2.799  1.00  0.00    -0.000 C 
BRANCH  24  25
ATOM     25  C   UNL     1      -5.745  10.251   2.935  1.00  0.00    -0.000 C 
BRANCH  25  26
ATOM     26  C   UNL     1      -5.146   9.660   4.226  1.00  0.00    -0.000 C 
BRANCH  26  27
ATOM     27  C   UNL     1      -5.298   8.129   4.307  1.00  0.00    -0.000 C 
BRANCH  27  28
ATOM     28  C   UNL     1      -4.519   7.518   5.484  1.00  0.00    -0.000 C 
BRANCH  28  29
ATOM     29  C   UNL     1      -5.026   8.010   6.847  1.00  0.00    -0.000 C 
BRANCH  29  30
ATOM     30  C   UNL     1      -3.863   8.164   7.833  1.00  0.00    -0.000 C 
BRANCH  30  31
ATOM     31  C   UNL     1      -3.755   9.586   8.403  1.00  0.00    -0.003 C 
ATOM     32  C   UNL     1      -3.682  10.654   7.311  1.00  0.00     0.004 C 
ENDBRANCH  30  31
ENDBRANCH  29  30
ENDBRANCH  28  29
ENDBRANCH  27  28
ENDBRANCH  26  27
ENDBRANCH  25  26
ENDBRANCH  24  25
ENDBRANCH  23  24
ENDBRANCH  22  23
ENDBRANCH  21  22
ENDBRANCH  20  21
ENDBRANCH  19  20
ENDBRANCH  18  19
ENDBRANCH   1  18
TORSDOF 28
ENDMDL
MODEL 3
REMARK VINA RESULT:    -6.288      1.819      7.240
REMARK INTER + INTRA:         -19.399
REMARK INTER:                 -16.296
REMARK INTRA:                  -3.104
REMARK UNBOUND:                -2.818
REMARK SMILES CCCCCCCCCCCCCCCCCCCCCCCCCCCCCC(=O)[O-]
REMARK SMILES IDX 16 1 17 2 18 3 19 4 20 5 21 6 22 7 23 8 24 9 25 10 26 11
REMARK SMILES IDX 27 12 28 13 29 14 30 15 31 16 32 17 15 18 14 19 13 20 12 21
REMARK SMILES IDX 11 22 10 23 9 24 8 25 7 26 6 27 5 28 4 29 3 30 2 31 1 32
REMARK H PARENT
REMARK Flexibility Score: inf
ROOT
ATOM      1  C   UNL     1     -10.815  11.534   3.732  1.00  0.00     0.000 C 
ENDROOT
BRANCH   1   2
ATOM      2  C   UNL     1      -9.897  12.564   3.052  1.00  0.00     0.000 C 
BRANCH   2   3
ATOM      3  C   UNL     1      -8.997  13.305   4.053  1.00  0.00     0.000 C 
BRANCH   3   4
ATOM      4  C   UNL     1      -7.509  12.940   3.904  1.00  0.00     0.000 C 
BRANCH   4   5
ATOM      5  C   UNL     1      -7.161  12.369   2.515  1.00  0.00     0.000 C 
BRANCH   5   6
ATOM      6  C   UNL     1      -5.945  11.425   2.485  1.00  0.00     0.000 C 
BRANCH   6   7
ATOM      7  C   UNL     1      -6.337   9.946   2.594  1.00  0.00     0.000 C 
BRANCH   7   8
ATOM      8  C   UNL     1      -5.635   9.226   3.762  1.00  0.00     0.000 C 
BRANCH   8   9
ATOM      9  C   UNL     1      -4.770  10.157   4.648  1.00  0.00     0.000 C 
BRANCH   9  10
ATOM     10  C   UNL     1      -3.779   9.407   5.559  1.00  0.00     0.000 C 
BRANCH  10  11
ATOM     11  C   UNL     1      -3.999   9.712   7.053  1.00  0.00     0.000 C 
BRANCH  11  12
ATOM     12  C   UNL     1      -4.804   8.615   7.767  1.00  0.00     0.000 C 
BRANCH  12  13
ATOM     13  C   UNL     1      -4.638   7.245   7.087  1.00  0.00     0.006 C 
BRANCH  13  14
ATOM     14  C   UNL     1      -5.978   6.712   6.560  1.00  0.00     0.053 C 
BRANCH  14  15
ATOM     15  C   UNL     1      -6.292   5.389   7.186  1.00  0.00     0.041 C 
ATOM     16  O   UNL     1      -6.231   4.334   6.499  1.00  0.00    -0.550 OA
ATOM     17  O   UNL     1      -6.613   5.316   8.536  1.00  0.00    -0.550 OA
ENDBRANCH  14  15
ENDBRANCH  13  14
ENDBRANCH  12  13
ENDBRANCH  11  12
ENDBRANCH  10  11
ENDBRANCH   9  10
ENDBRANCH   8   9
ENDBRANCH   7   8
ENDBRANCH   6   7
ENDBRANCH   5   6
ENDBRANCH   4   5
ENDBRANCH   3   4
ENDBRANCH   2   3
ENDBRANCH   1   2
BRANCH   1  18
ATOM     18  C   UNL     1     -10.863  11.767   5.251  1.00  0.00     0.000 C 
BRANCH  18  19
ATOM     19  C   UNL     1     -11.853  10.821   5.951  1.00  0.00     0.000 C 
BRANCH  19  20
ATOM     20  C   UNL     1     -12.073  11.165   7.441  1.00  0.00     0.000 C 
BRANCH  20  21
ATOM     21  C   UNL     1     -10.894  11.960   8.027  1.00  0.00     0.000 C 
BRANCH  21  22
ATOM     22  C   UNL     1     -11.316  12.834   9.230  1.00  0.00     0.000 C 
BRANCH  22  23
ATOM     23  C   UNL     1     -10.505  14.137   9.364  1.00  0.00     0.000 C 
BRANCH  23  24
ATOM     24  C   UNL     1      -9.236  14.147   8.497  1.00  0.00    -0.000 C 
BRANCH  24  25
ATOM     25  C   UNL     1      -7.966  14.487   9.299  1.00  0.00    -0.000 C 
BRANCH  25  26
ATOM     26  C   UNL     1      -8.165  15.505  10.438  1.00  0.00    -0.000 C 
BRANCH  26  27
ATOM     27  C   UNL     1      -7.357  15.152  11.701  1.00  0.00    -0.000 C 
BRANCH  27  28
ATOM     28  C   UNL     1      -7.197  13.636  11.897  1.00  0.00    -0.000 C 
BRANCH  28  29
ATOM     29  C   UNL     1      -8.281  13.039  12.806  1.00  0.00    -0.000 C 
BRANCH  29  30
ATOM     30  C   UNL     1      -9.025  11.907  12.089  1.00  0.00    -0.000 C 
BRANCH  30  31
ATOM     31  C   UNL     1      -9.013  10.595  12.885  1.00  0.00    -0.003 C 
ATOM     32  C   UNL     1      -9.842   9.495  12.222  1.00  0.00     0.004 C 
ENDBRANCH  30  31
ENDBRANCH  29  30
ENDBRANCH  28  29
ENDBRANCH  27  28
ENDBRANCH  26  27
ENDBRANCH  25  26
ENDBRANCH  24  25
ENDBRANCH  23  24
ENDBRANCH  22  23
ENDBRANCH  21  22
ENDBRANCH  20  21
ENDBRANCH  19  20
ENDBRANCH  18  19
ENDBRANCH   1  18
TORSDOF 28
ENDMDL
MODEL 4
REMARK VINA RESULT:    -6.150      1.652      4.044
REMARK INTER + INTRA:         -19.037
REMARK INTER:                 -16.146
REMARK INTRA:                  -2.891
REMARK UNBOUND:                -2.818
REMARK SMILES CCCCCCCCCCCCCCCCCCCCCCCCCCCCCC(=O)[O-]
REMARK SMILES IDX 16 1 17 2 18 3 19 4 20 5 21 6 22 7 23 8 24 9 25 10 26 11
REMARK SMILES IDX 27 12 28 13 29 14 30 15 31 16 32 17 15 18 14 19 13 20 12 21
REMARK SMILES IDX 11 22 10 23 9 24 8 25 7 26 6 27 5 28 4 29 3 30 2 31 1 32
REMARK H PARENT
REMARK Flexibility Score: inf
ROOT
ATOM      1  C   UNL     1      -9.228  13.431   4.005  1.00  0.00     0.000 C 
ENDROOT
BRANCH   1   2
ATOM      2  C   UNL     1     -10.105  12.703   2.972  1.00  0.00     0.000 C 
BRANCH   2   3
ATOM      3  C   UNL     1     -10.848  11.499   3.571  1.00  0.00     0.000 C 
BRANCH   3   4
ATOM      4  C   UNL     1     -10.808  11.475   5.109  1.00  0.00     0.000 C 
BRANCH   4   5
ATOM      5  C   UNL     1     -12.186  11.205   5.746  1.00  0.00     0.000 C 
BRANCH   5   6
ATOM      6  C   UNL     1     -12.242   9.986   6.685  1.00  0.00     0.000 C 
BRANCH   6   7
ATOM      7  C   UNL     1     -12.406  10.378   8.159  1.00  0.00     0.000 C 
BRANCH   7   8
ATOM      8  C   UNL     1     -12.228  11.890   8.398  1.00  0.00     0.000 C 
BRANCH   8   9
ATOM      9  C   UNL     1     -10.937  12.259   9.170  1.00  0.00     0.000 C 
BRANCH   9  10
ATOM     10  C   UNL     1     -10.136  13.411   8.533  1.00  0.00     0.000 C 
BRANCH  10  11
ATOM     11  C   UNL     1      -9.748  14.499   9.552  1.00  0.00     0.000 C 
BRANCH  11  12
ATOM     12  C   UNL     1      -8.283  14.389  10.002  1.00  0.00     0.000 C 
BRANCH  12  13
ATOM     13  C   UNL     1      -8.146  13.643  11.341  1.00  0.00     0.006 C 
BRANCH  13  14
ATOM     14  C   UNL     1      -6.969  14.179  12.168  1.00  0.00     0.053 C 
BRANCH  14  15
ATOM     15  C   UNL     1      -7.194  13.915  13.624  1.00  0.00     0.041 C 
ATOM     16  O   UNL     1      -6.405  13.165  14.259  1.00  0.00    -0.550 OA
ATOM     17  O   UNL     1      -8.251  14.527  14.288  1.00  0.00    -0.550 OA
ENDBRANCH  14  15
ENDBRANCH  13  14
ENDBRANCH  12  13
ENDBRANCH  11  12
ENDBRANCH  10  11
ENDBRANCH   9  10
ENDBRANCH   8   9
ENDBRANCH   7   8
ENDBRANCH   6   7
ENDBRANCH   5   6
ENDBRANCH   4   5
ENDBRANCH   3   4
ENDBRANCH   2   3
ENDBRANCH   1   2
BRANCH   1  18
ATOM     18  C   UNL     1      -7.737  13.162   3.738  1.00  0.00     0.000 C 
BRANCH  18  19
ATOM     19  C   UNL     1      -7.408  13.167   2.236  1.00  0.00     0.000 C 
BRANCH  19  20
ATOM     20  C   UNL     1      -6.532  11.971   1.802  1.00  0.00     0.000 C 
BRANCH  20  21
ATOM     21  C   UNL     1      -7.329  10.656   1.773  1.00  0.00     0.000 C 
BRANCH  21  22
ATOM     22  C   UNL     1      -6.795   9.625   2.793  1.00  0.00     0.000 C 
BRANCH  22  23
ATOM     23  C   UNL     1      -5.505  10.070   3.506  1.00  0.00     0.000 C 
BRANCH  23  24
ATOM     24  C   UNL     1      -4.762   8.907   4.185  1.00  0.00    -0.000 C 
BRANCH  24  25
ATOM     25  C   UNL     1      -5.259   7.526   3.721  1.00  0.00    -0.000 C 
BRANCH  25  26
ATOM     26  C   UNL     1      -4.728   6.332   4.538  1.00  0.00    -0.000 C 
BRANCH  26  27
ATOM     27  C   UNL     1      -5.837   5.611   5.329  1.00  0.00    -0.000 C 
BRANCH  27  28
ATOM     28  C   UNL     1      -6.205   6.342   6.631  1.00  0.00    -0.000 C 
BRANCH  28  29
ATOM     29  C   UNL     1      -4.972   6.744   7.453  1.00  0.00    -0.000 C 
BRANCH  29  30
ATOM     30  C   UNL     1      -5.113   8.177   7.975  1.00  0.00    -0.000 C 
BRANCH  30  31
ATOM     31  C   UNL     1      -3.940   9.077   7.559  1.00  0.00    -0.003 C 
ATOM     32  C   UNL     1      -3.490  10.013   8.680  1.00  0.00     0.004 C 
ENDBRANCH  30  31
ENDBRANCH  29  30
ENDBRANCH  28  29
ENDBRANCH  27  28
ENDBRANCH  26  27
ENDBRANCH  25  26
ENDBRANCH  24  25
ENDBRANCH  23  24
ENDBRANCH  22  23
ENDBRANCH  21  22
ENDBRANCH  20  21
ENDBRANCH  19  20
ENDBRANCH  18  19
ENDBRANCH   1  18
TORSDOF 28
ENDMDL
MODEL 5
REMARK VINA RESULT:    -6.137      1.362      2.234
REMARK INTER + INTRA:         -19.001
REMARK INTER:                 -16.421
REMARK INTRA:                  -2.580
REMARK UNBOUND:                -2.818
REMARK SMILES CCCCCCCCCCCCCCCCCCCCCCCCCCCCCC(=O)[O-]
REMARK SMILES IDX 16 1 17 2 18 3 19 4 20 5 21 6 22 7 23 8 24 9 25 10 26 11
REMARK SMILES IDX 27 12 28 13 29 14 30 15 31 16 32 17 15 18 14 19 13 20 12 21
REMARK SMILES IDX 11 22 10 23 9 24 8 25 7 26 6 27 5 28 4 29 3 30 2 31 1 32
REMARK H PARENT
REMARK Flexibility Score: inf
ROOT
ATOM      1  C   UNL     1     -11.921  10.876   7.465  1.00  0.00     0.000 C 
ENDROOT
BRANCH   1   2
ATOM      2  C   UNL     1     -10.996  12.071   7.753  1.00  0.00     0.000 C 
BRANCH   2   3
ATOM      3  C   UNL     1     -10.935  12.425   9.246  1.00  0.00     0.000 C 
BRANCH   3   4
ATOM      4  C   UNL     1     -10.418  13.852   9.504  1.00  0.00     0.000 C 
BRANCH   4   5
ATOM      5  C   UNL     1      -9.156  14.195   8.688  1.00  0.00     0.000 C 
BRANCH   5   6
ATOM      6  C   UNL     1      -7.976  14.741   9.513  1.00  0.00     0.000 C 
BRANCH   6   7
ATOM      7  C   UNL     1      -8.413  15.765  10.569  1.00  0.00     0.000 C 
BRANCH   7   8
ATOM      8  C   UNL     1      -7.967  15.383  11.994  1.00  0.00     0.000 C 
BRANCH   8   9
ATOM      9  C   UNL     1      -6.883  14.277  12.039  1.00  0.00     0.000 C 
BRANCH   9  10
ATOM     10  C   UNL     1      -6.926  13.412  13.314  1.00  0.00     0.000 C 
BRANCH  10  11
ATOM     11  C   UNL     1      -7.492  12.003  13.056  1.00  0.00     0.000 C 
BRANCH  11  12
ATOM     12  C   UNL     1      -8.917  12.035  12.484  1.00  0.00     0.000 C 
BRANCH  12  13
ATOM     13  C   UNL     1      -9.493  10.621  12.290  1.00  0.00     0.006 C 
BRANCH  13  14
ATOM     14  C   UNL     1      -8.487   9.541  12.711  1.00  0.00     0.053 C 
BRANCH  14  15
ATOM     15  C   UNL     1      -9.111   8.184  12.612  1.00  0.00     0.041 C 
ATOM     16  O   UNL     1     -10.365   8.062  12.629  1.00  0.00    -0.550 OA
ATOM     17  O   UNL     1      -8.309   7.058  12.460  1.00  0.00    -0.550 OA
ENDBRANCH  14  15
ENDBRANCH  13  14
ENDBRANCH  12  13
ENDBRANCH  11  12
ENDBRANCH  10  11
ENDBRANCH   9  10
ENDBRANCH   8   9
ENDBRANCH   7   8
ENDBRANCH   6   7
ENDBRANCH   5   6
ENDBRANCH   4   5
ENDBRANCH   3   4
ENDBRANCH   2   3
ENDBRANCH   1   2
BRANCH   1  18
ATOM     18  C   UNL     1     -11.956  10.567   5.959  1.00  0.00     0.000 C 
BRANCH  18  19
ATOM     19  C   UNL     1     -11.291  11.675   5.125  1.00  0.00     0.000 C 
BRANCH  19  20
ATOM     20  C   UNL     1     -10.564  11.137   3.872  1.00  0.00     0.000 C 
BRANCH  20  21
ATOM     21  C   UNL     1     -10.435  12.210   2.778  1.00  0.00     0.000 C 
BRANCH  21  22
ATOM     22  C   UNL     1      -9.685  13.467   3.275  1.00  0.00     0.000 C 
BRANCH  22  23
ATOM     23  C   UNL     1      -8.291  13.168   3.856  1.00  0.00     0.000 C 
BRANCH  23  24
ATOM     24  C   UNL     1      -7.228  12.925   2.772  1.00  0.00    -0.000 C 
BRANCH  24  25
ATOM     25  C   UNL     1      -6.136  11.933   3.214  1.00  0.00    -0.000 C 
BRANCH  25  26
ATOM     26  C   UNL     1      -6.414  10.458   2.866  1.00  0.00    -0.000 C 
BRANCH  26  27
ATOM     27  C   UNL     1      -5.195   9.548   3.113  1.00  0.00    -0.000 C 
BRANCH  27  28
ATOM     28  C   UNL     1      -5.367   8.652   4.351  1.00  0.00    -0.000 C 
BRANCH  28  29
ATOM     29  C   UNL     1      -4.178   8.745   5.317  1.00  0.00    -0.000 C 
BRANCH  29  30
ATOM     30  C   UNL     1      -4.238   7.623   6.359  1.00  0.00    -0.000 C 
BRANCH  30  31
ATOM     31  C   UNL     1      -5.246   7.912   7.481  1.00  0.00    -0.003 C 
ATOM     32  C   UNL     1      -5.977   6.656   7.955  1.00  0.00     0.004 C 
ENDBRANCH  30  31
ENDBRANCH  29  30
ENDBRANCH  28  29
ENDBRANCH  27  28
ENDBRANCH  26  27
ENDBRANCH  25  26
ENDBRANCH  24  25
ENDBRANCH  23  24
ENDBRANCH  22  23
ENDBRANCH  21  22
ENDBRANCH  20  21
ENDBRANCH  19  20
ENDBRANCH  18  19
ENDBRANCH   1  18
TORSDOF 28
ENDMDL
MODEL 6
REMARK VINA RESULT:    -6.126      1.784      7.864
REMARK INTER + INTRA:         -18.971
REMARK INTER:                 -15.598
REMARK INTRA:                  -3.373
REMARK UNBOUND:                -2.818
REMARK SMILES CCCCCCCCCCCCCCCCCCCCCCCCCCCCCC(=O)[O-]
REMARK SMILES IDX 16 1 17 2 18 3 19 4 20 5 21 6 22 7 23 8 24 9 25 10 26 11
REMARK SMILES IDX 27 12 28 13 29 14 30 15 31 16 32 17 15 18 14 19 13 20 12 21
REMARK SMILES IDX 11 22 10 23 9 24 8 25 7 26 6 27 5 28 4 29 3 30 2 31 1 32
REMARK H PARENT
REMARK Flexibility Score: inf
ROOT
ATOM      1  C   UNL     1     -10.873  11.155   3.862  1.00  0.00     0.000 C 
ENDROOT
BRANCH   1   2
ATOM      2  C   UNL     1     -10.270  12.363   3.125  1.00  0.00     0.000 C 
BRANCH   2   3
ATOM      3  C   UNL     1      -9.193  13.083   3.950  1.00  0.00     0.000 C 
BRANCH   3   4
ATOM      4  C   UNL     1      -8.092  13.713   3.079  1.00  0.00     0.000 C 
BRANCH   4   5
ATOM      5  C   UNL     1      -8.649  14.543   1.905  1.00  0.00     0.000 C 
BRANCH   5   6
ATOM      6  C   UNL     1      -7.821  14.475   0.609  1.00  0.00     0.000 C 
BRANCH   6   7
ATOM      7  C   UNL     1      -7.192  13.095   0.377  1.00  0.00     0.000 C 
BRANCH   7   8
ATOM      8  C   UNL     1      -8.193  12.071  -0.194  1.00  0.00     0.000 C 
BRANCH   8   9
ATOM      9  C   UNL     1      -8.143  10.687   0.501  1.00  0.00     0.000 C 
BRANCH   9  10
ATOM     10  C   UNL     1      -6.809  10.394   1.215  1.00  0.00     0.000 C 
BRANCH  10  11
ATOM     11  C   UNL     1      -6.969  10.265   2.742  1.00  0.00     0.000 C 
BRANCH  11  12
ATOM     12  C   UNL     1      -5.636  10.420   3.490  1.00  0.00     0.000 C 
BRANCH  12  13
ATOM     13  C   UNL     1      -5.088   9.066   3.974  1.00  0.00     0.006 C 
BRANCH  13  14
ATOM     14  C   UNL     1      -4.355   9.202   5.316  1.00  0.00     0.053 C 
BRANCH  14  15
ATOM     15  C   UNL     1      -4.893   8.215   6.304  1.00  0.00     0.041 C 
ATOM     16  O   UNL     1      -5.526   7.201   5.903  1.00  0.00    -0.550 OA
ATOM     17  O   UNL     1      -4.660   8.392   7.663  1.00  0.00    -0.550 OA
ENDBRANCH  14  15
ENDBRANCH  13  14
ENDBRANCH  12  13
ENDBRANCH  11  12
ENDBRANCH  10  11
ENDBRANCH   9  10
ENDBRANCH   8   9
ENDBRANCH   7   8
ENDBRANCH   6   7
ENDBRANCH   5   6
ENDBRANCH   4   5
ENDBRANCH   3   4
ENDBRANCH   2   3
ENDBRANCH   1   2
BRANCH   1  18
ATOM     18  C   UNL     1     -11.177  11.509   5.328  1.00  0.00     0.000 C 
BRANCH  18  19
ATOM     19  C   UNL     1     -12.037  10.436   6.016  1.00  0.00     0.000 C 
BRANCH  19  20
ATOM     20  C   UNL     1     -12.009  10.532   7.558  1.00  0.00     0.000 C 
BRANCH  20  21
ATOM     21  C   UNL     1     -13.043  11.538   8.090  1.00  0.00     0.000 C 
BRANCH  21  22
ATOM     22  C   UNL     1     -12.380  12.746   8.790  1.00  0.00     0.000 C 
BRANCH  22  23
ATOM     23  C   UNL     1     -10.931  12.483   9.239  1.00  0.00     0.000 C 
BRANCH  23  24
ATOM     24  C   UNL     1      -9.961  13.603   8.830  1.00  0.00    -0.000 C 
BRANCH  24  25
ATOM     25  C   UNL     1     -10.214  14.920   9.588  1.00  0.00    -0.000 C 
BRANCH  25  26
ATOM     26  C   UNL     1      -8.945  15.690  10.001  1.00  0.00    -0.000 C 
BRANCH  26  27
ATOM     27  C   UNL     1      -7.738  14.763  10.245  1.00  0.00    -0.000 C 
BRANCH  27  28
ATOM     28  C   UNL     1      -7.380  14.637  11.735  1.00  0.00    -0.000 C 
BRANCH  28  29
ATOM     29  C   UNL     1      -8.213  13.568  12.455  1.00  0.00    -0.000 C 
BRANCH  29  30
ATOM     30  C   UNL     1      -7.870  12.170  11.931  1.00  0.00    -0.000 C 
BRANCH  30  31
ATOM     31  C   UNL     1      -7.884  11.103  13.036  1.00  0.00    -0.003 C 
ATOM     32  C   UNL     1      -8.709  11.526  14.251  1.00  0.00     0.004 C 
ENDBRANCH  30  31
ENDBRANCH  29  30
ENDBRANCH  28  29
ENDBRANCH  27  28
ENDBRANCH  26  27
ENDBRANCH  25  26
ENDBRANCH  24  25
ENDBRANCH  23  24
ENDBRANCH  22  23
ENDBRANCH  21  22
ENDBRANCH  20  21
ENDBRANCH  19  20
ENDBRANCH  18  19
ENDBRANCH   1  18
TORSDOF 28
ENDMDL
MODEL 7
REMARK VINA RESULT:    -6.098      1.539      7.219
REMARK INTER + INTRA:         -18.899
REMARK INTER:                 -16.298
REMARK INTRA:                  -2.602
REMARK UNBOUND:                -2.818
REMARK SMILES CCCCCCCCCCCCCCCCCCCCCCCCCCCCCC(=O)[O-]
REMARK SMILES IDX 16 1 17 2 18 3 19 4 20 5 21 6 22 7 23 8 24 9 25 10 26 11
REMARK SMILES IDX 27 12 28 13 29 14 30 15 31 16 32 17 15 18 14 19 13 20 12 21
REMARK SMILES IDX 11 22 10 23 9 24 8 25 7 26 6 27 5 28 4 29 3 30 2 31 1 32
REMARK H PARENT
REMARK Flexibility Score: inf
ROOT
ATOM      1  C   UNL     1     -12.006  10.375   6.305  1.00  0.00     0.000 C 
ENDROOT
BRANCH   1   2
ATOM      2  C   UNL     1     -11.248  11.508   5.590  1.00  0.00     0.000 C 
BRANCH   2   3
ATOM      3  C   UNL     1     -10.873  11.148   4.145  1.00  0.00     0.000 C 
BRANCH   3   4
ATOM      4  C   UNL     1     -10.281  12.336   3.366  1.00  0.00     0.000 C 
BRANCH   4   5
ATOM      5  C   UNL     1      -9.162  13.066   4.135  1.00  0.00     0.000 C 
BRANCH   5   6
ATOM      6  C   UNL     1      -7.910  13.400   3.303  1.00  0.00     0.000 C 
BRANCH   6   7
ATOM      7  C   UNL     1      -6.803  12.347   3.447  1.00  0.00     0.000 C 
BRANCH   7   8
ATOM      8  C   UNL     1      -6.753  11.366   2.259  1.00  0.00     0.000 C 
BRANCH   8   9
ATOM      9  C   UNL     1      -6.854   9.875   2.668  1.00  0.00     0.000 C 
BRANCH   9  10
ATOM     10  C   UNL     1      -5.793   8.974   2.007  1.00  0.00     0.000 C 
BRANCH  10  11
ATOM     11  C   UNL     1      -4.780   8.408   3.022  1.00  0.00     0.000 C 
BRANCH  11  12
ATOM     12  C   UNL     1      -5.232   8.605   4.477  1.00  0.00     0.000 C 
BRANCH  12  13
ATOM     13  C   UNL     1      -4.076   9.072   5.380  1.00  0.00     0.006 C 
BRANCH  13  14
ATOM     14  C   UNL     1      -4.432   8.934   6.867  1.00  0.00     0.053 C 
BRANCH  14  15
ATOM     15  C   UNL     1      -3.746   9.998   7.666  1.00  0.00     0.041 C 
ATOM     16  O   UNL     1      -3.821   9.991   8.924  1.00  0.00    -0.550 OA
ATOM     17  O   UNL     1      -2.991  10.973   7.024  1.00  0.00    -0.550 OA
ENDBRANCH  14  15
ENDBRANCH  13  14
ENDBRANCH  12  13
ENDBRANCH  11  12
ENDBRANCH  10  11
ENDBRANCH   9  10
ENDBRANCH   8   9
ENDBRANCH   7   8
ENDBRANCH   6   7
ENDBRANCH   5   6
ENDBRANCH   4   5
ENDBRANCH   3   4
ENDBRANCH   2   3
ENDBRANCH   1   2
BRANCH   1  18
ATOM     18  C   UNL     1     -12.085  10.644   7.817  1.00  0.00     0.000 C 
BRANCH  18  19
ATOM     19  C   UNL     1     -13.031  11.810   8.149  1.00  0.00     0.000 C 
BRANCH  19  20
ATOM     20  C   UNL     1     -12.325  12.978   8.873  1.00  0.00     0.000 C 
BRANCH  20  21
ATOM     21  C   UNL     1     -10.872  12.632   9.239  1.00  0.00     0.000 C 
BRANCH  21  22
ATOM     22  C   UNL     1      -9.860  13.626   8.625  1.00  0.00     0.000 C 
BRANCH  22  23
ATOM     23  C   UNL     1      -9.523  14.815   9.544  1.00  0.00     0.000 C 
BRANCH  23  24
ATOM     24  C   UNL     1      -8.017  14.958   9.814  1.00  0.00    -0.000 C 
BRANCH  24  25
ATOM     25  C   UNL     1      -7.689  15.111  11.311  1.00  0.00    -0.000 C 
BRANCH  25  26
ATOM     26  C   UNL     1      -7.125  13.847  11.989  1.00  0.00    -0.000 C 
BRANCH  26  27
ATOM     27  C   UNL     1      -8.227  12.936  12.563  1.00  0.00    -0.000 C 
BRANCH  27  28
ATOM     28  C   UNL     1      -7.673  11.613  13.116  1.00  0.00    -0.000 C 
BRANCH  28  29
ATOM     29  C   UNL     1      -6.551  11.031  12.244  1.00  0.00    -0.000 C 
BRANCH  29  30
ATOM     30  C   UNL     1      -6.529   9.502  12.341  1.00  0.00    -0.000 C 
BRANCH  30  31
ATOM     31  C   UNL     1      -7.638   8.951  13.250  1.00  0.00    -0.003 C 
ATOM     32  C   UNL     1      -7.783   7.433  13.148  1.00  0.00     0.004 C 
ENDBRANCH  30  31
ENDBRANCH  29  30
ENDBRANCH  28  29
ENDBRANCH  27  28
ENDBRANCH  26  27
ENDBRANCH  25  26
ENDBRANCH  24  25
ENDBRANCH  23  24
ENDBRANCH  22  23
ENDBRANCH  21  22
ENDBRANCH  20  21
ENDBRANCH  19  20
ENDBRANCH  18  19
ENDBRANCH   1  18
TORSDOF 28
ENDMDL
MODEL 8
REMARK VINA RESULT:    -6.093      1.843      7.211
REMARK INTER + INTRA:         -18.885
REMARK INTER:                 -16.316
REMARK INTRA:                  -2.568
REMARK UNBOUND:                -2.818
REMARK SMILES CCCCCCCCCCCCCCCCCCCCCCCCCCCCCC(=O)[O-]
REMARK SMILES IDX 16 1 17 2 18 3 19 4 20 5 21 6 22 7 23 8 24 9 25 10 26 11
REMARK SMILES IDX 27 12 28 13 29 14 30 15 31 16 32 17 15 18 14 19 13 20 12 21
REMARK SMILES IDX 11 22 10 23 9 24 8 25 7 26 6 27 5 28 4 29 3 30 2 31 1 32
REMARK H PARENT
REMARK Flexibility Score: inf
ROOT
ATOM      1  C   UNL     1     -11.894  11.128   7.489  1.00  0.00     0.000 C 
ENDROOT
BRANCH   1   2
ATOM      2  C   UNL     1     -11.887  10.768   5.994  1.00  0.00     0.000 C 
BRANCH   2   3
ATOM      3  C   UNL     1     -10.854  11.578   5.196  1.00  0.00     0.000 C 
BRANCH   3   4
ATOM      4  C   UNL     1     -10.747  11.131   3.727  1.00  0.00     0.000 C 
BRANCH   4   5
ATOM      5  C   UNL     1      -9.742  11.969   2.911  1.00  0.00     0.000 C 
BRANCH   5   6
ATOM      6  C   UNL     1      -9.236  13.243   3.612  1.00  0.00     0.000 C 
BRANCH   6   7
ATOM      7  C   UNL     1      -7.742  13.180   3.952  1.00  0.00     0.000 C 
BRANCH   7   8
ATOM      8  C   UNL     1      -6.897  12.559   2.823  1.00  0.00     0.000 C 
BRANCH   8   9
ATOM      9  C   UNL     1      -5.869  11.507   3.310  1.00  0.00     0.000 C 
BRANCH   9  10
ATOM     10  C   UNL     1      -6.375  10.054   3.227  1.00  0.00     0.000 C 
BRANCH  10  11
ATOM     11  C   UNL     1      -5.326   9.033   3.708  1.00  0.00     0.000 C 
BRANCH  11  12
ATOM     12  C   UNL     1      -4.478   9.563   4.874  1.00  0.00     0.000 C 
BRANCH  12  13
ATOM     13  C   UNL     1      -3.991   8.429   5.793  1.00  0.00     0.006 C 
BRANCH  13  14
ATOM     14  C   UNL     1      -4.839   8.334   7.069  1.00  0.00     0.053 C 
BRANCH  14  15
ATOM     15  C   UNL     1      -5.042   6.901   7.452  1.00  0.00     0.041 C 
ATOM     16  O   UNL     1      -4.047   6.155   7.656  1.00  0.00    -0.550 OA
ATOM     17  O   UNL     1      -6.328   6.401   7.623  1.00  0.00    -0.550 OA
ENDBRANCH  14  15
ENDBRANCH  13  14
ENDBRANCH  12  13
ENDBRANCH  11  12
ENDBRANCH  10  11
ENDBRANCH   9  10
ENDBRANCH   8   9
ENDBRANCH   7   8
ENDBRANCH   6   7
ENDBRANCH   5   6
ENDBRANCH   4   5
ENDBRANCH   3   4
ENDBRANCH   2   3
ENDBRANCH   1   2
BRANCH   1  18
ATOM     18  C   UNL     1     -10.868  12.233   7.788  1.00  0.00     0.000 C 
BRANCH  18  19
ATOM     19  C   UNL     1     -10.856  12.625   9.275  1.00  0.00     0.000 C 
BRANCH  19  20
ATOM     20  C   UNL     1     -10.405  14.083   9.515  1.00  0.00     0.000 C 
BRANCH  20  21
ATOM     21  C   UNL     1      -9.182  14.455   8.659  1.00  0.00     0.000 C 
BRANCH  21  22
ATOM     22  C   UNL     1      -7.879  14.503   9.489  1.00  0.00     0.000 C 
BRANCH  22  23
ATOM     23  C   UNL     1      -7.950  15.453  10.699  1.00  0.00     0.000 C 
BRANCH  23  24
ATOM     24  C   UNL     1      -7.971  14.711  12.046  1.00  0.00    -0.000 C 
BRANCH  24  25
ATOM     25  C   UNL     1      -6.855  13.657  12.167  1.00  0.00    -0.000 C 
BRANCH  25  26
ATOM     26  C   UNL     1      -7.281  12.324  12.811  1.00  0.00    -0.000 C 
BRANCH  26  27
ATOM     27  C   UNL     1      -8.721  11.917  12.442  1.00  0.00    -0.000 C 
BRANCH  27  28
ATOM     28  C   UNL     1      -8.958  10.404  12.565  1.00  0.00    -0.000 C 
BRANCH  28  29
ATOM     29  C   UNL     1      -7.649   9.603  12.630  1.00  0.00    -0.000 C 
BRANCH  29  30
ATOM     30  C   UNL     1      -7.937   8.111  12.826  1.00  0.00    -0.000 C 
BRANCH  30  31
ATOM     31  C   UNL     1      -7.166   7.511  14.011  1.00  0.00    -0.003 C 
ATOM     32  C   UNL     1      -7.739   6.171  14.469  1.00  0.00     0.004 C 
ENDBRANCH  30  31
ENDBRANCH  29  30
ENDBRANCH  28  29
ENDBRANCH  27  28
ENDBRANCH  26  27
ENDBRANCH  25  26
ENDBRANCH  24  25
ENDBRANCH  23  24
ENDBRANCH  22  23
ENDBRANCH  21  22
ENDBRANCH  20  21
ENDBRANCH  19  20
ENDBRANCH  18  19
ENDBRANCH   1  18
TORSDOF 28
ENDMDL
MODEL 9
REMARK VINA RESULT:    -6.079      4.614      6.687
REMARK INTER + INTRA:         -18.847
REMARK INTER:                 -15.723
REMARK INTRA:                  -3.124
REMARK UNBOUND:                -2.818
REMARK SMILES CCCCCCCCCCCCCCCCCCCCCCCCCCCCCC(=O)[O-]
REMARK SMILES IDX 16 1 17 2 18 3 19 4 20 5 21 6 22 7 23 8 24 9 25 10 26 11
REMARK SMILES IDX 27 12 28 13 29 14 30 15 31 16 32 17 15 18 14 19 13 20 12 21
REMARK SMILES IDX 11 22 10 23 9 24 8 25 7 26 6 27 5 28 4 29 3 30 2 31 1 32
REMARK H PARENT
REMARK Flexibility Score: inf
ROOT
ATOM      1  C   UNL     1      -6.543  12.209   3.249  1.00  0.00     0.000 C 
ENDROOT
BRANCH   1   2
ATOM      2  C   UNL     1      -7.631  13.061   3.924  1.00  0.00     0.000 C 
BRANCH   2   3
ATOM      3  C   UNL     1      -8.684  13.573   2.929  1.00  0.00     0.000 C 
BRANCH   3   4
ATOM      4  C   UNL     1     -10.095  13.030   3.217  1.00  0.00     0.000 C 
BRANCH   4   5
ATOM      5  C   UNL     1     -10.090  11.589   3.763  1.00  0.00     0.000 C 
BRANCH   5   6
ATOM      6  C   UNL     1     -11.346  11.190   4.560  1.00  0.00     0.000 C 
BRANCH   6   7
ATOM      7  C   UNL     1     -11.220  11.494   6.058  1.00  0.00     0.000 C 
BRANCH   7   8
ATOM      8  C   UNL     1     -12.012  10.505   6.937  1.00  0.00     0.000 C 
BRANCH   8   9
ATOM      9  C   UNL     1     -12.867   9.493   6.134  1.00  0.00     0.000 C 
BRANCH   9  10
ATOM     10  C   UNL     1     -13.493   8.381   6.997  1.00  0.00     0.000 C 
BRANCH  10  11
ATOM     11  C   UNL     1     -13.554   8.753   8.491  1.00  0.00     0.000 C 
BRANCH  11  12
ATOM     12  C   UNL     1     -13.002   7.642   9.398  1.00  0.00     0.000 C 
BRANCH  12  13
ATOM     13  C   UNL     1     -13.000   6.273   8.696  1.00  0.00     0.006 C 
BRANCH  13  14
ATOM     14  C   UNL     1     -14.147   5.383   9.192  1.00  0.00     0.053 C 
BRANCH  14  15
ATOM     15  C   UNL     1     -15.327   5.499   8.279  1.00  0.00     0.041 C 
ATOM     16  O   UNL     1     -15.228   5.150   7.071  1.00  0.00    -0.550 OA
ATOM     17  O   UNL     1     -16.546   5.953   8.769  1.00  0.00    -0.550 OA
ENDBRANCH  14  15
ENDBRANCH  13  14
ENDBRANCH  12  13
ENDBRANCH  11  12
ENDBRANCH  10  11
ENDBRANCH   9  10
ENDBRANCH   8   9
ENDBRANCH   7   8
ENDBRANCH   6   7
ENDBRANCH   5   6
ENDBRANCH   4   5
ENDBRANCH   3   4
ENDBRANCH   2   3
ENDBRANCH   1   2
BRANCH   1  18
ATOM     18  C   UNL     1      -6.298  12.682   1.806  1.00  0.00     0.000 C 
BRANCH  18  19
ATOM     19  C   UNL     1      -6.437  11.537   0.789  1.00  0.00     0.000 C 
BRANCH  19  20
ATOM     20  C   UNL     1      -7.030  10.249   1.403  1.00  0.00     0.000 C 
BRANCH  20  21
ATOM     21  C   UNL     1      -6.449   8.982   0.752  1.00  0.00     0.000 C 
BRANCH  21  22
ATOM     22  C   UNL     1      -5.777   8.048   1.784  1.00  0.00     0.000 C 
BRANCH  22  23
ATOM     23  C   UNL     1      -5.947   8.512   3.243  1.00  0.00     0.000 C 
BRANCH  23  24
ATOM     24  C   UNL     1      -4.609   8.676   3.982  1.00  0.00    -0.000 C 
BRANCH  24  25
ATOM     25  C   UNL     1      -4.773   9.273   5.392  1.00  0.00    -0.000 C 
BRANCH  25  26
ATOM     26  C   UNL     1      -3.474   9.370   6.215  1.00  0.00    -0.000 C 
BRANCH  26  27
ATOM     27  C   UNL     1      -3.661   8.923   7.678  1.00  0.00    -0.000 C 
BRANCH  27  28
ATOM     28  C   UNL     1      -5.015   8.237   7.919  1.00  0.00    -0.000 C 
BRANCH  28  29
ATOM     29  C   UNL     1      -4.947   6.714   7.734  1.00  0.00    -0.000 C 
BRANCH  29  30
ATOM     30  C   UNL     1      -6.349   6.098   7.799  1.00  0.00    -0.000 C 
BRANCH  30  31
ATOM     31  C   UNL     1      -6.706   5.306   6.533  1.00  0.00    -0.003 C 
ATOM     32  C   UNL     1      -5.656   5.449   5.432  1.00  0.00     0.004 C 
ENDBRANCH  30  31
ENDBRANCH  29  30
ENDBRANCH  28  29
ENDBRANCH  27  28
ENDBRANCH  26  27
ENDBRANCH  25  26
ENDBRANCH  24  25
ENDBRANCH  23  24
ENDBRANCH  22  23
ENDBRANCH  21  22
ENDBRANCH  20  21
ENDBRANCH  19  20
ENDBRANCH  18  19
ENDBRANCH   1  18
TORSDOF 28
ENDMDL
