MODEL 1
REMARK VINA RESULT:    -5.717      0.000      0.000
REMARK INTER + INTRA:          -6.893
REMARK INTER:                  -6.719
REMARK INTRA:                  -0.174
REMARK UNBOUND:                -0.174
REMARK SMILES O=c1c(O)c(-c2ccc(O)cc2)oc2cc(O)cc(O)c12
REMARK SMILES IDX 5 1 3 2 2 3 1 4 21 5 19 6 18 7 16 8 15 9 14 10 13 11 6 12
REMARK SMILES IDX 7 13 8 14 9 15 12 16 11 17 10 18 4 20 20 22 17 24
REMARK H PARENT 10 19 4 21 20 23 17 25
REMARK Flexibility Score: inf
ROOT
ATOM      1  C   UNL     1      18.792  50.224  77.050  1.00  0.00     0.180 A 
ATOM      2  C   UNL     1      19.465  51.271  76.400  1.00  0.00     0.208 A 
ATOM      3  C   UNL     1      20.292  50.973  75.305  1.00  0.00     0.238 A 
ATOM      4  O   UNL     1      20.850  51.922  74.693  1.00  0.00    -0.285 OA
ATOM      5  C   UNL     1      20.447  49.630  74.884  1.00  0.00     0.111 A 
ATOM      6  C   UNL     1      21.290  49.209  73.812  1.00  0.00     0.134 A 
ATOM      7  C   UNL     1      21.267  47.871  73.399  1.00  0.00     0.093 A 
ATOM      8  C   UNL     1      20.480  46.929  74.058  1.00  0.00     0.123 A 
ATOM      9  C   UNL     1      19.697  47.317  75.146  1.00  0.00     0.094 A 
ATOM     10  C   UNL     1      19.672  48.652  75.559  1.00  0.00     0.146 A 
ATOM     11  O   UNL     1      18.906  48.983  76.591  1.00  0.00    -0.452 OA
ENDROOT
BRANCH   1  12
ATOM     12  C   UNL     1      17.923  50.455  78.227  1.00  0.00     0.021 A 
ATOM     13  C   UNL     1      16.550  50.167  78.141  1.00  0.00     0.016 A 
ATOM     14  C   UNL     1      15.715  50.358  79.246  1.00  0.00     0.047 A 
ATOM     15  C   UNL     1      16.244  50.823  80.454  1.00  0.00     0.115 A 
ATOM     16  C   UNL     1      18.451  50.905  79.451  1.00  0.00     0.016 A 
ATOM     17  C   UNL     1      17.615  51.093  80.555  1.00  0.00     0.047 A 
BRANCH  15  18
ATOM     18  O   UNL     1      15.401  51.009  81.548  1.00  0.00    -0.508 OA
ATOM     19  H   UNL     1      15.764  51.251  82.462  1.00  0.00     0.293 HD
ENDBRANCH  15  18
ENDBRANCH   1  12
BRANCH   2  20
ATOM     20  O   UNL     1      19.281  52.592  76.818  1.00  0.00    -0.502 OA
ATOM     21  H   UNL     1      18.457  52.893  77.324  1.00  0.00     0.293 HD
ENDBRANCH   2  20
BRANCH   6  22
ATOM     22  O   UNL     1      22.184  50.053  73.145  1.00  0.00    -0.507 OA
ATOM     23  H   UNL     1      23.179  50.081  73.308  1.00  0.00     0.293 HD
ENDBRANCH   6  22
BRANCH   8  24
ATOM     24  O   UNL     1      20.492  45.603  73.630  1.00  0.00    -0.508 OA
ATOM     25  H   UNL     1      19.948  44.888  74.100  1.00  0.00     0.293 HD
ENDBRANCH   8  24
TORSDOF 5
ENDMDL
MODEL 2
REMARK VINA RESULT:    -5.304      3.191      7.065
REMARK INTER + INTRA:          -6.408
REMARK INTER:                  -6.155
REMARK INTRA:                  -0.253
REMARK UNBOUND:                -0.174
REMARK SMILES O=c1c(O)c(-c2ccc(O)cc2)oc2cc(O)cc(O)c12
REMARK SMILES IDX 5 1 3 2 2 3 1 4 21 5 19 6 18 7 16 8 15 9 14 10 13 11 6 12
REMARK SMILES IDX 7 13 8 14 9 15 12 16 11 17 10 18 4 20 20 22 17 24
REMARK H PARENT 10 19 4 21 20 23 17 25
REMARK Flexibility Score: inf
ROOT
ATOM      1  C   UNL     1      17.806  49.538  79.653  1.00  0.00     0.180 A 
ATOM      2  C   UNL     1      17.558  50.005  80.955  1.00  0.00     0.208 A 
ATOM      3  C   UNL     1      16.591  49.353  81.738  1.00  0.00     0.238 A 
ATOM      4  O   UNL     1      16.412  49.741  82.922  1.00  0.00    -0.285 OA
ATOM      5  C   UNL     1      15.876  48.254  81.205  1.00  0.00     0.111 A 
ATOM      6  C   UNL     1      14.848  47.544  81.895  1.00  0.00     0.134 A 
ATOM      7  C   UNL     1      14.298  46.392  81.321  1.00  0.00     0.093 A 
ATOM      8  C   UNL     1      14.693  45.960  80.056  1.00  0.00     0.123 A 
ATOM      9  C   UNL     1      15.655  46.680  79.346  1.00  0.00     0.094 A 
ATOM     10  C   UNL     1      16.247  47.814  79.908  1.00  0.00     0.146 A 
ATOM     11  O   UNL     1      17.166  48.464  79.205  1.00  0.00    -0.452 OA
ENDROOT
BRANCH   1  12
ATOM     12  C   UNL     1      18.791  50.188  78.757  1.00  0.00     0.021 A 
ATOM     13  C   UNL     1      20.158  49.902  78.909  1.00  0.00     0.016 A 
ATOM     14  C   UNL     1      21.103  50.488  78.061  1.00  0.00     0.047 A 
ATOM     15  C   UNL     1      20.693  51.352  77.042  1.00  0.00     0.115 A 
ATOM     16  C   UNL     1      18.383  51.043  77.718  1.00  0.00     0.016 A 
ATOM     17  C   UNL     1      19.329  51.626  76.870  1.00  0.00     0.047 A 
BRANCH  15  18
ATOM     18  O   UNL     1      21.644  51.929  76.204  1.00  0.00    -0.508 OA
ATOM     19  H   UNL     1      22.112  51.392  75.483  1.00  0.00     0.293 HD
ENDBRANCH  15  18
ENDBRANCH   1  12
BRANCH   2  20
ATOM     20  O   UNL     1      18.290  51.077  81.469  1.00  0.00    -0.502 OA
ATOM     21  H   UNL     1      18.772  51.030  82.359  1.00  0.00     0.293 HD
ENDBRANCH   2  20
BRANCH   6  22
ATOM     22  O   UNL     1      14.315  47.943  83.125  1.00  0.00    -0.507 OA
ATOM     23  H   UNL     1      14.863  48.217  83.927  1.00  0.00     0.293 HD
ENDBRANCH   6  22
BRANCH   8  24
ATOM     24  O   UNL     1      14.114  44.817  79.507  1.00  0.00    -0.508 OA
ATOM     25  H   UNL     1      14.360  43.890  79.832  1.00  0.00     0.293 HD
ENDBRANCH   8  24
TORSDOF 5
ENDMDL
MODEL 3
REMARK VINA RESULT:    -5.286      1.926      6.670
REMARK INTER + INTRA:          -6.387
REMARK INTER:                  -6.106
REMARK INTRA:                  -0.281
REMARK UNBOUND:                -0.174
REMARK SMILES O=c1c(O)c(-c2ccc(O)cc2)oc2cc(O)cc(O)c12
REMARK SMILES IDX 5 1 3 2 2 3 1 4 21 5 19 6 18 7 16 8 15 9 14 10 13 11 6 12
REMARK SMILES IDX 7 13 8 14 9 15 12 16 11 17 10 18 4 20 20 22 17 24
REMARK H PARENT 10 19 4 21 20 23 17 25
REMARK Flexibility Score: inf
ROOT
ATOM      1  C   UNL     1      20.183  49.809  75.775  1.00  0.00     0.180 A 
ATOM      2  C   UNL     1      21.034  50.190  76.826  1.00  0.00     0.208 A 
ATOM      3  C   UNL     1      20.473  50.522  78.070  1.00  0.00     0.238 A 
ATOM      4  O   UNL     1      21.244  50.810  79.023  1.00  0.00    -0.285 OA
ATOM      5  C   UNL     1      19.069  50.484  78.242  1.00  0.00     0.111 A 
ATOM      6  C   UNL     1      18.390  50.838  79.447  1.00  0.00     0.134 A 
ATOM      7  C   UNL     1      17.008  50.638  79.546  1.00  0.00     0.093 A 
ATOM      8  C   UNL     1      16.271  50.158  78.465  1.00  0.00     0.123 A 
ATOM      9  C   UNL     1      16.915  49.865  77.262  1.00  0.00     0.094 A 
ATOM     10  C   UNL     1      18.299  50.020  77.144  1.00  0.00     0.146 A 
ATOM     11  O   UNL     1      18.875  49.719  75.987  1.00  0.00    -0.452 OA
ENDROOT
BRANCH   1  12
ATOM     12  C   UNL     1      20.697  49.469  74.428  1.00  0.00     0.021 A 
ATOM     13  C   UNL     1      20.810  48.121  74.051  1.00  0.00     0.016 A 
ATOM     14  C   UNL     1      21.273  47.777  72.777  1.00  0.00     0.047 A 
ATOM     15  C   UNL     1      21.612  48.777  71.859  1.00  0.00     0.115 A 
ATOM     16  C   UNL     1      21.021  50.470  73.494  1.00  0.00     0.016 A 
ATOM     17  C   UNL     1      21.482  50.124  72.220  1.00  0.00     0.047 A 
BRANCH  15  18
ATOM     18  O   UNL     1      22.071  48.421  70.593  1.00  0.00    -0.508 OA
ATOM     19  H   UNL     1      21.439  48.090  69.873  1.00  0.00     0.293 HD
ENDBRANCH  15  18
ENDBRANCH   1  12
BRANCH   2  20
ATOM     20  O   UNL     1      22.419  50.200  76.641  1.00  0.00    -0.502 OA
ATOM     21  H   UNL     1      22.919  49.419  76.234  1.00  0.00     0.293 HD
ENDBRANCH   2  20
BRANCH   6  22
ATOM     22  O   UNL     1      19.018  51.412  80.556  1.00  0.00    -0.507 OA
ATOM     23  H   UNL     1      18.559  51.994  81.240  1.00  0.00     0.293 HD
ENDBRANCH   6  22
BRANCH   8  24
ATOM     24  O   UNL     1      14.895  49.986  78.593  1.00  0.00    -0.508 OA
ATOM     25  H   UNL     1      14.292  49.906  77.782  1.00  0.00     0.293 HD
ENDBRANCH   8  24
TORSDOF 5
ENDMDL
MODEL 4
REMARK VINA RESULT:    -5.285      2.197      6.972
REMARK INTER + INTRA:          -6.385
REMARK INTER:                  -6.112
REMARK INTRA:                  -0.273
REMARK UNBOUND:                -0.174
REMARK SMILES O=c1c(O)c(-c2ccc(O)cc2)oc2cc(O)cc(O)c12
REMARK SMILES IDX 5 1 3 2 2 3 1 4 21 5 19 6 18 7 16 8 15 9 14 10 13 11 6 12
REMARK SMILES IDX 7 13 8 14 9 15 12 16 11 17 10 18 4 20 20 22 17 24
REMARK H PARENT 10 19 4 21 20 23 17 25
REMARK Flexibility Score: inf
ROOT
ATOM      1  C   UNL     1      19.675  49.880  77.873  1.00  0.00     0.180 A 
ATOM      2  C   UNL     1      20.669  49.426  78.757  1.00  0.00     0.208 A 
ATOM      3  C   UNL     1      20.398  49.412  80.135  1.00  0.00     0.238 A 
ATOM      4  O   UNL     1      21.273  48.953  80.917  1.00  0.00    -0.285 OA
ATOM      5  C   UNL     1      19.146  49.866  80.613  1.00  0.00     0.111 A 
ATOM      6  C   UNL     1      18.779  49.932  81.991  1.00  0.00     0.134 A 
ATOM      7  C   UNL     1      17.467  50.275  82.341  1.00  0.00     0.093 A 
ATOM      8  C   UNL     1      16.528  50.614  81.369  1.00  0.00     0.123 A 
ATOM      9  C   UNL     1      16.892  50.610  80.021  1.00  0.00     0.094 A 
ATOM     10  C   UNL     1      18.183  50.238  79.638  1.00  0.00     0.146 A 
ATOM     11  O   UNL     1      18.486  50.237  78.347  1.00  0.00    -0.452 OA
ENDROOT
BRANCH   1  12
ATOM     12  C   UNL     1      19.893  49.949  76.410  1.00  0.00     0.021 A 
ATOM     13  C   UNL     1      20.576  51.049  75.864  1.00  0.00     0.016 A 
ATOM     14  C   UNL     1      20.812  51.124  74.488  1.00  0.00     0.047 A 
ATOM     15  C   UNL     1      20.385  50.095  73.644  1.00  0.00     0.115 A 
ATOM     16  C   UNL     1      19.483  48.908  75.558  1.00  0.00     0.016 A 
ATOM     17  C   UNL     1      19.722  48.985  74.182  1.00  0.00     0.047 A 
BRANCH  15  18
ATOM     18  O   UNL     1      20.626  50.183  72.275  1.00  0.00    -0.508 OA
ATOM     19  H   UNL     1      20.646  51.076  71.796  1.00  0.00     0.293 HD
ENDBRANCH  15  18
ENDBRANCH   1  12
BRANCH   2  20
ATOM     20  O   UNL     1      21.890  48.962  78.263  1.00  0.00    -0.502 OA
ATOM     21  H   UNL     1      22.742  48.982  78.812  1.00  0.00     0.293 HD
ENDBRANCH   2  20
BRANCH   6  22
ATOM     22  O   UNL     1      19.667  49.701  83.046  1.00  0.00    -0.507 OA
ATOM     23  H   UNL     1      19.730  48.839  83.565  1.00  0.00     0.293 HD
ENDBRANCH   6  22
BRANCH   8  24
ATOM     24  O   UNL     1      15.236  50.964  81.754  1.00  0.00    -0.508 OA
ATOM     25  H   UNL     1      14.933  51.931  81.777  1.00  0.00     0.293 HD
ENDBRANCH   8  24
TORSDOF 5
ENDMDL
MODEL 5
REMARK VINA RESULT:    -5.238      1.791      3.503
REMARK INTER + INTRA:          -6.331
REMARK INTER:                  -6.144
REMARK INTRA:                  -0.187
REMARK UNBOUND:                -0.174
REMARK SMILES O=c1c(O)c(-c2ccc(O)cc2)oc2cc(O)cc(O)c12
REMARK SMILES IDX 5 1 3 2 2 3 1 4 21 5 19 6 18 7 16 8 15 9 14 10 13 11 6 12
REMARK SMILES IDX 7 13 8 14 9 15 12 16 11 17 10 18 4 20 20 22 17 24
REMARK H PARENT 10 19 4 21 20 23 17 25
REMARK Flexibility Score: inf
ROOT
ATOM      1  C   UNL     1      17.949  49.832  78.318  1.00  0.00     0.180 A 
ATOM      2  C   UNL     1      18.028  48.655  77.557  1.00  0.00     0.208 A 
ATOM      3  C   UNL     1      18.750  48.671  76.352  1.00  0.00     0.238 A 
ATOM      4  O   UNL     1      18.864  47.598  75.702  1.00  0.00    -0.285 OA
ATOM      5  C   UNL     1      19.369  49.867  75.917  1.00  0.00     0.111 A 
ATOM      6  C   UNL     1      20.091  50.008  74.694  1.00  0.00     0.134 A 
ATOM      7  C   UNL     1      20.772  51.202  74.427  1.00  0.00     0.093 A 
ATOM      8  C   UNL     1      20.704  52.281  75.307  1.00  0.00     0.123 A 
ATOM      9  C   UNL     1      19.952  52.176  76.477  1.00  0.00     0.094 A 
ATOM     10  C   UNL     1      19.290  50.985  76.789  1.00  0.00     0.146 A 
ATOM     11  O   UNL     1      18.595  50.921  77.916  1.00  0.00    -0.452 OA
ENDROOT
BRANCH   1  12
ATOM     12  C   UNL     1      17.185  49.901  79.586  1.00  0.00     0.021 A 
ATOM     13  C   UNL     1      15.960  50.589  79.618  1.00  0.00     0.016 A 
ATOM     14  C   UNL     1      15.212  50.649  80.799  1.00  0.00     0.047 A 
ATOM     15  C   UNL     1      15.670  50.009  81.954  1.00  0.00     0.115 A 
ATOM     16  C   UNL     1      17.631  49.244  80.747  1.00  0.00     0.016 A 
ATOM     17  C   UNL     1      16.880  49.303  81.925  1.00  0.00     0.047 A 
BRANCH  15  18
ATOM     18  O   UNL     1      14.915  50.076  83.123  1.00  0.00    -0.508 OA
ATOM     19  H   UNL     1      14.177  49.409  83.317  1.00  0.00     0.293 HD
ENDBRANCH  15  18
ENDBRANCH   1  12
BRANCH   2  20
ATOM     20  O   UNL     1      17.429  47.479  78.015  1.00  0.00    -0.502 OA
ATOM     21  H   UNL     1      16.427  47.390  78.135  1.00  0.00     0.293 HD
ENDBRANCH   2  20
BRANCH   6  22
ATOM     22  O   UNL     1      20.148  49.023  73.704  1.00  0.00    -0.507 OA
ATOM     23  H   UNL     1      20.621  48.137  73.800  1.00  0.00     0.293 HD
ENDBRANCH   6  22
BRANCH   8  24
ATOM     24  O   UNL     1      21.381  53.460  75.002  1.00  0.00    -0.508 OA
ATOM     25  H   UNL     1      21.521  53.760  74.044  1.00  0.00     0.293 HD
ENDBRANCH   8  24
TORSDOF 5
ENDMDL
MODEL 6
REMARK VINA RESULT:    -5.232      1.429      3.012
REMARK INTER + INTRA:          -6.324
REMARK INTER:                  -6.037
REMARK INTRA:                  -0.287
REMARK UNBOUND:                -0.174
REMARK SMILES O=c1c(O)c(-c2ccc(O)cc2)oc2cc(O)cc(O)c12
REMARK SMILES IDX 5 1 3 2 2 3 1 4 21 5 19 6 18 7 16 8 15 9 14 10 13 11 6 12
REMARK SMILES IDX 7 13 8 14 9 15 12 16 11 17 10 18 4 20 20 22 17 24
REMARK H PARENT 10 19 4 21 20 23 17 25
REMARK Flexibility Score: inf
ROOT
ATOM      1  C   UNL     1      18.494  48.883  76.916  1.00  0.00     0.180 A 
ATOM      2  C   UNL     1      18.728  47.498  76.931  1.00  0.00     0.208 A 
ATOM      3  C   UNL     1      19.412  46.912  75.854  1.00  0.00     0.238 A 
ATOM      4  O   UNL     1      19.668  45.680  75.898  1.00  0.00    -0.285 OA
ATOM      5  C   UNL     1      19.838  47.716  74.769  1.00  0.00     0.111 A 
ATOM      6  C   UNL     1      20.505  47.222  73.607  1.00  0.00     0.134 A 
ATOM      7  C   UNL     1      20.996  48.125  72.656  1.00  0.00     0.093 A 
ATOM      8  C   UNL     1      20.790  49.496  72.793  1.00  0.00     0.123 A 
ATOM      9  C   UNL     1      20.088  49.987  73.895  1.00  0.00     0.094 A 
ATOM     10  C   UNL     1      19.616  49.113  74.878  1.00  0.00     0.146 A 
ATOM     11  O   UNL     1      18.963  49.620  75.916  1.00  0.00    -0.452 OA
ENDROOT
BRANCH   1  12
ATOM     12  C   UNL     1      17.757  49.569  78.003  1.00  0.00     0.021 A 
ATOM     13  C   UNL     1      16.353  49.618  77.963  1.00  0.00     0.016 A 
ATOM     14  C   UNL     1      15.636  50.242  78.989  1.00  0.00     0.047 A 
ATOM     15  C   UNL     1      16.312  50.809  80.074  1.00  0.00     0.115 A 
ATOM     16  C   UNL     1      18.429  50.125  79.107  1.00  0.00     0.016 A 
ATOM     17  C   UNL     1      17.710  50.746  80.133  1.00  0.00     0.047 A 
BRANCH  15  18
ATOM     18  O   UNL     1      15.585  51.428  81.089  1.00  0.00    -0.508 OA
ATOM     19  H   UNL     1      16.007  51.647  81.985  1.00  0.00     0.293 HD
ENDBRANCH  15  18
ENDBRANCH   1  12
BRANCH   2  20
ATOM     20  O   UNL     1      18.318  46.727  78.022  1.00  0.00    -0.502 OA
ATOM     21  H   UNL     1      17.485  46.151  77.999  1.00  0.00     0.293 HD
ENDBRANCH   2  20
BRANCH   6  22
ATOM     22  O   UNL     1      20.683  45.864  73.328  1.00  0.00    -0.507 OA
ATOM     23  H   UNL     1      20.320  45.109  73.891  1.00  0.00     0.293 HD
ENDBRANCH   6  22
BRANCH   8  24
ATOM     24  O   UNL     1      21.280  50.365  71.820  1.00  0.00    -0.508 OA
ATOM     25  H   UNL     1      20.658  50.896  71.221  1.00  0.00     0.293 HD
ENDBRANCH   8  24
TORSDOF 5
ENDMDL
MODEL 7
REMARK VINA RESULT:    -5.063      1.916      2.889
REMARK INTER + INTRA:          -6.125
REMARK INTER:                  -5.826
REMARK INTRA:                  -0.299
REMARK UNBOUND:                -0.174
REMARK SMILES O=c1c(O)c(-c2ccc(O)cc2)oc2cc(O)cc(O)c12
REMARK SMILES IDX 5 1 3 2 2 3 1 4 21 5 19 6 18 7 16 8 15 9 14 10 13 11 6 12
REMARK SMILES IDX 7 13 8 14 9 15 12 16 11 17 10 18 4 20 20 22 17 24
REMARK H PARENT 10 19 4 21 20 23 17 25
REMARK Flexibility Score: inf
ROOT
ATOM      1  C   UNL     1      20.416  49.520  75.034  1.00  0.00     0.180 A 
ATOM      2  C   UNL     1      20.813  50.354  73.976  1.00  0.00     0.208 A 
ATOM      3  C   UNL     1      21.196  49.771  72.757  1.00  0.00     0.238 A 
ATOM      4  O   UNL     1      21.498  50.526  71.795  1.00  0.00    -0.285 OA
ATOM      5  C   UNL     1      21.192  48.362  72.617  1.00  0.00     0.111 A 
ATOM      6  C   UNL     1      21.597  47.664  71.440  1.00  0.00     0.134 A 
ATOM      7  C   UNL     1      21.429  46.275  71.369  1.00  0.00     0.093 A 
ATOM      8  C   UNL     1      20.930  45.554  72.452  1.00  0.00     0.123 A 
ATOM      9  C   UNL     1      20.585  46.220  73.629  1.00  0.00     0.094 A 
ATOM     10  C   UNL     1      20.709  47.609  73.718  1.00  0.00     0.146 A 
ATOM     11  O   UNL     1      20.360  48.206  74.851  1.00  0.00    -0.452 OA
ENDROOT
BRANCH   1  12
ATOM     12  C   UNL     1      20.024  50.058  76.358  1.00  0.00     0.021 A 
ATOM     13  C   UNL     1      18.665  50.276  76.640  1.00  0.00     0.016 A 
ATOM     14  C   UNL     1      18.271  50.763  77.890  1.00  0.00     0.047 A 
ATOM     15  C   UNL     1      19.226  51.022  78.877  1.00  0.00     0.115 A 
ATOM     16  C   UNL     1      20.979  50.303  77.361  1.00  0.00     0.016 A 
ATOM     17  C   UNL     1      20.582  50.788  78.611  1.00  0.00     0.047 A 
BRANCH  15  18
ATOM     18  O   UNL     1      18.820  51.507  80.118  1.00  0.00    -0.508 OA
ATOM     19  H   UNL     1      18.547  50.883  80.868  1.00  0.00     0.293 HD
ENDBRANCH  15  18
ENDBRANCH   1  12
BRANCH   2  20
ATOM     20  O   UNL     1      20.790  51.743  74.128  1.00  0.00    -0.502 OA
ATOM     21  H   UNL     1      21.293  52.218  74.867  1.00  0.00     0.293 HD
ENDBRANCH   2  20
BRANCH   6  22
ATOM     22  O   UNL     1      22.193  48.278  70.335  1.00  0.00    -0.507 OA
ATOM     23  H   UNL     1      22.376  47.822  69.453  1.00  0.00     0.293 HD
ENDBRANCH   6  22
BRANCH   8  24
ATOM     24  O   UNL     1      20.789  44.172  72.351  1.00  0.00    -0.508 OA
ATOM     25  H   UNL     1      21.446  43.608  71.824  1.00  0.00     0.293 HD
ENDBRANCH   8  24
TORSDOF 5
ENDMDL
MODEL 8
REMARK VINA RESULT:    -5.031      3.217      6.757
REMARK INTER + INTRA:          -6.088
REMARK INTER:                  -5.791
REMARK INTRA:                  -0.296
REMARK UNBOUND:                -0.174
REMARK SMILES O=c1c(O)c(-c2ccc(O)cc2)oc2cc(O)cc(O)c12
REMARK SMILES IDX 5 1 3 2 2 3 1 4 21 5 19 6 18 7 16 8 15 9 14 10 13 11 6 12
REMARK SMILES IDX 7 13 8 14 9 15 12 16 11 17 10 18 4 20 20 22 17 24
REMARK H PARENT 10 19 4 21 20 23 17 25
REMARK Flexibility Score: inf
ROOT
ATOM      1  C   UNL     1      18.806  49.088  78.844  1.00  0.00     0.180 A 
ATOM      2  C   UNL     1      19.569  48.752  79.974  1.00  0.00     0.208 A 
ATOM      3  C   UNL     1      18.978  47.982  80.989  1.00  0.00     0.238 A 
ATOM      4  O   UNL     1      19.683  47.637  81.974  1.00  0.00    -0.285 OA
ATOM      5  C   UNL     1      17.628  47.572  80.868  1.00  0.00     0.111 A 
ATOM      6  C   UNL     1      16.917  46.824  81.853  1.00  0.00     0.134 A 
ATOM      7  C   UNL     1      15.625  46.362  81.570  1.00  0.00     0.093 A 
ATOM      8  C   UNL     1      14.996  46.675  80.366  1.00  0.00     0.123 A 
ATOM      9  C   UNL     1      15.660  47.457  79.420  1.00  0.00     0.094 A 
ATOM     10  C   UNL     1      16.963  47.902  79.658  1.00  0.00     0.146 A 
ATOM     11  O   UNL     1      17.564  48.634  78.729  1.00  0.00    -0.452 OA
ENDROOT
BRANCH   1  12
ATOM     12  C   UNL     1      19.351  49.919  77.744  1.00  0.00     0.021 A 
ATOM     13  C   UNL     1      19.869  49.293  76.598  1.00  0.00     0.016 A 
ATOM     14  C   UNL     1      20.369  50.058  75.538  1.00  0.00     0.047 A 
ATOM     15  C   UNL     1      20.342  51.454  75.605  1.00  0.00     0.115 A 
ATOM     16  C   UNL     1      19.309  51.324  77.797  1.00  0.00     0.016 A 
ATOM     17  C   UNL     1      19.808  52.086  76.736  1.00  0.00     0.047 A 
BRANCH  15  18
ATOM     18  O   UNL     1      20.843  52.203  74.543  1.00  0.00    -0.508 OA
ATOM     19  H   UNL     1      20.625  51.971  73.581  1.00  0.00     0.293 HD
ENDBRANCH  15  18
ENDBRANCH   1  12
BRANCH   2  20
ATOM     20  O   UNL     1      20.906  49.148  80.064  1.00  0.00    -0.502 OA
ATOM     21  H   UNL     1      21.195  50.113  79.964  1.00  0.00     0.293 HD
ENDBRANCH   2  20
BRANCH   6  22
ATOM     22  O   UNL     1      17.418  46.533  83.125  1.00  0.00    -0.507 OA
ATOM     23  H   UNL     1      18.398  46.459  83.354  1.00  0.00     0.293 HD
ENDBRANCH   6  22
BRANCH   8  24
ATOM     24  O   UNL     1      13.705  46.212  80.124  1.00  0.00    -0.508 OA
ATOM     25  H   UNL     1      13.509  45.226  80.002  1.00  0.00     0.293 HD
ENDBRANCH   8  24
TORSDOF 5
ENDMDL
MODEL 9
REMARK VINA RESULT:    -4.990      3.267      6.120
REMARK INTER + INTRA:          -6.039
REMARK INTER:                  -5.775
REMARK INTRA:                  -0.264
REMARK UNBOUND:                -0.174
REMARK SMILES O=c1c(O)c(-c2ccc(O)cc2)oc2cc(O)cc(O)c12
REMARK SMILES IDX 5 1 3 2 2 3 1 4 21 5 19 6 18 7 16 8 15 9 14 10 13 11 6 12
REMARK SMILES IDX 7 13 8 14 9 15 12 16 11 17 10 18 4 20 20 22 17 24
REMARK H PARENT 10 19 4 21 20 23 17 25
REMARK Flexibility Score: inf
ROOT
ATOM      1  C   UNL     1      18.275  48.963  78.514  1.00  0.00     0.180 A 
ATOM      2  C   UNL     1      17.554  49.192  79.698  1.00  0.00     0.208 A 
ATOM      3  C   UNL     1      16.649  48.214  80.142  1.00  0.00     0.238 A 
ATOM      4  O   UNL     1      16.046  48.399  81.233  1.00  0.00    -0.285 OA
ATOM      5  C   UNL     1      16.465  47.029  79.390  1.00  0.00     0.111 A 
ATOM      6  C   UNL     1      15.546  45.990  79.725  1.00  0.00     0.134 A 
ATOM      7  C   UNL     1      15.541  44.804  78.980  1.00  0.00     0.093 A 
ATOM      8  C   UNL     1      16.375  44.646  77.875  1.00  0.00     0.123 A 
ATOM      9  C   UNL     1      17.236  45.679  77.502  1.00  0.00     0.094 A 
ATOM     10  C   UNL     1      17.289  46.860  78.247  1.00  0.00     0.146 A 
ATOM     11  O   UNL     1      18.129  47.814  77.865  1.00  0.00    -0.452 OA
ENDROOT
BRANCH   1  12
ATOM     12  C   UNL     1      19.228  49.958  77.968  1.00  0.00     0.021 A 
ATOM     13  C   UNL     1      20.609  49.740  78.106  1.00  0.00     0.016 A 
ATOM     14  C   UNL     1      21.526  50.655  77.580  1.00  0.00     0.047 A 
ATOM     15  C   UNL     1      21.076  51.787  76.895  1.00  0.00     0.115 A 
ATOM     16  C   UNL     1      18.781  51.089  77.261  1.00  0.00     0.016 A 
ATOM     17  C   UNL     1      19.701  52.001  76.734  1.00  0.00     0.047 A 
BRANCH  15  18
ATOM     18  O   UNL     1      22.000  52.690  76.375  1.00  0.00    -0.508 OA
ATOM     19  H   UNL     1      22.851  52.924  76.874  1.00  0.00     0.293 HD
ENDBRANCH  15  18
ENDBRANCH   1  12
BRANCH   2  20
ATOM     20  O   UNL     1      17.766  50.358  80.437  1.00  0.00    -0.502 OA
ATOM     21  H   UNL     1      17.123  50.672  81.155  1.00  0.00     0.293 HD
ENDBRANCH   2  20
BRANCH   6  22
ATOM     22  O   UNL     1      14.605  46.083  80.755  1.00  0.00    -0.507 OA
ATOM     23  H   UNL     1      14.004  46.877  80.914  1.00  0.00     0.293 HD
ENDBRANCH   6  22
BRANCH   8  24
ATOM     24  O   UNL     1      16.334  43.459  77.147  1.00  0.00    -0.508 OA
ATOM     25  H   UNL     1      17.087  43.192  76.523  1.00  0.00     0.293 HD
ENDBRANCH   8  24
TORSDOF 5
ENDMDL
