MODEL 1
REMARK VINA RESULT:    -4.829      0.000      0.000
REMARK INTER + INTRA:         -14.210
REMARK INTER:                 -10.474
REMARK INTRA:                  -3.736
REMARK UNBOUND:                -3.736
REMARK SMILES CCCCCCCCCCCCCCCCCCCCCC(=O)[O-]
REMARK SMILES IDX 12 1 11 2 10 3 9 4 8 5 7 6 6 7 5 8 4 9 3 10 2 11 1 12 13 13
REMARK SMILES IDX 14 14 15 15 16 16 17 17 18 18 19 19 20 20 21 21 22 22 23 23
REMARK SMILES IDX 24 24
REMARK H PARENT
REMARK Flexibility Score: inf
ROOT
ATOM      1  C   UNL     1      16.680  11.546  35.939  1.00  0.00     0.000 C 
ENDROOT
BRANCH   1   2
ATOM      2  C   UNL     1      16.975  13.053  35.983  1.00  0.00     0.000 C 
BRANCH   2   3
ATOM      3  C   UNL     1      18.015  13.421  37.055  1.00  0.00     0.000 C 
BRANCH   3   4
ATOM      4  C   UNL     1      19.217  14.184  36.471  1.00  0.00    -0.000 C 
BRANCH   4   5
ATOM      5  C   UNL     1      19.060  14.479  34.970  1.00  0.00    -0.000 C 
BRANCH   5   6
ATOM      6  C   UNL     1      20.381  14.354  34.196  1.00  0.00    -0.000 C 
BRANCH   6   7
ATOM      7  C   UNL     1      20.212  13.436  32.976  1.00  0.00    -0.000 C 
BRANCH   7   8
ATOM      8  C   UNL     1      19.358  12.194  33.279  1.00  0.00    -0.000 C 
BRANCH   8   9
ATOM      9  C   UNL     1      20.208  10.979  33.689  1.00  0.00    -0.000 C 
BRANCH   9  10
ATOM     10  C   UNL     1      20.110  10.660  35.192  1.00  0.00    -0.000 C 
BRANCH  10  11
ATOM     11  C   UNL     1      21.339  11.066  36.025  1.00  0.00    -0.003 C 
ATOM     12  C   UNL     1      21.061  11.103  37.527  1.00  0.00     0.004 C 
ENDBRANCH  10  11
ENDBRANCH   9  10
ENDBRANCH   8   9
ENDBRANCH   7   8
ENDBRANCH   6   7
ENDBRANCH   5   6
ENDBRANCH   4   5
ENDBRANCH   3   4
ENDBRANCH   2   3
ENDBRANCH   1   2
BRANCH   1  13
ATOM     13  C   UNL     1      16.021  11.150  34.612  1.00  0.00     0.000 C 
BRANCH  13  14
ATOM     14  C   UNL     1      14.749  10.325  34.858  1.00  0.00     0.000 C 
BRANCH  14  15
ATOM     15  C   UNL     1      13.633  10.620  33.840  1.00  0.00     0.000 C 
BRANCH  15  16
ATOM     16  C   UNL     1      13.656  12.035  33.235  1.00  0.00     0.000 C 
BRANCH  16  17
ATOM     17  C   UNL     1      12.716  13.015  33.959  1.00  0.00     0.000 C 
BRANCH  17  18
ATOM     18  C   UNL     1      13.469  13.941  34.929  1.00  0.00     0.000 C 
BRANCH  18  19
ATOM     19  C   UNL     1      13.397  13.449  36.386  1.00  0.00     0.000 C 
BRANCH  19  20
ATOM     20  C   UNL     1      12.130  12.626  36.668  1.00  0.00     0.006 C 
BRANCH  20  21
ATOM     21  C   UNL     1      12.315  11.644  37.833  1.00  0.00     0.053 C 
BRANCH  21  22
ATOM     22  C   UNL     1      11.005  11.379  38.503  1.00  0.00     0.041 C 
ATOM     23  O   UNL     1      10.714  10.217  38.889  1.00  0.00    -0.550 OA
ATOM     24  O   UNL     1      10.084  12.407  38.659  1.00  0.00    -0.550 OA
ENDBRANCH  21  22
ENDBRANCH  20  21
ENDBRANCH  19  20
ENDBRANCH  18  19
ENDBRANCH  17  18
ENDBRANCH  16  17
ENDBRANCH  15  16
ENDBRANCH  14  15
ENDBRANCH  13  14
ENDBRANCH   1  13
TORSDOF 20
ENDMDL
MODEL 2
REMARK VINA RESULT:    -4.798      4.432      8.436
REMARK INTER + INTRA:         -14.145
REMARK INTER:                 -10.514
REMARK INTRA:                  -3.631
REMARK UNBOUND:                -3.736
REMARK SMILES CCCCCCCCCCCCCCCCCCCCCC(=O)[O-]
REMARK SMILES IDX 12 1 11 2 10 3 9 4 8 5 7 6 6 7 5 8 4 9 3 10 2 11 1 12 13 13
REMARK SMILES IDX 14 14 15 15 16 16 17 17 18 18 19 19 20 20 21 21 22 22 23 23
REMARK SMILES IDX 24 24
REMARK H PARENT
REMARK Flexibility Score: inf
ROOT
ATOM      1  C   UNL     1      17.513  13.375  36.046  1.00  0.00     0.000 C 
ENDROOT
BRANCH   1   2
ATOM      2  C   UNL     1      16.211  13.222  35.245  1.00  0.00     0.000 C 
BRANCH   2   3
ATOM      3  C   UNL     1      16.465  12.882  33.766  1.00  0.00     0.000 C 
BRANCH   3   4
ATOM      4  C   UNL     1      15.851  11.531  33.359  1.00  0.00    -0.000 C 
BRANCH   4   5
ATOM      5  C   UNL     1      15.383  10.704  34.568  1.00  0.00    -0.000 C 
BRANCH   5   6
ATOM      6  C   UNL     1      13.982  10.103  34.375  1.00  0.00    -0.000 C 
BRANCH   6   7
ATOM      7  C   UNL     1      13.236  10.019  35.714  1.00  0.00    -0.000 C 
BRANCH   7   8
ATOM      8  C   UNL     1      13.984  10.726  36.858  1.00  0.00    -0.000 C 
BRANCH   8   9
ATOM      9  C   UNL     1      13.333  12.062  37.253  1.00  0.00    -0.000 C 
BRANCH   9  10
ATOM     10  C   UNL     1      12.217  12.494  36.284  1.00  0.00    -0.000 C 
BRANCH  10  11
ATOM     11  C   UNL     1      12.551  13.717  35.410  1.00  0.00    -0.003 C 
ATOM     12  C   UNL     1      12.565  13.401  33.916  1.00  0.00     0.004 C 
ENDBRANCH  10  11
ENDBRANCH   9  10
ENDBRANCH   8   9
ENDBRANCH   7   8
ENDBRANCH   6   7
ENDBRANCH   5   6
ENDBRANCH   4   5
ENDBRANCH   3   4
ENDBRANCH   2   3
ENDBRANCH   1   2
BRANCH   1  13
ATOM     13  C   UNL     1      17.793  12.126  36.890  1.00  0.00     0.000 C 
BRANCH  13  14
ATOM     14  C   UNL     1      18.652  11.120  36.109  1.00  0.00     0.000 C 
BRANCH  14  15
ATOM     15  C   UNL     1      20.158  11.437  36.170  1.00  0.00     0.000 C 
BRANCH  15  16
ATOM     16  C   UNL     1      20.851  11.584  34.804  1.00  0.00     0.000 C 
BRANCH  16  17
ATOM     17  C   UNL     1      19.982  11.095  33.632  1.00  0.00     0.000 C 
BRANCH  17  18
ATOM     18  C   UNL     1      19.731  12.196  32.589  1.00  0.00     0.000 C 
BRANCH  18  19
ATOM     19  C   UNL     1      20.169  13.586  33.084  1.00  0.00     0.000 C 
BRANCH  19  20
ATOM     20  C   UNL     1      21.106  14.297  32.094  1.00  0.00     0.006 C 
BRANCH  20  21
ATOM     21  C   UNL     1      22.576  14.239  32.531  1.00  0.00     0.053 C 
BRANCH  21  22
ATOM     22  C   UNL     1      22.963  15.507  33.222  1.00  0.00     0.041 C 
ATOM     23  O   UNL     1      22.156  16.471  33.277  1.00  0.00    -0.550 OA
ATOM     24  O   UNL     1      24.234  15.642  33.766  1.00  0.00    -0.550 OA
ENDBRANCH  21  22
ENDBRANCH  20  21
ENDBRANCH  19  20
ENDBRANCH  18  19
ENDBRANCH  17  18
ENDBRANCH  16  17
ENDBRANCH  15  16
ENDBRANCH  14  15
ENDBRANCH  13  14
ENDBRANCH   1  13
TORSDOF 20
ENDMDL
MODEL 3
REMARK VINA RESULT:    -4.752      3.767      7.773
REMARK INTER + INTRA:         -14.044
REMARK INTER:                  -9.996
REMARK INTRA:                  -4.048
REMARK UNBOUND:                -3.736
REMARK SMILES CCCCCCCCCCCCCCCCCCCCCC(=O)[O-]
REMARK SMILES IDX 12 1 11 2 10 3 9 4 8 5 7 6 6 7 5 8 4 9 3 10 2 11 1 12 13 13
REMARK SMILES IDX 14 14 15 15 16 16 17 17 18 18 19 19 20 20 21 21 22 22 23 23
REMARK SMILES IDX 24 24
REMARK H PARENT
REMARK Flexibility Score: inf
ROOT
ATOM      1  C   UNL     1      16.760  11.850  33.486  1.00  0.00     0.000 C 
ENDROOT
BRANCH   1   2
ATOM      2  C   UNL     1      16.222  11.213  34.778  1.00  0.00     0.000 C 
BRANCH   2   3
ATOM      3  C   UNL     1      14.951  10.381  34.541  1.00  0.00     0.000 C 
BRANCH   3   4
ATOM      4  C   UNL     1      14.399  10.541  33.113  1.00  0.00    -0.000 C 
BRANCH   4   5
ATOM      5  C   UNL     1      13.081  11.332  33.073  1.00  0.00    -0.000 C 
BRANCH   5   6
ATOM      6  C   UNL     1      13.295  12.853  33.135  1.00  0.00    -0.000 C 
BRANCH   6   7
ATOM      7  C   UNL     1      12.595  13.450  34.365  1.00  0.00    -0.000 C 
BRANCH   7   8
ATOM      8  C   UNL     1      13.583  13.875  35.464  1.00  0.00    -0.000 C 
BRANCH   8   9
ATOM      9  C   UNL     1      13.464  13.011  36.732  1.00  0.00    -0.000 C 
BRANCH   9  10
ATOM     10  C   UNL     1      12.165  12.185  36.772  1.00  0.00    -0.000 C 
BRANCH  10  11
ATOM     11  C   UNL     1      12.327  10.742  37.284  1.00  0.00    -0.003 C 
ATOM     12  C   UNL     1      11.809   9.695  36.299  1.00  0.00     0.004 C 
ENDBRANCH  10  11
ENDBRANCH   9  10
ENDBRANCH   8   9
ENDBRANCH   7   8
ENDBRANCH   6   7
ENDBRANCH   5   6
ENDBRANCH   4   5
ENDBRANCH   3   4
ENDBRANCH   2   3
ENDBRANCH   1   2
BRANCH   1  13
ATOM     13  C   UNL     1      17.666  13.046  33.797  1.00  0.00     0.000 C 
BRANCH  13  14
ATOM     14  C   UNL     1      17.227  13.743  35.094  1.00  0.00     0.000 C 
BRANCH  14  15
ATOM     15  C   UNL     1      18.411  14.243  35.942  1.00  0.00     0.000 C 
BRANCH  15  16
ATOM     16  C   UNL     1      18.490  13.657  37.363  1.00  0.00     0.000 C 
BRANCH  16  17
ATOM     17  C   UNL     1      19.632  12.639  37.532  1.00  0.00     0.000 C 
BRANCH  17  18
ATOM     18  C   UNL     1      19.142  11.186  37.424  1.00  0.00     0.000 C 
BRANCH  18  19
ATOM     19  C   UNL     1      19.419  10.573  36.040  1.00  0.00     0.000 C 
BRANCH  19  20
ATOM     20  C   UNL     1      20.846  10.858  35.544  1.00  0.00     0.006 C 
BRANCH  20  21
ATOM     21  C   UNL     1      20.866  11.494  34.147  1.00  0.00     0.053 C 
BRANCH  21  22
ATOM     22  C   UNL     1      21.441  12.873  34.212  1.00  0.00     0.041 C 
ATOM     23  O   UNL     1      22.275  13.170  35.106  1.00  0.00    -0.550 OA
ATOM     24  O   UNL     1      21.020  13.844  33.313  1.00  0.00    -0.550 OA
ENDBRANCH  21  22
ENDBRANCH  20  21
ENDBRANCH  19  20
ENDBRANCH  18  19
ENDBRANCH  17  18
ENDBRANCH  16  17
ENDBRANCH  15  16
ENDBRANCH  14  15
ENDBRANCH  13  14
ENDBRANCH   1  13
TORSDOF 20
ENDMDL
MODEL 4
REMARK VINA RESULT:    -4.740      1.606      3.746
REMARK INTER + INTRA:         -14.018
REMARK INTER:                 -10.362
REMARK INTRA:                  -3.656
REMARK UNBOUND:                -3.736
REMARK SMILES CCCCCCCCCCCCCCCCCCCCCC(=O)[O-]
REMARK SMILES IDX 12 1 11 2 10 3 9 4 8 5 7 6 6 7 5 8 4 9 3 10 2 11 1 12 13 13
REMARK SMILES IDX 14 14 15 15 16 16 17 17 18 18 19 19 20 20 21 21 22 22 23 23
REMARK SMILES IDX 24 24
REMARK H PARENT
REMARK Flexibility Score: inf
ROOT
ATOM      1  C   UNL     1      20.989  10.658  35.033  1.00  0.00     0.000 C 
ENDROOT
BRANCH   1   2
ATOM      2  C   UNL     1      19.749  10.407  35.905  1.00  0.00     0.000 C 
BRANCH   2   3
ATOM      3  C   UNL     1      19.498  11.541  36.915  1.00  0.00     0.000 C 
BRANCH   3   4
ATOM      4  C   UNL     1      18.006  11.895  37.045  1.00  0.00    -0.000 C 
BRANCH   4   5
ATOM      5  C   UNL     1      17.706  13.350  36.649  1.00  0.00    -0.000 C 
BRANCH   5   6
ATOM      6  C   UNL     1      18.979  14.183  36.429  1.00  0.00    -0.000 C 
BRANCH   6   7
ATOM      7  C   UNL     1      18.915  14.933  35.090  1.00  0.00    -0.000 C 
BRANCH   7   8
ATOM      8  C   UNL     1      20.302  15.156  34.466  1.00  0.00    -0.000 C 
BRANCH   8   9
ATOM      9  C   UNL     1      21.403  14.339  35.164  1.00  0.00    -0.000 C 
BRANCH   9  10
ATOM     10  C   UNL     1      22.783  14.508  34.502  1.00  0.00    -0.000 C 
BRANCH  10  11
ATOM     11  C   UNL     1      22.748  14.890  33.011  1.00  0.00    -0.003 C 
ATOM     12  C   UNL     1      22.795  13.680  32.080  1.00  0.00     0.004 C 
ENDBRANCH  10  11
ENDBRANCH   9  10
ENDBRANCH   8   9
ENDBRANCH   7   8
ENDBRANCH   6   7
ENDBRANCH   5   6
ENDBRANCH   4   5
ENDBRANCH   3   4
ENDBRANCH   2   3
ENDBRANCH   1   2
BRANCH   1  13
ATOM     13  C   UNL     1      20.631  10.625  33.543  1.00  0.00     0.000 C 
BRANCH  13  14
ATOM     14  C   UNL     1      19.737  11.816  33.169  1.00  0.00     0.000 C 
BRANCH  14  15
ATOM     15  C   UNL     1      18.365  11.391  32.614  1.00  0.00     0.000 C 
BRANCH  15  16
ATOM     16  C   UNL     1      17.150  11.973  33.358  1.00  0.00     0.000 C 
BRANCH  16  17
ATOM     17  C   UNL     1      15.833  11.257  33.013  1.00  0.00     0.000 C 
BRANCH  17  18
ATOM     18  C   UNL     1      14.623  11.877  33.730  1.00  0.00     0.000 C 
BRANCH  18  19
ATOM     19  C   UNL     1      14.913  13.295  34.254  1.00  0.00     0.000 C 
BRANCH  19  20
ATOM     20  C   UNL     1      13.887  13.758  35.301  1.00  0.00     0.006 C 
BRANCH  20  21
ATOM     21  C   UNL     1      13.973  12.952  36.604  1.00  0.00     0.053 C 
BRANCH  21  22
ATOM     22  C   UNL     1      12.686  12.235  36.858  1.00  0.00     0.041 C 
ATOM     23  O   UNL     1      11.894  12.000  35.908  1.00  0.00    -0.550 OA
ATOM     24  O   UNL     1      12.339  11.866  38.151  1.00  0.00    -0.550 OA
ENDBRANCH  21  22
ENDBRANCH  20  21
ENDBRANCH  19  20
ENDBRANCH  18  19
ENDBRANCH  17  18
ENDBRANCH  16  17
ENDBRANCH  15  16
ENDBRANCH  14  15
ENDBRANCH  13  14
ENDBRANCH   1  13
TORSDOF 20
ENDMDL
MODEL 5
REMARK VINA RESULT:    -4.739      4.305      8.312
REMARK INTER + INTRA:         -14.015
REMARK INTER:                 -10.790
REMARK INTRA:                  -3.225
REMARK UNBOUND:                -3.736
REMARK SMILES CCCCCCCCCCCCCCCCCCCCCC(=O)[O-]
REMARK SMILES IDX 12 1 11 2 10 3 9 4 8 5 7 6 6 7 5 8 4 9 3 10 2 11 1 12 13 13
REMARK SMILES IDX 14 14 15 15 16 16 17 17 18 18 19 19 20 20 21 21 22 22 23 23
REMARK SMILES IDX 24 24
REMARK H PARENT
REMARK Flexibility Score: inf
ROOT
ATOM      1  C   UNL     1      18.875  14.432  35.772  1.00  0.00     0.000 C 
ENDROOT
BRANCH   1   2
ATOM      2  C   UNL     1      18.013  13.626  36.756  1.00  0.00     0.000 C 
BRANCH   2   3
ATOM      3  C   UNL     1      16.784  12.992  36.083  1.00  0.00     0.000 C 
BRANCH   3   4
ATOM      4  C   UNL     1      16.476  13.617  34.710  1.00  0.00    -0.000 C 
BRANCH   4   5
ATOM      5  C   UNL     1      15.801  12.626  33.747  1.00  0.00    -0.000 C 
BRANCH   5   6
ATOM      6  C   UNL     1      14.473  12.077  34.290  1.00  0.00    -0.000 C 
BRANCH   6   7
ATOM      7  C   UNL     1      13.285  12.875  33.731  1.00  0.00    -0.000 C 
BRANCH   7   8
ATOM      8  C   UNL     1      12.558  13.695  34.809  1.00  0.00    -0.000 C 
BRANCH   8   9
ATOM      9  C   UNL     1      13.090  13.413  36.225  1.00  0.00    -0.000 C 
BRANCH   9  10
ATOM     10  C   UNL     1      12.074  12.667  37.109  1.00  0.00    -0.000 C 
BRANCH  10  11
ATOM     11  C   UNL     1      12.335  11.159  37.271  1.00  0.00    -0.003 C 
ATOM     12  C   UNL     1      13.795  10.832  37.581  1.00  0.00     0.004 C 
ENDBRANCH  10  11
ENDBRANCH   9  10
ENDBRANCH   8   9
ENDBRANCH   7   8
ENDBRANCH   6   7
ENDBRANCH   5   6
ENDBRANCH   4   5
ENDBRANCH   3   4
ENDBRANCH   2   3
ENDBRANCH   1   2
BRANCH   1  13
ATOM     13  C   UNL     1      20.369  14.191  36.020  1.00  0.00     0.000 C 
BRANCH  13  14
ATOM     14  C   UNL     1      20.587  12.911  36.840  1.00  0.00     0.000 C 
BRANCH  14  15
ATOM     15  C   UNL     1      21.142  11.744  36.004  1.00  0.00     0.000 C 
BRANCH  15  16
ATOM     16  C   UNL     1      20.083  10.908  35.263  1.00  0.00     0.000 C 
BRANCH  16  17
ATOM     17  C   UNL     1      20.255  10.935  33.735  1.00  0.00     0.000 C 
BRANCH  17  18
ATOM     18  C   UNL     1      19.426  12.047  33.071  1.00  0.00     0.000 C 
BRANCH  18  19
ATOM     19  C   UNL     1      20.291  13.006  32.235  1.00  0.00     0.000 C 
BRANCH  19  20
ATOM     20  C   UNL     1      21.766  12.999  32.668  1.00  0.00     0.006 C 
BRANCH  20  21
ATOM     21  C   UNL     1      22.583  14.105  31.987  1.00  0.00     0.053 C 
BRANCH  21  22
ATOM     22  C   UNL     1      22.818  15.236  32.937  1.00  0.00     0.041 C 
ATOM     23  O   UNL     1      23.963  15.429  33.423  1.00  0.00    -0.550 OA
ATOM     24  O   UNL     1      21.761  16.051  33.322  1.00  0.00    -0.550 OA
ENDBRANCH  21  22
ENDBRANCH  20  21
ENDBRANCH  19  20
ENDBRANCH  18  19
ENDBRANCH  17  18
ENDBRANCH  16  17
ENDBRANCH  15  16
ENDBRANCH  14  15
ENDBRANCH  13  14
ENDBRANCH   1  13
TORSDOF 20
ENDMDL
MODEL 6
REMARK VINA RESULT:    -4.688      1.229      2.173
REMARK INTER + INTRA:         -13.905
REMARK INTER:                 -10.438
REMARK INTRA:                  -3.467
REMARK UNBOUND:                -3.736
REMARK SMILES CCCCCCCCCCCCCCCCCCCCCC(=O)[O-]
REMARK SMILES IDX 12 1 11 2 10 3 9 4 8 5 7 6 6 7 5 8 4 9 3 10 2 11 1 12 13 13
REMARK SMILES IDX 14 14 15 15 16 16 17 17 18 18 19 19 20 20 21 21 22 22 23 23
REMARK SMILES IDX 24 24
REMARK H PARENT
REMARK Flexibility Score: inf
ROOT
ATOM      1  C   UNL     1      16.529  12.459  36.171  1.00  0.00     0.000 C 
ENDROOT
BRANCH   1   2
ATOM      2  C   UNL     1      17.163  13.583  35.337  1.00  0.00     0.000 C 
BRANCH   2   3
ATOM      3  C   UNL     1      18.371  14.229  36.036  1.00  0.00     0.000 C 
BRANCH   3   4
ATOM      4  C   UNL     1      19.023  13.293  37.069  1.00  0.00    -0.000 C 
BRANCH   4   5
ATOM      5  C   UNL     1      20.522  13.579  37.264  1.00  0.00    -0.000 C 
BRANCH   5   6
ATOM      6  C   UNL     1      21.041  14.694  36.342  1.00  0.00    -0.000 C 
BRANCH   6   7
ATOM      7  C   UNL     1      22.325  14.254  35.624  1.00  0.00    -0.000 C 
BRANCH   7   8
ATOM      8  C   UNL     1      22.329  14.622  34.131  1.00  0.00    -0.000 C 
BRANCH   8   9
ATOM      9  C   UNL     1      21.073  14.122  33.396  1.00  0.00    -0.000 C 
BRANCH   9  10
ATOM     10  C   UNL     1      21.128  12.618  33.072  1.00  0.00    -0.000 C 
BRANCH  10  11
ATOM     11  C   UNL     1      19.996  11.777  33.690  1.00  0.00    -0.003 C 
ATOM     12  C   UNL     1      18.877  11.458  32.700  1.00  0.00     0.004 C 
ENDBRANCH  10  11
ENDBRANCH   9  10
ENDBRANCH   8   9
ENDBRANCH   7   8
ENDBRANCH   6   7
ENDBRANCH   5   6
ENDBRANCH   4   5
ENDBRANCH   3   4
ENDBRANCH   2   3
ENDBRANCH   1   2
BRANCH   1  13
ATOM     13  C   UNL     1      16.475  11.147  35.380  1.00  0.00     0.000 C 
BRANCH  13  14
ATOM     14  C   UNL     1      15.144  10.419  35.620  1.00  0.00     0.000 C 
BRANCH  14  15
ATOM     15  C   UNL     1      14.392  10.090  34.318  1.00  0.00     0.000 C 
BRANCH  15  16
ATOM     16  C   UNL     1      14.336  11.233  33.289  1.00  0.00     0.000 C 
BRANCH  16  17
ATOM     17  C   UNL     1      13.183  12.219  33.545  1.00  0.00     0.000 C 
BRANCH  17  18
ATOM     18  C   UNL     1      13.684  13.613  33.958  1.00  0.00     0.000 C 
BRANCH  18  19
ATOM     19  C   UNL     1      13.215  14.014  35.367  1.00  0.00     0.000 C 
BRANCH  19  20
ATOM     20  C   UNL     1      12.180  13.034  35.945  1.00  0.00     0.006 C 
BRANCH  20  21
ATOM     21  C   UNL     1      12.628  12.426  37.281  1.00  0.00     0.053 C 
BRANCH  21  22
ATOM     22  C   UNL     1      11.439  12.055  38.108  1.00  0.00     0.041 C 
ATOM     23  O   UNL     1      11.482  11.050  38.864  1.00  0.00    -0.550 OA
ATOM     24  O   UNL     1      10.266  12.792  38.008  1.00  0.00    -0.550 OA
ENDBRANCH  21  22
ENDBRANCH  20  21
ENDBRANCH  19  20
ENDBRANCH  18  19
ENDBRANCH  17  18
ENDBRANCH  16  17
ENDBRANCH  15  16
ENDBRANCH  14  15
ENDBRANCH  13  14
ENDBRANCH   1  13
TORSDOF 20
ENDMDL
MODEL 7
REMARK VINA RESULT:    -4.681      3.699      7.651
REMARK INTER + INTRA:         -13.890
REMARK INTER:                 -10.513
REMARK INTRA:                  -3.377
REMARK UNBOUND:                -3.736
REMARK SMILES CCCCCCCCCCCCCCCCCCCCCC(=O)[O-]
REMARK SMILES IDX 12 1 11 2 10 3 9 4 8 5 7 6 6 7 5 8 4 9 3 10 2 11 1 12 13 13
REMARK SMILES IDX 14 14 15 15 16 16 17 17 18 18 19 19 20 20 21 21 22 22 23 23
REMARK SMILES IDX 24 24
REMARK H PARENT
REMARK Flexibility Score: inf
ROOT
ATOM      1  C   UNL     1      16.099  11.121  35.030  1.00  0.00     0.000 C 
ENDROOT
BRANCH   1   2
ATOM      2  C   UNL     1      14.908  10.323  34.478  1.00  0.00     0.000 C 
BRANCH   2   3
ATOM      3  C   UNL     1      14.544  10.725  33.038  1.00  0.00     0.000 C 
BRANCH   3   4
ATOM      4  C   UNL     1      13.234  11.530  32.965  1.00  0.00    -0.000 C 
BRANCH   4   5
ATOM      5  C   UNL     1      13.439  13.023  33.271  1.00  0.00    -0.000 C 
BRANCH   5   6
ATOM      6  C   UNL     1      12.487  13.545  34.358  1.00  0.00    -0.000 C 
BRANCH   6   7
ATOM      7  C   UNL     1      13.278  14.077  35.563  1.00  0.00    -0.000 C 
BRANCH   7   8
ATOM      8  C   UNL     1      13.442  13.028  36.676  1.00  0.00    -0.000 C 
BRANCH   8   9
ATOM      9  C   UNL     1      12.118  12.326  37.026  1.00  0.00    -0.000 C 
BRANCH   9  10
ATOM     10  C   UNL     1      12.263  11.318  38.181  1.00  0.00    -0.000 C 
BRANCH  10  11
ATOM     11  C   UNL     1      13.501  10.406  38.098  1.00  0.00    -0.003 C 
ATOM     12  C   UNL     1      13.206   9.052  37.455  1.00  0.00     0.004 C 
ENDBRANCH  10  11
ENDBRANCH   9  10
ENDBRANCH   8   9
ENDBRANCH   7   8
ENDBRANCH   6   7
ENDBRANCH   5   6
ENDBRANCH   4   5
ENDBRANCH   3   4
ENDBRANCH   2   3
ENDBRANCH   1   2
BRANCH   1  13
ATOM     13  C   UNL     1      16.903  11.768  33.896  1.00  0.00     0.000 C 
BRANCH  13  14
ATOM     14  C   UNL     1      17.041  13.282  34.119  1.00  0.00     0.000 C 
BRANCH  14  15
ATOM     15  C   UNL     1      16.973  13.682  35.604  1.00  0.00     0.000 C 
BRANCH  15  16
ATOM     16  C   UNL     1      18.336  13.841  36.301  1.00  0.00     0.000 C 
BRANCH  16  17
ATOM     17  C   UNL     1      18.699  12.642  37.194  1.00  0.00     0.000 C 
BRANCH  17  18
ATOM     18  C   UNL     1      20.075  12.050  36.850  1.00  0.00     0.000 C 
BRANCH  18  19
ATOM     19  C   UNL     1      20.325  11.986  35.332  1.00  0.00     0.000 C 
BRANCH  19  20
ATOM     20  C   UNL     1      20.573  10.553  34.835  1.00  0.00     0.006 C 
BRANCH  20  21
ATOM     21  C   UNL     1      21.237   9.669  35.899  1.00  0.00     0.053 C 
BRANCH  21  22
ATOM     22  C   UNL     1      21.338   8.258  35.414  1.00  0.00     0.041 C 
ATOM     23  O   UNL     1      21.323   8.010  34.180  1.00  0.00    -0.550 OA
ATOM     24  O   UNL     1      21.402   7.213  36.326  1.00  0.00    -0.550 OA
ENDBRANCH  21  22
ENDBRANCH  20  21
ENDBRANCH  19  20
ENDBRANCH  18  19
ENDBRANCH  17  18
ENDBRANCH  16  17
ENDBRANCH  15  16
ENDBRANCH  14  15
ENDBRANCH  13  14
ENDBRANCH   1  13
TORSDOF 20
ENDMDL
MODEL 8
REMARK VINA RESULT:    -4.662      4.008      8.402
REMARK INTER + INTRA:         -13.848
REMARK INTER:                 -11.382
REMARK INTRA:                  -2.466
REMARK UNBOUND:                -3.736
REMARK SMILES CCCCCCCCCCCCCCCCCCCCCC(=O)[O-]
REMARK SMILES IDX 12 1 11 2 10 3 9 4 8 5 7 6 6 7 5 8 4 9 3 10 2 11 1 12 13 13
REMARK SMILES IDX 14 14 15 15 16 16 17 17 18 18 19 19 20 20 21 21 22 22 23 23
REMARK SMILES IDX 24 24
REMARK H PARENT
REMARK Flexibility Score: inf
ROOT
ATOM      1  C   UNL     1      18.099  13.033  34.143  1.00  0.00     0.000 C 
ENDROOT
BRANCH   1   2
ATOM      2  C   UNL     1      17.812  12.568  35.580  1.00  0.00     0.000 C 
BRANCH   2   3
ATOM      3  C   UNL     1      17.289  11.123  35.639  1.00  0.00     0.000 C 
BRANCH   3   4
ATOM      4  C   UNL     1      15.827  11.043  36.113  1.00  0.00    -0.000 C 
BRANCH   4   5
ATOM      5  C   UNL     1      14.904  10.386  35.074  1.00  0.00    -0.000 C 
BRANCH   5   6
ATOM      6  C   UNL     1      15.067  10.983  33.667  1.00  0.00    -0.000 C 
BRANCH   6   7
ATOM      7  C   UNL     1      14.599  12.446  33.640  1.00  0.00    -0.000 C 
BRANCH   7   8
ATOM      8  C   UNL     1      13.085  12.582  33.409  1.00  0.00    -0.000 C 
BRANCH   8   9
ATOM      9  C   UNL     1      12.404  13.474  34.462  1.00  0.00    -0.000 C 
BRANCH   9  10
ATOM     10  C   UNL     1      13.321  13.795  35.657  1.00  0.00    -0.000 C 
BRANCH  10  11
ATOM     11  C   UNL     1      12.952  13.082  36.971  1.00  0.00    -0.003 C 
ATOM     12  C   UNL     1      11.963  11.935  36.773  1.00  0.00     0.004 C 
ENDBRANCH  10  11
ENDBRANCH   9  10
ENDBRANCH   8   9
ENDBRANCH   7   8
ENDBRANCH   6   7
ENDBRANCH   5   6
ENDBRANCH   4   5
ENDBRANCH   3   4
ENDBRANCH   2   3
ENDBRANCH   1   2
BRANCH   1  13
ATOM     13  C   UNL     1      18.543  11.859  33.262  1.00  0.00     0.000 C 
BRANCH  13  14
ATOM     14  C   UNL     1      20.072  11.832  33.118  1.00  0.00     0.000 C 
BRANCH  14  15
ATOM     15  C   UNL     1      20.709  13.232  33.179  1.00  0.00     0.000 C 
BRANCH  15  16
ATOM     16  C   UNL     1      21.340  13.721  31.863  1.00  0.00     0.000 C 
BRANCH  16  17
ATOM     17  C   UNL     1      22.847  14.004  31.986  1.00  0.00     0.000 C 
BRANCH  17  18
ATOM     18  C   UNL     1      23.238  14.500  33.388  1.00  0.00     0.000 C 
BRANCH  18  19
ATOM     19  C   UNL     1      23.223  16.035  33.493  1.00  0.00     0.000 C 
BRANCH  19  20
ATOM     20  C   UNL     1      21.875  16.578  33.997  1.00  0.00     0.006 C 
BRANCH  20  21
ATOM     21  C   UNL     1      21.512  17.927  33.363  1.00  0.00     0.053 C 
BRANCH  21  22
ATOM     22  C   UNL     1      20.055  17.969  33.029  1.00  0.00     0.041 C 
ATOM     23  O   UNL     1      19.353  18.954  33.378  1.00  0.00    -0.550 OA
ATOM     24  O   UNL     1      19.462  16.899  32.373  1.00  0.00    -0.550 OA
ENDBRANCH  21  22
ENDBRANCH  20  21
ENDBRANCH  19  20
ENDBRANCH  18  19
ENDBRANCH  17  18
ENDBRANCH  16  17
ENDBRANCH  15  16
ENDBRANCH  14  15
ENDBRANCH  13  14
ENDBRANCH   1  13
TORSDOF 20
ENDMDL
MODEL 9
REMARK VINA RESULT:    -4.586      4.278      8.095
REMARK INTER + INTRA:         -13.685
REMARK INTER:                 -10.617
REMARK INTRA:                  -3.067
REMARK UNBOUND:                -3.736
REMARK SMILES CCCCCCCCCCCCCCCCCCCCCC(=O)[O-]
REMARK SMILES IDX 12 1 11 2 10 3 9 4 8 5 7 6 6 7 5 8 4 9 3 10 2 11 1 12 13 13
REMARK SMILES IDX 14 14 15 15 16 16 17 17 18 18 19 19 20 20 21 21 22 22 23 23
REMARK SMILES IDX 24 24
REMARK H PARENT
REMARK Flexibility Score: inf
ROOT
ATOM      1  C   UNL     1      20.512  12.916  35.538  1.00  0.00     0.000 C 
ENDROOT
BRANCH   1   2
ATOM      2  C   UNL     1      19.461  12.985  36.657  1.00  0.00     0.000 C 
BRANCH   2   3
ATOM      3  C   UNL     1      18.446  14.121  36.444  1.00  0.00     0.000 C 
BRANCH   3   4
ATOM      4  C   UNL     1      18.270  14.483  34.959  1.00  0.00    -0.000 C 
BRANCH   4   5
ATOM      5  C   UNL     1      16.880  14.109  34.419  1.00  0.00    -0.000 C 
BRANCH   5   6
ATOM      6  C   UNL     1      16.853  12.728  33.746  1.00  0.00    -0.000 C 
BRANCH   6   7
ATOM      7  C   UNL     1      16.475  11.636  34.758  1.00  0.00    -0.000 C 
BRANCH   7   8
ATOM      8  C   UNL     1      14.955  11.490  34.935  1.00  0.00    -0.000 C 
BRANCH   8   9
ATOM      9  C   UNL     1      14.179  11.759  33.634  1.00  0.00    -0.000 C 
BRANCH   9  10
ATOM     10  C   UNL     1      13.230  12.966  33.742  1.00  0.00    -0.000 C 
BRANCH  10  11
ATOM     11  C   UNL     1      13.246  13.687  35.102  1.00  0.00    -0.003 C 
ATOM     12  C   UNL     1      12.055  13.325  35.987  1.00  0.00     0.004 C 
ENDBRANCH  10  11
ENDBRANCH   9  10
ENDBRANCH   8   9
ENDBRANCH   7   8
ENDBRANCH   6   7
ENDBRANCH   5   6
ENDBRANCH   4   5
ENDBRANCH   3   4
ENDBRANCH   2   3
ENDBRANCH   1   2
BRANCH   1  13
ATOM     13  C   UNL     1      20.337  11.647  34.695  1.00  0.00     0.000 C 
BRANCH  13  14
ATOM     14  C   UNL     1      20.979  11.819  33.310  1.00  0.00     0.000 C 
BRANCH  14  15
ATOM     15  C   UNL     1      20.397  13.003  32.516  1.00  0.00     0.000 C 
BRANCH  15  16
ATOM     16  C   UNL     1      21.440  13.957  31.907  1.00  0.00     0.000 C 
BRANCH  16  17
ATOM     17  C   UNL     1      22.696  14.113  32.781  1.00  0.00     0.000 C 
BRANCH  17  18
ATOM     18  C   UNL     1      22.873  15.549  33.302  1.00  0.00     0.000 C 
BRANCH  18  19
ATOM     19  C   UNL     1      21.693  16.006  34.178  1.00  0.00     0.000 C 
BRANCH  19  20
ATOM     20  C   UNL     1      21.151  17.384  33.766  1.00  0.00     0.006 C 
BRANCH  20  21
ATOM     21  C   UNL     1      19.932  17.283  32.839  1.00  0.00     0.053 C 
BRANCH  21  22
ATOM     22  C   UNL     1      19.538  18.639  32.348  1.00  0.00     0.041 C 
ATOM     23  O   UNL     1      19.627  19.638  33.108  1.00  0.00    -0.550 OA
ATOM     24  O   UNL     1      19.028  18.793  31.066  1.00  0.00    -0.550 OA
ENDBRANCH  21  22
ENDBRANCH  20  21
ENDBRANCH  19  20
ENDBRANCH  18  19
ENDBRANCH  17  18
ENDBRANCH  16  17
ENDBRANCH  15  16
ENDBRANCH  14  15
ENDBRANCH  13  14
ENDBRANCH   1  13
TORSDOF 20
ENDMDL
