MODEL 1
REMARK VINA RESULT:     6.275      0.000      0.000
REMARK INTER + INTRA:          14.921
REMARK INTER:                  16.547
REMARK INTRA:                  -1.626
REMARK UNBOUND:                -1.626
REMARK SMILES CCCCCCCCCCCCCCCCCCCCCCCCCCCCCC(=O)[O-]
REMARK SMILES IDX 16 1 17 2 18 3 19 4 20 5 21 6 22 7 23 8 24 9 25 10 26 11
REMARK SMILES IDX 27 12 28 13 29 14 30 15 31 16 32 17 15 18 14 19 13 20 12 21
REMARK SMILES IDX 11 22 10 23 9 24 8 25 7 26 6 27 5 28 4 29 3 30 2 31 1 32
REMARK H PARENT
REMARK Flexibility Score: inf
ROOT
ATOM      1  C   UNL     1      -3.259  11.560  -6.618  1.00  0.00     0.000 C 
ENDROOT
BRANCH   1   2
ATOM      2  C   UNL     1      -1.992  10.704  -6.437  1.00  0.00     0.000 C 
BRANCH   2   3
ATOM      3  C   UNL     1      -0.972  11.371  -5.496  1.00  0.00     0.000 C 
BRANCH   3   4
ATOM      4  C   UNL     1      -1.007  10.787  -4.068  1.00  0.00     0.000 C 
BRANCH   4   5
ATOM      5  C   UNL     1      -2.418  10.426  -3.575  1.00  0.00     0.000 C 
BRANCH   5   6
ATOM      6  C   UNL     1      -2.524   8.985  -3.049  1.00  0.00     0.000 C 
BRANCH   6   7
ATOM      7  C   UNL     1      -3.988   8.553  -2.811  1.00  0.00     0.000 C 
BRANCH   7   8
ATOM      8  C   UNL     1      -4.184   7.691  -1.548  1.00  0.00     0.000 C 
BRANCH   8   9
ATOM      9  C   UNL     1      -3.910   6.190  -1.739  1.00  0.00     0.000 C 
BRANCH   9  10
ATOM     10  C   UNL     1      -2.488   5.787  -1.320  1.00  0.00     0.000 C 
BRANCH  10  11
ATOM     11  C   UNL     1      -2.046   4.504  -2.040  1.00  0.00     0.000 C 
BRANCH  11  12
ATOM     12  C   UNL     1      -2.845   3.267  -1.574  1.00  0.00     0.000 C 
BRANCH  12  13
ATOM     13  C   UNL     1      -3.989   2.879  -2.530  1.00  0.00     0.006 C 
BRANCH  13  14
ATOM     14  C   UNL     1      -3.891   1.449  -3.081  1.00  0.00     0.053 C 
BRANCH  14  15
ATOM     15  C   UNL     1      -4.253   0.425  -2.047  1.00  0.00     0.041 C 
ATOM     16  O   UNL     1      -4.606   0.783  -0.893  1.00  0.00    -0.550 OA
ATOM     17  O   UNL     1      -4.185  -0.927  -2.358  1.00  0.00    -0.550 OA
ENDBRANCH  14  15
ENDBRANCH  13  14
ENDBRANCH  12  13
ENDBRANCH  11  12
ENDBRANCH  10  11
ENDBRANCH   9  10
ENDBRANCH   8   9
ENDBRANCH   7   8
ENDBRANCH   6   7
ENDBRANCH   5   6
ENDBRANCH   4   5
ENDBRANCH   3   4
ENDBRANCH   2   3
ENDBRANCH   1   2
BRANCH   1  18
ATOM     18  C   UNL     1      -3.178  12.458  -7.861  1.00  0.00     0.000 C 
BRANCH  18  19
ATOM     19  C   UNL     1      -3.643  11.710  -9.120  1.00  0.00     0.000 C 
BRANCH  19  20
ATOM     20  C   UNL     1      -4.205  10.314  -8.809  1.00  0.00     0.000 C 
BRANCH  20  21
ATOM     21  C   UNL     1      -5.743  10.270  -8.829  1.00  0.00     0.000 C 
BRANCH  21  22
ATOM     22  C   UNL     1      -6.326   9.544  -7.600  1.00  0.00     0.000 C 
BRANCH  22  23
ATOM     23  C   UNL     1      -6.736  10.485  -6.451  1.00  0.00     0.000 C 
BRANCH  23  24
ATOM     24  C   UNL     1      -7.076  11.921  -6.898  1.00  0.00    -0.000 C 
BRANCH  24  25
ATOM     25  C   UNL     1      -7.933  12.674  -5.864  1.00  0.00    -0.000 C 
BRANCH  25  26
ATOM     26  C   UNL     1      -9.424  12.297  -5.930  1.00  0.00    -0.000 C 
BRANCH  26  27
ATOM     27  C   UNL     1      -9.834  11.113  -5.035  1.00  0.00    -0.000 C 
BRANCH  27  28
ATOM     28  C   UNL     1     -10.125   9.831  -5.836  1.00  0.00    -0.000 C 
BRANCH  28  29
ATOM     29  C   UNL     1      -9.305   8.622  -5.349  1.00  0.00    -0.000 C 
BRANCH  29  30
ATOM     30  C   UNL     1     -10.117   7.332  -5.137  1.00  0.00    -0.000 C 
BRANCH  30  31
ATOM     31  C   UNL     1      -9.767   6.230  -6.149  1.00  0.00    -0.003 C 
ATOM     32  C   UNL     1      -9.800   6.765  -7.578  1.00  0.00     0.004 C 
ENDBRANCH  30  31
ENDBRANCH  29  30
ENDBRANCH  28  29
ENDBRANCH  27  28
ENDBRANCH  26  27
ENDBRANCH  25  26
ENDBRANCH  24  25
ENDBRANCH  23  24
ENDBRANCH  22  23
ENDBRANCH  21  22
ENDBRANCH  20  21
ENDBRANCH  19  20
ENDBRANCH  18  19
ENDBRANCH   1  18
TORSDOF 28
ENDMDL
MODEL 2
REMARK VINA RESULT:     6.765      9.794     12.020
REMARK INTER + INTRA:          16.214
REMARK INTER:                  18.102
REMARK INTRA:                  -1.888
REMARK UNBOUND:                -1.626
REMARK SMILES CCCCCCCCCCCCCCCCCCCCCCCCCCCCCC(=O)[O-]
REMARK SMILES IDX 16 1 17 2 18 3 19 4 20 5 21 6 22 7 23 8 24 9 25 10 26 11
REMARK SMILES IDX 27 12 28 13 29 14 30 15 31 16 32 17 15 18 14 19 13 20 12 21
REMARK SMILES IDX 11 22 10 23 9 24 8 25 7 26 6 27 5 28 4 29 3 30 2 31 1 32
REMARK H PARENT
REMARK Flexibility Score: inf
ROOT
ATOM      1  C   UNL     1       5.229  10.949   1.309  1.00  0.00     0.000 C 
ENDROOT
BRANCH   1   2
ATOM      2  C   UNL     1       4.789  10.806   2.777  1.00  0.00     0.000 C 
BRANCH   2   3
ATOM      3  C   UNL     1       5.967  10.981   3.754  1.00  0.00     0.000 C 
BRANCH   3   4
ATOM      4  C   UNL     1       5.876  12.288   4.570  1.00  0.00     0.000 C 
BRANCH   4   5
ATOM      5  C   UNL     1       7.213  13.035   4.704  1.00  0.00     0.000 C 
BRANCH   5   6
ATOM      6  C   UNL     1       8.434  12.101   4.677  1.00  0.00     0.000 C 
BRANCH   6   7
ATOM      7  C   UNL     1       9.246  12.157   5.990  1.00  0.00     0.000 C 
BRANCH   7   8
ATOM      8  C   UNL     1       8.547  11.472   7.182  1.00  0.00     0.000 C 
BRANCH   8   9
ATOM      9  C   UNL     1       7.897  12.433   8.191  1.00  0.00     0.000 C 
BRANCH   9  10
ATOM     10  C   UNL     1       6.547  11.921   8.716  1.00  0.00     0.000 C 
BRANCH  10  11
ATOM     11  C   UNL     1       5.888  10.974   7.703  1.00  0.00     0.000 C 
BRANCH  11  12
ATOM     12  C   UNL     1       5.293   9.719   8.377  1.00  0.00     0.000 C 
BRANCH  12  13
ATOM     13  C   UNL     1       3.898   9.338   7.845  1.00  0.00     0.006 C 
BRANCH  13  14
ATOM     14  C   UNL     1       2.870  10.477   7.902  1.00  0.00     0.053 C 
BRANCH  14  15
ATOM     15  C   UNL     1       2.734  11.038   9.286  1.00  0.00     0.041 C 
ATOM     16  O   UNL     1       2.801  12.280   9.480  1.00  0.00    -0.550 OA
ATOM     17  O   UNL     1       2.548  10.183  10.365  1.00  0.00    -0.550 OA
ENDBRANCH  14  15
ENDBRANCH  13  14
ENDBRANCH  12  13
ENDBRANCH  11  12
ENDBRANCH  10  11
ENDBRANCH   9  10
ENDBRANCH   8   9
ENDBRANCH   7   8
ENDBRANCH   6   7
ENDBRANCH   5   6
ENDBRANCH   4   5
ENDBRANCH   3   4
ENDBRANCH   2   3
ENDBRANCH   1   2
BRANCH   1  18
ATOM     18  C   UNL     1       4.064  10.728   0.332  1.00  0.00     0.000 C 
BRANCH  18  19
ATOM     19  C   UNL     1       4.185  11.644  -0.895  1.00  0.00     0.000 C 
BRANCH  19  20
ATOM     20  C   UNL     1       2.827  12.189  -1.367  1.00  0.00     0.000 C 
BRANCH  20  21
ATOM     21  C   UNL     1       2.648  12.108  -2.893  1.00  0.00     0.000 C 
BRANCH  21  22
ATOM     22  C   UNL     1       1.177  12.276  -3.323  1.00  0.00     0.000 C 
BRANCH  22  23
ATOM     23  C   UNL     1       0.856  11.685  -4.709  1.00  0.00     0.000 C 
BRANCH  23  24
ATOM     24  C   UNL     1      -0.499  10.952  -4.787  1.00  0.00    -0.000 C 
BRANCH  24  25
ATOM     25  C   UNL     1      -1.276  11.285  -6.073  1.00  0.00    -0.000 C 
BRANCH  25  26
ATOM     26  C   UNL     1      -2.803  11.267  -5.874  1.00  0.00    -0.000 C 
BRANCH  26  27
ATOM     27  C   UNL     1      -3.609  11.964  -6.987  1.00  0.00    -0.000 C 
BRANCH  27  28
ATOM     28  C   UNL     1      -3.651  11.150  -8.292  1.00  0.00    -0.000 C 
BRANCH  28  29
ATOM     29  C   UNL     1      -5.059  10.620  -8.622  1.00  0.00    -0.000 C 
BRANCH  29  30
ATOM     30  C   UNL     1      -5.499   9.395  -7.800  1.00  0.00    -0.000 C 
BRANCH  30  31
ATOM     31  C   UNL     1      -7.026   9.254  -7.703  1.00  0.00    -0.003 C 
ATOM     32  C   UNL     1      -7.531   9.675  -6.326  1.00  0.00     0.004 C 
ENDBRANCH  30  31
ENDBRANCH  29  30
ENDBRANCH  28  29
ENDBRANCH  27  28
ENDBRANCH  26  27
ENDBRANCH  25  26
ENDBRANCH  24  25
ENDBRANCH  23  24
ENDBRANCH  22  23
ENDBRANCH  21  22
ENDBRANCH  20  21
ENDBRANCH  19  20
ENDBRANCH  18  19
ENDBRANCH   1  18
TORSDOF 28
ENDMDL
MODEL 3
REMARK VINA RESULT:     7.411      8.468     10.080
REMARK INTER + INTRA:          17.918
REMARK INTER:                  19.100
REMARK INTRA:                  -1.183
REMARK UNBOUND:                -1.626
REMARK SMILES CCCCCCCCCCCCCCCCCCCCCCCCCCCCCC(=O)[O-]
REMARK SMILES IDX 16 1 17 2 18 3 19 4 20 5 21 6 22 7 23 8 24 9 25 10 26 11
REMARK SMILES IDX 27 12 28 13 29 14 30 15 31 16 32 17 15 18 14 19 13 20 12 21
REMARK SMILES IDX 11 22 10 23 9 24 8 25 7 26 6 27 5 28 4 29 3 30 2 31 1 32
REMARK H PARENT
REMARK Flexibility Score: inf
ROOT
ATOM      1  C   UNL     1       2.250  12.178  -1.829  1.00  0.00     0.000 C 
ENDROOT
BRANCH   1   2
ATOM      2  C   UNL     1       3.649  11.649  -1.467  1.00  0.00     0.000 C 
BRANCH   2   3
ATOM      3  C   UNL     1       4.078  12.069  -0.049  1.00  0.00     0.000 C 
BRANCH   3   4
ATOM      4  C   UNL     1       4.435  10.865   0.846  1.00  0.00     0.000 C 
BRANCH   4   5
ATOM      5  C   UNL     1       5.475  11.181   1.934  1.00  0.00     0.000 C 
BRANCH   5   6
ATOM      6  C   UNL     1       4.995  10.827   3.351  1.00  0.00     0.000 C 
BRANCH   6   7
ATOM      7  C   UNL     1       5.361  11.915   4.385  1.00  0.00     0.000 C 
BRANCH   7   8
ATOM      8  C   UNL     1       6.880  12.097   4.582  1.00  0.00     0.000 C 
BRANCH   8   9
ATOM      9  C   UNL     1       7.313  12.412   6.024  1.00  0.00     0.000 C 
BRANCH   9  10
ATOM     10  C   UNL     1       6.277  11.964   7.067  1.00  0.00     0.000 C 
BRANCH  10  11
ATOM     11  C   UNL     1       6.373  10.453   7.323  1.00  0.00     0.000 C 
BRANCH  11  12
ATOM     12  C   UNL     1       5.498  10.004   8.513  1.00  0.00     0.000 C 
BRANCH  12  13
ATOM     13  C   UNL     1       4.116   9.470   8.093  1.00  0.00     0.006 C 
BRANCH  13  14
ATOM     14  C   UNL     1       3.016  10.541   8.041  1.00  0.00     0.053 C 
BRANCH  14  15
ATOM     15  C   UNL     1       2.539  10.919   9.411  1.00  0.00     0.041 C 
ATOM     16  O   UNL     1       2.783  10.176  10.398  1.00  0.00    -0.550 OA
ATOM     17  O   UNL     1       1.811  12.088   9.593  1.00  0.00    -0.550 OA
ENDBRANCH  14  15
ENDBRANCH  13  14
ENDBRANCH  12  13
ENDBRANCH  11  12
ENDBRANCH  10  11
ENDBRANCH   9  10
ENDBRANCH   8   9
ENDBRANCH   7   8
ENDBRANCH   6   7
ENDBRANCH   5   6
ENDBRANCH   4   5
ENDBRANCH   3   4
ENDBRANCH   2   3
ENDBRANCH   1   2
BRANCH   1  18
ATOM     18  C   UNL     1       1.946  12.032  -3.328  1.00  0.00     0.000 C 
BRANCH  18  19
ATOM     19  C   UNL     1       0.463  11.713  -3.567  1.00  0.00     0.000 C 
BRANCH  19  20
ATOM     20  C   UNL     1       0.185  11.205  -4.991  1.00  0.00     0.000 C 
BRANCH  20  21
ATOM     21  C   UNL     1      -1.302  10.889  -5.234  1.00  0.00     0.000 C 
BRANCH  21  22
ATOM     22  C   UNL     1      -1.774  11.326  -6.636  1.00  0.00     0.000 C 
BRANCH  22  23
ATOM     23  C   UNL     1      -3.283  11.623  -6.725  1.00  0.00     0.000 C 
BRANCH  23  24
ATOM     24  C   UNL     1      -3.801  11.846  -8.161  1.00  0.00    -0.000 C 
BRANCH  24  25
ATOM     25  C   UNL     1      -4.246  10.536  -8.836  1.00  0.00    -0.000 C 
BRANCH  25  26
ATOM     26  C   UNL     1      -5.766  10.304  -8.753  1.00  0.00    -0.000 C 
BRANCH  26  27
ATOM     27  C   UNL     1      -6.219   9.380  -7.606  1.00  0.00    -0.000 C 
BRANCH  27  28
ATOM     28  C   UNL     1      -7.346   9.992  -6.756  1.00  0.00    -0.000 C 
BRANCH  28  29
ATOM     29  C   UNL     1      -7.867   9.032  -5.671  1.00  0.00    -0.000 C 
BRANCH  29  30
ATOM     30  C   UNL     1      -9.398   8.886  -5.614  1.00  0.00    -0.000 C 
BRANCH  30  31
ATOM     31  C   UNL     1      -9.859   7.423  -5.534  1.00  0.00    -0.003 C 
ATOM     32  C   UNL     1      -9.665   6.710  -6.869  1.00  0.00     0.004 C 
ENDBRANCH  30  31
ENDBRANCH  29  30
ENDBRANCH  28  29
ENDBRANCH  27  28
ENDBRANCH  26  27
ENDBRANCH  25  26
ENDBRANCH  24  25
ENDBRANCH  23  24
ENDBRANCH  22  23
ENDBRANCH  21  22
ENDBRANCH  20  21
ENDBRANCH  19  20
ENDBRANCH  18  19
ENDBRANCH   1  18
TORSDOF 28
ENDMDL
MODEL 4
REMARK VINA RESULT:     7.741      2.613      7.752
REMARK INTER + INTRA:          18.787
REMARK INTER:                  19.567
REMARK INTRA:                  -0.780
REMARK UNBOUND:                -1.626
REMARK SMILES CCCCCCCCCCCCCCCCCCCCCCCCCCCCCC(=O)[O-]
REMARK SMILES IDX 16 1 17 2 18 3 19 4 20 5 21 6 22 7 23 8 24 9 25 10 26 11
REMARK SMILES IDX 27 12 28 13 29 14 30 15 31 16 32 17 15 18 14 19 13 20 12 21
REMARK SMILES IDX 11 22 10 23 9 24 8 25 7 26 6 27 5 28 4 29 3 30 2 31 1 32
REMARK H PARENT
REMARK Flexibility Score: inf
ROOT
ATOM      1  C   UNL     1      -2.389  11.113  -6.736  1.00  0.00     0.000 C 
ENDROOT
BRANCH   1   2
ATOM      2  C   UNL     1      -3.127  12.451  -6.554  1.00  0.00     0.000 C 
BRANCH   2   3
ATOM      3  C   UNL     1      -3.723  12.969  -7.876  1.00  0.00     0.000 C 
BRANCH   3   4
ATOM      4  C   UNL     1      -3.362  12.078  -9.082  1.00  0.00     0.000 C 
BRANCH   4   5
ATOM      5  C   UNL     1      -3.994  10.677  -9.035  1.00  0.00     0.000 C 
BRANCH   5   6
ATOM      6  C   UNL     1      -5.522  10.708  -8.866  1.00  0.00     0.000 C 
BRANCH   6   7
ATOM      7  C   UNL     1      -6.081   9.371  -8.331  1.00  0.00     0.000 C 
BRANCH   7   8
ATOM      8  C   UNL     1      -6.189   9.313  -6.794  1.00  0.00     0.000 C 
BRANCH   8   9
ATOM      9  C   UNL     1      -6.279  10.682  -6.099  1.00  0.00     0.000 C 
BRANCH   9  10
ATOM     10  C   UNL     1      -7.532  11.473  -6.504  1.00  0.00     0.000 C 
BRANCH  10  11
ATOM     11  C   UNL     1      -8.779  10.576  -6.483  1.00  0.00     0.000 C 
BRANCH  11  12
ATOM     12  C   UNL     1      -8.845   9.696  -5.216  1.00  0.00     0.000 C 
BRANCH  12  13
ATOM     13  C   UNL     1     -10.123   8.839  -5.130  1.00  0.00     0.006 C 
BRANCH  13  14
ATOM     14  C   UNL     1      -9.865   7.325  -5.101  1.00  0.00     0.053 C 
BRANCH  14  15
ATOM     15  C   UNL     1      -9.882   6.728  -6.477  1.00  0.00     0.041 C 
ATOM     16  O   UNL     1     -10.125   7.448  -7.480  1.00  0.00    -0.550 OA
ATOM     17  O   UNL     1      -9.643   5.371  -6.646  1.00  0.00    -0.550 OA
ENDBRANCH  14  15
ENDBRANCH  13  14
ENDBRANCH  12  13
ENDBRANCH  11  12
ENDBRANCH  10  11
ENDBRANCH   9  10
ENDBRANCH   8   9
ENDBRANCH   7   8
ENDBRANCH   6   7
ENDBRANCH   5   6
ENDBRANCH   4   5
ENDBRANCH   3   4
ENDBRANCH   2   3
ENDBRANCH   1   2
BRANCH   1  18
ATOM     18  C   UNL     1      -0.936  11.182  -6.240  1.00  0.00     0.000 C 
BRANCH  18  19
ATOM     19  C   UNL     1      -0.876  11.327  -4.712  1.00  0.00     0.000 C 
BRANCH  19  20
ATOM     20  C   UNL     1      -1.357  10.067  -3.975  1.00  0.00     0.000 C 
BRANCH  20  21
ATOM     21  C   UNL     1      -2.817  10.174  -3.499  1.00  0.00     0.000 C 
BRANCH  21  22
ATOM     22  C   UNL     1      -3.257   8.947  -2.674  1.00  0.00     0.000 C 
BRANCH  22  23
ATOM     23  C   UNL     1      -4.738   8.565  -2.858  1.00  0.00     0.000 C 
BRANCH  23  24
ATOM     24  C   UNL     1      -5.214   7.416  -1.947  1.00  0.00    -0.000 C 
BRANCH  24  25
ATOM     25  C   UNL     1      -4.071   6.819  -1.105  1.00  0.00    -0.000 C 
BRANCH  25  26
ATOM     26  C   UNL     1      -3.347   5.658  -1.812  1.00  0.00    -0.000 C 
BRANCH  26  27
ATOM     27  C   UNL     1      -1.851   5.524  -1.471  1.00  0.00    -0.000 C 
BRANCH  27  28
ATOM     28  C   UNL     1      -1.225   4.233  -2.028  1.00  0.00    -0.000 C 
BRANCH  28  29
ATOM     29  C   UNL     1      -1.970   2.964  -1.575  1.00  0.00    -0.000 C 
BRANCH  29  30
ATOM     30  C   UNL     1      -3.344   2.749  -2.233  1.00  0.00    -0.000 C 
BRANCH  30  31
ATOM     31  C   UNL     1      -3.967   1.387  -1.892  1.00  0.00    -0.003 C 
ATOM     32  C   UNL     1      -4.330   0.616  -3.159  1.00  0.00     0.004 C 
ENDBRANCH  30  31
ENDBRANCH  29  30
ENDBRANCH  28  29
ENDBRANCH  27  28
ENDBRANCH  26  27
ENDBRANCH  25  26
ENDBRANCH  24  25
ENDBRANCH  23  24
ENDBRANCH  22  23
ENDBRANCH  21  22
ENDBRANCH  20  21
ENDBRANCH  19  20
ENDBRANCH  18  19
ENDBRANCH   1  18
TORSDOF 28
ENDMDL
MODEL 5
REMARK VINA RESULT:     7.969      9.039     10.944
REMARK INTER + INTRA:          19.388
REMARK INTER:                  20.571
REMARK INTRA:                  -1.183
REMARK UNBOUND:                -1.626
REMARK SMILES CCCCCCCCCCCCCCCCCCCCCCCCCCCCCC(=O)[O-]
REMARK SMILES IDX 16 1 17 2 18 3 19 4 20 5 21 6 22 7 23 8 24 9 25 10 26 11
REMARK SMILES IDX 27 12 28 13 29 14 30 15 31 16 32 17 15 18 14 19 13 20 12 21
REMARK SMILES IDX 11 22 10 23 9 24 8 25 7 26 6 27 5 28 4 29 3 30 2 31 1 32
REMARK H PARENT
REMARK Flexibility Score: inf
ROOT
ATOM      1  C   UNL     1       3.664  11.951  -2.048  1.00  0.00     0.000 C 
ENDROOT
BRANCH   1   2
ATOM      2  C   UNL     1       3.744  12.114  -0.520  1.00  0.00     0.000 C 
BRANCH   2   3
ATOM      3  C   UNL     1       4.171  10.810   0.180  1.00  0.00     0.000 C 
BRANCH   3   4
ATOM      4  C   UNL     1       5.285  11.032   1.224  1.00  0.00     0.000 C 
BRANCH   4   5
ATOM      5  C   UNL     1       4.813  10.895   2.681  1.00  0.00     0.000 C 
BRANCH   5   6
ATOM      6  C   UNL     1       5.965  10.942   3.698  1.00  0.00     0.000 C 
BRANCH   6   7
ATOM      7  C   UNL     1       5.952  12.236   4.541  1.00  0.00     0.000 C 
BRANCH   7   8
ATOM      8  C   UNL     1       6.680  12.102   5.894  1.00  0.00     0.000 C 
BRANCH   8   9
ATOM      9  C   UNL     1       7.810  13.120   6.125  1.00  0.00     0.000 C 
BRANCH   9  10
ATOM     10  C   UNL     1       8.380  13.062   7.550  1.00  0.00     0.000 C 
BRANCH  10  11
ATOM     11  C   UNL     1       7.524  12.157   8.448  1.00  0.00     0.000 C 
BRANCH  11  12
ATOM     12  C   UNL     1       6.546  12.963   9.331  1.00  0.00     0.000 C 
BRANCH  12  13
ATOM     13  C   UNL     1       5.126  12.369   9.376  1.00  0.00     0.006 C 
BRANCH  13  14
ATOM     14  C   UNL     1       4.802  11.423   8.211  1.00  0.00     0.053 C 
BRANCH  14  15
ATOM     15  C   UNL     1       3.819  10.362   8.608  1.00  0.00     0.041 C 
ATOM     16  O   UNL     1       3.122   9.780   7.736  1.00  0.00    -0.550 OA
ATOM     17  O   UNL     1       3.662  10.030   9.947  1.00  0.00    -0.550 OA
ENDBRANCH  14  15
ENDBRANCH  13  14
ENDBRANCH  12  13
ENDBRANCH  11  12
ENDBRANCH  10  11
ENDBRANCH   9  10
ENDBRANCH   8   9
ENDBRANCH   7   8
ENDBRANCH   6   7
ENDBRANCH   5   6
ENDBRANCH   4   5
ENDBRANCH   3   4
ENDBRANCH   2   3
ENDBRANCH   1   2
BRANCH   1  18
ATOM     18  C   UNL     1       2.239  12.167  -2.579  1.00  0.00     0.000 C 
BRANCH  18  19
ATOM     19  C   UNL     1       2.194  12.061  -4.111  1.00  0.00     0.000 C 
BRANCH  19  20
ATOM     20  C   UNL     1       0.763  12.112  -4.669  1.00  0.00     0.000 C 
BRANCH  20  21
ATOM     21  C   UNL     1      -0.160  11.046  -4.053  1.00  0.00     0.000 C 
BRANCH  21  22
ATOM     22  C   UNL     1      -1.210  10.526  -5.055  1.00  0.00     0.000 C 
BRANCH  22  23
ATOM     23  C   UNL     1      -1.579  11.537  -6.158  1.00  0.00     0.000 C 
BRANCH  23  24
ATOM     24  C   UNL     1      -3.086  11.607  -6.475  1.00  0.00    -0.000 C 
BRANCH  24  25
ATOM     25  C   UNL     1      -3.369  12.170  -7.879  1.00  0.00    -0.000 C 
BRANCH  25  26
ATOM     26  C   UNL     1      -3.927  11.112  -8.850  1.00  0.00    -0.000 C 
BRANCH  26  27
ATOM     27  C   UNL     1      -5.461  10.975  -8.846  1.00  0.00    -0.000 C 
BRANCH  27  28
ATOM     28  C   UNL     1      -5.929   9.511  -8.919  1.00  0.00    -0.000 C 
BRANCH  28  29
ATOM     29  C   UNL     1      -6.665   9.053  -7.647  1.00  0.00    -0.000 C 
BRANCH  29  30
ATOM     30  C   UNL     1      -6.769  10.117  -6.540  1.00  0.00    -0.000 C 
BRANCH  30  31
ATOM     31  C   UNL     1      -8.149  10.789  -6.482  1.00  0.00    -0.003 C 
ATOM     32  C   UNL     1      -9.040  10.127  -5.434  1.00  0.00     0.004 C 
ENDBRANCH  30  31
ENDBRANCH  29  30
ENDBRANCH  28  29
ENDBRANCH  27  28
ENDBRANCH  26  27
ENDBRANCH  25  26
ENDBRANCH  24  25
ENDBRANCH  23  24
ENDBRANCH  22  23
ENDBRANCH  21  22
ENDBRANCH  20  21
ENDBRANCH  19  20
ENDBRANCH  18  19
ENDBRANCH   1  18
TORSDOF 28
ENDMDL
MODEL 6
REMARK VINA RESULT:     8.202     10.178     15.209
REMARK INTER + INTRA:          20.003
REMARK INTER:                  21.293
REMARK INTRA:                  -1.290
REMARK UNBOUND:                -1.626
REMARK SMILES CCCCCCCCCCCCCCCCCCCCCCCCCCCCCC(=O)[O-]
REMARK SMILES IDX 16 1 17 2 18 3 19 4 20 5 21 6 22 7 23 8 24 9 25 10 26 11
REMARK SMILES IDX 27 12 28 13 29 14 30 15 31 16 32 17 15 18 14 19 13 20 12 21
REMARK SMILES IDX 11 22 10 23 9 24 8 25 7 26 6 27 5 28 4 29 3 30 2 31 1 32
REMARK H PARENT
REMARK Flexibility Score: inf
ROOT
ATOM      1  C   UNL     1       5.231  10.846   3.009  1.00  0.00     0.000 C 
ENDROOT
BRANCH   1   2
ATOM      2  C   UNL     1       4.541  11.642   1.887  1.00  0.00     0.000 C 
BRANCH   2   3
ATOM      3  C   UNL     1       4.509  10.864   0.559  1.00  0.00     0.000 C 
BRANCH   3   4
ATOM      4  C   UNL     1       3.592  11.519  -0.494  1.00  0.00     0.000 C 
BRANCH   4   5
ATOM      5  C   UNL     1       4.347  12.286  -1.591  1.00  0.00     0.000 C 
BRANCH   5   6
ATOM      6  C   UNL     1       3.547  12.421  -2.897  1.00  0.00     0.000 C 
BRANCH   6   7
ATOM      7  C   UNL     1       2.068  12.008  -2.725  1.00  0.00     0.000 C 
BRANCH   7   8
ATOM      8  C   UNL     1       1.266  12.008  -4.042  1.00  0.00     0.000 C 
BRANCH   8   9
ATOM      9  C   UNL     1      -0.074  11.257  -3.984  1.00  0.00     0.000 C 
BRANCH   9  10
ATOM     10  C   UNL     1      -0.644  10.950  -5.378  1.00  0.00     0.000 C 
BRANCH  10  11
ATOM     11  C   UNL     1      -2.130  10.572  -5.293  1.00  0.00     0.000 C 
BRANCH  11  12
ATOM     12  C   UNL     1      -3.029  11.547  -6.082  1.00  0.00     0.000 C 
BRANCH  12  13
ATOM     13  C   UNL     1      -2.918  11.385  -7.610  1.00  0.00     0.006 C 
BRANCH  13  14
ATOM     14  C   UNL     1      -4.257  11.115  -8.313  1.00  0.00     0.053 C 
BRANCH  14  15
ATOM     15  C   UNL     1      -5.303  10.628  -7.356  1.00  0.00     0.041 C 
ATOM     16  O   UNL     1      -5.859   9.512  -7.532  1.00  0.00    -0.550 OA
ATOM     17  O   UNL     1      -5.674  11.417  -6.275  1.00  0.00    -0.550 OA
ENDBRANCH  14  15
ENDBRANCH  13  14
ENDBRANCH  12  13
ENDBRANCH  11  12
ENDBRANCH  10  11
ENDBRANCH   9  10
ENDBRANCH   8   9
ENDBRANCH   7   8
ENDBRANCH   6   7
ENDBRANCH   5   6
ENDBRANCH   4   5
ENDBRANCH   3   4
ENDBRANCH   2   3
ENDBRANCH   1   2
BRANCH   1  18
ATOM     18  C   UNL     1       5.319  11.646   4.317  1.00  0.00     0.000 C 
BRANCH  18  19
ATOM     19  C   UNL     1       6.603  12.487   4.369  1.00  0.00     0.000 C 
BRANCH  19  20
ATOM     20  C   UNL     1       7.862  11.674   4.029  1.00  0.00     0.000 C 
BRANCH  20  21
ATOM     21  C   UNL     1       9.116  12.174   4.769  1.00  0.00     0.000 C 
BRANCH  21  22
ATOM     22  C   UNL     1       9.199  11.640   6.213  1.00  0.00     0.000 C 
BRANCH  22  23
ATOM     23  C   UNL     1       9.786  12.646   7.221  1.00  0.00     0.000 C 
BRANCH  23  24
ATOM     24  C   UNL     1       8.913  12.872   8.472  1.00  0.00    -0.000 C 
BRANCH  24  25
ATOM     25  C   UNL     1       7.430  13.095   8.123  1.00  0.00    -0.000 C 
BRANCH  25  26
ATOM     26  C   UNL     1       6.496  12.064   8.784  1.00  0.00    -0.000 C 
BRANCH  26  27
ATOM     27  C   UNL     1       5.252  11.692   7.956  1.00  0.00    -0.000 C 
BRANCH  27  28
ATOM     28  C   UNL     1       5.194  10.194   7.606  1.00  0.00    -0.000 C 
BRANCH  28  29
ATOM     29  C   UNL     1       3.940   9.498   8.165  1.00  0.00    -0.000 C 
BRANCH  29  30
ATOM     30  C   UNL     1       2.701  10.402   8.299  1.00  0.00    -0.000 C 
BRANCH  30  31
ATOM     31  C   UNL     1       2.526  10.975   9.713  1.00  0.00    -0.003 C 
ATOM     32  C   UNL     1       1.968  12.395   9.666  1.00  0.00     0.004 C 
ENDBRANCH  30  31
ENDBRANCH  29  30
ENDBRANCH  28  29
ENDBRANCH  27  28
ENDBRANCH  26  27
ENDBRANCH  25  26
ENDBRANCH  24  25
ENDBRANCH  23  24
ENDBRANCH  22  23
ENDBRANCH  21  22
ENDBRANCH  20  21
ENDBRANCH  19  20
ENDBRANCH  18  19
ENDBRANCH   1  18
TORSDOF 28
ENDMDL
MODEL 7
REMARK VINA RESULT:     9.213      6.955      8.423
REMARK INTER + INTRA:          22.667
REMARK INTER:                  23.549
REMARK INTRA:                  -0.882
REMARK UNBOUND:                -1.626
REMARK SMILES CCCCCCCCCCCCCCCCCCCCCCCCCCCCCC(=O)[O-]
REMARK SMILES IDX 16 1 17 2 18 3 19 4 20 5 21 6 22 7 23 8 24 9 25 10 26 11
REMARK SMILES IDX 27 12 28 13 29 14 30 15 31 16 32 17 15 18 14 19 13 20 12 21
REMARK SMILES IDX 11 22 10 23 9 24 8 25 7 26 6 27 5 28 4 29 3 30 2 31 1 32
REMARK H PARENT
REMARK Flexibility Score: inf
ROOT
ATOM      1  C   UNL     1      -0.513  10.500  -3.773  1.00  0.00     0.000 C 
ENDROOT
BRANCH   1   2
ATOM      2  C   UNL     1       0.396  11.610  -4.332  1.00  0.00     0.000 C 
BRANCH   2   3
ATOM      3  C   UNL     1       1.251  12.266  -3.232  1.00  0.00     0.000 C 
BRANCH   3   4
ATOM      4  C   UNL     1       2.755  11.956  -3.382  1.00  0.00     0.000 C 
BRANCH   4   5
ATOM      5  C   UNL     1       3.603  12.370  -2.168  1.00  0.00     0.000 C 
BRANCH   5   6
ATOM      6  C   UNL     1       3.611  11.317  -1.048  1.00  0.00     0.000 C 
BRANCH   6   7
ATOM      7  C   UNL     1       4.230  11.856   0.261  1.00  0.00     0.000 C 
BRANCH   7   8
ATOM      8  C   UNL     1       4.372  10.789   1.366  1.00  0.00     0.000 C 
BRANCH   8   9
ATOM      9  C   UNL     1       5.520  11.035   2.359  1.00  0.00     0.000 C 
BRANCH   9  10
ATOM     10  C   UNL     1       5.039  11.639   3.686  1.00  0.00     0.000 C 
BRANCH  10  11
ATOM     11  C   UNL     1       6.197  11.757   4.688  1.00  0.00     0.000 C 
BRANCH  11  12
ATOM     12  C   UNL     1       6.469  10.429   5.427  1.00  0.00     0.000 C 
BRANCH  12  13
ATOM     13  C   UNL     1       6.216  10.507   6.945  1.00  0.00     0.006 C 
BRANCH  13  14
ATOM     14  C   UNL     1       4.841  11.076   7.325  1.00  0.00     0.053 C 
BRANCH  14  15
ATOM     15  C   UNL     1       3.842   9.991   7.594  1.00  0.00     0.041 C 
ATOM     16  O   UNL     1       4.221   8.861   7.999  1.00  0.00    -0.550 OA
ATOM     17  O   UNL     1       2.490  10.226   7.382  1.00  0.00    -0.550 OA
ENDBRANCH  14  15
ENDBRANCH  13  14
ENDBRANCH  12  13
ENDBRANCH  11  12
ENDBRANCH  10  11
ENDBRANCH   9  10
ENDBRANCH   8   9
ENDBRANCH   7   8
ENDBRANCH   6   7
ENDBRANCH   5   6
ENDBRANCH   4   5
ENDBRANCH   3   4
ENDBRANCH   2   3
ENDBRANCH   1   2
BRANCH   1  18
ATOM     18  C   UNL     1      -1.903  10.508  -4.426  1.00  0.00     0.000 C 
BRANCH  18  19
ATOM     19  C   UNL     1      -1.883  11.249  -5.772  1.00  0.00     0.000 C 
BRANCH  19  20
ATOM     20  C   UNL     1      -3.284  11.668  -6.242  1.00  0.00     0.000 C 
BRANCH  20  21
ATOM     21  C   UNL     1      -3.379  11.833  -7.770  1.00  0.00     0.000 C 
BRANCH  21  22
ATOM     22  C   UNL     1      -4.010  10.605  -8.456  1.00  0.00     0.000 C 
BRANCH  22  23
ATOM     23  C   UNL     1      -4.926   9.774  -7.537  1.00  0.00     0.000 C 
BRANCH  23  24
ATOM     24  C   UNL     1      -5.758  10.612  -6.546  1.00  0.00    -0.000 C 
BRANCH  24  25
ATOM     25  C   UNL     1      -7.016  11.218  -7.196  1.00  0.00    -0.000 C 
BRANCH  25  26
ATOM     26  C   UNL     1      -7.842  12.077  -6.221  1.00  0.00    -0.000 C 
BRANCH  26  27
ATOM     27  C   UNL     1      -9.368  11.930  -6.361  1.00  0.00    -0.000 C 
BRANCH  27  28
ATOM     28  C   UNL     1      -9.976  10.985  -5.309  1.00  0.00    -0.000 C 
BRANCH  28  29
ATOM     29  C   UNL     1     -10.085   9.531  -5.803  1.00  0.00    -0.000 C 
BRANCH  29  30
ATOM     30  C   UNL     1      -9.128   8.540  -5.117  1.00  0.00    -0.000 C 
BRANCH  30  31
ATOM     31  C   UNL     1      -8.952   7.232  -5.903  1.00  0.00    -0.003 C 
ATOM     32  C   UNL     1      -9.993   7.114  -7.014  1.00  0.00     0.004 C 
ENDBRANCH  30  31
ENDBRANCH  29  30
ENDBRANCH  28  29
ENDBRANCH  27  28
ENDBRANCH  26  27
ENDBRANCH  25  26
ENDBRANCH  24  25
ENDBRANCH  23  24
ENDBRANCH  22  23
ENDBRANCH  21  22
ENDBRANCH  20  21
ENDBRANCH  19  20
ENDBRANCH  18  19
ENDBRANCH   1  18
TORSDOF 28
ENDMDL
