MODEL 1
REMARK VINA RESULT:    -7.969      0.000      0.000
REMARK INTER + INTRA:          -9.816
REMARK INTER:                  -9.600
REMARK INTRA:                  -0.216
REMARK UNBOUND:                -0.216
REMARK SMILES O=c1c(O)c(-c2ccc(O)c(O)c2)oc2cc(O)cc(O)c12
REMARK SMILES IDX 5 1 3 2 2 3 1 4 22 5 20 6 19 7 17 8 16 9 15 10 14 11 6 12
REMARK SMILES IDX 7 13 8 14 9 15 13 16 11 17 10 18 12 20 4 22 21 24 18 26
REMARK H PARENT 10 19 12 21 4 23 21 25 18 27
REMARK Flexibility Score: inf
ROOT
ATOM      1  C   UNL     1       6.182  31.374   1.672  1.00  0.00     0.180 A 
ATOM      2  C   UNL     1       4.944  31.192   2.313  1.00  0.00     0.208 A 
ATOM      3  C   UNL     1       4.116  30.134   1.907  1.00  0.00     0.238 A 
ATOM      4  O   UNL     1       3.034  29.942   2.520  1.00  0.00    -0.285 OA
ATOM      5  C   UNL     1       4.528  29.281   0.854  1.00  0.00     0.111 A 
ATOM      6  C   UNL     1       3.751  28.202   0.333  1.00  0.00     0.134 A 
ATOM      7  C   UNL     1       4.313  27.343  -0.619  1.00  0.00     0.093 A 
ATOM      8  C   UNL     1       5.599  27.564  -1.118  1.00  0.00     0.123 A 
ATOM      9  C   UNL     1       6.342  28.649  -0.660  1.00  0.00     0.094 A 
ATOM     10  C   UNL     1       5.823  29.501   0.317  1.00  0.00     0.146 A 
ATOM     11  O   UNL     1       6.569  30.518   0.733  1.00  0.00    -0.452 OA
ENDROOT
BRANCH   1  12
ATOM     12  C   UNL     1       7.098  32.481   2.028  1.00  0.00     0.025 A 
ATOM     13  C   UNL     1       6.761  33.821   1.771  1.00  0.00     0.016 A 
ATOM     14  C   UNL     1       7.652  34.848   2.093  1.00  0.00     0.051 A 
ATOM     15  C   UNL     1       8.894  34.555   2.664  1.00  0.00     0.157 A 
ATOM     16  C   UNL     1       8.355  32.187   2.582  1.00  0.00     0.062 A 
ATOM     17  C   UNL     1       9.250  33.217   2.907  1.00  0.00     0.158 A 
BRANCH  15  18
ATOM     18  O   UNL     1       9.761  35.601   2.976  1.00  0.00    -0.504 OA
ATOM     19  H   UNL     1       9.520  36.569   2.805  1.00  0.00     0.293 HD
ENDBRANCH  15  18
BRANCH  17  20
ATOM     20  O   UNL     1      10.490  32.917   3.469  1.00  0.00    -0.504 OA
ATOM     21  H   UNL     1      10.646  32.967   4.468  1.00  0.00     0.293 HD
ENDBRANCH  17  20
ENDBRANCH   1  12
BRANCH   2  22
ATOM     22  O   UNL     1       4.567  32.032   3.365  1.00  0.00    -0.502 OA
ATOM     23  H   UNL     1       3.835  32.726   3.270  1.00  0.00     0.293 HD
ENDBRANCH   2  22
BRANCH   6  24
ATOM     24  O   UNL     1       2.425  27.949   0.696  1.00  0.00    -0.507 OA
ATOM     25  H   UNL     1       1.710  28.656   0.789  1.00  0.00     0.293 HD
ENDBRANCH   6  24
BRANCH   8  26
ATOM     26  O   UNL     1       6.145  26.713  -2.078  1.00  0.00    -0.508 OA
ATOM     27  H   UNL     1       6.759  27.060  -2.805  1.00  0.00     0.293 HD
ENDBRANCH   8  26
TORSDOF 6
ENDMDL
MODEL 2
REMARK VINA RESULT:    -7.936      4.389      5.848
REMARK INTER + INTRA:          -9.775
REMARK INTER:                  -9.652
REMARK INTRA:                  -0.123
REMARK UNBOUND:                -0.216
REMARK SMILES O=c1c(O)c(-c2ccc(O)c(O)c2)oc2cc(O)cc(O)c12
REMARK SMILES IDX 5 1 3 2 2 3 1 4 22 5 20 6 19 7 17 8 16 9 15 10 14 11 6 12
REMARK SMILES IDX 7 13 8 14 9 15 13 16 11 17 10 18 12 20 4 22 21 24 18 26
REMARK H PARENT 10 19 12 21 4 23 21 25 18 27
REMARK Flexibility Score: inf
ROOT
ATOM      1  C   UNL     1       2.024  31.033   1.672  1.00  0.00     0.180 A 
ATOM      2  C   UNL     1       2.826  29.919   1.974  1.00  0.00     0.208 A 
ATOM      3  C   UNL     1       3.145  29.011   0.952  1.00  0.00     0.238 A 
ATOM      4  O   UNL     1       3.907  28.045   1.216  1.00  0.00    -0.285 OA
ATOM      5  C   UNL     1       2.645  29.219  -0.356  1.00  0.00     0.111 A 
ATOM      6  C   UNL     1       2.870  28.342  -1.460  1.00  0.00     0.134 A 
ATOM      7  C   UNL     1       2.438  28.715  -2.738  1.00  0.00     0.093 A 
ATOM      8  C   UNL     1       1.729  29.902  -2.942  1.00  0.00     0.123 A 
ATOM      9  C   UNL     1       1.451  30.735  -1.861  1.00  0.00     0.094 A 
ATOM     10  C   UNL     1       1.902  30.408  -0.580  1.00  0.00     0.146 A 
ATOM     11  O   UNL     1       1.624  31.236   0.421  1.00  0.00    -0.452 OA
ENDROOT
BRANCH   1  12
ATOM     12  C   UNL     1       1.625  32.020   2.701  1.00  0.00     0.025 A 
ATOM     13  C   UNL     1       2.582  32.777   3.397  1.00  0.00     0.016 A 
ATOM     14  C   UNL     1       2.183  33.685   4.382  1.00  0.00     0.051 A 
ATOM     15  C   UNL     1       0.830  33.842   4.694  1.00  0.00     0.157 A 
ATOM     16  C   UNL     1       0.267  32.164   3.031  1.00  0.00     0.062 A 
ATOM     17  C   UNL     1      -0.134  33.076   4.018  1.00  0.00     0.158 A 
BRANCH  15  18
ATOM     18  O   UNL     1       0.463  34.758   5.680  1.00  0.00    -0.504 OA
ATOM     19  H   UNL     1      -0.297  34.579   6.324  1.00  0.00     0.293 HD
ENDBRANCH  15  18
BRANCH  17  20
ATOM     20  O   UNL     1      -1.485  33.222   4.329  1.00  0.00    -0.504 OA
ATOM     21  H   UNL     1      -1.819  33.994   4.893  1.00  0.00     0.293 HD
ENDBRANCH  17  20
ENDBRANCH   1  12
BRANCH   2  22
ATOM     22  O   UNL     1       3.327  29.744   3.267  1.00  0.00    -0.502 OA
ATOM     23  H   UNL     1       3.073  28.952   3.846  1.00  0.00     0.293 HD
ENDBRANCH   2  22
BRANCH   6  24
ATOM     24  O   UNL     1       3.486  27.092  -1.350  1.00  0.00    -0.507 OA
ATOM     25  H   UNL     1       3.006  26.207  -1.417  1.00  0.00     0.293 HD
ENDBRANCH   6  24
BRANCH   8  26
ATOM     26  O   UNL     1       1.288  30.257  -4.214  1.00  0.00    -0.508 OA
ATOM     27  H   UNL     1       1.104  31.222  -4.461  1.00  0.00     0.293 HD
ENDBRANCH   8  26
TORSDOF 6
ENDMDL
MODEL 3
REMARK VINA RESULT:    -7.901      4.304      7.167
REMARK INTER + INTRA:          -9.733
REMARK INTER:                  -9.399
REMARK INTRA:                  -0.334
REMARK UNBOUND:                -0.216
REMARK SMILES O=c1c(O)c(-c2ccc(O)c(O)c2)oc2cc(O)cc(O)c12
REMARK SMILES IDX 5 1 3 2 2 3 1 4 22 5 20 6 19 7 17 8 16 9 15 10 14 11 6 12
REMARK SMILES IDX 7 13 8 14 9 15 13 16 11 17 10 18 12 20 4 22 21 24 18 26
REMARK H PARENT 10 19 12 21 4 23 21 25 18 27
REMARK Flexibility Score: inf
ROOT
ATOM      1  C   UNL     1       2.614  29.506   2.181  1.00  0.00     0.180 A 
ATOM      2  C   UNL     1       2.894  29.556   3.557  1.00  0.00     0.208 A 
ATOM      3  C   UNL     1       2.059  30.309   4.397  1.00  0.00     0.238 A 
ATOM      4  O   UNL     1       2.283  30.306   5.635  1.00  0.00    -0.285 OA
ATOM      5  C   UNL     1       0.962  31.016   3.848  1.00  0.00     0.111 A 
ATOM      6  C   UNL     1       0.073  31.844   4.598  1.00  0.00     0.134 A 
ATOM      7  C   UNL     1      -1.055  32.391   3.973  1.00  0.00     0.093 A 
ATOM      8  C   UNL     1      -1.290  32.194   2.610  1.00  0.00     0.123 A 
ATOM      9  C   UNL     1      -0.396  31.438   1.856  1.00  0.00     0.094 A 
ATOM     10  C   UNL     1       0.718  30.849   2.459  1.00  0.00     0.146 A 
ATOM     11  O   UNL     1       1.540  30.127   1.706  1.00  0.00    -0.452 OA
ENDROOT
BRANCH   1  12
ATOM     12  C   UNL     1       3.463  28.754   1.230  1.00  0.00     0.025 A 
ATOM     13  C   UNL     1       4.583  29.347   0.623  1.00  0.00     0.016 A 
ATOM     14  C   UNL     1       5.356  28.625  -0.291  1.00  0.00     0.051 A 
ATOM     15  C   UNL     1       5.018  27.310  -0.621  1.00  0.00     0.157 A 
ATOM     16  C   UNL     1       3.113  27.439   0.881  1.00  0.00     0.062 A 
ATOM     17  C   UNL     1       3.888  26.714  -0.035  1.00  0.00     0.158 A 
BRANCH  15  18
ATOM     18  O   UNL     1       5.809  26.614  -1.534  1.00  0.00    -0.504 OA
ATOM     19  H   UNL     1       5.968  25.617  -1.459  1.00  0.00     0.293 HD
ENDBRANCH  15  18
BRANCH  17  20
ATOM     20  O   UNL     1       3.540  25.404  -0.365  1.00  0.00    -0.504 OA
ATOM     21  H   UNL     1       4.222  24.750  -0.731  1.00  0.00     0.293 HD
ENDBRANCH  17  20
ENDBRANCH   1  12
BRANCH   2  22
ATOM     22  O   UNL     1       3.969  28.832   4.082  1.00  0.00    -0.502 OA
ATOM     23  H   UNL     1       4.201  28.842   5.068  1.00  0.00     0.293 HD
ENDBRANCH   2  22
BRANCH   6  24
ATOM     24  O   UNL     1       0.266  32.179   5.941  1.00  0.00    -0.507 OA
ATOM     25  H   UNL     1      -0.231  31.762   6.715  1.00  0.00     0.293 HD
ENDBRANCH   6  24
BRANCH   8  26
ATOM     26  O   UNL     1      -2.406  32.755   1.993  1.00  0.00    -0.508 OA
ATOM     27  H   UNL     1      -2.344  33.621   1.472  1.00  0.00     0.293 HD
ENDBRANCH   8  26
TORSDOF 6
ENDMDL
MODEL 4
REMARK VINA RESULT:    -7.890      4.772      5.911
REMARK INTER + INTRA:          -9.720
REMARK INTER:                  -9.487
REMARK INTRA:                  -0.233
REMARK UNBOUND:                -0.216
REMARK SMILES O=c1c(O)c(-c2ccc(O)c(O)c2)oc2cc(O)cc(O)c12
REMARK SMILES IDX 5 1 3 2 2 3 1 4 22 5 20 6 19 7 17 8 16 9 15 10 14 11 6 12
REMARK SMILES IDX 7 13 8 14 9 15 13 16 11 17 10 18 12 20 4 22 21 24 18 26
REMARK H PARENT 10 19 12 21 4 23 21 25 18 27
REMARK Flexibility Score: inf
ROOT
ATOM      1  C   UNL     1       1.647  31.310   1.360  1.00  0.00     0.180 A 
ATOM      2  C   UNL     1       1.367  31.683   0.033  1.00  0.00     0.208 A 
ATOM      3  C   UNL     1       1.683  30.793  -1.005  1.00  0.00     0.238 A 
ATOM      4  O   UNL     1       1.381  31.109  -2.185  1.00  0.00    -0.285 OA
ATOM      5  C   UNL     1       2.289  29.549  -0.707  1.00  0.00     0.111 A 
ATOM      6  C   UNL     1       2.690  28.587  -1.683  1.00  0.00     0.134 A 
ATOM      7  C   UNL     1       3.159  27.335  -1.267  1.00  0.00     0.093 A 
ATOM      8  C   UNL     1       3.306  27.035   0.089  1.00  0.00     0.123 A 
ATOM      9  C   UNL     1       2.975  27.988   1.048  1.00  0.00     0.094 A 
ATOM     10  C   UNL     1       2.469  29.233   0.665  1.00  0.00     0.146 A 
ATOM     11  O   UNL     1       2.156  30.110   1.612  1.00  0.00    -0.452 OA
ENDROOT
BRANCH   1  12
ATOM     12  C   UNL     1       1.366  32.204   2.506  1.00  0.00     0.025 A 
ATOM     13  C   UNL     1       2.405  32.819   3.226  1.00  0.00     0.016 A 
ATOM     14  C   UNL     1       2.116  33.640   4.319  1.00  0.00     0.051 A 
ATOM     15  C   UNL     1       0.793  33.850   4.718  1.00  0.00     0.157 A 
ATOM     16  C   UNL     1       0.038  32.400   2.921  1.00  0.00     0.062 A 
ATOM     17  C   UNL     1      -0.252  33.224   4.018  1.00  0.00     0.158 A 
BRANCH  15  18
ATOM     18  O   UNL     1       0.536  34.676   5.811  1.00  0.00    -0.504 OA
ATOM     19  H   UNL     1       1.124  34.675   6.636  1.00  0.00     0.293 HD
ENDBRANCH  15  18
BRANCH  17  20
ATOM     20  O   UNL     1      -1.574  33.422   4.414  1.00  0.00    -0.504 OA
ATOM     21  H   UNL     1      -2.198  34.029   3.896  1.00  0.00     0.293 HD
ENDBRANCH  17  20
ENDBRANCH   1  12
BRANCH   2  22
ATOM     22  O   UNL     1       0.748  32.907  -0.237  1.00  0.00    -0.502 OA
ATOM     23  H   UNL     1       1.270  33.769  -0.335  1.00  0.00     0.293 HD
ENDBRANCH   2  22
BRANCH   6  24
ATOM     24  O   UNL     1       2.670  28.819  -3.062  1.00  0.00    -0.507 OA
ATOM     25  H   UNL     1       2.808  29.721  -3.494  1.00  0.00     0.293 HD
ENDBRANCH   6  24
BRANCH   8  26
ATOM     26  O   UNL     1       3.789  25.792   0.494  1.00  0.00    -0.508 OA
ATOM     27  H   UNL     1       3.549  24.943  -0.003  1.00  0.00     0.293 HD
ENDBRANCH   8  26
TORSDOF 6
ENDMDL
MODEL 5
REMARK VINA RESULT:    -7.865      4.265      7.908
REMARK INTER + INTRA:          -9.690
REMARK INTER:                  -9.364
REMARK INTRA:                  -0.327
REMARK UNBOUND:                -0.216
REMARK SMILES O=c1c(O)c(-c2ccc(O)c(O)c2)oc2cc(O)cc(O)c12
REMARK SMILES IDX 5 1 3 2 2 3 1 4 22 5 20 6 19 7 17 8 16 9 15 10 14 11 6 12
REMARK SMILES IDX 7 13 8 14 9 15 13 16 11 17 10 18 12 20 4 22 21 24 18 26
REMARK H PARENT 10 19 12 21 4 23 21 25 18 27
REMARK Flexibility Score: inf
ROOT
ATOM      1  C   UNL     1       1.448  30.012   2.206  1.00  0.00     0.180 A 
ATOM      2  C   UNL     1       0.079  30.329   2.220  1.00  0.00     0.208 A 
ATOM      3  C   UNL     1      -0.345  31.491   2.883  1.00  0.00     0.238 A 
ATOM      4  O   UNL     1      -1.564  31.799   2.846  1.00  0.00    -0.285 OA
ATOM      5  C   UNL     1       0.603  32.313   3.539  1.00  0.00     0.111 A 
ATOM      6  C   UNL     1       0.282  33.492   4.277  1.00  0.00     0.134 A 
ATOM      7  C   UNL     1       1.313  34.300   4.773  1.00  0.00     0.093 A 
ATOM      8  C   UNL     1       2.653  33.935   4.615  1.00  0.00     0.123 A 
ATOM      9  C   UNL     1       2.975  32.755   3.949  1.00  0.00     0.094 A 
ATOM     10  C   UNL     1       1.969  31.948   3.411  1.00  0.00     0.146 A 
ATOM     11  O   UNL     1       2.320  30.837   2.774  1.00  0.00    -0.452 OA
ENDROOT
BRANCH   1  12
ATOM     12  C   UNL     1       1.968  28.791   1.549  1.00  0.00     0.025 A 
ATOM     13  C   UNL     1       2.145  27.594   2.264  1.00  0.00     0.016 A 
ATOM     14  C   UNL     1       2.660  26.462   1.628  1.00  0.00     0.051 A 
ATOM     15  C   UNL     1       3.017  26.509   0.277  1.00  0.00     0.157 A 
ATOM     16  C   UNL     1       2.347  28.842   0.197  1.00  0.00     0.062 A 
ATOM     17  C   UNL     1       2.864  27.706  -0.442  1.00  0.00     0.158 A 
BRANCH  15  18
ATOM     18  O   UNL     1       3.527  25.362  -0.330  1.00  0.00    -0.504 OA
ATOM     19  H   UNL     1       4.193  25.407  -1.092  1.00  0.00     0.293 HD
ENDBRANCH  15  18
BRANCH  17  20
ATOM     20  O   UNL     1       3.224  27.762  -1.788  1.00  0.00    -0.504 OA
ATOM     21  H   UNL     1       4.025  28.298  -2.101  1.00  0.00     0.293 HD
ENDBRANCH  17  20
ENDBRANCH   1  12
BRANCH   2  22
ATOM     22  O   UNL     1      -0.838  29.515   1.548  1.00  0.00    -0.502 OA
ATOM     23  H   UNL     1      -1.330  28.758   2.006  1.00  0.00     0.293 HD
ENDBRANCH   2  22
BRANCH   6  24
ATOM     24  O   UNL     1      -1.024  33.897   4.571  1.00  0.00    -0.507 OA
ATOM     25  H   UNL     1      -1.796  33.863   3.922  1.00  0.00     0.293 HD
ENDBRANCH   6  24
BRANCH   8  26
ATOM     26  O   UNL     1       3.672  34.736   5.126  1.00  0.00    -0.508 OA
ATOM     27  H   UNL     1       4.275  34.413   5.873  1.00  0.00     0.293 HD
ENDBRANCH   8  26
TORSDOF 6
ENDMDL
MODEL 6
REMARK VINA RESULT:    -7.815      3.240      5.561
REMARK INTER + INTRA:          -9.630
REMARK INTER:                  -9.334
REMARK INTRA:                  -0.296
REMARK UNBOUND:                -0.216
REMARK SMILES O=c1c(O)c(-c2ccc(O)c(O)c2)oc2cc(O)cc(O)c12
REMARK SMILES IDX 5 1 3 2 2 3 1 4 22 5 20 6 19 7 17 8 16 9 15 10 14 11 6 12
REMARK SMILES IDX 7 13 8 14 9 15 13 16 11 17 10 18 12 20 4 22 21 24 18 26
REMARK H PARENT 10 19 12 21 4 23 21 25 18 27
REMARK Flexibility Score: inf
ROOT
ATOM      1  C   UNL     1       5.740  33.654   2.399  1.00  0.00     0.180 A 
ATOM      2  C   UNL     1       5.012  32.596   1.829  1.00  0.00     0.208 A 
ATOM      3  C   UNL     1       3.699  32.359   2.267  1.00  0.00     0.238 A 
ATOM      4  O   UNL     1       3.033  31.445   1.715  1.00  0.00    -0.285 OA
ATOM      5  C   UNL     1       3.137  33.172   3.281  1.00  0.00     0.111 A 
ATOM      6  C   UNL     1       1.831  32.996   3.830  1.00  0.00     0.134 A 
ATOM      7  C   UNL     1       1.330  33.940   4.735  1.00  0.00     0.093 A 
ATOM      8  C   UNL     1       2.112  35.016   5.162  1.00  0.00     0.123 A 
ATOM      9  C   UNL     1       3.410  35.162   4.677  1.00  0.00     0.094 A 
ATOM     10  C   UNL     1       3.924  34.258   3.745  1.00  0.00     0.146 A 
ATOM     11  O   UNL     1       5.163  34.440   3.301  1.00  0.00    -0.452 OA
ENDROOT
BRANCH   1  12
ATOM     12  C   UNL     1       7.137  33.951   2.007  1.00  0.00     0.025 A 
ATOM     13  C   UNL     1       8.210  33.181   2.488  1.00  0.00     0.016 A 
ATOM     14  C   UNL     1       9.523  33.495   2.123  1.00  0.00     0.051 A 
ATOM     15  C   UNL     1       9.784  34.585   1.288  1.00  0.00     0.157 A 
ATOM     16  C   UNL     1       7.404  35.058   1.185  1.00  0.00     0.062 A 
ATOM     17  C   UNL     1       8.721  35.373   0.819  1.00  0.00     0.158 A 
BRANCH  15  18
ATOM     18  O   UNL     1      11.104  34.872   0.940  1.00  0.00    -0.504 OA
ATOM     19  H   UNL     1      11.447  35.821   0.867  1.00  0.00     0.293 HD
ENDBRANCH  15  18
BRANCH  17  20
ATOM     20  O   UNL     1       8.974  36.466  -0.009  1.00  0.00    -0.504 OA
ATOM     21  H   UNL     1       9.906  36.852  -0.108  1.00  0.00     0.293 HD
ENDBRANCH  17  20
ENDBRANCH   1  12
BRANCH   2  22
ATOM     22  O   UNL     1       5.578  31.820   0.814  1.00  0.00    -0.502 OA
ATOM     23  H   UNL     1       6.314  31.147   0.991  1.00  0.00     0.293 HD
ENDBRANCH   2  22
BRANCH   6  24
ATOM     24  O   UNL     1       1.003  31.907   3.541  1.00  0.00    -0.507 OA
ATOM     25  H   UNL     1       0.560  31.323   4.235  1.00  0.00     0.293 HD
ENDBRANCH   6  24
BRANCH   8  26
ATOM     26  O   UNL     1       1.611  35.941   6.075  1.00  0.00    -0.508 OA
ATOM     27  H   UNL     1       1.991  36.020   7.011  1.00  0.00     0.293 HD
ENDBRANCH   8  26
TORSDOF 6
ENDMDL
MODEL 7
REMARK VINA RESULT:    -7.665      4.335      7.223
REMARK INTER + INTRA:          -9.449
REMARK INTER:                  -9.176
REMARK INTRA:                  -0.273
REMARK UNBOUND:                -0.216
REMARK SMILES O=c1c(O)c(-c2ccc(O)c(O)c2)oc2cc(O)cc(O)c12
REMARK SMILES IDX 5 1 3 2 2 3 1 4 22 5 20 6 19 7 17 8 16 9 15 10 14 11 6 12
REMARK SMILES IDX 7 13 8 14 9 15 13 16 11 17 10 18 12 20 4 22 21 24 18 26
REMARK H PARENT 10 19 12 21 4 23 21 25 18 27
REMARK Flexibility Score: inf
ROOT
ATOM      1  C   UNL     1       2.674  29.731   2.197  1.00  0.00     0.180 A 
ATOM      2  C   UNL     1       1.803  30.742   1.755  1.00  0.00     0.208 A 
ATOM      3  C   UNL     1       1.053  31.457   2.702  1.00  0.00     0.238 A 
ATOM      4  O   UNL     1       0.316  32.396   2.305  1.00  0.00    -0.285 OA
ATOM      5  C   UNL     1       1.171  31.143   4.078  1.00  0.00     0.111 A 
ATOM      6  C   UNL     1       0.429  31.775   5.121  1.00  0.00     0.134 A 
ATOM      7  C   UNL     1       0.723  31.475   6.457  1.00  0.00     0.093 A 
ATOM      8  C   UNL     1       1.685  30.517   6.785  1.00  0.00     0.123 A 
ATOM      9  C   UNL     1       2.372  29.851   5.774  1.00  0.00     0.094 A 
ATOM     10  C   UNL     1       2.127  30.155   4.432  1.00  0.00     0.146 A 
ATOM     11  O   UNL     1       2.812  29.504   3.499  1.00  0.00    -0.452 OA
ENDROOT
BRANCH   1  12
ATOM     12  C   UNL     1       3.479  28.918   1.258  1.00  0.00     0.025 A 
ATOM     13  C   UNL     1       4.635  29.435   0.647  1.00  0.00     0.016 A 
ATOM     14  C   UNL     1       5.365  28.657  -0.255  1.00  0.00     0.051 A 
ATOM     15  C   UNL     1       4.949  27.360  -0.570  1.00  0.00     0.157 A 
ATOM     16  C   UNL     1       3.051  27.622   0.923  1.00  0.00     0.062 A 
ATOM     17  C   UNL     1       3.784  26.841   0.019  1.00  0.00     0.158 A 
BRANCH  15  18
ATOM     18  O   UNL     1       5.700  26.608  -1.473  1.00  0.00    -0.504 OA
ATOM     19  H   UNL     1       6.258  27.038  -2.199  1.00  0.00     0.293 HD
ENDBRANCH  15  18
BRANCH  17  20
ATOM     20  O   UNL     1       3.359  25.551  -0.297  1.00  0.00    -0.504 OA
ATOM     21  H   UNL     1       2.603  25.386  -0.951  1.00  0.00     0.293 HD
ENDBRANCH  17  20
ENDBRANCH   1  12
BRANCH   2  22
ATOM     22  O   UNL     1       1.718  31.051   0.395  1.00  0.00    -0.502 OA
ATOM     23  H   UNL     1       1.142  31.807   0.044  1.00  0.00     0.293 HD
ENDBRANCH   2  22
BRANCH   6  24
ATOM     24  O   UNL     1      -0.616  32.677   4.899  1.00  0.00    -0.507 OA
ATOM     25  H   UNL     1      -0.684  33.292   4.102  1.00  0.00     0.293 HD
ENDBRANCH   6  24
BRANCH   8  26
ATOM     26  O   UNL     1       1.959  30.213   8.117  1.00  0.00    -0.508 OA
ATOM     27  H   UNL     1       2.848  29.817   8.398  1.00  0.00     0.293 HD
ENDBRANCH   8  26
TORSDOF 6
ENDMDL
MODEL 8
REMARK VINA RESULT:    -7.621      2.805      5.851
REMARK INTER + INTRA:          -9.396
REMARK INTER:                  -9.735
REMARK INTRA:                   0.339
REMARK UNBOUND:                -0.216
REMARK SMILES O=c1c(O)c(-c2ccc(O)c(O)c2)oc2cc(O)cc(O)c12
REMARK SMILES IDX 5 1 3 2 2 3 1 4 22 5 20 6 19 7 17 8 16 9 15 10 14 11 6 12
REMARK SMILES IDX 7 13 8 14 9 15 13 16 11 17 10 18 12 20 4 22 21 24 18 26
REMARK H PARENT 10 19 12 21 4 23 21 25 18 27
REMARK Flexibility Score: inf
ROOT
ATOM      1  C   UNL     1       7.040  28.487  -0.393  1.00  0.00     0.180 A 
ATOM      2  C   UNL     1       5.916  27.831  -0.925  1.00  0.00     0.208 A 
ATOM      3  C   UNL     1       4.637  28.208  -0.486  1.00  0.00     0.238 A 
ATOM      4  O   UNL     1       3.632  27.656  -1.005  1.00  0.00    -0.285 OA
ATOM      5  C   UNL     1       4.498  29.225   0.490  1.00  0.00     0.111 A 
ATOM      6  C   UNL     1       3.253  29.659   1.037  1.00  0.00     0.134 A 
ATOM      7  C   UNL     1       3.225  30.762   1.899  1.00  0.00     0.093 A 
ATOM      8  C   UNL     1       4.403  31.404   2.287  1.00  0.00     0.123 A 
ATOM      9  C   UNL     1       5.628  30.950   1.805  1.00  0.00     0.094 A 
ATOM     10  C   UNL     1       5.686  29.875   0.914  1.00  0.00     0.146 A 
ATOM     11  O   UNL     1       6.874  29.481   0.472  1.00  0.00    -0.452 OA
ENDROOT
BRANCH   1  12
ATOM     12  C   UNL     1       8.421  28.128  -0.788  1.00  0.00     0.025 A 
ATOM     13  C   UNL     1       9.507  28.332   0.081  1.00  0.00     0.016 A 
ATOM     14  C   UNL     1      10.805  28.009  -0.322  1.00  0.00     0.051 A 
ATOM     15  C   UNL     1      11.041  27.490  -1.598  1.00  0.00     0.157 A 
ATOM     16  C   UNL     1       8.664  27.626  -2.078  1.00  0.00     0.062 A 
ATOM     17  C   UNL     1       9.966  27.301  -2.483  1.00  0.00     0.158 A 
BRANCH  15  18
ATOM     18  O   UNL     1      12.347  27.175  -1.971  1.00  0.00    -0.504 OA
ATOM     19  H   UNL     1      13.093  27.860  -1.952  1.00  0.00     0.293 HD
ENDBRANCH  15  18
BRANCH  17  20
ATOM     20  O   UNL     1      10.196  26.790  -3.760  1.00  0.00    -0.504 OA
ATOM     21  H   UNL     1      10.548  27.374  -4.509  1.00  0.00     0.293 HD
ENDBRANCH  17  20
ENDBRANCH   1  12
BRANCH   2  22
ATOM     22  O   UNL     1       6.074  26.846  -1.903  1.00  0.00    -0.502 OA
ATOM     23  H   UNL     1       6.982  26.585  -2.270  1.00  0.00     0.293 HD
ENDBRANCH   2  22
BRANCH   6  24
ATOM     24  O   UNL     1       2.029  29.030   0.788  1.00  0.00    -0.507 OA
ATOM     25  H   UNL     1       1.582  28.980  -0.116  1.00  0.00     0.293 HD
ENDBRANCH   6  24
BRANCH   8  26
ATOM     26  O   UNL     1       4.367  32.490   3.158  1.00  0.00    -0.508 OA
ATOM     27  H   UNL     1       4.691  33.407   2.875  1.00  0.00     0.293 HD
ENDBRANCH   8  26
TORSDOF 6
ENDMDL
MODEL 9
REMARK VINA RESULT:    -7.513      4.968      6.187
REMARK INTER + INTRA:          -9.266
REMARK INTER:                  -9.542
REMARK INTRA:                   0.277
REMARK UNBOUND:                -0.216
REMARK SMILES O=c1c(O)c(-c2ccc(O)c(O)c2)oc2cc(O)cc(O)c12
REMARK SMILES IDX 5 1 3 2 2 3 1 4 22 5 20 6 19 7 17 8 16 9 15 10 14 11 6 12
REMARK SMILES IDX 7 13 8 14 9 15 13 16 11 17 10 18 12 20 4 22 21 24 18 26
REMARK H PARENT 10 19 12 21 4 23 21 25 18 27
REMARK Flexibility Score: inf
ROOT
ATOM      1  C   UNL     1       2.691  35.041   4.553  1.00  0.00     0.180 A 
ATOM      2  C   UNL     1       1.621  34.315   5.105  1.00  0.00     0.208 A 
ATOM      3  C   UNL     1       1.389  33.003   4.663  1.00  0.00     0.238 A 
ATOM      4  O   UNL     1       0.464  32.339   5.199  1.00  0.00    -0.285 OA
ATOM      5  C   UNL     1       2.219  32.438   3.665  1.00  0.00     0.111 A 
ATOM      6  C   UNL     1       2.051  31.132   3.113  1.00  0.00     0.134 A 
ATOM      7  C   UNL     1       3.010  30.628   2.225  1.00  0.00     0.093 A 
ATOM      8  C   UNL     1       4.095  31.408   1.818  1.00  0.00     0.123 A 
ATOM      9  C   UNL     1       4.235  32.706   2.304  1.00  0.00     0.094 A 
ATOM     10  C   UNL     1       3.315  33.223   3.220  1.00  0.00     0.146 A 
ATOM     11  O   UNL     1       3.492  34.461   3.666  1.00  0.00    -0.452 OA
ENDROOT
BRANCH   1  12
ATOM     12  C   UNL     1       2.984  36.437   4.950  1.00  0.00     0.025 A 
ATOM     13  C   UNL     1       3.535  37.355   4.040  1.00  0.00     0.016 A 
ATOM     14  C   UNL     1       3.825  38.661   4.443  1.00  0.00     0.051 A 
ATOM     15  C   UNL     1       3.583  39.066   5.759  1.00  0.00     0.157 A 
ATOM     16  C   UNL     1       2.761  36.840   6.277  1.00  0.00     0.062 A 
ATOM     17  C   UNL     1       3.051  38.151   6.682  1.00  0.00     0.158 A 
BRANCH  15  18
ATOM     18  O   UNL     1       3.881  40.377   6.131  1.00  0.00    -0.504 OA
ATOM     19  H   UNL     1       4.142  40.621   7.079  1.00  0.00     0.293 HD
ENDBRANCH  15  18
BRANCH  17  20
ATOM     20  O   UNL     1       2.813  38.546   7.998  1.00  0.00    -0.504 OA
ATOM     21  H   UNL     1       3.555  38.903   8.588  1.00  0.00     0.293 HD
ENDBRANCH  17  20
ENDBRANCH   1  12
BRANCH   2  22
ATOM     22  O   UNL     1       0.828  34.883   6.105  1.00  0.00    -0.502 OA
ATOM     23  H   UNL     1      -0.174  34.740   6.151  1.00  0.00     0.293 HD
ENDBRANCH   2  22
BRANCH   6  24
ATOM     24  O   UNL     1       0.955  30.307   3.382  1.00  0.00    -0.507 OA
ATOM     25  H   UNL     1       0.294  29.986   2.690  1.00  0.00     0.293 HD
ENDBRANCH   6  24
BRANCH   8  26
ATOM     26  O   UNL     1       5.035  30.905   0.922  1.00  0.00    -0.508 OA
ATOM     27  H   UNL     1       5.668  30.157   1.182  1.00  0.00     0.293 HD
ENDBRANCH   8  26
TORSDOF 6
ENDMDL
