MODEL 1
REMARK VINA RESULT:    -6.628      0.000      0.000
REMARK INTER + INTRA:          -7.821
REMARK INTER:                  -7.791
REMARK INTRA:                  -0.030
REMARK UNBOUND:                -0.030
REMARK SMILES O=c1c(O)c(-c2ccc(O)cc2)oc2cc(O)cc(O)c12
REMARK SMILES IDX 5 1 3 2 2 3 1 4 21 5 19 6 18 7 16 8 15 9 14 10 13 11 6 12
REMARK SMILES IDX 7 13 8 14 9 15 12 16 11 17 10 18 4 20 20 22 17 24
REMARK H PARENT 10 19 4 21 20 23 17 25
REMARK Flexibility Score: inf
ROOT
ATOM      1  C   UNL     1     108.403  45.065 138.423  1.00  0.00     0.180 A 
ATOM      2  C   UNL     1     109.063  44.182 139.299  1.00  0.00     0.208 A 
ATOM      3  C   UNL     1     109.345  42.878 138.864  1.00  0.00     0.238 A 
ATOM      4  O   UNL     1     109.926  42.076 139.643  1.00  0.00    -0.285 OA
ATOM      5  C   UNL     1     108.983  42.485 137.558  1.00  0.00     0.111 A 
ATOM      6  C   UNL     1     109.235  41.192 137.041  1.00  0.00     0.134 A 
ATOM      7  C   UNL     1     108.851  40.881 135.729  1.00  0.00     0.093 A 
ATOM      8  C   UNL     1     108.224  41.835 134.924  1.00  0.00     0.123 A 
ATOM      9  C   UNL     1     107.972  43.115 135.430  1.00  0.00     0.094 A 
ATOM     10  C   UNL     1     108.345  43.443 136.737  1.00  0.00     0.146 A 
ATOM     11  O   UNL     1     108.090  44.664 137.193  1.00  0.00    -0.452 OA
ENDROOT
BRANCH   1  12
ATOM     12  C   UNL     1     108.054  46.449 138.815  1.00  0.00     0.021 A 
ATOM     13  C   UNL     1     106.710  46.860 138.779  1.00  0.00     0.016 A 
ATOM     14  C   UNL     1     106.356  48.156 139.166  1.00  0.00     0.047 A 
ATOM     15  C   UNL     1     107.338  49.052 139.608  1.00  0.00     0.115 A 
ATOM     16  C   UNL     1     109.031  47.348 139.278  1.00  0.00     0.016 A 
ATOM     17  C   UNL     1     108.673  48.643 139.666  1.00  0.00     0.047 A 
BRANCH  15  18
ATOM     18  O   UNL     1     106.996  50.346 139.995  1.00  0.00    -0.508 OA
ATOM     19  H   UNL     1     106.226  50.842 139.563  1.00  0.00     0.293 HD
ENDBRANCH  15  18
ENDBRANCH   1  12
BRANCH   2  20
ATOM     20  O   UNL     1     109.456  44.612 140.569  1.00  0.00    -0.502 OA
ATOM     21  H   UNL     1     109.858  45.527 140.732  1.00  0.00     0.293 HD
ENDBRANCH   2  20
BRANCH   6  22
ATOM     22  O   UNL     1     109.861  40.217 137.819  1.00  0.00    -0.507 OA
ATOM     23  H   UNL     1     110.739  39.794 137.538  1.00  0.00     0.293 HD
ENDBRANCH   6  22
BRANCH   8  24
ATOM     24  O   UNL     1     107.854  41.500 133.624  1.00  0.00    -0.508 OA
ATOM     25  H   UNL     1     106.890  41.303 133.382  1.00  0.00     0.293 HD
ENDBRANCH   8  24
TORSDOF 5
ENDMDL
MODEL 2
REMARK VINA RESULT:    -6.434      3.732      5.785
REMARK INTER + INTRA:          -7.592
REMARK INTER:                  -7.295
REMARK INTRA:                  -0.297
REMARK UNBOUND:                -0.030
REMARK SMILES O=c1c(O)c(-c2ccc(O)cc2)oc2cc(O)cc(O)c12
REMARK SMILES IDX 5 1 3 2 2 3 1 4 21 5 19 6 18 7 16 8 15 9 14 10 13 11 6 12
REMARK SMILES IDX 7 13 8 14 9 15 12 16 11 17 10 18 4 20 20 22 17 24
REMARK H PARENT 10 19 4 21 20 23 17 25
REMARK Flexibility Score: inf
ROOT
ATOM      1  C   UNL     1     105.675  42.703 135.974  1.00  0.00     0.180 A 
ATOM      2  C   UNL     1     106.548  42.088 135.058  1.00  0.00     0.208 A 
ATOM      3  C   UNL     1     107.779  41.595 135.519  1.00  0.00     0.238 A 
ATOM      4  O   UNL     1     108.574  41.051 134.705  1.00  0.00    -0.285 OA
ATOM      5  C   UNL     1     108.107  41.706 136.886  1.00  0.00     0.111 A 
ATOM      6  C   UNL     1     109.324  41.232 137.432  1.00  0.00     0.134 A 
ATOM      7  C   UNL     1     109.572  41.373 138.805  1.00  0.00     0.093 A 
ATOM      8  C   UNL     1     108.629  41.975 139.642  1.00  0.00     0.123 A 
ATOM      9  C   UNL     1     107.425  42.446 139.108  1.00  0.00     0.094 A 
ATOM     10  C   UNL     1     107.160  42.317 137.741  1.00  0.00     0.146 A 
ATOM     11  O   UNL     1     106.012  42.777 137.260  1.00  0.00    -0.452 OA
ENDROOT
BRANCH   1  12
ATOM     12  C   UNL     1     104.369  43.265 135.562  1.00  0.00     0.021 A 
ATOM     13  C   UNL     1     103.219  42.460 135.629  1.00  0.00     0.016 A 
ATOM     14  C   UNL     1     101.971  42.977 135.266  1.00  0.00     0.047 A 
ATOM     15  C   UNL     1     101.855  44.309 134.846  1.00  0.00     0.115 A 
ATOM     16  C   UNL     1     104.241  44.606 135.159  1.00  0.00     0.016 A 
ATOM     17  C   UNL     1     102.992  45.121 134.798  1.00  0.00     0.047 A 
BRANCH  15  18
ATOM     18  O   UNL     1     100.618  44.833 134.481  1.00  0.00    -0.508 OA
ATOM     19  H   UNL     1      99.817  44.236 134.317  1.00  0.00     0.293 HD
ENDBRANCH  15  18
ENDBRANCH   1  12
BRANCH   2  20
ATOM     20  O   UNL     1     106.179  41.945 133.718  1.00  0.00    -0.502 OA
ATOM     21  H   UNL     1     105.340  42.368 133.338  1.00  0.00     0.293 HD
ENDBRANCH   2  20
BRANCH   6  22
ATOM     22  O   UNL     1     110.285  40.624 136.623  1.00  0.00    -0.507 OA
ATOM     23  H   UNL     1     110.031  39.946 135.912  1.00  0.00     0.293 HD
ENDBRANCH   6  22
BRANCH   8  24
ATOM     24  O   UNL     1     108.900  42.102 141.002  1.00  0.00    -0.508 OA
ATOM     25  H   UNL     1     109.829  41.942 141.374  1.00  0.00     0.293 HD
ENDBRANCH   8  24
TORSDOF 5
ENDMDL
MODEL 3
REMARK VINA RESULT:    -6.317      1.511      3.195
REMARK INTER + INTRA:          -7.455
REMARK INTER:                  -7.189
REMARK INTRA:                  -0.266
REMARK UNBOUND:                -0.030
REMARK SMILES O=c1c(O)c(-c2ccc(O)cc2)oc2cc(O)cc(O)c12
REMARK SMILES IDX 5 1 3 2 2 3 1 4 21 5 19 6 18 7 16 8 15 9 14 10 13 11 6 12
REMARK SMILES IDX 7 13 8 14 9 15 12 16 11 17 10 18 4 20 20 22 17 24
REMARK H PARENT 10 19 4 21 20 23 17 25
REMARK Flexibility Score: inf
ROOT
ATOM      1  C   UNL     1     107.938  44.598 137.402  1.00  0.00     0.180 A 
ATOM      2  C   UNL     1     107.838  44.550 135.999  1.00  0.00     0.208 A 
ATOM      3  C   UNL     1     107.879  43.303 135.357  1.00  0.00     0.238 A 
ATOM      4  O   UNL     1     107.802  43.248 134.100  1.00  0.00    -0.285 OA
ATOM      5  C   UNL     1     107.998  42.126 136.126  1.00  0.00     0.111 A 
ATOM      6  C   UNL     1     108.042  40.830 135.558  1.00  0.00     0.134 A 
ATOM      7  C   UNL     1     108.153  39.709 136.392  1.00  0.00     0.093 A 
ATOM      8  C   UNL     1     108.218  39.856 137.780  1.00  0.00     0.123 A 
ATOM      9  C   UNL     1     108.175  41.134 138.347  1.00  0.00     0.094 A 
ATOM     10  C   UNL     1     108.067  42.265 137.532  1.00  0.00     0.146 A 
ATOM     11  O   UNL     1     108.034  43.466 138.096  1.00  0.00    -0.452 OA
ENDROOT
BRANCH   1  12
ATOM     12  C   UNL     1     107.922  45.875 138.150  1.00  0.00     0.021 A 
ATOM     13  C   UNL     1     109.137  46.471 138.526  1.00  0.00     0.016 A 
ATOM     14  C   UNL     1     109.145  47.689 139.214  1.00  0.00     0.047 A 
ATOM     15  C   UNL     1     107.939  48.333 139.520  1.00  0.00     0.115 A 
ATOM     16  C   UNL     1     106.716  46.537 138.444  1.00  0.00     0.016 A 
ATOM     17  C   UNL     1     106.727  47.756 139.130  1.00  0.00     0.047 A 
BRANCH  15  18
ATOM     18  O   UNL     1     107.935  49.545 140.205  1.00  0.00    -0.508 OA
ATOM     19  H   UNL     1     108.259  50.401 139.770  1.00  0.00     0.293 HD
ENDBRANCH  15  18
ENDBRANCH   1  12
BRANCH   2  20
ATOM     20  O   UNL     1     107.671  45.726 135.263  1.00  0.00    -0.502 OA
ATOM     21  H   UNL     1     108.076  46.609 135.551  1.00  0.00     0.293 HD
ENDBRANCH   2  20
BRANCH   6  22
ATOM     22  O   UNL     1     107.977  40.650 134.176  1.00  0.00    -0.507 OA
ATOM     23  H   UNL     1     108.036  41.433 133.533  1.00  0.00     0.293 HD
ENDBRANCH   6  22
BRANCH   8  24
ATOM     24  O   UNL     1     108.326  38.725 138.586  1.00  0.00    -0.508 OA
ATOM     25  H   UNL     1     107.528  38.354 139.087  1.00  0.00     0.293 HD
ENDBRANCH   8  24
TORSDOF 5
ENDMDL
MODEL 4
REMARK VINA RESULT:    -5.696      9.461     11.022
REMARK INTER + INTRA:          -6.725
REMARK INTER:                  -6.434
REMARK INTRA:                  -0.291
REMARK UNBOUND:                -0.030
REMARK SMILES O=c1c(O)c(-c2ccc(O)cc2)oc2cc(O)cc(O)c12
REMARK SMILES IDX 5 1 3 2 2 3 1 4 21 5 19 6 18 7 16 8 15 9 14 10 13 11 6 12
REMARK SMILES IDX 7 13 8 14 9 15 12 16 11 17 10 18 4 20 20 22 17 24
REMARK H PARENT 10 19 4 21 20 23 17 25
REMARK Flexibility Score: inf
ROOT
ATOM      1  C   UNL     1     100.002  48.443 132.211  1.00  0.00     0.180 A 
ATOM      2  C   UNL     1      98.986  47.553 131.812  1.00  0.00     0.208 A 
ATOM      3  C   UNL     1      99.041  46.220 132.248  1.00  0.00     0.238 A 
ATOM      4  O   UNL     1      98.143  45.412 131.888  1.00  0.00    -0.285 OA
ATOM      5  C   UNL     1     100.095  45.805 133.089  1.00  0.00     0.111 A 
ATOM      6  C   UNL     1     100.221  44.481 133.576  1.00  0.00     0.134 A 
ATOM      7  C   UNL     1     101.293  44.149 134.416  1.00  0.00     0.093 A 
ATOM      8  C   UNL     1     102.239  45.111 134.780  1.00  0.00     0.123 A 
ATOM      9  C   UNL     1     102.120  46.420 134.301  1.00  0.00     0.094 A 
ATOM     10  C   UNL     1     101.059  46.770 133.461  1.00  0.00     0.146 A 
ATOM     11  O   UNL     1     100.972  48.019 133.017  1.00  0.00    -0.452 OA
ENDROOT
BRANCH   1  12
ATOM     12  C   UNL     1     100.025  49.858 131.777  1.00  0.00     0.021 A 
ATOM     13  C   UNL     1      99.352  50.826 132.542  1.00  0.00     0.016 A 
ATOM     14  C   UNL     1      99.379  52.171 132.163  1.00  0.00     0.047 A 
ATOM     15  C   UNL     1     100.092  52.568 131.024  1.00  0.00     0.115 A 
ATOM     16  C   UNL     1     100.754  50.266 130.646  1.00  0.00     0.016 A 
ATOM     17  C   UNL     1     100.780  51.613 130.270  1.00  0.00     0.047 A 
BRANCH  15  18
ATOM     18  O   UNL     1     100.124  53.905 130.636  1.00  0.00    -0.508 OA
ATOM     19  H   UNL     1     100.199  54.173 129.662  1.00  0.00     0.293 HD
ENDBRANCH  15  18
ENDBRANCH   1  12
BRANCH   2  20
ATOM     20  O   UNL     1      97.927  48.002 131.020  1.00  0.00    -0.502 OA
ATOM     21  H   UNL     1      98.016  48.790 130.389  1.00  0.00     0.293 HD
ENDBRANCH   2  20
BRANCH   6  22
ATOM     22  O   UNL     1      99.292  43.498 133.233  1.00  0.00    -0.507 OA
ATOM     23  H   UNL     1      99.450  42.862 132.459  1.00  0.00     0.293 HD
ENDBRANCH   6  22
BRANCH   8  24
ATOM     24  O   UNL     1     103.294  44.754 135.616  1.00  0.00    -0.508 OA
ATOM     25  H   UNL     1     104.134  44.318 135.253  1.00  0.00     0.293 HD
ENDBRANCH   8  24
TORSDOF 5
ENDMDL
MODEL 5
REMARK VINA RESULT:    -5.692      4.662      7.305
REMARK INTER + INTRA:          -6.720
REMARK INTER:                  -6.423
REMARK INTRA:                  -0.298
REMARK UNBOUND:                -0.030
REMARK SMILES O=c1c(O)c(-c2ccc(O)cc2)oc2cc(O)cc(O)c12
REMARK SMILES IDX 5 1 3 2 2 3 1 4 21 5 19 6 18 7 16 8 15 9 14 10 13 11 6 12
REMARK SMILES IDX 7 13 8 14 9 15 12 16 11 17 10 18 4 20 20 22 17 24
REMARK H PARENT 10 19 4 21 20 23 17 25
REMARK Flexibility Score: inf
ROOT
ATOM      1  C   UNL     1     105.459  43.805 135.678  1.00  0.00     0.180 A 
ATOM      2  C   UNL     1     105.393  45.209 135.604  1.00  0.00     0.208 A 
ATOM      3  C   UNL     1     104.153  45.818 135.354  1.00  0.00     0.238 A 
ATOM      4  O   UNL     1     104.083  47.074 135.275  1.00  0.00    -0.285 OA
ATOM      5  C   UNL     1     103.001  45.018 135.203  1.00  0.00     0.111 A 
ATOM      6  C   UNL     1     101.714  45.552 134.954  1.00  0.00     0.134 A 
ATOM      7  C   UNL     1     100.616  44.689 134.825  1.00  0.00     0.093 A 
ATOM      8  C   UNL     1     100.778  43.306 134.941  1.00  0.00     0.123 A 
ATOM      9  C   UNL     1     102.048  42.773 135.187  1.00  0.00     0.094 A 
ATOM     10  C   UNL     1     103.155  43.617 135.317  1.00  0.00     0.146 A 
ATOM     11  O   UNL     1     104.349  43.083 135.545  1.00  0.00    -0.452 OA
ENDROOT
BRANCH   1  12
ATOM     12  C   UNL     1     106.732  43.088 135.919  1.00  0.00     0.021 A 
ATOM     13  C   UNL     1     107.106  42.767 137.235  1.00  0.00     0.016 A 
ATOM     14  C   UNL     1     108.293  42.071 137.483  1.00  0.00     0.047 A 
ATOM     15  C   UNL     1     109.113  41.674 136.419  1.00  0.00     0.115 A 
ATOM     16  C   UNL     1     107.551  42.670 134.854  1.00  0.00     0.016 A 
ATOM     17  C   UNL     1     108.737  41.973 135.106  1.00  0.00     0.047 A 
BRANCH  15  18
ATOM     18  O   UNL     1     110.298  40.982 136.655  1.00  0.00    -0.508 OA
ATOM     19  H   UNL     1     111.199  41.369 136.398  1.00  0.00     0.293 HD
ENDBRANCH  15  18
ENDBRANCH   1  12
BRANCH   2  20
ATOM     20  O   UNL     1     106.539  45.982 135.807  1.00  0.00    -0.502 OA
ATOM     21  H   UNL     1     107.201  45.787 136.549  1.00  0.00     0.293 HD
ENDBRANCH   2  20
BRANCH   6  22
ATOM     22  O   UNL     1     101.519  46.929 134.834  1.00  0.00    -0.507 OA
ATOM     23  H   UNL     1     101.836  47.443 134.019  1.00  0.00     0.293 HD
ENDBRANCH   6  22
BRANCH   8  24
ATOM     24  O   UNL     1      99.671  42.472 134.810  1.00  0.00    -0.508 OA
ATOM     25  H   UNL     1      99.355  42.150 133.902  1.00  0.00     0.293 HD
ENDBRANCH   8  24
TORSDOF 5
ENDMDL
MODEL 6
REMARK VINA RESULT:    -5.665      8.291      9.907
REMARK INTER + INTRA:          -6.688
REMARK INTER:                  -6.390
REMARK INTRA:                  -0.298
REMARK UNBOUND:                -0.030
REMARK SMILES O=c1c(O)c(-c2ccc(O)cc2)oc2cc(O)cc(O)c12
REMARK SMILES IDX 5 1 3 2 2 3 1 4 21 5 19 6 18 7 16 8 15 9 14 10 13 11 6 12
REMARK SMILES IDX 7 13 8 14 9 15 12 16 11 17 10 18 4 20 20 22 17 24
REMARK H PARENT 10 19 4 21 20 23 17 25
REMARK Flexibility Score: inf
ROOT
ATOM      1  C   UNL     1     101.333  48.657 132.765  1.00  0.00     0.180 A 
ATOM      2  C   UNL     1     100.555  47.504 132.549  1.00  0.00     0.208 A 
ATOM      3  C   UNL     1     100.911  46.313 133.200  1.00  0.00     0.238 A 
ATOM      4  O   UNL     1     100.229  45.270 133.006  1.00  0.00    -0.285 OA
ATOM      5  C   UNL     1     102.023  46.299 134.069  1.00  0.00     0.111 A 
ATOM      6  C   UNL     1     102.446  45.142 134.767  1.00  0.00     0.134 A 
ATOM      7  C   UNL     1     103.556  45.211 135.620  1.00  0.00     0.093 A 
ATOM      8  C   UNL     1     104.250  46.412 135.791  1.00  0.00     0.123 A 
ATOM      9  C   UNL     1     103.837  47.559 135.104  1.00  0.00     0.094 A 
ATOM     10  C   UNL     1     102.733  47.508 134.247  1.00  0.00     0.146 A 
ATOM     11  O   UNL     1     102.365  48.610 133.603  1.00  0.00    -0.452 OA
ENDROOT
BRANCH   1  12
ATOM     12  C   UNL     1     101.033  49.945 132.100  1.00  0.00     0.021 A 
ATOM     13  C   UNL     1     100.216  50.885 132.751  1.00  0.00     0.016 A 
ATOM     14  C   UNL     1      99.938  52.117 132.151  1.00  0.00     0.047 A 
ATOM     15  C   UNL     1     100.485  52.431 130.900  1.00  0.00     0.115 A 
ATOM     16  C   UNL     1     101.594  50.275 130.853  1.00  0.00     0.016 A 
ATOM     17  C   UNL     1     101.315  51.509 130.256  1.00  0.00     0.047 A 
BRANCH  15  18
ATOM     18  O   UNL     1     100.214  53.655 130.293  1.00  0.00    -0.508 OA
ATOM     19  H   UNL     1      99.264  53.982 130.161  1.00  0.00     0.293 HD
ENDBRANCH  15  18
ENDBRANCH   1  12
BRANCH   2  20
ATOM     20  O   UNL     1      99.430  47.556 131.722  1.00  0.00    -0.502 OA
ATOM     21  H   UNL     1      99.492  47.769 130.733  1.00  0.00     0.293 HD
ENDBRANCH   2  20
BRANCH   6  22
ATOM     22  O   UNL     1     101.773  43.928 134.618  1.00  0.00    -0.507 OA
ATOM     23  H   UNL     1     102.257  43.039 134.680  1.00  0.00     0.293 HD
ENDBRANCH   6  22
BRANCH   8  24
ATOM     24  O   UNL     1     105.349  46.454 136.645  1.00  0.00    -0.508 OA
ATOM     25  H   UNL     1     105.236  46.538 137.649  1.00  0.00     0.293 HD
ENDBRANCH   8  24
TORSDOF 5
ENDMDL
MODEL 7
REMARK VINA RESULT:    -5.627      2.837      3.564
REMARK INTER + INTRA:          -6.644
REMARK INTER:                  -6.349
REMARK INTRA:                  -0.295
REMARK UNBOUND:                -0.030
REMARK SMILES O=c1c(O)c(-c2ccc(O)cc2)oc2cc(O)cc(O)c12
REMARK SMILES IDX 5 1 3 2 2 3 1 4 21 5 19 6 18 7 16 8 15 9 14 10 13 11 6 12
REMARK SMILES IDX 7 13 8 14 9 15 12 16 11 17 10 18 4 20 20 22 17 24
REMARK H PARENT 10 19 4 21 20 23 17 25
REMARK Flexibility Score: inf
ROOT
ATOM      1  C   UNL     1     107.562  42.746 137.853  1.00  0.00     0.180 A 
ATOM      2  C   UNL     1     108.284  41.556 138.063  1.00  0.00     0.208 A 
ATOM      3  C   UNL     1     107.733  40.342 137.625  1.00  0.00     0.238 A 
ATOM      4  O   UNL     1     108.365  39.268 137.817  1.00  0.00    -0.285 OA
ATOM      5  C   UNL     1     106.484  40.339 136.968  1.00  0.00     0.111 A 
ATOM      6  C   UNL     1     105.862  39.160 136.492  1.00  0.00     0.134 A 
ATOM      7  C   UNL     1     104.623  39.242 135.841  1.00  0.00     0.093 A 
ATOM      8  C   UNL     1     103.995  40.477 135.655  1.00  0.00     0.123 A 
ATOM      9  C   UNL     1     104.605  41.645 136.124  1.00  0.00     0.094 A 
ATOM     10  C   UNL     1     105.840  41.583 136.777  1.00  0.00     0.146 A 
ATOM     11  O   UNL     1     106.394  42.707 137.217  1.00  0.00    -0.452 OA
ENDROOT
BRANCH   1  12
ATOM     12  C   UNL     1     108.067  44.063 138.303  1.00  0.00     0.021 A 
ATOM     13  C   UNL     1     108.724  44.902 137.387  1.00  0.00     0.016 A 
ATOM     14  C   UNL     1     109.189  46.159 137.785  1.00  0.00     0.047 A 
ATOM     15  C   UNL     1     108.989  46.600 139.100  1.00  0.00     0.115 A 
ATOM     16  C   UNL     1     107.853  44.521 139.616  1.00  0.00     0.016 A 
ATOM     17  C   UNL     1     108.318  45.779 140.011  1.00  0.00     0.047 A 
BRANCH  15  18
ATOM     18  O   UNL     1     109.449  47.849 139.508  1.00  0.00    -0.508 OA
ATOM     19  H   UNL     1     109.327  48.673 138.931  1.00  0.00     0.293 HD
ENDBRANCH  15  18
ENDBRANCH   1  12
BRANCH   2  20
ATOM     20  O   UNL     1     109.541  41.591 138.671  1.00  0.00    -0.502 OA
ATOM     21  H   UNL     1     109.952  40.779 139.115  1.00  0.00     0.293 HD
ENDBRANCH   2  20
BRANCH   6  22
ATOM     22  O   UNL     1     106.464  37.912 136.661  1.00  0.00    -0.507 OA
ATOM     23  H   UNL     1     106.256  37.133 136.047  1.00  0.00     0.293 HD
ENDBRANCH   6  22
BRANCH   8  24
ATOM     24  O   UNL     1     102.765  40.530 135.004  1.00  0.00    -0.508 OA
ATOM     25  H   UNL     1     101.934  40.115 135.408  1.00  0.00     0.293 HD
ENDBRANCH   8  24
TORSDOF 5
ENDMDL
MODEL 8
REMARK VINA RESULT:    -5.558      4.445      5.618
REMARK INTER + INTRA:          -6.563
REMARK INTER:                  -6.398
REMARK INTRA:                  -0.165
REMARK UNBOUND:                -0.030
REMARK SMILES O=c1c(O)c(-c2ccc(O)cc2)oc2cc(O)cc(O)c12
REMARK SMILES IDX 5 1 3 2 2 3 1 4 21 5 19 6 18 7 16 8 15 9 14 10 13 11 6 12
REMARK SMILES IDX 7 13 8 14 9 15 12 16 11 17 10 18 4 20 20 22 17 24
REMARK H PARENT 10 19 4 21 20 23 17 25
REMARK Flexibility Score: inf
ROOT
ATOM      1  C   UNL     1     104.545  44.612 135.507  1.00  0.00     0.180 A 
ATOM      2  C   UNL     1     105.266  45.240 136.540  1.00  0.00     0.208 A 
ATOM      3  C   UNL     1     106.531  44.739 136.886  1.00  0.00     0.238 A 
ATOM      4  O   UNL     1     107.182  45.286 137.817  1.00  0.00    -0.285 OA
ATOM      5  C   UNL     1     107.060  43.636 136.183  1.00  0.00     0.111 A 
ATOM      6  C   UNL     1     108.328  43.074 136.466  1.00  0.00     0.134 A 
ATOM      7  C   UNL     1     108.788  41.982 135.716  1.00  0.00     0.093 A 
ATOM      8  C   UNL     1     108.009  41.444 134.689  1.00  0.00     0.123 A 
ATOM      9  C   UNL     1     106.755  41.995 134.404  1.00  0.00     0.094 A 
ATOM     10  C   UNL     1     106.278  43.083 135.143  1.00  0.00     0.146 A 
ATOM     11  O   UNL     1     105.082  43.583 134.856  1.00  0.00    -0.452 OA
ENDROOT
BRANCH   1  12
ATOM     12  C   UNL     1     103.197  45.069 135.097  1.00  0.00     0.021 A 
ATOM     13  C   UNL     1     103.058  46.298 134.431  1.00  0.00     0.016 A 
ATOM     14  C   UNL     1     101.798  46.739 134.015  1.00  0.00     0.047 A 
ATOM     15  C   UNL     1     100.663  45.949 134.246  1.00  0.00     0.115 A 
ATOM     16  C   UNL     1     102.058  44.273 135.308  1.00  0.00     0.016 A 
ATOM     17  C   UNL     1     100.798  44.715 134.890  1.00  0.00     0.047 A 
BRANCH  15  18
ATOM     18  O   UNL     1      99.403  46.378 133.837  1.00  0.00    -0.508 OA
ATOM     19  H   UNL     1      98.633  46.459 134.490  1.00  0.00     0.293 HD
ENDBRANCH  15  18
ENDBRANCH   1  12
BRANCH   2  20
ATOM     20  O   UNL     1     104.741  46.361 137.187  1.00  0.00    -0.502 OA
ATOM     21  H   UNL     1     105.179  46.772 138.003  1.00  0.00     0.293 HD
ENDBRANCH   2  20
BRANCH   6  22
ATOM     22  O   UNL     1     109.131  43.590 137.485  1.00  0.00    -0.507 OA
ATOM     23  H   UNL     1     109.862  43.037 137.919  1.00  0.00     0.293 HD
ENDBRANCH   6  22
BRANCH   8  24
ATOM     24  O   UNL     1     108.490  40.361 133.958  1.00  0.00    -0.508 OA
ATOM     25  H   UNL     1     108.669  39.465 134.395  1.00  0.00     0.293 HD
ENDBRANCH   8  24
TORSDOF 5
ENDMDL
MODEL 9
REMARK VINA RESULT:    -5.501      2.039      7.171
REMARK INTER + INTRA:          -6.495
REMARK INTER:                  -6.204
REMARK INTRA:                  -0.291
REMARK UNBOUND:                -0.030
REMARK SMILES O=c1c(O)c(-c2ccc(O)cc2)oc2cc(O)cc(O)c12
REMARK SMILES IDX 5 1 3 2 2 3 1 4 21 5 19 6 18 7 16 8 15 9 14 10 13 11 6 12
REMARK SMILES IDX 7 13 8 14 9 15 12 16 11 17 10 18 4 20 20 22 17 24
REMARK H PARENT 10 19 4 21 20 23 17 25
REMARK Flexibility Score: inf
ROOT
ATOM      1  C   UNL     1     106.964  44.401 136.842  1.00  0.00     0.180 A 
ATOM      2  C   UNL     1     105.632  44.835 136.706  1.00  0.00     0.208 A 
ATOM      3  C   UNL     1     105.228  46.005 137.369  1.00  0.00     0.238 A 
ATOM      4  O   UNL     1     104.035  46.398 137.263  1.00  0.00    -0.285 OA
ATOM      5  C   UNL     1     106.163  46.729 138.137  1.00  0.00     0.111 A 
ATOM      6  C   UNL     1     105.839  47.919 138.833  1.00  0.00     0.134 A 
ATOM      7  C   UNL     1     106.829  48.586 139.568  1.00  0.00     0.093 A 
ATOM      8  C   UNL     1     108.134  48.090 139.622  1.00  0.00     0.123 A 
ATOM      9  C   UNL     1     108.460  46.915 138.937  1.00  0.00     0.094 A 
ATOM     10  C   UNL     1     107.487  46.234 138.200  1.00  0.00     0.146 A 
ATOM     11  O   UNL     1     107.822  45.118 137.563  1.00  0.00    -0.452 OA
ENDROOT
BRANCH   1  12
ATOM     12  C   UNL     1     107.461  43.168 136.190  1.00  0.00     0.021 A 
ATOM     13  C   UNL     1     107.350  41.938 136.861  1.00  0.00     0.016 A 
ATOM     14  C   UNL     1     107.793  40.759 136.254  1.00  0.00     0.047 A 
ATOM     15  C   UNL     1     108.337  40.792 134.963  1.00  0.00     0.115 A 
ATOM     16  C   UNL     1     107.990  43.190 134.887  1.00  0.00     0.016 A 
ATOM     17  C   UNL     1     108.431  42.009 134.282  1.00  0.00     0.047 A 
BRANCH  15  18
ATOM     18  O   UNL     1     108.782  39.623 134.350  1.00  0.00    -0.508 OA
ATOM     19  H   UNL     1     109.746  39.321 134.423  1.00  0.00     0.293 HD
ENDBRANCH  15  18
ENDBRANCH   1  12
BRANCH   2  20
ATOM     20  O   UNL     1     104.738  44.128 135.898  1.00  0.00    -0.502 OA
ATOM     21  H   UNL     1     103.812  44.475 135.680  1.00  0.00     0.293 HD
ENDBRANCH   2  20
BRANCH   6  22
ATOM     22  O   UNL     1     104.545  48.441 138.797  1.00  0.00    -0.507 OA
ATOM     23  H   UNL     1     103.784  47.948 138.342  1.00  0.00     0.293 HD
ENDBRANCH   6  22
BRANCH   8  24
ATOM     24  O   UNL     1     109.098  48.773 140.359  1.00  0.00    -0.508 OA
ATOM     25  H   UNL     1     109.957  48.323 140.653  1.00  0.00     0.293 HD
ENDBRANCH   8  24
TORSDOF 5
ENDMDL
