MODEL 1
REMARK VINA RESULT:    -0.035      0.000      0.000
REMARK INTER + INTRA:          -0.722
REMARK INTER:                  -0.068
REMARK INTRA:                  -0.654
REMARK UNBOUND:                -0.654
REMARK SMILES CCCCCCCCCCCCCCCCCC(=O)[O-]
REMARK SMILES IDX 10 1 11 2 12 3 13 4 14 5 15 6 16 7 17 8 18 9 19 10 20 11
REMARK SMILES IDX 9 12 8 13 7 14 6 15 5 16 4 17 3 18 2 19 1 20
REMARK H PARENT
REMARK Flexibility Score: inf
ROOT
ATOM      1  C   UNL     1       1.112  60.118  -5.839  1.00  0.00     0.000 C 
ENDROOT
BRANCH   1   2
ATOM      2  C   UNL     1       0.363  58.926  -6.478  1.00  0.00     0.000 C 
BRANCH   2   3
ATOM      3  C   UNL     1      -1.120  58.875  -6.078  1.00  0.00     0.000 C 
BRANCH   3   4
ATOM      4  C   UNL     1      -2.044  59.518  -7.126  1.00  0.00     0.000 C 
BRANCH   4   5
ATOM      5  C   UNL     1      -3.210  60.320  -6.507  1.00  0.00     0.000 C 
BRANCH   5   6
ATOM      6  C   UNL     1      -4.317  59.404  -5.958  1.00  0.00     0.000 C 
BRANCH   6   7
ATOM      7  C   UNL     1      -4.492  59.533  -4.437  1.00  0.00     0.006 C 
BRANCH   7   8
ATOM      8  C   UNL     1      -3.520  60.542  -3.813  1.00  0.00     0.053 C 
BRANCH   8   9
ATOM      9  C   UNL     1      -2.761  59.908  -2.690  1.00  0.00     0.041 C 
ATOM     10  O   UNL     1      -1.596  60.297  -2.413  1.00  0.00    -0.550 OA
ATOM     11  O   UNL     1      -3.360  58.921  -1.917  1.00  0.00    -0.550 OA
ENDBRANCH   8   9
ENDBRANCH   7   8
ENDBRANCH   6   7
ENDBRANCH   5   6
ENDBRANCH   4   5
ENDBRANCH   3   4
ENDBRANCH   2   3
ENDBRANCH   1   2
BRANCH   1  12
ATOM     12  C   UNL     1       2.178  59.696  -4.812  1.00  0.00     0.000 C 
BRANCH  12  13
ATOM     13  C   UNL     1       3.371  58.927  -5.409  1.00  0.00    -0.000 C 
BRANCH  13  14
ATOM     14  C   UNL     1       3.493  59.065  -6.943  1.00  0.00    -0.000 C 
BRANCH  14  15
ATOM     15  C   UNL     1       4.942  58.934  -7.440  1.00  0.00    -0.000 C 
BRANCH  15  16
ATOM     16  C   UNL     1       5.491  60.240  -8.039  1.00  0.00    -0.000 C 
BRANCH  16  17
ATOM     17  C   UNL     1       6.986  60.477  -7.734  1.00  0.00    -0.000 C 
BRANCH  17  18
ATOM     18  C   UNL     1       7.855  59.268  -8.125  1.00  0.00    -0.000 C 
BRANCH  18  19
ATOM     19  C   UNL     1       9.082  59.105  -7.215  1.00  0.00    -0.003 C 
ATOM     20  C   UNL     1      10.380  58.920  -8.000  1.00  0.00     0.004 C 
ENDBRANCH  18  19
ENDBRANCH  17  18
ENDBRANCH  16  17
ENDBRANCH  15  16
ENDBRANCH  14  15
ENDBRANCH  13  14
ENDBRANCH  12  13
ENDBRANCH   1  12
TORSDOF 16
ENDMDL
MODEL 2
REMARK VINA RESULT:     0.094     18.695     21.747
REMARK INTER + INTRA:          -0.472
REMARK INTER:                   0.020
REMARK INTRA:                  -0.491
REMARK UNBOUND:                -0.654
REMARK SMILES CCCCCCCCCCCCCCCCCC(=O)[O-]
REMARK SMILES IDX 10 1 11 2 12 3 13 4 14 5 15 6 16 7 17 8 18 9 19 10 20 11
REMARK SMILES IDX 9 12 8 13 7 14 6 15 5 16 4 17 3 18 2 19 1 20
REMARK H PARENT
REMARK Flexibility Score: inf
ROOT
ATOM      1  C   UNL     1      13.126  76.376  -2.620  1.00  0.00     0.000 C 
ENDROOT
BRANCH   1   2
ATOM      2  C   UNL     1      14.055  77.132  -1.642  1.00  0.00     0.000 C 
BRANCH   2   3
ATOM      3  C   UNL     1      14.449  76.282  -0.425  1.00  0.00     0.000 C 
BRANCH   3   4
ATOM      4  C   UNL     1      15.123  77.106   0.686  1.00  0.00     0.000 C 
BRANCH   4   5
ATOM      5  C   UNL     1      14.128  77.656   1.731  1.00  0.00     0.000 C 
BRANCH   5   6
ATOM      6  C   UNL     1      14.845  78.312   2.925  1.00  0.00     0.000 C 
BRANCH   6   7
ATOM      7  C   UNL     1      14.257  77.881   4.278  1.00  0.00     0.006 C 
BRANCH   7   8
ATOM      8  C   UNL     1      14.721  76.483   4.705  1.00  0.00     0.053 C 
BRANCH   8   9
ATOM      9  C   UNL     1      14.586  76.319   6.186  1.00  0.00     0.041 C 
ATOM     10  O   UNL     1      14.664  77.321   6.945  1.00  0.00    -0.550 OA
ATOM     11  O   UNL     1      14.325  75.066   6.726  1.00  0.00    -0.550 OA
ENDBRANCH   8   9
ENDBRANCH   7   8
ENDBRANCH   6   7
ENDBRANCH   5   6
ENDBRANCH   4   5
ENDBRANCH   3   4
ENDBRANCH   2   3
ENDBRANCH   1   2
BRANCH   1  12
ATOM     12  C   UNL     1      12.782  77.179  -3.887  1.00  0.00     0.000 C 
BRANCH  12  13
ATOM     13  C   UNL     1      13.596  76.786  -5.134  1.00  0.00    -0.000 C 
BRANCH  13  14
ATOM     14  C   UNL     1      12.795  75.953  -6.160  1.00  0.00    -0.000 C 
BRANCH  14  15
ATOM     15  C   UNL     1      12.897  74.440  -5.908  1.00  0.00    -0.000 C 
BRANCH  15  16
ATOM     16  C   UNL     1      11.747  73.647  -6.551  1.00  0.00    -0.000 C 
BRANCH  16  17
ATOM     17  C   UNL     1      11.823  72.128  -6.286  1.00  0.00    -0.000 C 
BRANCH  17  18
ATOM     18  C   UNL     1      10.784  71.668  -5.248  1.00  0.00    -0.000 C 
BRANCH  18  19
ATOM     19  C   UNL     1       9.420  71.347  -5.879  1.00  0.00    -0.003 C 
ATOM     20  C   UNL     1       8.564  72.593  -6.101  1.00  0.00     0.004 C 
ENDBRANCH  18  19
ENDBRANCH  17  18
ENDBRANCH  16  17
ENDBRANCH  15  16
ENDBRANCH  14  15
ENDBRANCH  13  14
ENDBRANCH  12  13
ENDBRANCH   1  12
TORSDOF 16
ENDMDL
MODEL 3
REMARK VINA RESULT:     0.433     19.322     22.290
REMARK INTER + INTRA:           0.184
REMARK INTER:                   0.774
REMARK INTRA:                  -0.589
REMARK UNBOUND:                -0.654
REMARK SMILES CCCCCCCCCCCCCCCCCC(=O)[O-]
REMARK SMILES IDX 10 1 11 2 12 3 13 4 14 5 15 6 16 7 17 8 18 9 19 10 20 11
REMARK SMILES IDX 9 12 8 13 7 14 6 15 5 16 4 17 3 18 2 19 1 20
REMARK H PARENT
REMARK Flexibility Score: inf
ROOT
ATOM      1  C   UNL     1      14.851  76.516  -0.428  1.00  0.00     0.000 C 
ENDROOT
BRANCH   1   2
ATOM      2  C   UNL     1      13.633  76.231  -1.338  1.00  0.00     0.000 C 
BRANCH   2   3
ATOM      3  C   UNL     1      13.617  77.111  -2.597  1.00  0.00     0.000 C 
BRANCH   3   4
ATOM      4  C   UNL     1      12.705  76.554  -3.704  1.00  0.00     0.000 C 
BRANCH   4   5
ATOM      5  C   UNL     1      13.223  76.841  -5.130  1.00  0.00     0.000 C 
BRANCH   5   6
ATOM      6  C   UNL     1      13.262  75.573  -5.999  1.00  0.00     0.000 C 
BRANCH   6   7
ATOM      7  C   UNL     1      11.933  74.802  -5.983  1.00  0.00     0.006 C 
BRANCH   7   8
ATOM      8  C   UNL     1      12.107  73.316  -6.321  1.00  0.00     0.053 C 
BRANCH   8   9
ATOM      9  C   UNL     1      10.866  72.555  -5.977  1.00  0.00     0.041 C 
ATOM     10  O   UNL     1      10.935  71.334  -5.675  1.00  0.00    -0.550 OA
ATOM     11  O   UNL     1       9.639  73.204  -5.942  1.00  0.00    -0.550 OA
ENDBRANCH   8   9
ENDBRANCH   7   8
ENDBRANCH   6   7
ENDBRANCH   5   6
ENDBRANCH   4   5
ENDBRANCH   3   4
ENDBRANCH   2   3
ENDBRANCH   1   2
BRANCH   1  12
ATOM     12  C   UNL     1      14.775  77.872   0.295  1.00  0.00     0.000 C 
BRANCH  12  13
ATOM     13  C   UNL     1      14.962  77.793   1.821  1.00  0.00    -0.000 C 
BRANCH  13  14
ATOM     14  C   UNL     1      14.300  78.960   2.588  1.00  0.00    -0.000 C 
BRANCH  14  15
ATOM     15  C   UNL     1      14.115  78.660   4.084  1.00  0.00    -0.000 C 
BRANCH  15  16
ATOM     16  C   UNL     1      14.922  77.438   4.555  1.00  0.00    -0.000 C 
BRANCH  16  17
ATOM     17  C   UNL     1      14.062  76.366   5.257  1.00  0.00    -0.000 C 
BRANCH  17  18
ATOM     18  C   UNL     1      14.637  75.969   6.629  1.00  0.00    -0.000 C 
BRANCH  18  19
ATOM     19  C   UNL     1      13.948  74.731   7.222  1.00  0.00    -0.003 C 
ATOM     20  C   UNL     1      14.922  73.800   7.943  1.00  0.00     0.004 C 
ENDBRANCH  18  19
ENDBRANCH  17  18
ENDBRANCH  16  17
ENDBRANCH  15  16
ENDBRANCH  14  15
ENDBRANCH  13  14
ENDBRANCH  12  13
ENDBRANCH   1  12
TORSDOF 16
ENDMDL
MODEL 4
REMARK VINA RESULT:     0.463      3.497      5.922
REMARK INTER + INTRA:           0.242
REMARK INTER:                   1.376
REMARK INTRA:                  -1.135
REMARK UNBOUND:                -0.654
REMARK SMILES CCCCCCCCCCCCCCCCCC(=O)[O-]
REMARK SMILES IDX 10 1 11 2 12 3 13 4 14 5 15 6 16 7 17 8 18 9 19 10 20 11
REMARK SMILES IDX 9 12 8 13 7 14 6 15 5 16 4 17 3 18 2 19 1 20
REMARK H PARENT
REMARK Flexibility Score: inf
ROOT
ATOM      1  C   UNL     1      -3.962  60.788  -5.139  1.00  0.00     0.000 C 
ENDROOT
BRANCH   1   2
ATOM      2  C   UNL     1      -4.269  59.531  -4.293  1.00  0.00     0.000 C 
BRANCH   2   3
ATOM      3  C   UNL     1      -3.300  59.360  -3.113  1.00  0.00     0.000 C 
BRANCH   3   4
ATOM      4  C   UNL     1      -1.827  59.547  -3.517  1.00  0.00     0.000 C 
BRANCH   4   5
ATOM      5  C   UNL     1      -0.928  60.023  -2.356  1.00  0.00     0.000 C 
BRANCH   5   6
ATOM      6  C   UNL     1      -1.297  59.351  -1.022  1.00  0.00     0.000 C 
BRANCH   6   7
ATOM      7  C   UNL     1      -0.229  59.561   0.063  1.00  0.00     0.006 C 
BRANCH   7   8
ATOM      8  C   UNL     1       1.105  60.053  -0.509  1.00  0.00     0.053 C 
BRANCH   8   9
ATOM      9  C   UNL     1       1.279  61.515  -0.242  1.00  0.00     0.041 C 
ATOM     10  O   UNL     1       1.078  62.355  -1.159  1.00  0.00    -0.550 OA
ATOM     11  O   UNL     1       1.615  61.954   1.032  1.00  0.00    -0.550 OA
ENDBRANCH   8   9
ENDBRANCH   7   8
ENDBRANCH   6   7
ENDBRANCH   5   6
ENDBRANCH   4   5
ENDBRANCH   3   4
ENDBRANCH   2   3
ENDBRANCH   1   2
BRANCH   1  12
ATOM     12  C   UNL     1      -4.410  60.669  -6.606  1.00  0.00     0.000 C 
BRANCH  12  13
ATOM     13  C   UNL     1      -4.184  59.280  -7.232  1.00  0.00    -0.000 C 
BRANCH  13  14
ATOM     14  C   UNL     1      -2.886  59.179  -8.064  1.00  0.00    -0.000 C 
BRANCH  14  15
ATOM     15  C   UNL     1      -1.632  59.002  -7.192  1.00  0.00    -0.000 C 
BRANCH  15  16
ATOM     16  C   UNL     1      -0.339  58.893  -8.017  1.00  0.00    -0.000 C 
BRANCH  16  17
ATOM     17  C   UNL     1       0.942  58.882  -7.156  1.00  0.00    -0.000 C 
BRANCH  17  18
ATOM     18  C   UNL     1       2.031  59.809  -7.725  1.00  0.00    -0.000 C 
BRANCH  18  19
ATOM     19  C   UNL     1       2.600  60.769  -6.670  1.00  0.00    -0.003 C 
ATOM     20  C   UNL     1       2.813  60.098  -5.313  1.00  0.00     0.004 C 
ENDBRANCH  18  19
ENDBRANCH  17  18
ENDBRANCH  16  17
ENDBRANCH  15  16
ENDBRANCH  14  15
ENDBRANCH  13  14
ENDBRANCH  12  13
ENDBRANCH   1  12
TORSDOF 16
ENDMDL
MODEL 5
REMARK VINA RESULT:     1.003      2.255      3.393
REMARK INTER + INTRA:           1.287
REMARK INTER:                   1.488
REMARK INTRA:                  -0.201
REMARK UNBOUND:                -0.654
REMARK SMILES CCCCCCCCCCCCCCCCCC(=O)[O-]
REMARK SMILES IDX 10 1 11 2 12 3 13 4 14 5 15 6 16 7 17 8 18 9 19 10 20 11
REMARK SMILES IDX 9 12 8 13 7 14 6 15 5 16 4 17 3 18 2 19 1 20
REMARK H PARENT
REMARK Flexibility Score: inf
ROOT
ATOM      1  C   UNL     1       0.257  60.966  -3.961  1.00  0.00     0.000 C 
ENDROOT
BRANCH   1   2
ATOM      2  C   UNL     1       0.480  60.388  -2.545  1.00  0.00     0.000 C 
BRANCH   2   3
ATOM      3  C   UNL     1      -0.838  60.109  -1.805  1.00  0.00     0.000 C 
BRANCH   3   4
ATOM      4  C   UNL     1      -1.764  59.152  -2.575  1.00  0.00     0.000 C 
BRANCH   4   5
ATOM      5  C   UNL     1      -2.884  59.875  -3.355  1.00  0.00     0.000 C 
BRANCH   5   6
ATOM      6  C   UNL     1      -4.110  58.974  -3.578  1.00  0.00     0.000 C 
BRANCH   6   7
ATOM      7  C   UNL     1      -4.595  58.984  -5.037  1.00  0.00     0.006 C 
BRANCH   7   8
ATOM      8  C   UNL     1      -3.892  60.051  -5.885  1.00  0.00     0.053 C 
BRANCH   8   9
ATOM      9  C   UNL     1      -3.765  59.588  -7.302  1.00  0.00     0.041 C 
ATOM     10  O   UNL     1      -4.776  59.557  -8.053  1.00  0.00    -0.550 OA
ATOM     11  O   UNL     1      -2.521  59.236  -7.810  1.00  0.00    -0.550 OA
ENDBRANCH   8   9
ENDBRANCH   7   8
ENDBRANCH   6   7
ENDBRANCH   5   6
ENDBRANCH   4   5
ENDBRANCH   3   4
ENDBRANCH   2   3
ENDBRANCH   1   2
BRANCH   1  12
ATOM     12  C   UNL     1      -0.071  59.898  -5.018  1.00  0.00     0.000 C 
BRANCH  12  13
ATOM     13  C   UNL     1       1.118  59.004  -5.414  1.00  0.00    -0.000 C 
BRANCH  13  14
ATOM     14  C   UNL     1       2.493  59.590  -5.018  1.00  0.00    -0.000 C 
BRANCH  14  15
ATOM     15  C   UNL     1       3.654  58.974  -5.815  1.00  0.00    -0.000 C 
BRANCH  15  16
ATOM     16  C   UNL     1       3.494  59.145  -7.335  1.00  0.00    -0.000 C 
BRANCH  16  17
ATOM     17  C   UNL     1       4.794  58.876  -8.125  1.00  0.00    -0.000 C 
BRANCH  17  18
ATOM     18  C   UNL     1       6.039  58.916  -7.222  1.00  0.00    -0.000 C 
BRANCH  18  19
ATOM     19  C   UNL     1       7.330  59.193  -8.007  1.00  0.00    -0.003 C 
ATOM     20  C   UNL     1       8.543  59.397  -7.101  1.00  0.00     0.004 C 
ENDBRANCH  18  19
ENDBRANCH  17  18
ENDBRANCH  16  17
ENDBRANCH  15  16
ENDBRANCH  14  15
ENDBRANCH  13  14
ENDBRANCH  12  13
ENDBRANCH   1  12
TORSDOF 16
ENDMDL
MODEL 6
REMARK VINA RESULT:     1.023      3.931      7.283
REMARK INTER + INTRA:           1.325
REMARK INTER:                   1.701
REMARK INTRA:                  -0.376
REMARK UNBOUND:                -0.654
REMARK SMILES CCCCCCCCCCCCCCCCCC(=O)[O-]
REMARK SMILES IDX 10 1 11 2 12 3 13 4 14 5 15 6 16 7 17 8 18 9 19 10 20 11
REMARK SMILES IDX 9 12 8 13 7 14 6 15 5 16 4 17 3 18 2 19 1 20
REMARK H PARENT
REMARK Flexibility Score: inf
ROOT
ATOM      1  C   UNL     1      -2.691  61.198  -3.942  1.00  0.00     0.000 C 
ENDROOT
BRANCH   1   2
ATOM      2  C   UNL     1      -3.934  60.785  -4.763  1.00  0.00     0.000 C 
BRANCH   2   3
ATOM      3  C   UNL     1      -3.609  60.539  -6.245  1.00  0.00     0.000 C 
BRANCH   3   4
ATOM      4  C   UNL     1      -3.025  59.140  -6.505  1.00  0.00     0.000 C 
BRANCH   4   5
ATOM      5  C   UNL     1      -2.397  58.987  -7.907  1.00  0.00     0.000 C 
BRANCH   5   6
ATOM      6  C   UNL     1      -0.863  58.876  -7.846  1.00  0.00     0.000 C 
BRANCH   6   7
ATOM      7  C   UNL     1      -0.302  59.189  -6.450  1.00  0.00     0.006 C 
BRANCH   7   8
ATOM      8  C   UNL     1       1.221  59.025  -6.376  1.00  0.00     0.053 C 
BRANCH   8   9
ATOM      9  C   UNL     1       1.827  60.136  -5.578  1.00  0.00     0.041 C 
ATOM     10  O   UNL     1       1.362  60.430  -4.445  1.00  0.00    -0.550 OA
ATOM     11  O   UNL     1       2.936  60.817  -6.065  1.00  0.00    -0.550 OA
ENDBRANCH   8   9
ENDBRANCH   7   8
ENDBRANCH   6   7
ENDBRANCH   5   6
ENDBRANCH   4   5
ENDBRANCH   3   4
ENDBRANCH   2   3
ENDBRANCH   1   2
BRANCH   1  12
ATOM     12  C   UNL     1      -2.046  60.032  -3.172  1.00  0.00     0.000 C 
BRANCH  12  13
ATOM     13  C   UNL     1      -3.011  58.883  -2.828  1.00  0.00    -0.000 C 
BRANCH  13  14
ATOM     14  C   UNL     1      -3.476  58.883  -1.354  1.00  0.00    -0.000 C 
BRANCH  14  15
ATOM     15  C   UNL     1      -2.303  58.876  -0.360  1.00  0.00    -0.000 C 
BRANCH  15  16
ATOM     16  C   UNL     1      -0.941  59.101  -1.038  1.00  0.00    -0.000 C 
BRANCH  16  17
ATOM     17  C   UNL     1       0.184  59.476  -0.050  1.00  0.00    -0.000 C 
BRANCH  17  18
ATOM     18  C   UNL     1       1.222  60.419  -0.684  1.00  0.00    -0.000 C 
BRANCH  18  19
ATOM     19  C   UNL     1       0.936  61.898  -0.383  1.00  0.00    -0.003 C 
ATOM     20  C   UNL     1       1.877  62.480   0.672  1.00  0.00     0.004 C 
ENDBRANCH  18  19
ENDBRANCH  17  18
ENDBRANCH  16  17
ENDBRANCH  15  16
ENDBRANCH  14  15
ENDBRANCH  13  14
ENDBRANCH  12  13
ENDBRANCH   1  12
TORSDOF 16
ENDMDL
MODEL 7
REMARK VINA RESULT:     1.609      1.929      3.331
REMARK INTER + INTRA:           2.459
REMARK INTER:                   2.375
REMARK INTRA:                   0.084
REMARK UNBOUND:                -0.654
REMARK SMILES CCCCCCCCCCCCCCCCCC(=O)[O-]
REMARK SMILES IDX 10 1 11 2 12 3 13 4 14 5 15 6 16 7 17 8 18 9 19 10 20 11
REMARK SMILES IDX 9 12 8 13 7 14 6 15 5 16 4 17 3 18 2 19 1 20
REMARK H PARENT
REMARK Flexibility Score: inf
ROOT
ATOM      1  C   UNL     1       1.208  60.257  -5.729  1.00  0.00     0.000 C 
ENDROOT
BRANCH   1   2
ATOM      2  C   UNL     1       0.676  59.204  -6.728  1.00  0.00     0.000 C 
BRANCH   2   3
ATOM      3  C   UNL     1      -0.810  58.879  -6.510  1.00  0.00     0.000 C 
BRANCH   3   4
ATOM      4  C   UNL     1      -1.634  58.952  -7.807  1.00  0.00     0.000 C 
BRANCH   4   5
ATOM      5  C   UNL     1      -2.799  59.962  -7.739  1.00  0.00     0.000 C 
BRANCH   5   6
ATOM      6  C   UNL     1      -3.826  59.592  -6.655  1.00  0.00     0.000 C 
BRANCH   6   7
ATOM      7  C   UNL     1      -4.247  60.797  -5.800  1.00  0.00     0.006 C 
BRANCH   7   8
ATOM      8  C   UNL     1      -3.297  61.046  -4.622  1.00  0.00     0.053 C 
BRANCH   8   9
ATOM      9  C   UNL     1      -3.384  59.924  -3.636  1.00  0.00     0.041 C 
ATOM     10  O   UNL     1      -4.408  59.192  -3.598  1.00  0.00    -0.550 OA
ATOM     11  O   UNL     1      -2.314  59.655  -2.793  1.00  0.00    -0.550 OA
ENDBRANCH   8   9
ENDBRANCH   7   8
ENDBRANCH   6   7
ENDBRANCH   5   6
ENDBRANCH   4   5
ENDBRANCH   3   4
ENDBRANCH   2   3
ENDBRANCH   1   2
BRANCH   1  12
ATOM     12  C   UNL     1       2.157  59.674  -4.667  1.00  0.00     0.000 C 
BRANCH  12  13
ATOM     13  C   UNL     1       3.364  58.909  -5.239  1.00  0.00    -0.000 C 
BRANCH  13  14
ATOM     14  C   UNL     1       3.428  58.916  -6.783  1.00  0.00    -0.000 C 
BRANCH  14  15
ATOM     15  C   UNL     1       4.840  59.198  -7.320  1.00  0.00    -0.000 C 
BRANCH  15  16
ATOM     16  C   UNL     1       4.925  60.506  -8.125  1.00  0.00    -0.000 C 
BRANCH  16  17
ATOM     17  C   UNL     1       3.626  61.341  -8.082  1.00  0.00    -0.000 C 
BRANCH  17  18
ATOM     18  C   UNL     1       3.543  62.219  -6.821  1.00  0.00    -0.000 C 
BRANCH  18  19
ATOM     19  C   UNL     1       2.233  63.017  -6.743  1.00  0.00    -0.003 C 
ATOM     20  C   UNL     1       2.342  64.398  -7.388  1.00  0.00     0.004 C 
ENDBRANCH  18  19
ENDBRANCH  17  18
ENDBRANCH  16  17
ENDBRANCH  15  16
ENDBRANCH  14  15
ENDBRANCH  13  14
ENDBRANCH  12  13
ENDBRANCH   1  12
TORSDOF 16
ENDMDL
MODEL 8
REMARK VINA RESULT:     1.814     18.396     21.537
REMARK INTER + INTRA:           2.856
REMARK INTER:                   3.262
REMARK INTRA:                  -0.405
REMARK UNBOUND:                -0.654
REMARK SMILES CCCCCCCCCCCCCCCCCC(=O)[O-]
REMARK SMILES IDX 10 1 11 2 12 3 13 4 14 5 15 6 16 7 17 8 18 9 19 10 20 11
REMARK SMILES IDX 9 12 8 13 7 14 6 15 5 16 4 17 3 18 2 19 1 20
REMARK H PARENT
REMARK Flexibility Score: inf
ROOT
ATOM      1  C   UNL     1      13.205  77.347  -4.024  1.00  0.00     0.000 C 
ENDROOT
BRANCH   1   2
ATOM      2  C   UNL     1      12.749  76.752  -2.672  1.00  0.00     0.000 C 
BRANCH   2   3
ATOM      3  C   UNL     1      13.928  76.295  -1.800  1.00  0.00     0.000 C 
BRANCH   3   4
ATOM      4  C   UNL     1      14.479  77.417  -0.904  1.00  0.00     0.000 C 
BRANCH   4   5
ATOM      5  C   UNL     1      14.866  76.939   0.513  1.00  0.00     0.000 C 
BRANCH   5   6
ATOM      6  C   UNL     1      14.792  78.074   1.548  1.00  0.00     0.000 C 
BRANCH   6   7
ATOM      7  C   UNL     1      13.848  77.749   2.717  1.00  0.00     0.006 C 
BRANCH   7   8
ATOM      8  C   UNL     1      14.338  78.328   4.050  1.00  0.00     0.053 C 
BRANCH   8   9
ATOM      9  C   UNL     1      14.675  77.226   5.004  1.00  0.00     0.041 C 
ATOM     10  O   UNL     1      15.058  76.107   4.571  1.00  0.00    -0.550 OA
ATOM     11  O   UNL     1      14.612  77.448   6.374  1.00  0.00    -0.550 OA
ENDBRANCH   8   9
ENDBRANCH   7   8
ENDBRANCH   6   7
ENDBRANCH   5   6
ENDBRANCH   4   5
ENDBRANCH   3   4
ENDBRANCH   2   3
ENDBRANCH   1   2
BRANCH   1  12
ATOM     12  C   UNL     1      13.599  76.283  -5.064  1.00  0.00     0.000 C 
BRANCH  12  13
ATOM     13  C   UNL     1      13.047  76.537  -6.479  1.00  0.00    -0.000 C 
BRANCH  13  14
ATOM     14  C   UNL     1      12.616  75.250  -7.217  1.00  0.00    -0.000 C 
BRANCH  14  15
ATOM     15  C   UNL     1      12.533  74.029  -6.286  1.00  0.00    -0.000 C 
BRANCH  15  16
ATOM     16  C   UNL     1      11.135  73.390  -6.259  1.00  0.00    -0.000 C 
BRANCH  16  17
ATOM     17  C   UNL     1      11.122  71.963  -5.669  1.00  0.00    -0.000 C 
BRANCH  17  18
ATOM     18  C   UNL     1       9.736  71.303  -5.779  1.00  0.00    -0.000 C 
BRANCH  18  19
ATOM     19  C   UNL     1       8.640  72.297  -6.192  1.00  0.00    -0.003 C 
ATOM     20  C   UNL     1       8.233  73.235  -5.056  1.00  0.00     0.004 C 
ENDBRANCH  18  19
ENDBRANCH  17  18
ENDBRANCH  16  17
ENDBRANCH  15  16
ENDBRANCH  14  15
ENDBRANCH  13  14
ENDBRANCH  12  13
ENDBRANCH   1  12
TORSDOF 16
ENDMDL
