MODEL 1
REMARK VINA RESULT:    -0.241      0.000      0.000
REMARK INTER + INTRA:          -1.257
REMARK INTER:                  -0.333
REMARK INTRA:                  -0.923
REMARK UNBOUND:                -0.923
REMARK SMILES CC[C@@H](CC[C@H](C)[C@@H]1CC[C@H]2[C@@H]3CC=C4C[C@@H](O)CC[C@@]4(C)[C@@H]3CC[C@]21C)C(C)C
REMARK SMILES IDX 5 1 4 2 3 3 2 4 1 5 28 6 29 7 30 8 6 9 7 10 8 11 9 12 26 13
REMARK SMILES IDX 10 14 11 15 25 16 27 17 12 18 24 19 23 20 13 21 21 22 14 23
REMARK SMILES IDX 15 24 20 25 22 26 16 27 19 28 17 29 18 30
REMARK H PARENT 18 31
REMARK Flexibility Score: inf
ROOT
ATOM      1  C   UNL     1     -15.537 -26.494 -13.095  1.00  0.00     0.004 C 
ENDROOT
BRANCH   1   2
ATOM      2  C   UNL     1     -14.106 -25.925 -13.194  1.00  0.00     0.004 C 
BRANCH   2   3
ATOM      3  C   UNL     1     -13.503 -26.071 -14.620  1.00  0.00    -0.009 C 
BRANCH   3   4
ATOM      4  C   UNL     1     -14.596 -26.549 -15.618  1.00  0.00     0.000 C 
ATOM      5  C   UNL     1     -14.293 -27.909 -16.250  1.00  0.00     0.004 C 
ENDBRANCH   3   4
BRANCH   3   6
ATOM      6  C   UNL     1     -12.232 -26.987 -14.642  1.00  0.00    -0.014 C 
ATOM      7  C   UNL     1     -11.103 -26.381 -15.494  1.00  0.00     0.007 C 
ATOM      8  C   UNL     1     -11.704 -27.347 -13.243  1.00  0.00     0.007 C 
ENDBRANCH   3   6
ENDBRANCH   2   3
ENDBRANCH   1   2
BRANCH   1   9
ATOM      9  C   UNL     1     -15.843 -27.100 -11.699  1.00  0.00    -0.011 C 
ATOM     10  C   UNL     1     -15.147 -26.315 -10.566  1.00  0.00     0.008 C 
BRANCH   9  11
ATOM     11  C   UNL     1     -15.681 -28.669 -11.636  1.00  0.00    -0.002 C 
ATOM     12  C   UNL     1     -14.258 -29.028 -11.190  1.00  0.00     0.005 C 
ATOM     13  C   UNL     1     -15.942 -29.565 -12.911  1.00  0.00    -0.026 C 
ATOM     14  C   UNL     1     -13.503 -29.481 -12.433  1.00  0.00     0.005 C 
ATOM     15  C   UNL     1     -14.533 -29.711 -13.559  1.00  0.00    -0.001 C 
ATOM     16  C   UNL     1     -16.529 -30.962 -12.485  1.00  0.00     0.007 C 
ATOM     17  C   UNL     1     -16.961 -28.943 -13.900  1.00  0.00     0.012 C 
ATOM     18  C   UNL     1     -14.245 -31.051 -14.309  1.00  0.00     0.000 C 
ATOM     19  C   UNL     1     -15.489 -32.065 -12.257  1.00  0.00     0.005 C 
ATOM     20  C   UNL     1     -14.615 -32.351 -13.507  1.00  0.00     0.003 C 
ATOM     21  C   UNL     1     -14.774 -31.063 -15.754  1.00  0.00     0.031 C 
ATOM     22  C   UNL     1     -15.100 -33.581 -14.397  1.00  0.00    -0.008 C 
ATOM     23  C   UNL     1     -14.334 -32.333 -16.421  1.00  0.00    -0.027 C 
ATOM     24  C   UNL     1     -14.444 -33.513 -15.781  1.00  0.00    -0.065 C 
ATOM     25  C   UNL     1     -14.663 -34.910 -13.708  1.00  0.00     0.014 C 
ATOM     26  C   UNL     1     -16.641 -33.611 -14.600  1.00  0.00     0.016 C 
ATOM     27  C   UNL     1     -13.812 -34.749 -16.383  1.00  0.00     0.063 C 
ATOM     28  C   UNL     1     -14.916 -36.175 -14.555  1.00  0.00     0.033 C 
ATOM     29  C   UNL     1     -14.651 -35.994 -16.071  1.00  0.00     0.118 C 
BRANCH  29  30
ATOM     30  O   UNL     1     -13.996 -37.125 -16.587  1.00  0.00    -0.393 OA
ATOM     31  H   UNL     1     -13.249 -36.790 -17.150  1.00  0.00     0.210 HD
ENDBRANCH  29  30
ENDBRANCH   9  11
ENDBRANCH   1   9
TORSDOF 7
ENDMDL
MODEL 2
REMARK VINA RESULT:    -0.216      4.023      7.183
REMARK INTER + INTRA:          -1.222
REMARK INTER:                  -1.837
REMARK INTRA:                   0.614
REMARK UNBOUND:                -0.923
REMARK SMILES CC[C@@H](CC[C@H](C)[C@@H]1CC[C@H]2[C@@H]3CC=C4C[C@@H](O)CC[C@@]4(C)[C@@H]3CC[C@]21C)C(C)C
REMARK SMILES IDX 5 1 4 2 3 3 2 4 1 5 28 6 29 7 30 8 6 9 7 10 8 11 9 12 26 13
REMARK SMILES IDX 10 14 11 15 25 16 27 17 12 18 24 19 23 20 13 21 21 22 14 23
REMARK SMILES IDX 15 24 20 25 22 26 16 27 19 28 17 29 18 30
REMARK H PARENT 18 31
REMARK Flexibility Score: inf
ROOT
ATOM      1  C   UNL     1     -13.089 -33.534  -9.108  1.00  0.00     0.004 C 
ENDROOT
BRANCH   1   2
ATOM      2  C   UNL     1     -12.018 -32.461  -9.393  1.00  0.00     0.004 C 
BRANCH   2   3
ATOM      3  C   UNL     1     -11.030 -32.274  -8.206  1.00  0.00    -0.009 C 
BRANCH   3   4
ATOM      4  C   UNL     1     -10.148 -31.014  -8.437  1.00  0.00     0.000 C 
ATOM      5  C   UNL     1     -10.433 -30.303  -9.762  1.00  0.00     0.004 C 
ENDBRANCH   3   4
BRANCH   3   6
ATOM      6  C   UNL     1     -10.177 -33.558  -7.928  1.00  0.00    -0.014 C 
ATOM      7  C   UNL     1      -9.339 -33.968  -9.153  1.00  0.00     0.007 C 
ATOM      8  C   UNL     1      -9.279 -33.447  -6.684  1.00  0.00     0.007 C 
ENDBRANCH   3   6
ENDBRANCH   2   3
ENDBRANCH   1   2
BRANCH   1   9
ATOM      9  C   UNL     1     -14.445 -33.221  -9.797  1.00  0.00    -0.011 C 
ATOM     10  C   UNL     1     -14.748 -34.203 -10.948  1.00  0.00     0.008 C 
BRANCH   9  11
ATOM     11  C   UNL     1     -14.648 -31.693 -10.139  1.00  0.00    -0.002 C 
ATOM     12  C   UNL     1     -16.143 -31.390 -10.303  1.00  0.00     0.005 C 
ATOM     13  C   UNL     1     -13.964 -31.045 -11.408  1.00  0.00    -0.026 C 
ATOM     14  C   UNL     1     -16.410 -31.266 -11.798  1.00  0.00     0.005 C 
ATOM     15  C   UNL     1     -15.049 -31.166 -12.520  1.00  0.00    -0.001 C 
ATOM     16  C   UNL     1     -13.595 -29.543 -11.121  1.00  0.00     0.007 C 
ATOM     17  C   UNL     1     -12.647 -31.751 -11.821  1.00  0.00     0.012 C 
ATOM     18  C   UNL     1     -15.074 -30.034 -13.596  1.00  0.00     0.000 C 
ATOM     19  C   UNL     1     -14.668 -28.520 -11.515  1.00  0.00     0.005 C 
ATOM     20  C   UNL     1     -15.040 -28.572 -13.020  1.00  0.00     0.003 C 
ATOM     21  C   UNL     1     -14.062 -30.257 -14.733  1.00  0.00     0.031 C 
ATOM     22  C   UNL     1     -14.292 -27.502 -13.934  1.00  0.00    -0.008 C 
ATOM     23  C   UNL     1     -14.258 -29.193 -15.772  1.00  0.00    -0.027 C 
ATOM     24  C   UNL     1     -14.407 -27.905 -15.408  1.00  0.00    -0.065 C 
ATOM     25  C   UNL     1     -14.972 -26.110 -13.747  1.00  0.00     0.014 C 
ATOM     26  C   UNL     1     -12.782 -27.366 -13.592  1.00  0.00     0.016 C 
ATOM     27  C   UNL     1     -14.804 -26.878 -16.447  1.00  0.00     0.063 C 
ATOM     28  C   UNL     1     -14.456 -25.020 -14.709  1.00  0.00     0.033 C 
ATOM     29  C   UNL     1     -14.156 -25.522 -16.145  1.00  0.00     0.118 C 
BRANCH  29  30
ATOM     30  O   UNL     1     -14.603 -24.583 -17.089  1.00  0.00    -0.393 OA
ATOM     31  H   UNL     1     -15.502 -24.883 -17.387  1.00  0.00     0.210 HD
ENDBRANCH  29  30
ENDBRANCH   9  11
ENDBRANCH   1   9
TORSDOF 7
ENDMDL
MODEL 3
REMARK VINA RESULT:     0.117      3.976      7.168
REMARK INTER + INTRA:          -0.762
REMARK INTER:                  -1.049
REMARK INTRA:                   0.286
REMARK UNBOUND:                -0.923
REMARK SMILES CC[C@@H](CC[C@H](C)[C@@H]1CC[C@H]2[C@@H]3CC=C4C[C@@H](O)CC[C@@]4(C)[C@@H]3CC[C@]21C)C(C)C
REMARK SMILES IDX 5 1 4 2 3 3 2 4 1 5 28 6 29 7 30 8 6 9 7 10 8 11 9 12 26 13
REMARK SMILES IDX 10 14 11 15 25 16 27 17 12 18 24 19 23 20 13 21 21 22 14 23
REMARK SMILES IDX 15 24 20 25 22 26 16 27 19 28 17 29 18 30
REMARK H PARENT 18 31
REMARK Flexibility Score: inf
ROOT
ATOM      1  C   UNL     1     -13.040 -33.747  -9.202  1.00  0.00     0.004 C 
ENDROOT
BRANCH   1   2
ATOM      2  C   UNL     1     -12.179 -32.509  -8.875  1.00  0.00     0.004 C 
BRANCH   2   3
ATOM      3  C   UNL     1     -10.658 -32.773  -9.064  1.00  0.00    -0.009 C 
BRANCH   3   4
ATOM      4  C   UNL     1     -10.139 -33.730  -7.954  1.00  0.00     0.000 C 
ATOM      5  C   UNL     1     -10.448 -33.245  -6.536  1.00  0.00     0.004 C 
ENDBRANCH   3   4
BRANCH   3   6
ATOM      6  C   UNL     1      -9.826 -31.449  -9.151  1.00  0.00    -0.014 C 
ATOM      7  C   UNL     1     -10.727 -30.216  -9.336  1.00  0.00     0.007 C 
ATOM      8  C   UNL     1      -8.875 -31.237  -7.960  1.00  0.00     0.007 C 
ENDBRANCH   3   6
ENDBRANCH   2   3
ENDBRANCH   1   2
BRANCH   1   9
ATOM      9  C   UNL     1     -14.418 -33.371  -9.810  1.00  0.00    -0.011 C 
ATOM     10  C   UNL     1     -14.826 -34.328 -10.950  1.00  0.00     0.008 C 
BRANCH   9  11
ATOM     11  C   UNL     1     -14.577 -31.832 -10.126  1.00  0.00    -0.002 C 
ATOM     12  C   UNL     1     -16.065 -31.474 -10.234  1.00  0.00     0.005 C 
ATOM     13  C   UNL     1     -13.915 -31.193 -11.411  1.00  0.00    -0.026 C 
ATOM     14  C   UNL     1     -16.380 -31.320 -11.716  1.00  0.00     0.005 C 
ATOM     15  C   UNL     1     -15.042 -31.260 -12.485  1.00  0.00    -0.001 C 
ATOM     16  C   UNL     1     -13.481 -29.709 -11.120  1.00  0.00     0.007 C 
ATOM     17  C   UNL     1     -12.640 -31.941 -11.879  1.00  0.00     0.012 C 
ATOM     18  C   UNL     1     -15.063 -30.114 -13.547  1.00  0.00     0.000 C 
ATOM     19  C   UNL     1     -14.529 -28.643 -11.463  1.00  0.00     0.005 C 
ATOM     20  C   UNL     1     -14.956 -28.662 -12.955  1.00  0.00     0.003 C 
ATOM     21  C   UNL     1     -14.101 -30.359 -14.721  1.00  0.00     0.031 C 
ATOM     22  C   UNL     1     -14.201 -27.608 -13.882  1.00  0.00    -0.008 C 
ATOM     23  C   UNL     1     -14.294 -29.275 -15.740  1.00  0.00    -0.027 C 
ATOM     24  C   UNL     1     -14.383 -27.987 -15.356  1.00  0.00    -0.065 C 
ATOM     25  C   UNL     1     -14.823 -26.195 -13.655  1.00  0.00     0.014 C 
ATOM     26  C   UNL     1     -12.676 -27.531 -13.593  1.00  0.00     0.016 C 
ATOM     27  C   UNL     1     -14.778 -26.933 -16.368  1.00  0.00     0.063 C 
ATOM     28  C   UNL     1     -14.301 -25.112 -14.621  1.00  0.00     0.033 C 
ATOM     29  C   UNL     1     -14.071 -25.605 -16.073  1.00  0.00     0.118 C 
BRANCH  29  30
ATOM     30  O   UNL     1     -14.516 -24.638 -16.989  1.00  0.00    -0.393 OA
ATOM     31  H   UNL     1     -15.135 -24.039 -16.494  1.00  0.00     0.210 HD
ENDBRANCH  29  30
ENDBRANCH   9  11
ENDBRANCH   1   9
TORSDOF 7
ENDMDL
MODEL 4
REMARK VINA RESULT:     0.531      4.694      7.699
REMARK INTER + INTRA:          -0.191
REMARK INTER:                   1.179
REMARK INTRA:                  -1.370
REMARK UNBOUND:                -0.923
REMARK SMILES CC[C@@H](CC[C@H](C)[C@@H]1CC[C@H]2[C@@H]3CC=C4C[C@@H](O)CC[C@@]4(C)[C@@H]3CC[C@]21C)C(C)C
REMARK SMILES IDX 5 1 4 2 3 3 2 4 1 5 28 6 29 7 30 8 6 9 7 10 8 11 9 12 26 13
REMARK SMILES IDX 10 14 11 15 25 16 27 17 12 18 24 19 23 20 13 21 21 22 14 23
REMARK SMILES IDX 15 24 20 25 22 26 16 27 19 28 17 29 18 30
REMARK H PARENT 18 31
REMARK Flexibility Score: inf
ROOT
ATOM      1  C   UNL     1     -11.015 -33.127  -8.724  1.00  0.00     0.004 C 
ENDROOT
BRANCH   1   2
ATOM      2  C   UNL     1     -10.701 -32.773  -7.255  1.00  0.00     0.004 C 
BRANCH   2   3
ATOM      3  C   UNL     1      -9.906 -31.443  -7.119  1.00  0.00    -0.009 C 
BRANCH   3   4
ATOM      4  C   UNL     1      -9.074 -31.182  -8.407  1.00  0.00     0.000 C 
ATOM      5  C   UNL     1      -8.875 -29.696  -8.715  1.00  0.00     0.004 C 
ENDBRANCH   3   4
BRANCH   3   6
ATOM      6  C   UNL     1      -9.029 -31.398  -5.822  1.00  0.00    -0.014 C 
ATOM      7  C   UNL     1      -9.236 -30.092  -5.034  1.00  0.00     0.007 C 
ATOM      8  C   UNL     1      -9.229 -32.612  -4.898  1.00  0.00     0.007 C 
ENDBRANCH   3   6
ENDBRANCH   2   3
ENDBRANCH   1   2
BRANCH   1   9
ATOM      9  C   UNL     1     -12.509 -32.901  -9.084  1.00  0.00    -0.011 C 
ATOM     10  C   UNL     1     -13.378 -34.128  -8.733  1.00  0.00     0.008 C 
BRANCH   9  11
ATOM     11  C   UNL     1     -12.732 -32.302 -10.528  1.00  0.00    -0.002 C 
ATOM     12  C   UNL     1     -11.385 -31.887 -11.133  1.00  0.00     0.005 C 
ATOM     13  C   UNL     1     -13.677 -31.056 -10.754  1.00  0.00    -0.026 C 
ATOM     14  C   UNL     1     -11.303 -30.369 -11.038  1.00  0.00     0.005 C 
ATOM     15  C   UNL     1     -12.708 -29.836 -10.686  1.00  0.00    -0.001 C 
ATOM     16  C   UNL     1     -14.383 -31.154 -12.157  1.00  0.00     0.007 C 
ATOM     17  C   UNL     1     -14.807 -30.944  -9.699  1.00  0.00     0.012 C 
ATOM     18  C   UNL     1     -13.074 -28.604 -11.574  1.00  0.00     0.000 C 
ATOM     19  C   UNL     1     -13.645 -30.462 -13.309  1.00  0.00     0.005 C 
ATOM     20  C   UNL     1     -13.419 -28.946 -13.069  1.00  0.00     0.003 C 
ATOM     21  C   UNL     1     -14.102 -27.667 -10.917  1.00  0.00     0.031 C 
ATOM     22  C   UNL     1     -14.498 -27.990 -13.749  1.00  0.00    -0.008 C 
ATOM     23  C   UNL     1     -14.282 -26.459 -11.788  1.00  0.00    -0.027 C 
ATOM     24  C   UNL     1     -14.429 -26.595 -13.120  1.00  0.00    -0.065 C 
ATOM     25  C   UNL     1     -14.176 -27.863 -15.270  1.00  0.00     0.014 C 
ATOM     26  C   UNL     1     -15.954 -28.513 -13.593  1.00  0.00     0.016 C 
ATOM     27  C   UNL     1     -14.406 -25.364 -14.001  1.00  0.00     0.063 C 
ATOM     28  C   UNL     1     -15.041 -26.824 -16.015  1.00  0.00     0.033 C 
ATOM     29  C   UNL     1     -15.342 -25.540 -15.202  1.00  0.00     0.118 C 
BRANCH  29  30
ATOM     30  O   UNL     1     -15.240 -24.408 -16.028  1.00  0.00    -0.393 OA
ATOM     31  H   UNL     1     -16.152 -24.022 -16.097  1.00  0.00     0.210 HD
ENDBRANCH  29  30
ENDBRANCH   9  11
ENDBRANCH   1   9
TORSDOF 7
ENDMDL
MODEL 5
REMARK VINA RESULT:     0.552      4.658      7.797
REMARK INTER + INTRA:          -0.162
REMARK INTER:                   0.402
REMARK INTRA:                  -0.564
REMARK UNBOUND:                -0.923
REMARK SMILES CC[C@@H](CC[C@H](C)[C@@H]1CC[C@H]2[C@@H]3CC=C4C[C@@H](O)CC[C@@]4(C)[C@@H]3CC[C@]21C)C(C)C
REMARK SMILES IDX 5 1 4 2 3 3 2 4 1 5 28 6 29 7 30 8 6 9 7 10 8 11 9 12 26 13
REMARK SMILES IDX 10 14 11 15 25 16 27 17 12 18 24 19 23 20 13 21 21 22 14 23
REMARK SMILES IDX 15 24 20 25 22 26 16 27 19 28 17 29 18 30
REMARK H PARENT 18 31
REMARK Flexibility Score: inf
ROOT
ATOM      1  C   UNL     1     -10.895 -32.971  -9.360  1.00  0.00     0.004 C 
ENDROOT
BRANCH   1   2
ATOM      2  C   UNL     1      -9.814 -33.608  -8.462  1.00  0.00     0.004 C 
BRANCH   2   3
ATOM      3  C   UNL     1      -9.022 -32.550  -7.642  1.00  0.00    -0.009 C 
BRANCH   3   4
ATOM      4  C   UNL     1      -9.029 -32.928  -6.133  1.00  0.00     0.000 C 
ATOM      5  C   UNL     1     -10.435 -33.087  -5.550  1.00  0.00     0.004 C 
ENDBRANCH   3   4
BRANCH   3   6
ATOM      6  C   UNL     1      -9.531 -31.091  -7.895  1.00  0.00    -0.014 C 
ATOM      7  C   UNL     1      -9.299 -30.182  -6.674  1.00  0.00     0.007 C 
ATOM      8  C   UNL     1      -8.942 -30.440  -9.159  1.00  0.00     0.007 C 
ENDBRANCH   3   6
ENDBRANCH   2   3
ENDBRANCH   1   2
BRANCH   1   9
ATOM      9  C   UNL     1     -12.317 -33.074  -8.745  1.00  0.00    -0.011 C 
ATOM     10  C   UNL     1     -12.680 -34.527  -8.371  1.00  0.00     0.008 C 
BRANCH   9  11
ATOM     11  C   UNL     1     -13.420 -32.286  -9.555  1.00  0.00    -0.002 C 
ATOM     12  C   UNL     1     -13.656 -32.966 -10.910  1.00  0.00     0.005 C 
ATOM     13  C   UNL     1     -13.237 -30.754  -9.900  1.00  0.00    -0.026 C 
ATOM     14  C   UNL     1     -12.959 -32.115 -11.963  1.00  0.00     0.005 C 
ATOM     15  C   UNL     1     -12.583 -30.766 -11.315  1.00  0.00    -0.001 C 
ATOM     16  C   UNL     1     -14.633 -30.028  -9.914  1.00  0.00     0.007 C 
ATOM     17  C   UNL     1     -12.357 -29.996  -8.873  1.00  0.00     0.012 C 
ATOM     18  C   UNL     1     -12.945 -29.576 -12.260  1.00  0.00     0.000 C 
ATOM     19  C   UNL     1     -15.326 -29.974 -11.281  1.00  0.00     0.005 C 
ATOM     20  C   UNL     1     -14.481 -29.261 -12.369  1.00  0.00     0.003 C 
ATOM     21  C   UNL     1     -12.089 -28.322 -12.010  1.00  0.00     0.031 C 
ATOM     22  C   UNL     1     -14.842 -27.726 -12.601  1.00  0.00    -0.008 C 
ATOM     23  C   UNL     1     -12.424 -27.293 -13.049  1.00  0.00    -0.027 C 
ATOM     24  C   UNL     1     -13.707 -27.033 -13.363  1.00  0.00    -0.065 C 
ATOM     25  C   UNL     1     -16.142 -27.635 -13.459  1.00  0.00     0.014 C 
ATOM     26  C   UNL     1     -15.069 -26.951 -11.273  1.00  0.00     0.016 C 
ATOM     27  C   UNL     1     -14.020 -26.145 -14.548  1.00  0.00     0.063 C 
ATOM     28  C   UNL     1     -16.505 -26.203 -13.905  1.00  0.00     0.033 C 
ATOM     29  C   UNL     1     -15.288 -25.323 -14.291  1.00  0.00     0.118 C 
BRANCH  29  30
ATOM     30  O   UNL     1     -15.582 -24.567 -15.437  1.00  0.00    -0.393 OA
ATOM     31  H   UNL     1     -15.286 -25.105 -16.218  1.00  0.00     0.210 HD
ENDBRANCH  29  30
ENDBRANCH   9  11
ENDBRANCH   1   9
TORSDOF 7
ENDMDL
MODEL 6
REMARK VINA RESULT:     0.797      3.694      7.219
REMARK INTER + INTRA:           0.177
REMARK INTER:                   1.126
REMARK INTRA:                  -0.949
REMARK UNBOUND:                -0.923
REMARK SMILES CC[C@@H](CC[C@H](C)[C@@H]1CC[C@H]2[C@@H]3CC=C4C[C@@H](O)CC[C@@]4(C)[C@@H]3CC[C@]21C)C(C)C
REMARK SMILES IDX 5 1 4 2 3 3 2 4 1 5 28 6 29 7 30 8 6 9 7 10 8 11 9 12 26 13
REMARK SMILES IDX 10 14 11 15 25 16 27 17 12 18 24 19 23 20 13 21 21 22 14 23
REMARK SMILES IDX 15 24 20 25 22 26 16 27 19 28 17 29 18 30
REMARK H PARENT 18 31
REMARK Flexibility Score: inf
ROOT
ATOM      1  C   UNL     1     -14.481 -32.350  -9.353  1.00  0.00     0.004 C 
ENDROOT
BRANCH   1   2
ATOM      2  C   UNL     1     -13.164 -33.025  -9.790  1.00  0.00     0.004 C 
BRANCH   2   3
ATOM      3  C   UNL     1     -11.912 -32.356  -9.154  1.00  0.00    -0.009 C 
BRANCH   3   4
ATOM      4  C   UNL     1     -11.149 -31.522 -10.222  1.00  0.00     0.000 C 
ATOM      5  C   UNL     1     -10.538 -30.233  -9.669  1.00  0.00     0.004 C 
ENDBRANCH   3   4
BRANCH   3   6
ATOM      6  C   UNL     1     -10.985 -33.389  -8.428  1.00  0.00    -0.014 C 
ATOM      7  C   UNL     1      -9.762 -33.764  -9.283  1.00  0.00     0.007 C 
ATOM      8  C   UNL     1     -10.534 -32.938  -7.028  1.00  0.00     0.007 C 
ENDBRANCH   3   6
ENDBRANCH   2   3
ENDBRANCH   1   2
BRANCH   1   9
ATOM      9  C   UNL     1     -15.659 -32.662 -10.316  1.00  0.00    -0.011 C 
ATOM     10  C   UNL     1     -15.663 -34.140 -10.762  1.00  0.00     0.008 C 
BRANCH   9  11
ATOM     11  C   UNL     1     -15.833 -31.603 -11.474  1.00  0.00    -0.002 C 
ATOM     12  C   UNL     1     -15.495 -32.249 -12.825  1.00  0.00     0.005 C 
ATOM     13  C   UNL     1     -15.024 -30.246 -11.464  1.00  0.00    -0.026 C 
ATOM     14  C   UNL     1     -14.113 -31.748 -13.225  1.00  0.00     0.005 C 
ATOM     15  C   UNL     1     -13.750 -30.563 -12.304  1.00  0.00    -0.001 C 
ATOM     16  C   UNL     1     -15.877 -29.097 -12.119  1.00  0.00     0.007 C 
ATOM     17  C   UNL     1     -14.657 -29.762 -10.037  1.00  0.00     0.012 C 
ATOM     18  C   UNL     1     -13.147 -29.382 -13.130  1.00  0.00     0.000 C 
ATOM     19  C   UNL     1     -15.659 -28.901 -13.625  1.00  0.00     0.005 C 
ATOM     20  C   UNL     1     -14.187 -28.580 -13.994  1.00  0.00     0.003 C 
ATOM     21  C   UNL     1     -12.223 -28.473 -12.302  1.00  0.00     0.031 C 
ATOM     22  C   UNL     1     -13.862 -27.031 -14.176  1.00  0.00    -0.008 C 
ATOM     23  C   UNL     1     -11.598 -27.458 -13.213  1.00  0.00    -0.027 C 
ATOM     24  C   UNL     1     -12.347 -26.805 -14.121  1.00  0.00    -0.065 C 
ATOM     25  C   UNL     1     -14.381 -26.564 -15.572  1.00  0.00     0.014 C 
ATOM     26  C   UNL     1     -14.517 -26.143 -13.081  1.00  0.00     0.016 C 
ATOM     27  C   UNL     1     -11.670 -25.940 -15.162  1.00  0.00     0.063 C 
ATOM     28  C   UNL     1     -13.975 -25.124 -15.948  1.00  0.00     0.033 C 
ATOM     29  C   UNL     1     -12.542 -24.727 -15.510  1.00  0.00     0.118 C 
BRANCH  29  30
ATOM     30  O   UNL     1     -11.911 -23.990 -16.526  1.00  0.00    -0.393 OA
ATOM     31  H   UNL     1     -12.484 -23.197 -16.699  1.00  0.00     0.210 HD
ENDBRANCH  29  30
ENDBRANCH   9  11
ENDBRANCH   1   9
TORSDOF 7
ENDMDL
MODEL 7
REMARK VINA RESULT:     1.109      2.847      7.263
REMARK INTER + INTRA:           0.606
REMARK INTER:                   1.736
REMARK INTRA:                  -1.130
REMARK UNBOUND:                -0.923
REMARK SMILES CC[C@@H](CC[C@H](C)[C@@H]1CC[C@H]2[C@@H]3CC=C4C[C@@H](O)CC[C@@]4(C)[C@@H]3CC[C@]21C)C(C)C
REMARK SMILES IDX 5 1 4 2 3 3 2 4 1 5 28 6 29 7 30 8 6 9 7 10 8 11 9 12 26 13
REMARK SMILES IDX 10 14 11 15 25 16 27 17 12 18 24 19 23 20 13 21 21 22 14 23
REMARK SMILES IDX 15 24 20 25 22 26 16 27 19 28 17 29 18 30
REMARK H PARENT 18 31
REMARK Flexibility Score: inf
ROOT
ATOM      1  C   UNL     1     -15.941 -34.152 -11.322  1.00  0.00     0.004 C 
ENDROOT
BRANCH   1   2
ATOM      2  C   UNL     1     -14.761 -34.665 -12.172  1.00  0.00     0.004 C 
BRANCH   2   3
ATOM      3  C   UNL     1     -15.174 -34.979 -13.638  1.00  0.00    -0.009 C 
BRANCH   3   4
ATOM      4  C   UNL     1     -15.559 -36.480 -13.776  1.00  0.00     0.000 C 
ATOM      5  C   UNL     1     -16.719 -36.726 -14.743  1.00  0.00     0.004 C 
ENDBRANCH   3   4
BRANCH   3   6
ATOM      6  C   UNL     1     -14.083 -34.544 -14.675  1.00  0.00    -0.014 C 
ATOM      7  C   UNL     1     -13.390 -35.757 -15.322  1.00  0.00     0.007 C 
ATOM      8  C   UNL     1     -14.608 -33.591 -15.762  1.00  0.00     0.007 C 
ENDBRANCH   3   6
ENDBRANCH   2   3
ENDBRANCH   1   2
BRANCH   1   9
ATOM      9  C   UNL     1     -15.563 -32.918 -10.459  1.00  0.00    -0.011 C 
ATOM     10  C   UNL     1     -16.811 -32.187  -9.919  1.00  0.00     0.008 C 
BRANCH   9  11
ATOM     11  C   UNL     1     -14.466 -31.993 -11.117  1.00  0.00    -0.002 C 
ATOM     12  C   UNL     1     -13.802 -31.125 -10.039  1.00  0.00     0.005 C 
ATOM     13  C   UNL     1     -14.841 -30.981 -12.272  1.00  0.00    -0.026 C 
ATOM     14  C   UNL     1     -14.380 -29.723 -10.177  1.00  0.00     0.005 C 
ATOM     15  C   UNL     1     -15.136 -29.648 -11.521  1.00  0.00    -0.001 C 
ATOM     16  C   UNL     1     -13.637 -30.826 -13.273  1.00  0.00     0.007 C 
ATOM     17  C   UNL     1     -16.059 -31.440 -13.116  1.00  0.00     0.012 C 
ATOM     18  C   UNL     1     -14.790 -28.328 -12.280  1.00  0.00     0.000 C 
ATOM     19  C   UNL     1     -12.668 -29.681 -12.955  1.00  0.00     0.005 C 
ATOM     20  C   UNL     1     -13.354 -28.290 -12.919  1.00  0.00     0.003 C 
ATOM     21  C   UNL     1     -15.895 -27.880 -13.252  1.00  0.00     0.031 C 
ATOM     22  C   UNL     1     -13.236 -27.448 -14.267  1.00  0.00    -0.008 C 
ATOM     23  C   UNL     1     -15.523 -26.545 -13.826  1.00  0.00    -0.027 C 
ATOM     24  C   UNL     1     -14.271 -26.317 -14.268  1.00  0.00    -0.065 C 
ATOM     25  C   UNL     1     -11.813 -26.815 -14.348  1.00  0.00     0.014 C 
ATOM     26  C   UNL     1     -13.469 -28.309 -15.541  1.00  0.00     0.016 C 
ATOM     27  C   UNL     1     -13.861 -24.913 -14.654  1.00  0.00     0.063 C 
ATOM     28  C   UNL     1     -11.624 -25.830 -15.521  1.00  0.00     0.033 C 
ATOM     29  C   UNL     1     -12.858 -24.939 -15.814  1.00  0.00     0.118 C 
BRANCH  29  30
ATOM     30  O   UNL     1     -12.451 -23.624 -16.094  1.00  0.00    -0.393 OA
ATOM     31  H   UNL     1     -13.018 -23.026 -15.540  1.00  0.00     0.210 HD
ENDBRANCH  29  30
ENDBRANCH   9  11
ENDBRANCH   1   9
TORSDOF 7
ENDMDL
MODEL 8
REMARK VINA RESULT:     1.258      2.866      7.250
REMARK INTER + INTRA:           0.812
REMARK INTER:                   2.780
REMARK INTRA:                  -1.968
REMARK UNBOUND:                -0.923
REMARK SMILES CC[C@@H](CC[C@H](C)[C@@H]1CC[C@H]2[C@@H]3CC=C4C[C@@H](O)CC[C@@]4(C)[C@@H]3CC[C@]21C)C(C)C
REMARK SMILES IDX 5 1 4 2 3 3 2 4 1 5 28 6 29 7 30 8 6 9 7 10 8 11 9 12 26 13
REMARK SMILES IDX 10 14 11 15 25 16 27 17 12 18 24 19 23 20 13 21 21 22 14 23
REMARK SMILES IDX 15 24 20 25 22 26 16 27 19 28 17 29 18 30
REMARK H PARENT 18 31
REMARK Flexibility Score: inf
ROOT
ATOM      1  C   UNL     1     -15.442 -34.613 -11.374  1.00  0.00     0.004 C 
ENDROOT
BRANCH   1   2
ATOM      2  C   UNL     1     -14.771 -35.364 -12.543  1.00  0.00     0.004 C 
BRANCH   2   3
ATOM      3  C   UNL     1     -15.252 -34.857 -13.932  1.00  0.00    -0.009 C 
BRANCH   3   4
ATOM      4  C   UNL     1     -16.058 -35.971 -14.659  1.00  0.00     0.000 C 
ATOM      5  C   UNL     1     -16.473 -37.122 -13.741  1.00  0.00     0.004 C 
ENDBRANCH   3   4
BRANCH   3   6
ATOM      6  C   UNL     1     -14.078 -34.301 -14.807  1.00  0.00    -0.014 C 
ATOM      7  C   UNL     1     -13.128 -35.420 -15.273  1.00  0.00     0.007 C 
ATOM      8  C   UNL     1     -14.545 -33.468 -16.013  1.00  0.00     0.007 C 
ENDBRANCH   3   6
ENDBRANCH   2   3
ENDBRANCH   1   2
BRANCH   1   9
ATOM      9  C   UNL     1     -14.420 -33.839 -10.497  1.00  0.00    -0.011 C 
ATOM     10  C   UNL     1     -14.299 -34.445  -9.083  1.00  0.00     0.008 C 
BRANCH   9  11
ATOM     11  C   UNL     1     -14.593 -32.271 -10.551  1.00  0.00    -0.002 C 
ATOM     12  C   UNL     1     -16.085 -31.914 -10.600  1.00  0.00     0.005 C 
ATOM     13  C   UNL     1     -13.937 -31.419 -11.710  1.00  0.00    -0.026 C 
ATOM     14  C   UNL     1     -16.401 -31.517 -12.036  1.00  0.00     0.005 C 
ATOM     15  C   UNL     1     -15.064 -31.316 -12.781  1.00  0.00    -0.001 C 
ATOM     16  C   UNL     1     -13.518 -30.001 -11.173  1.00  0.00     0.007 C 
ATOM     17  C   UNL     1     -12.655 -32.065 -12.294  1.00  0.00     0.012 C 
ATOM     18  C   UNL     1     -15.096 -30.008 -13.636  1.00  0.00     0.000 C 
ATOM     19  C   UNL     1     -14.577 -28.903 -11.334  1.00  0.00     0.005 C 
ATOM     20  C   UNL     1     -15.003 -28.675 -12.808  1.00  0.00     0.003 C 
ATOM     21  C   UNL     1     -14.131 -30.043 -14.833  1.00  0.00     0.031 C 
ATOM     22  C   UNL     1     -14.259 -27.473 -13.544  1.00  0.00    -0.008 C 
ATOM     23  C   UNL     1     -14.335 -28.805 -15.656  1.00  0.00    -0.027 C 
ATOM     24  C   UNL     1     -14.436 -27.601 -15.061  1.00  0.00    -0.065 C 
ATOM     25  C   UNL     1     -14.894 -26.124 -13.084  1.00  0.00     0.014 C 
ATOM     26  C   UNL     1     -12.734 -27.431 -13.244  1.00  0.00     0.016 C 
ATOM     27  C   UNL     1     -14.841 -26.396 -15.883  1.00  0.00     0.063 C 
ATOM     28  C   UNL     1     -14.383 -24.889 -13.855  1.00  0.00     0.033 C 
ATOM     29  C   UNL     1     -14.148 -25.130 -15.368  1.00  0.00     0.118 C 
BRANCH  29  30
ATOM     30  O   UNL     1     -14.602 -24.027 -16.110  1.00  0.00    -0.393 OA
ATOM     31  H   UNL     1     -15.481 -24.285 -16.494  1.00  0.00     0.210 HD
ENDBRANCH  29  30
ENDBRANCH   9  11
ENDBRANCH   1   9
TORSDOF 7
ENDMDL
MODEL 9
REMARK VINA RESULT:     1.498      2.855      7.658
REMARK INTER + INTRA:           1.144
REMARK INTER:                   1.757
REMARK INTRA:                  -0.613
REMARK UNBOUND:                -0.923
REMARK SMILES CC[C@@H](CC[C@H](C)[C@@H]1CC[C@H]2[C@@H]3CC=C4C[C@@H](O)CC[C@@]4(C)[C@@H]3CC[C@]21C)C(C)C
REMARK SMILES IDX 5 1 4 2 3 3 2 4 1 5 28 6 29 7 30 8 6 9 7 10 8 11 9 12 26 13
REMARK SMILES IDX 10 14 11 15 25 16 27 17 12 18 24 19 23 20 13 21 21 22 14 23
REMARK SMILES IDX 15 24 20 25 22 26 16 27 19 28 17 29 18 30
REMARK H PARENT 18 31
REMARK Flexibility Score: inf
ROOT
ATOM      1  C   UNL     1     -14.453 -36.755 -13.182  1.00  0.00     0.004 C 
ENDROOT
BRANCH   1   2
ATOM      2  C   UNL     1     -15.094 -37.125 -14.536  1.00  0.00     0.004 C 
BRANCH   2   3
ATOM      3  C   UNL     1     -14.167 -36.804 -15.742  1.00  0.00    -0.009 C 
BRANCH   3   4
ATOM      4  C   UNL     1     -12.755 -36.391 -15.238  1.00  0.00     0.000 C 
ATOM      5  C   UNL     1     -12.440 -34.909 -15.451  1.00  0.00     0.004 C 
ENDBRANCH   3   4
BRANCH   3   6
ATOM      6  C   UNL     1     -14.789 -35.743 -16.712  1.00  0.00    -0.014 C 
ATOM      7  C   UNL     1     -14.402 -36.008 -18.178  1.00  0.00     0.007 C 
ATOM      8  C   UNL     1     -16.317 -35.608 -16.584  1.00  0.00     0.007 C 
ENDBRANCH   3   6
ENDBRANCH   2   3
ENDBRANCH   1   2
BRANCH   1   9
ATOM      9  C   UNL     1     -15.271 -35.685 -12.408  1.00  0.00    -0.011 C 
ATOM     10  C   UNL     1     -16.743 -35.640 -12.869  1.00  0.00     0.008 C 
BRANCH   9  11
ATOM     11  C   UNL     1     -14.549 -34.285 -12.302  1.00  0.00    -0.002 C 
ATOM     12  C   UNL     1     -14.657 -33.751 -10.868  1.00  0.00     0.005 C 
ATOM     13  C   UNL     1     -14.988 -33.073 -13.217  1.00  0.00    -0.026 C 
ATOM     14  C   UNL     1     -15.722 -32.663 -10.876  1.00  0.00     0.005 C 
ATOM     15  C   UNL     1     -16.029 -32.306 -12.346  1.00  0.00    -0.001 C 
ATOM     16  C   UNL     1     -13.745 -32.171 -13.560  1.00  0.00     0.007 C 
ATOM     17  C   UNL     1     -15.598 -33.517 -14.571  1.00  0.00     0.012 C 
ATOM     18  C   UNL     1     -16.093 -30.757 -12.540  1.00  0.00     0.000 C 
ATOM     19  C   UNL     1     -13.500 -31.003 -12.597  1.00  0.00     0.005 C 
ATOM     20  C   UNL     1     -14.702 -30.027 -12.500  1.00  0.00     0.003 C 
ATOM     21  C   UNL     1     -16.964 -30.331 -13.734  1.00  0.00     0.031 C 
ATOM     22  C   UNL     1     -14.591 -28.733 -13.423  1.00  0.00    -0.008 C 
ATOM     23  C   UNL     1     -17.065 -28.834 -13.751  1.00  0.00    -0.027 C 
ATOM     24  C   UNL     1     -15.968 -28.075 -13.567  1.00  0.00    -0.065 C 
ATOM     25  C   UNL     1     -13.623 -27.710 -12.750  1.00  0.00     0.014 C 
ATOM     26  C   UNL     1     -14.063 -29.050 -14.850  1.00  0.00     0.016 C 
ATOM     27  C   UNL     1     -16.119 -26.580 -13.385  1.00  0.00     0.063 C 
ATOM     28  C   UNL     1     -13.563 -26.338 -13.454  1.00  0.00     0.033 C 
ATOM     29  C   UNL     1     -14.926 -25.836 -13.996  1.00  0.00     0.118 C 
BRANCH  29  30
ATOM     30  O   UNL     1     -15.070 -24.461 -13.746  1.00  0.00    -0.393 OA
ATOM     31  H   UNL     1     -14.931 -24.333 -12.771  1.00  0.00     0.210 HD
ENDBRANCH  29  30
ENDBRANCH   9  11
ENDBRANCH   1   9
TORSDOF 7
ENDMDL
