MODEL 1
REMARK VINA RESULT:    -6.319      0.000      0.000
REMARK INTER + INTRA:          -7.715
REMARK INTER:                  -7.427
REMARK INTRA:                  -0.288
REMARK UNBOUND:                -0.288
REMARK SMILES O=c1cc(-c2ccc(O)c(O)c2)oc2cc(O)cc(O)c12
REMARK SMILES IDX 4 1 3 2 2 3 1 4 21 5 19 6 18 7 16 8 15 9 14 10 13 11 5 12
REMARK SMILES IDX 6 13 7 14 8 15 12 16 10 17 9 18 11 20 20 22 17 24
REMARK H PARENT 9 19 11 21 20 23 17 25
REMARK Flexibility Score: inf
ROOT
ATOM      1  C   UNL     1       7.651 -41.575 -34.093  1.00  0.00     0.138 A 
ATOM      2  C   UNL     1       8.733 -42.185 -34.749  1.00  0.00     0.100 A 
ATOM      3  C   UNL     1       8.993 -43.539 -34.532  1.00  0.00     0.197 A 
ATOM      4  O   UNL     1       9.966 -44.078 -35.125  1.00  0.00    -0.289 OA
ATOM      5  C   UNL     1       8.171 -44.273 -33.653  1.00  0.00     0.107 A 
ATOM      6  C   UNL     1       8.364 -45.648 -33.376  1.00  0.00     0.134 A 
ATOM      7  C   UNL     1       7.504 -46.305 -32.485  1.00  0.00     0.093 A 
ATOM      8  C   UNL     1       6.459 -45.617 -31.865  1.00  0.00     0.123 A 
ATOM      9  C   UNL     1       6.263 -44.258 -32.134  1.00  0.00     0.094 A 
ATOM     10  C   UNL     1       7.107 -43.585 -33.020  1.00  0.00     0.146 A 
ATOM     11  O   UNL     1       6.900 -42.294 -33.261  1.00  0.00    -0.456 OA
ENDROOT
BRANCH   1  12
ATOM     12  C   UNL     1       7.328 -40.139 -34.285  1.00  0.00     0.021 A 
ATOM     13  C   UNL     1       5.996 -39.708 -34.169  1.00  0.00     0.016 A 
ATOM     14  C   UNL     1       5.665 -38.364 -34.353  1.00  0.00     0.051 A 
ATOM     15  C   UNL     1       6.657 -37.427 -34.667  1.00  0.00     0.157 A 
ATOM     16  C   UNL     1       8.321 -39.194 -34.614  1.00  0.00     0.062 A 
ATOM     17  C   UNL     1       7.990 -37.847 -34.801  1.00  0.00     0.158 A 
BRANCH  15  18
ATOM     18  O   UNL     1       6.325 -36.086 -34.848  1.00  0.00    -0.504 OA
ATOM     19  H   UNL     1       7.028 -35.390 -35.071  1.00  0.00     0.293 HD
ENDBRANCH  15  18
BRANCH  17  20
ATOM     20  O   UNL     1       9.001 -36.941 -35.124  1.00  0.00    -0.504 OA
ATOM     21  H   UNL     1       9.660 -37.115 -35.873  1.00  0.00     0.293 HD
ENDBRANCH  17  20
ENDBRANCH   1  12
BRANCH   6  22
ATOM     22  O   UNL     1       9.401 -46.361 -33.980  1.00  0.00    -0.507 OA
ATOM     23  H   UNL     1       9.871 -46.018 -34.809  1.00  0.00     0.293 HD
ENDBRANCH   6  22
BRANCH   8  24
ATOM     24  O   UNL     1       5.620 -46.294 -30.983  1.00  0.00    -0.508 OA
ATOM     25  H   UNL     1       5.958 -47.062 -30.413  1.00  0.00     0.293 HD
ENDBRANCH   8  24
TORSDOF 5
ENDMDL
MODEL 2
REMARK VINA RESULT:    -6.252     12.564     16.402
REMARK INTER + INTRA:          -7.637
REMARK INTER:                  -7.366
REMARK INTRA:                  -0.271
REMARK UNBOUND:                -0.288
REMARK SMILES O=c1cc(-c2ccc(O)c(O)c2)oc2cc(O)cc(O)c12
REMARK SMILES IDX 4 1 3 2 2 3 1 4 21 5 19 6 18 7 16 8 15 9 14 10 13 11 5 12
REMARK SMILES IDX 6 13 7 14 8 15 12 16 10 17 9 18 11 20 20 22 17 24
REMARK H PARENT 9 19 11 21 20 23 17 25
REMARK Flexibility Score: inf
ROOT
ATOM      1  C   UNL     1      -3.353 -32.104 -33.269  1.00  0.00     0.138 A 
ATOM      2  C   UNL     1      -4.301 -31.465 -34.086  1.00  0.00     0.100 A 
ATOM      3  C   UNL     1      -4.275 -30.075 -34.209  1.00  0.00     0.197 A 
ATOM      4  O   UNL     1      -5.131 -29.511 -34.944  1.00  0.00    -0.289 OA
ATOM      5  C   UNL     1      -3.304 -29.332 -33.510  1.00  0.00     0.107 A 
ATOM      6  C   UNL     1      -3.207 -27.922 -33.579  1.00  0.00     0.134 A 
ATOM      7  C   UNL     1      -2.214 -27.257 -32.847  1.00  0.00     0.093 A 
ATOM      8  C   UNL     1      -1.318 -27.971 -32.048  1.00  0.00     0.123 A 
ATOM      9  C   UNL     1      -1.408 -29.365 -31.975  1.00  0.00     0.094 A 
ATOM     10  C   UNL     1      -2.390 -30.047 -32.697  1.00  0.00     0.146 A 
ATOM     11  O   UNL     1      -2.455 -31.373 -32.613  1.00  0.00    -0.456 OA
ENDROOT
BRANCH   1  12
ATOM     12  C   UNL     1      -3.334 -33.579 -33.098  1.00  0.00     0.021 A 
ATOM     13  C   UNL     1      -3.419 -34.127 -31.807  1.00  0.00     0.016 A 
ATOM     14  C   UNL     1      -3.395 -35.511 -31.619  1.00  0.00     0.051 A 
ATOM     15  C   UNL     1      -3.273 -36.372 -32.717  1.00  0.00     0.157 A 
ATOM     16  C   UNL     1      -3.198 -34.450 -34.198  1.00  0.00     0.062 A 
ATOM     17  C   UNL     1      -3.171 -35.837 -34.011  1.00  0.00     0.158 A 
BRANCH  15  18
ATOM     18  O   UNL     1      -3.251 -37.752 -32.527  1.00  0.00    -0.504 OA
ATOM     19  H   UNL     1      -2.757 -38.173 -31.747  1.00  0.00     0.293 HD
ENDBRANCH  15  18
BRANCH  17  20
ATOM     20  O   UNL     1      -3.038 -36.667 -35.125  1.00  0.00    -0.504 OA
ATOM     21  H   UNL     1      -3.727 -37.372 -35.356  1.00  0.00     0.293 HD
ENDBRANCH  17  20
ENDBRANCH   1  12
BRANCH   6  22
ATOM     22  O   UNL     1      -4.089 -27.182 -34.368  1.00  0.00    -0.507 OA
ATOM     23  H   UNL     1      -4.221 -26.187 -34.229  1.00  0.00     0.293 HD
ENDBRANCH   6  22
BRANCH   8  24
ATOM     24  O   UNL     1      -0.341 -27.284 -31.331  1.00  0.00    -0.508 OA
ATOM     25  H   UNL     1       0.576 -27.101 -31.724  1.00  0.00     0.293 HD
ENDBRANCH   8  24
TORSDOF 5
ENDMDL
MODEL 3
REMARK VINA RESULT:    -6.149      3.124      4.869
REMARK INTER + INTRA:          -7.515
REMARK INTER:                  -7.249
REMARK INTRA:                  -0.266
REMARK UNBOUND:                -0.288
REMARK SMILES O=c1cc(-c2ccc(O)c(O)c2)oc2cc(O)cc(O)c12
REMARK SMILES IDX 4 1 3 2 2 3 1 4 21 5 19 6 18 7 16 8 15 9 14 10 13 11 5 12
REMARK SMILES IDX 6 13 7 14 8 15 12 16 10 17 9 18 11 20 20 22 17 24
REMARK H PARENT 9 19 11 21 20 23 17 25
REMARK Flexibility Score: inf
ROOT
ATOM      1  C   UNL     1       6.629 -43.252 -33.613  1.00  0.00     0.138 A 
ATOM      2  C   UNL     1       6.916 -44.621 -33.478  1.00  0.00     0.100 A 
ATOM      3  C   UNL     1       8.219 -45.073 -33.695  1.00  0.00     0.197 A 
ATOM      4  O   UNL     1       8.467 -46.304 -33.573  1.00  0.00    -0.289 OA
ATOM      5  C   UNL     1       9.224 -44.153 -34.052  1.00  0.00     0.107 A 
ATOM      6  C   UNL     1      10.569 -44.527 -34.289  1.00  0.00     0.134 A 
ATOM      7  C   UNL     1      11.509 -43.550 -34.645  1.00  0.00     0.093 A 
ATOM      8  C   UNL     1      11.133 -42.211 -34.769  1.00  0.00     0.123 A 
ATOM      9  C   UNL     1       9.806 -41.834 -34.535  1.00  0.00     0.094 A 
ATOM     10  C   UNL     1       8.854 -42.792 -34.179  1.00  0.00     0.146 A 
ATOM     11  O   UNL     1       7.599 -42.410 -33.961  1.00  0.00    -0.456 OA
ENDROOT
BRANCH   1  12
ATOM     12  C   UNL     1       5.262 -42.715 -33.395  1.00  0.00     0.021 A 
ATOM     13  C   UNL     1       4.330 -42.750 -34.446  1.00  0.00     0.016 A 
ATOM     14  C   UNL     1       3.040 -42.243 -34.270  1.00  0.00     0.051 A 
ATOM     15  C   UNL     1       2.662 -41.681 -33.044  1.00  0.00     0.157 A 
ATOM     16  C   UNL     1       4.880 -42.136 -32.169  1.00  0.00     0.062 A 
ATOM     17  C   UNL     1       3.589 -41.625 -31.991  1.00  0.00     0.158 A 
BRANCH  15  18
ATOM     18  O   UNL     1       1.374 -41.178 -32.871  1.00  0.00    -0.504 OA
ATOM     19  H   UNL     1       1.165 -40.195 -33.010  1.00  0.00     0.293 HD
ENDBRANCH  15  18
BRANCH  17  20
ATOM     20  O   UNL     1       3.247 -41.062 -30.761  1.00  0.00    -0.504 OA
ATOM     21  H   UNL     1       2.328 -41.177 -30.353  1.00  0.00     0.293 HD
ENDBRANCH  17  20
ENDBRANCH   1  12
BRANCH   6  22
ATOM     22  O   UNL     1      10.973 -45.858 -34.174  1.00  0.00    -0.507 OA
ATOM     23  H   UNL     1      11.394 -46.355 -34.950  1.00  0.00     0.293 HD
ENDBRANCH   6  22
BRANCH   8  24
ATOM     24  O   UNL     1      12.088 -41.260 -35.125  1.00  0.00    -0.508 OA
ATOM     25  H   UNL     1      12.309 -41.068 -36.096  1.00  0.00     0.293 HD
ENDBRANCH   8  24
TORSDOF 5
ENDMDL
MODEL 4
REMARK VINA RESULT:    -6.126      9.071     12.753
REMARK INTER + INTRA:          -7.488
REMARK INTER:                  -7.173
REMARK INTRA:                  -0.315
REMARK UNBOUND:                -0.288
REMARK SMILES O=c1cc(-c2ccc(O)c(O)c2)oc2cc(O)cc(O)c12
REMARK SMILES IDX 4 1 3 2 2 3 1 4 21 5 19 6 18 7 16 8 15 9 14 10 13 11 5 12
REMARK SMILES IDX 6 13 7 14 8 15 12 16 10 17 9 18 11 20 20 22 17 24
REMARK H PARENT 9 19 11 21 20 23 17 25
REMARK Flexibility Score: inf
ROOT
ATOM      1  C   UNL     1       0.935 -31.186 -33.161  1.00  0.00     0.138 A 
ATOM      2  C   UNL     1       0.738 -32.322 -33.963  1.00  0.00     0.100 A 
ATOM      3  C   UNL     1       1.682 -33.351 -33.940  1.00  0.00     0.197 A 
ATOM      4  O   UNL     1       1.496 -34.367 -34.664  1.00  0.00    -0.289 OA
ATOM      5  C   UNL     1       2.820 -33.233 -33.118  1.00  0.00     0.107 A 
ATOM      6  C   UNL     1       3.823 -34.228 -33.034  1.00  0.00     0.134 A 
ATOM      7  C   UNL     1       4.928 -34.032 -32.194  1.00  0.00     0.093 A 
ATOM      8  C   UNL     1       5.051 -32.863 -31.439  1.00  0.00     0.123 A 
ATOM      9  C   UNL     1       4.063 -31.876 -31.517  1.00  0.00     0.094 A 
ATOM     10  C   UNL     1       2.953 -32.052 -32.347  1.00  0.00     0.146 A 
ATOM     11  O   UNL     1       2.027 -31.100 -32.403  1.00  0.00    -0.456 OA
ENDROOT
BRANCH   1  12
ATOM     12  C   UNL     1      -0.033 -30.060 -33.147  1.00  0.00     0.021 A 
ATOM     13  C   UNL     1      -1.002 -29.969 -34.160  1.00  0.00     0.016 A 
ATOM     14  C   UNL     1      -1.920 -28.916 -34.173  1.00  0.00     0.051 A 
ATOM     15  C   UNL     1      -1.877 -27.928 -33.181  1.00  0.00     0.157 A 
ATOM     16  C   UNL     1       0.013 -29.057 -32.159  1.00  0.00     0.062 A 
ATOM     17  C   UNL     1      -0.904 -27.999 -32.172  1.00  0.00     0.158 A 
BRANCH  15  18
ATOM     18  O   UNL     1      -2.795 -26.879 -33.196  1.00  0.00    -0.504 OA
ATOM     19  H   UNL     1      -3.210 -26.549 -34.061  1.00  0.00     0.293 HD
ENDBRANCH  15  18
BRANCH  17  20
ATOM     20  O   UNL     1      -0.828 -27.025 -31.175  1.00  0.00    -0.504 OA
ATOM     21  H   UNL     1      -0.069 -26.357 -31.133  1.00  0.00     0.293 HD
ENDBRANCH  17  20
ENDBRANCH   1  12
BRANCH   6  22
ATOM     22  O   UNL     1       3.728 -35.405 -33.777  1.00  0.00    -0.507 OA
ATOM     23  H   UNL     1       2.831 -35.797 -34.042  1.00  0.00     0.293 HD
ENDBRANCH   6  22
BRANCH   8  24
ATOM     24  O   UNL     1       6.160 -32.693 -30.614  1.00  0.00    -0.508 OA
ATOM     25  H   UNL     1       6.222 -31.920 -29.960  1.00  0.00     0.293 HD
ENDBRANCH   8  24
TORSDOF 5
ENDMDL
MODEL 5
REMARK VINA RESULT:    -6.073      6.935      7.078
REMARK INTER + INTRA:          -7.426
REMARK INTER:                  -7.158
REMARK INTRA:                  -0.268
REMARK UNBOUND:                -0.288
REMARK SMILES O=c1cc(-c2ccc(O)c(O)c2)oc2cc(O)cc(O)c12
REMARK SMILES IDX 4 1 3 2 2 3 1 4 21 5 19 6 18 7 16 8 15 9 14 10 13 11 5 12
REMARK SMILES IDX 6 13 7 14 8 15 12 16 10 17 9 18 11 20 20 22 17 24
REMARK H PARENT 9 19 11 21 20 23 17 25
REMARK Flexibility Score: inf
ROOT
ATOM      1  C   UNL     1      10.325 -40.619 -27.383  1.00  0.00     0.138 A 
ATOM      2  C   UNL     1      11.590 -41.108 -27.750  1.00  0.00     0.100 A 
ATOM      3  C   UNL     1      11.747 -42.467 -28.026  1.00  0.00     0.197 A 
ATOM      4  O   UNL     1      12.886 -42.897 -28.354  1.00  0.00    -0.289 OA
ATOM      5  C   UNL     1      10.637 -43.330 -27.928  1.00  0.00     0.107 A 
ATOM      6  C   UNL     1      10.709 -44.719 -28.190  1.00  0.00     0.134 A 
ATOM      7  C   UNL     1       9.558 -45.510 -28.064  1.00  0.00     0.093 A 
ATOM      8  C   UNL     1       8.341 -44.943 -27.682  1.00  0.00     0.123 A 
ATOM      9  C   UNL     1       8.263 -43.570 -27.421  1.00  0.00     0.094 A 
ATOM     10  C   UNL     1       9.398 -42.764 -27.541  1.00  0.00     0.146 A 
ATOM     11  O   UNL     1       9.299 -41.462 -27.289  1.00  0.00    -0.456 OA
ENDROOT
BRANCH   1  12
ATOM     12  C   UNL     1      10.099 -39.184 -27.077  1.00  0.00     0.021 A 
ATOM     13  C   UNL     1      10.497 -38.672 -25.830  1.00  0.00     0.016 A 
ATOM     14  C   UNL     1      10.288 -37.328 -25.514  1.00  0.00     0.051 A 
ATOM     15  C   UNL     1       9.668 -36.473 -26.434  1.00  0.00     0.157 A 
ATOM     16  C   UNL     1       9.464 -38.322 -27.993  1.00  0.00     0.062 A 
ATOM     17  C   UNL     1       9.251 -36.975 -27.677  1.00  0.00     0.158 A 
BRANCH  15  18
ATOM     18  O   UNL     1       9.463 -35.131 -26.117  1.00  0.00    -0.504 OA
ATOM     19  H   UNL     1       8.890 -34.854 -25.327  1.00  0.00     0.293 HD
ENDBRANCH  15  18
BRANCH  17  20
ATOM     20  O   UNL     1       8.621 -36.152 -28.611  1.00  0.00    -0.504 OA
ATOM     21  H   UNL     1       8.255 -36.511 -29.484  1.00  0.00     0.293 HD
ENDBRANCH  17  20
ENDBRANCH   1  12
BRANCH   6  22
ATOM     22  O   UNL     1      11.911 -45.314 -28.573  1.00  0.00    -0.507 OA
ATOM     23  H   UNL     1      12.382 -45.991 -27.984  1.00  0.00     0.293 HD
ENDBRANCH   6  22
BRANCH   8  24
ATOM     24  O   UNL     1       7.213 -45.752 -27.563  1.00  0.00    -0.508 OA
ATOM     25  H   UNL     1       7.004 -46.474 -28.245  1.00  0.00     0.293 HD
ENDBRANCH   8  24
TORSDOF 5
ENDMDL
MODEL 6
REMARK VINA RESULT:    -6.035      4.604      5.520
REMARK INTER + INTRA:          -7.381
REMARK INTER:                  -7.090
REMARK INTRA:                  -0.291
REMARK UNBOUND:                -0.288
REMARK SMILES O=c1cc(-c2ccc(O)c(O)c2)oc2cc(O)cc(O)c12
REMARK SMILES IDX 4 1 3 2 2 3 1 4 21 5 19 6 18 7 16 8 15 9 14 10 13 11 5 12
REMARK SMILES IDX 6 13 7 14 8 15 12 16 10 17 9 18 11 20 20 22 17 24
REMARK H PARENT 9 19 11 21 20 23 17 25
REMARK Flexibility Score: inf
ROOT
ATOM      1  C   UNL     1       8.144 -42.111 -29.551  1.00  0.00     0.138 A 
ATOM      2  C   UNL     1       8.291 -43.391 -28.990  1.00  0.00     0.100 A 
ATOM      3  C   UNL     1       7.777 -44.499 -29.665  1.00  0.00     0.197 A 
ATOM      4  O   UNL     1       7.913 -45.644 -29.153  1.00  0.00    -0.289 OA
ATOM      5  C   UNL     1       7.115 -44.319 -30.896  1.00  0.00     0.107 A 
ATOM      6  C   UNL     1       6.566 -45.387 -31.645  1.00  0.00     0.134 A 
ATOM      7  C   UNL     1       5.917 -45.123 -32.859  1.00  0.00     0.093 A 
ATOM      8  C   UNL     1       5.805 -43.816 -33.338  1.00  0.00     0.123 A 
ATOM      9  C   UNL     1       6.346 -42.756 -32.602  1.00  0.00     0.094 A 
ATOM     10  C   UNL     1       6.997 -42.997 -31.390  1.00  0.00     0.146 A 
ATOM     11  O   UNL     1       7.504 -41.974 -30.710  1.00  0.00    -0.456 OA
ENDROOT
BRANCH   1  12
ATOM     12  C   UNL     1       8.668 -40.896 -28.877  1.00  0.00     0.021 A 
ATOM     13  C   UNL     1       8.102 -39.644 -29.171  1.00  0.00     0.016 A 
ATOM     14  C   UNL     1       8.583 -38.485 -28.557  1.00  0.00     0.051 A 
ATOM     15  C   UNL     1       9.645 -38.555 -27.647  1.00  0.00     0.157 A 
ATOM     16  C   UNL     1       9.745 -40.959 -27.971  1.00  0.00     0.062 A 
ATOM     17  C   UNL     1      10.230 -39.798 -27.356  1.00  0.00     0.158 A 
BRANCH  15  18
ATOM     18  O   UNL     1      10.121 -37.398 -27.034  1.00  0.00    -0.504 OA
ATOM     19  H   UNL     1       9.762 -37.085 -26.138  1.00  0.00     0.293 HD
ENDBRANCH  15  18
BRANCH  17  20
ATOM     20  O   UNL     1      11.297 -39.901 -26.463  1.00  0.00    -0.504 OA
ATOM     21  H   UNL     1      11.190 -40.309 -25.542  1.00  0.00     0.293 HD
ENDBRANCH  17  20
ENDBRANCH   1  12
BRANCH   6  22
ATOM     22  O   UNL     1       6.661 -46.704 -31.191  1.00  0.00    -0.507 OA
ATOM     23  H   UNL     1       7.119 -47.423 -31.738  1.00  0.00     0.293 HD
ENDBRANCH   6  22
BRANCH   8  24
ATOM     24  O   UNL     1       5.154 -43.581 -34.547  1.00  0.00    -0.508 OA
ATOM     25  H   UNL     1       4.364 -44.144 -34.842  1.00  0.00     0.293 HD
ENDBRANCH   8  24
TORSDOF 5
ENDMDL
MODEL 7
REMARK VINA RESULT:    -5.979      3.691      4.574
REMARK INTER + INTRA:          -7.315
REMARK INTER:                  -7.048
REMARK INTRA:                  -0.267
REMARK UNBOUND:                -0.288
REMARK SMILES O=c1cc(-c2ccc(O)c(O)c2)oc2cc(O)cc(O)c12
REMARK SMILES IDX 4 1 3 2 2 3 1 4 21 5 19 6 18 7 16 8 15 9 14 10 13 11 5 12
REMARK SMILES IDX 6 13 7 14 8 15 12 16 10 17 9 18 11 20 20 22 17 24
REMARK H PARENT 9 19 11 21 20 23 17 25
REMARK Flexibility Score: inf
ROOT
ATOM      1  C   UNL     1       4.594 -42.072 -32.438  1.00  0.00     0.138 A 
ATOM      2  C   UNL     1       5.274 -41.625 -33.583  1.00  0.00     0.100 A 
ATOM      3  C   UNL     1       6.327 -42.385 -34.096  1.00  0.00     0.197 A 
ATOM      4  O   UNL     1       6.931 -41.975 -35.125  1.00  0.00    -0.289 OA
ATOM      5  C   UNL     1       6.697 -43.583 -33.455  1.00  0.00     0.107 A 
ATOM      6  C   UNL     1       7.751 -44.412 -33.909  1.00  0.00     0.134 A 
ATOM      7  C   UNL     1       8.059 -45.588 -33.211  1.00  0.00     0.093 A 
ATOM      8  C   UNL     1       7.339 -45.951 -32.071  1.00  0.00     0.123 A 
ATOM      9  C   UNL     1       6.296 -45.136 -31.617  1.00  0.00     0.094 A 
ATOM     10  C   UNL     1       5.971 -43.961 -32.299  1.00  0.00     0.146 A 
ATOM     11  O   UNL     1       4.975 -43.203 -31.850  1.00  0.00    -0.456 OA
ENDROOT
BRANCH   1  12
ATOM     12  C   UNL     1       3.468 -41.305 -31.847  1.00  0.00     0.021 A 
ATOM     13  C   UNL     1       2.185 -41.416 -32.409  1.00  0.00     0.016 A 
ATOM     14  C   UNL     1       1.111 -40.699 -31.878  1.00  0.00     0.051 A 
ATOM     15  C   UNL     1       1.302 -39.849 -30.781  1.00  0.00     0.157 A 
ATOM     16  C   UNL     1       3.656 -40.437 -30.753  1.00  0.00     0.062 A 
ATOM     17  C   UNL     1       2.581 -39.716 -30.220  1.00  0.00     0.158 A 
BRANCH  15  18
ATOM     18  O   UNL     1       0.227 -39.136 -30.251  1.00  0.00    -0.504 OA
ATOM     19  H   UNL     1       0.316 -38.160 -29.989  1.00  0.00     0.293 HD
ENDBRANCH  15  18
BRANCH  17  20
ATOM     20  O   UNL     1       2.807 -38.869 -29.134  1.00  0.00    -0.504 OA
ATOM     21  H   UNL     1       2.177 -38.111 -28.903  1.00  0.00     0.293 HD
ENDBRANCH  17  20
ENDBRANCH   1  12
BRANCH   6  22
ATOM     22  O   UNL     1       8.489 -44.075 -35.044  1.00  0.00    -0.507 OA
ATOM     23  H   UNL     1       9.258 -44.649 -35.369  1.00  0.00     0.293 HD
ENDBRANCH   6  22
BRANCH   8  24
ATOM     24  O   UNL     1       7.667 -47.124 -31.396  1.00  0.00    -0.508 OA
ATOM     25  H   UNL     1       7.728 -47.155 -30.384  1.00  0.00     0.293 HD
ENDBRANCH   8  24
TORSDOF 5
ENDMDL
MODEL 8
REMARK VINA RESULT:    -5.948      4.299      5.617
REMARK INTER + INTRA:          -7.279
REMARK INTER:                  -6.967
REMARK INTRA:                  -0.312
REMARK UNBOUND:                -0.288
REMARK SMILES O=c1cc(-c2ccc(O)c(O)c2)oc2cc(O)cc(O)c12
REMARK SMILES IDX 4 1 3 2 2 3 1 4 21 5 19 6 18 7 16 8 15 9 14 10 13 11 5 12
REMARK SMILES IDX 6 13 7 14 8 15 12 16 10 17 9 18 11 20 20 22 17 24
REMARK H PARENT 9 19 11 21 20 23 17 25
REMARK Flexibility Score: inf
ROOT
ATOM      1  C   UNL     1       6.399 -42.200 -30.869  1.00  0.00     0.138 A 
ATOM      2  C   UNL     1       6.717 -41.039 -30.146  1.00  0.00     0.100 A 
ATOM      3  C   UNL     1       7.637 -41.112 -29.098  1.00  0.00     0.197 A 
ATOM      4  O   UNL     1       7.916 -40.064 -28.455  1.00  0.00    -0.289 OA
ATOM      5  C   UNL     1       8.228 -42.350 -28.777  1.00  0.00     0.107 A 
ATOM      6  C   UNL     1       9.169 -42.513 -27.733  1.00  0.00     0.134 A 
ATOM      7  C   UNL     1       9.708 -43.781 -27.474  1.00  0.00     0.093 A 
ATOM      8  C   UNL     1       9.326 -44.887 -28.235  1.00  0.00     0.123 A 
ATOM      9  C   UNL     1       8.396 -44.733 -29.270  1.00  0.00     0.094 A 
ATOM     10  C   UNL     1       7.848 -43.478 -29.545  1.00  0.00     0.146 A 
ATOM     11  O   UNL     1       6.967 -43.357 -30.533  1.00  0.00    -0.456 OA
ENDROOT
BRANCH   1  12
ATOM     12  C   UNL     1       5.427 -42.182 -31.991  1.00  0.00     0.021 A 
ATOM     13  C   UNL     1       4.472 -41.154 -32.062  1.00  0.00     0.016 A 
ATOM     14  C   UNL     1       3.541 -41.119 -33.103  1.00  0.00     0.051 A 
ATOM     15  C   UNL     1       3.541 -42.117 -34.086  1.00  0.00     0.157 A 
ATOM     16  C   UNL     1       5.413 -43.191 -32.975  1.00  0.00     0.062 A 
ATOM     17  C   UNL     1       4.479 -43.159 -34.017  1.00  0.00     0.158 A 
BRANCH  15  18
ATOM     18  O   UNL     1       2.612 -42.079 -35.124  1.00  0.00    -0.504 OA
ATOM     19  H   UNL     1       1.855 -42.751 -35.185  1.00  0.00     0.293 HD
ENDBRANCH  15  18
BRANCH  17  20
ATOM     20  O   UNL     1       4.499 -44.175 -34.974  1.00  0.00    -0.504 OA
ATOM     21  H   UNL     1       4.358 -43.988 -35.959  1.00  0.00     0.293 HD
ENDBRANCH  17  20
ENDBRANCH   1  12
BRANCH   6  22
ATOM     22  O   UNL     1       9.570 -41.426 -26.954  1.00  0.00    -0.507 OA
ATOM     23  H   UNL     1       9.035 -41.122 -26.149  1.00  0.00     0.293 HD
ENDBRANCH   6  22
BRANCH   8  24
ATOM     24  O   UNL     1       9.876 -46.136 -27.956  1.00  0.00    -0.508 OA
ATOM     25  H   UNL     1      10.863 -46.247 -27.750  1.00  0.00     0.293 HD
ENDBRANCH   8  24
TORSDOF 5
ENDMDL
MODEL 9
REMARK VINA RESULT:    -4.484      4.166      5.381
REMARK INTER + INTRA:          -5.559
REMARK INTER:                  -5.248
REMARK INTRA:                  -0.311
REMARK UNBOUND:                -0.288
REMARK SMILES O=c1cc(-c2ccc(O)c(O)c2)oc2cc(O)cc(O)c12
REMARK SMILES IDX 4 1 3 2 2 3 1 4 21 5 19 6 18 7 16 8 15 9 14 10 13 11 5 12
REMARK SMILES IDX 6 13 7 14 8 15 12 16 10 17 9 18 11 20 20 22 17 24
REMARK H PARENT 9 19 11 21 20 23 17 25
REMARK Flexibility Score: inf
ROOT
ATOM      1  C   UNL     1       6.612 -43.585 -31.324  1.00  0.00     0.138 A 
ATOM      2  C   UNL     1       7.308 -44.799 -31.446  1.00  0.00     0.100 A 
ATOM      3  C   UNL     1       8.285 -45.128 -30.505  1.00  0.00     0.197 A 
ATOM      4  O   UNL     1       8.905 -46.220 -30.623  1.00  0.00    -0.289 OA
ATOM      5  C   UNL     1       8.561 -44.237 -29.449  1.00  0.00     0.107 A 
ATOM      6  C   UNL     1       9.534 -44.493 -28.453  1.00  0.00     0.134 A 
ATOM      7  C   UNL     1       9.753 -43.552 -27.437  1.00  0.00     0.093 A 
ATOM      8  C   UNL     1       9.022 -42.363 -27.398  1.00  0.00     0.123 A 
ATOM      9  C   UNL     1       8.059 -42.103 -28.380  1.00  0.00     0.094 A 
ATOM     10  C   UNL     1       7.825 -43.029 -29.400  1.00  0.00     0.146 A 
ATOM     11  O   UNL     1       6.904 -42.761 -30.321  1.00  0.00    -0.456 OA
ENDROOT
BRANCH   1  12
ATOM     12  C   UNL     1       5.564 -43.182 -32.296  1.00  0.00     0.021 A 
ATOM     13  C   UNL     1       5.586 -43.715 -33.596  1.00  0.00     0.016 A 
ATOM     14  C   UNL     1       4.617 -43.346 -34.532  1.00  0.00     0.051 A 
ATOM     15  C   UNL     1       3.616 -42.428 -34.190  1.00  0.00     0.157 A 
ATOM     16  C   UNL     1       4.563 -42.249 -31.962  1.00  0.00     0.062 A 
ATOM     17  C   UNL     1       3.593 -41.876 -32.899  1.00  0.00     0.158 A 
BRANCH  15  18
ATOM     18  O   UNL     1       2.650 -42.063 -35.125  1.00  0.00    -0.504 OA
ATOM     19  H   UNL     1       1.668 -41.997 -34.876  1.00  0.00     0.293 HD
ENDBRANCH  15  18
BRANCH  17  20
ATOM     20  O   UNL     1       2.616 -40.951 -32.530  1.00  0.00    -0.504 OA
ATOM     21  H   UNL     1       1.635 -41.196 -32.480  1.00  0.00     0.293 HD
ENDBRANCH  17  20
ENDBRANCH   1  12
BRANCH   6  22
ATOM     22  O   UNL     1      10.280 -45.673 -28.466  1.00  0.00    -0.507 OA
ATOM     23  H   UNL     1      10.512 -46.165 -27.612  1.00  0.00     0.293 HD
ENDBRANCH   6  22
BRANCH   8  24
ATOM     24  O   UNL     1       9.260 -41.444 -26.378  1.00  0.00    -0.508 OA
ATOM     25  H   UNL     1       8.588 -40.720 -26.148  1.00  0.00     0.293 HD
ENDBRANCH   8  24
TORSDOF 5
ENDMDL
