MODEL 1
REMARK VINA RESULT:    -5.607      0.000      0.000
REMARK INTER + INTRA:         -11.085
REMARK INTER:                 -10.196
REMARK INTRA:                  -0.889
REMARK UNBOUND:                -0.889
REMARK SMILES CCCCCCCCCCCCCCCC(=O)[O-]
REMARK SMILES IDX 9 1 10 2 11 3 12 4 13 5 14 6 15 7 16 8 17 9 18 10 8 11 7 12
REMARK SMILES IDX 6 13 5 14 4 15 3 16 2 17 1 18
REMARK H PARENT
REMARK Flexibility Score: inf
ROOT
ATOM      1  C   UNL     1      -8.025  64.180  53.387  1.00  0.00     0.000 C 
ENDROOT
BRANCH   1   2
ATOM      2  C   UNL     1      -6.632  64.752  53.078  1.00  0.00     0.000 C 
BRANCH   2   3
ATOM      3  C   UNL     1      -6.659  65.787  51.939  1.00  0.00     0.000 C 
BRANCH   3   4
ATOM      4  C   UNL     1      -5.981  65.277  50.654  1.00  0.00     0.000 C 
BRANCH   4   5
ATOM      5  C   UNL     1      -6.787  64.232  49.856  1.00  0.00     0.000 C 
BRANCH   5   6
ATOM      6  C   UNL     1      -8.303  64.501  49.767  1.00  0.00     0.006 C 
BRANCH   6   7
ATOM      7  C   UNL     1      -8.912  64.242  48.381  1.00  0.00     0.053 C 
BRANCH   7   8
ATOM      8  C   UNL     1      -9.007  62.779  48.074  1.00  0.00     0.041 C 
ATOM      9  O   UNL     1      -9.101  61.941  49.008  1.00  0.00    -0.550 OA
ATOM     10  O   UNL     1      -8.956  62.339  46.757  1.00  0.00    -0.550 OA
ENDBRANCH   7   8
ENDBRANCH   6   7
ENDBRANCH   5   6
ENDBRANCH   4   5
ENDBRANCH   3   4
ENDBRANCH   2   3
ENDBRANCH   1   2
BRANCH   1  11
ATOM     11  C   UNL     1      -7.980  63.013  54.384  1.00  0.00     0.000 C 
BRANCH  11  12
ATOM     12  C   UNL     1      -7.638  61.696  53.671  1.00  0.00    -0.000 C 
BRANCH  12  13
ATOM     13  C   UNL     1      -6.125  61.422  53.612  1.00  0.00    -0.000 C 
BRANCH  13  14
ATOM     14  C   UNL     1      -5.458  61.134  54.973  1.00  0.00    -0.000 C 
BRANCH  14  15
ATOM     15  C   UNL     1      -6.280  60.255  55.933  1.00  0.00    -0.000 C 
BRANCH  15  16
ATOM     16  C   UNL     1      -5.606  58.906  56.232  1.00  0.00    -0.000 C 
BRANCH  16  17
ATOM     17  C   UNL     1      -4.083  59.032  56.394  1.00  0.00    -0.003 C 
ATOM     18  C   UNL     1      -3.671  59.496  57.791  1.00  0.00     0.004 C 
ENDBRANCH  16  17
ENDBRANCH  15  16
ENDBRANCH  14  15
ENDBRANCH  13  14
ENDBRANCH  12  13
ENDBRANCH  11  12
ENDBRANCH   1  11
TORSDOF 14
ENDMDL
MODEL 2
REMARK VINA RESULT:    -5.541      0.890      1.510
REMARK INTER + INTRA:         -10.965
REMARK INTER:                  -9.789
REMARK INTRA:                  -1.176
REMARK UNBOUND:                -0.889
REMARK SMILES CCCCCCCCCCCCCCCC(=O)[O-]
REMARK SMILES IDX 9 1 10 2 11 3 12 4 13 5 14 6 15 7 16 8 17 9 18 10 8 11 7 12
REMARK SMILES IDX 6 13 5 14 4 15 3 16 2 17 1 18
REMARK H PARENT
REMARK Flexibility Score: inf
ROOT
ATOM      1  C   UNL     1      -7.915  63.328  54.222  1.00  0.00     0.000 C 
ENDROOT
BRANCH   1   2
ATOM      2  C   UNL     1      -8.038  64.493  53.228  1.00  0.00     0.000 C 
BRANCH   2   3
ATOM      3  C   UNL     1      -6.913  65.530  53.390  1.00  0.00     0.000 C 
BRANCH   3   4
ATOM      4  C   UNL     1      -6.350  66.015  52.042  1.00  0.00     0.000 C 
BRANCH   4   5
ATOM      5  C   UNL     1      -6.086  64.907  51.002  1.00  0.00     0.000 C 
BRANCH   5   6
ATOM      6  C   UNL     1      -7.127  64.811  49.869  1.00  0.00     0.006 C 
BRANCH   6   7
ATOM      7  C   UNL     1      -7.493  63.374  49.466  1.00  0.00     0.053 C 
BRANCH   7   8
ATOM      8  C   UNL     1      -8.803  63.311  48.742  1.00  0.00     0.041 C 
ATOM      9  O   UNL     1      -9.184  62.234  48.214  1.00  0.00    -0.550 OA
ATOM     10  O   UNL     1      -9.587  64.452  48.621  1.00  0.00    -0.550 OA
ENDBRANCH   7   8
ENDBRANCH   6   7
ENDBRANCH   5   6
ENDBRANCH   4   5
ENDBRANCH   3   4
ENDBRANCH   2   3
ENDBRANCH   1   2
BRANCH   1  11
ATOM     11  C   UNL     1      -7.469  62.020  53.553  1.00  0.00     0.000 C 
BRANCH  11  12
ATOM     12  C   UNL     1      -5.937  61.904  53.543  1.00  0.00    -0.000 C 
BRANCH  12  13
ATOM     13  C   UNL     1      -5.387  61.129  54.753  1.00  0.00    -0.000 C 
BRANCH  13  14
ATOM     14  C   UNL     1      -6.262  59.952  55.230  1.00  0.00    -0.000 C 
BRANCH  14  15
ATOM     15  C   UNL     1      -5.637  59.071  56.327  1.00  0.00    -0.000 C 
BRANCH  15  16
ATOM     16  C   UNL     1      -4.157  58.749  56.062  1.00  0.00    -0.000 C 
BRANCH  16  17
ATOM     17  C   UNL     1      -3.332  58.668  57.356  1.00  0.00    -0.003 C 
ATOM     18  C   UNL     1      -3.304  59.989  58.125  1.00  0.00     0.004 C 
ENDBRANCH  16  17
ENDBRANCH  15  16
ENDBRANCH  14  15
ENDBRANCH  13  14
ENDBRANCH  12  13
ENDBRANCH  11  12
ENDBRANCH   1  11
TORSDOF 14
ENDMDL
MODEL 3
REMARK VINA RESULT:    -5.348      3.743      7.759
REMARK INTER + INTRA:         -10.613
REMARK INTER:                  -8.785
REMARK INTRA:                  -1.829
REMARK UNBOUND:                -0.889
REMARK SMILES CCCCCCCCCCCCCCCC(=O)[O-]
REMARK SMILES IDX 9 1 10 2 11 3 12 4 13 5 14 6 15 7 16 8 17 9 18 10 8 11 7 12
REMARK SMILES IDX 6 13 5 14 4 15 3 16 2 17 1 18
REMARK H PARENT
REMARK Flexibility Score: inf
ROOT
ATOM      1  C   UNL     1      -7.713  64.072  53.355  1.00  0.00     0.000 C 
ENDROOT
BRANCH   1   2
ATOM      2  C   UNL     1      -6.296  63.512  53.559  1.00  0.00     0.000 C 
BRANCH   2   3
ATOM      3  C   UNL     1      -6.156  62.065  53.055  1.00  0.00     0.000 C 
BRANCH   3   4
ATOM      4  C   UNL     1      -6.956  61.058  53.901  1.00  0.00     0.000 C 
BRANCH   4   5
ATOM      5  C   UNL     1      -6.724  61.147  55.423  1.00  0.00     0.000 C 
BRANCH   5   6
ATOM      6  C   UNL     1      -5.345  60.653  55.906  1.00  0.00     0.006 C 
BRANCH   6   7
ATOM      7  C   UNL     1      -5.334  59.203  56.415  1.00  0.00     0.053 C 
BRANCH   7   8
ATOM      8  C   UNL     1      -3.962  58.763  56.824  1.00  0.00     0.041 C 
ATOM      9  O   UNL     1      -3.215  58.171  56.002  1.00  0.00    -0.550 OA
ATOM     10  O   UNL     1      -3.521  58.979  58.124  1.00  0.00    -0.550 OA
ENDBRANCH   7   8
ENDBRANCH   6   7
ENDBRANCH   5   6
ENDBRANCH   4   5
ENDBRANCH   3   4
ENDBRANCH   2   3
ENDBRANCH   1   2
BRANCH   1  11
ATOM     11  C   UNL     1      -7.712  65.508  52.810  1.00  0.00     0.000 C 
BRANCH  11  12
ATOM     12  C   UNL     1      -6.279  66.047  52.692  1.00  0.00    -0.000 C 
BRANCH  12  13
ATOM     13  C   UNL     1      -6.040  66.836  51.392  1.00  0.00    -0.000 C 
BRANCH  13  14
ATOM     14  C   UNL     1      -5.186  66.109  50.333  1.00  0.00    -0.000 C 
BRANCH  14  15
ATOM     15  C   UNL     1      -5.979  65.281  49.306  1.00  0.00    -0.000 C 
BRANCH  15  16
ATOM     16  C   UNL     1      -6.211  63.831  49.760  1.00  0.00    -0.000 C 
BRANCH  16  17
ATOM     17  C   UNL     1      -7.688  63.416  49.674  1.00  0.00    -0.003 C 
ATOM     18  C   UNL     1      -8.608  64.575  49.290  1.00  0.00     0.004 C 
ENDBRANCH  16  17
ENDBRANCH  15  16
ENDBRANCH  14  15
ENDBRANCH  13  14
ENDBRANCH  12  13
ENDBRANCH  11  12
ENDBRANCH   1  11
TORSDOF 14
ENDMDL
MODEL 4
REMARK VINA RESULT:    -5.293      1.546      3.342
REMARK INTER + INTRA:         -10.514
REMARK INTER:                  -9.663
REMARK INTRA:                  -0.851
REMARK UNBOUND:                -0.889
REMARK SMILES CCCCCCCCCCCCCCCC(=O)[O-]
REMARK SMILES IDX 9 1 10 2 11 3 12 4 13 5 14 6 15 7 16 8 17 9 18 10 8 11 7 12
REMARK SMILES IDX 6 13 5 14 4 15 3 16 2 17 1 18
REMARK H PARENT
REMARK Flexibility Score: inf
ROOT
ATOM      1  C   UNL     1      -5.876  65.307  50.856  1.00  0.00     0.000 C 
ENDROOT
BRANCH   1   2
ATOM      2  C   UNL     1      -6.618  64.398  49.863  1.00  0.00     0.000 C 
BRANCH   2   3
ATOM      3  C   UNL     1      -8.141  64.612  49.891  1.00  0.00     0.000 C 
BRANCH   3   4
ATOM      4  C   UNL     1      -8.763  64.657  48.484  1.00  0.00     0.000 C 
BRANCH   4   5
ATOM      5  C   UNL     1      -9.645  63.447  48.115  1.00  0.00     0.000 C 
BRANCH   5   6
ATOM      6  C   UNL     1      -9.029  62.475  47.089  1.00  0.00     0.006 C 
BRANCH   6   7
ATOM      7  C   UNL     1      -9.031  62.994  45.643  1.00  0.00     0.053 C 
BRANCH   7   8
ATOM      8  C   UNL     1      -9.556  61.973  44.682  1.00  0.00     0.041 C 
ATOM      9  O   UNL     1     -10.229  62.332  43.681  1.00  0.00    -0.550 OA
ATOM     10  O   UNL     1      -9.330  60.620  44.909  1.00  0.00    -0.550 OA
ENDBRANCH   7   8
ENDBRANCH   6   7
ENDBRANCH   5   6
ENDBRANCH   4   5
ENDBRANCH   3   4
ENDBRANCH   2   3
ENDBRANCH   1   2
BRANCH   1  11
ATOM     11  C   UNL     1      -6.696  65.599  52.121  1.00  0.00     0.000 C 
BRANCH  11  12
ATOM     12  C   UNL     1      -6.597  64.436  53.119  1.00  0.00    -0.000 C 
BRANCH  12  13
ATOM     13  C   UNL     1      -7.958  64.049  53.725  1.00  0.00    -0.000 C 
BRANCH  13  14
ATOM     14  C   UNL     1      -7.992  62.682  54.438  1.00  0.00    -0.000 C 
BRANCH  14  15
ATOM     15  C   UNL     1      -7.582  61.479  53.571  1.00  0.00    -0.000 C 
BRANCH  15  16
ATOM     16  C   UNL     1      -6.328  60.763  54.099  1.00  0.00    -0.000 C 
BRANCH  16  17
ATOM     17  C   UNL     1      -6.306  60.669  55.633  1.00  0.00    -0.003 C 
ATOM     18  C   UNL     1      -6.164  59.233  56.138  1.00  0.00     0.004 C 
ENDBRANCH  16  17
ENDBRANCH  15  16
ENDBRANCH  14  15
ENDBRANCH  13  14
ENDBRANCH  12  13
ENDBRANCH  11  12
ENDBRANCH   1  11
TORSDOF 14
ENDMDL
MODEL 5
REMARK VINA RESULT:    -5.290      7.180     13.025
REMARK INTER + INTRA:         -10.509
REMARK INTER:                  -9.372
REMARK INTRA:                  -1.136
REMARK UNBOUND:                -0.889
REMARK SMILES CCCCCCCCCCCCCCCC(=O)[O-]
REMARK SMILES IDX 9 1 10 2 11 3 12 4 13 5 14 6 15 7 16 8 17 9 18 10 8 11 7 12
REMARK SMILES IDX 6 13 5 14 4 15 3 16 2 17 1 18
REMARK H PARENT
REMARK Flexibility Score: inf
ROOT
ATOM      1  C   UNL     1      -9.199  64.522  41.182  1.00  0.00     0.000 C 
ENDROOT
BRANCH   1   2
ATOM      2  C   UNL     1      -9.909  63.885  42.388  1.00  0.00     0.000 C 
BRANCH   2   3
ATOM      3  C   UNL     1      -9.730  62.357  42.438  1.00  0.00     0.000 C 
BRANCH   3   4
ATOM      4  C   UNL     1     -10.320  61.729  43.713  1.00  0.00     0.000 C 
BRANCH   4   5
ATOM      5  C   UNL     1      -9.312  61.491  44.856  1.00  0.00     0.000 C 
BRANCH   5   6
ATOM      6  C   UNL     1      -9.131  62.674  45.828  1.00  0.00     0.006 C 
BRANCH   6   7
ATOM      7  C   UNL     1      -9.197  62.288  47.314  1.00  0.00     0.053 C 
BRANCH   7   8
ATOM      8  C   UNL     1      -8.986  63.470  48.210  1.00  0.00     0.041 C 
ATOM      9  O   UNL     1      -7.958  63.543  48.932  1.00  0.00    -0.550 OA
ATOM     10  O   UNL     1      -9.943  64.476  48.271  1.00  0.00    -0.550 OA
ENDBRANCH   7   8
ENDBRANCH   6   7
ENDBRANCH   5   6
ENDBRANCH   4   5
ENDBRANCH   3   4
ENDBRANCH   2   3
ENDBRANCH   1   2
BRANCH   1  11
ATOM     11  C   UNL     1      -9.014  63.543  40.015  1.00  0.00     0.000 C 
BRANCH  11  12
ATOM     12  C   UNL     1      -9.921  63.920  38.834  1.00  0.00    -0.000 C 
BRANCH  12  13
ATOM     13  C   UNL     1     -10.704  62.720  38.272  1.00  0.00    -0.000 C 
BRANCH  13  14
ATOM     14  C   UNL     1     -11.929  62.290  39.103  1.00  0.00    -0.000 C 
BRANCH  14  15
ATOM     15  C   UNL     1     -11.774  60.958  39.859  1.00  0.00    -0.000 C 
BRANCH  15  16
ATOM     16  C   UNL     1     -12.973  60.016  39.662  1.00  0.00    -0.000 C 
BRANCH  16  17
ATOM     17  C   UNL     1     -14.024  60.595  38.701  1.00  0.00    -0.003 C 
ATOM     18  C   UNL     1     -15.457  60.343  39.168  1.00  0.00     0.004 C 
ENDBRANCH  16  17
ENDBRANCH  15  16
ENDBRANCH  14  15
ENDBRANCH  13  14
ENDBRANCH  12  13
ENDBRANCH  11  12
ENDBRANCH   1  11
TORSDOF 14
ENDMDL
MODEL 6
REMARK VINA RESULT:    -5.171     12.400     15.064
REMARK INTER + INTRA:         -10.292
REMARK INTER:                  -9.168
REMARK INTRA:                  -1.123
REMARK UNBOUND:                -0.889
REMARK SMILES CCCCCCCCCCCCCCCC(=O)[O-]
REMARK SMILES IDX 9 1 10 2 11 3 12 4 13 5 14 6 15 7 16 8 17 9 18 10 8 11 7 12
REMARK SMILES IDX 6 13 5 14 4 15 3 16 2 17 1 18
REMARK H PARENT
REMARK Flexibility Score: inf
ROOT
ATOM      1  C   UNL     1     -10.305  62.421  40.454  1.00  0.00     0.000 C 
ENDROOT
BRANCH   1   2
ATOM      2  C   UNL     1     -10.733  60.953  40.613  1.00  0.00     0.000 C 
BRANCH   2   3
ATOM      3  C   UNL     1     -12.258  60.769  40.517  1.00  0.00     0.000 C 
BRANCH   3   4
ATOM      4  C   UNL     1     -12.665  59.677  39.512  1.00  0.00     0.000 C 
BRANCH   4   5
ATOM      5  C   UNL     1     -13.830  60.048  38.572  1.00  0.00     0.000 C 
BRANCH   5   6
ATOM      6  C   UNL     1     -14.622  61.308  38.976  1.00  0.00     0.006 C 
BRANCH   6   7
ATOM      7  C   UNL     1     -15.808  61.633  38.055  1.00  0.00     0.053 C 
BRANCH   7   8
ATOM      8  C   UNL     1     -17.070  60.967  38.511  1.00  0.00     0.041 C 
ATOM      9  O   UNL     1     -17.035  59.806  38.994  1.00  0.00    -0.550 OA
ATOM     10  O   UNL     1     -18.290  61.618  38.372  1.00  0.00    -0.550 OA
ENDBRANCH   7   8
ENDBRANCH   6   7
ENDBRANCH   5   6
ENDBRANCH   4   5
ENDBRANCH   3   4
ENDBRANCH   2   3
ENDBRANCH   1   2
BRANCH   1  11
ATOM     11  C   UNL     1     -11.123  63.167  39.390  1.00  0.00     0.000 C 
BRANCH  11  12
ATOM     12  C   UNL     1     -10.347  63.262  38.069  1.00  0.00    -0.000 C 
BRANCH  12  13
ATOM     13  C   UNL     1      -9.515  64.553  37.954  1.00  0.00    -0.000 C 
BRANCH  13  14
ATOM     14  C   UNL     1      -8.142  64.512  38.656  1.00  0.00    -0.000 C 
BRANCH  14  15
ATOM     15  C   UNL     1      -7.545  65.886  39.010  1.00  0.00    -0.000 C 
BRANCH  15  16
ATOM     16  C   UNL     1      -8.541  66.797  39.746  1.00  0.00    -0.000 C 
BRANCH  16  17
ATOM     17  C   UNL     1      -8.377  66.738  41.272  1.00  0.00    -0.003 C 
ATOM     18  C   UNL     1      -9.180  65.605  41.911  1.00  0.00     0.004 C 
ENDBRANCH  16  17
ENDBRANCH  15  16
ENDBRANCH  14  15
ENDBRANCH  13  14
ENDBRANCH  12  13
ENDBRANCH  11  12
ENDBRANCH   1  11
TORSDOF 14
ENDMDL
MODEL 7
REMARK VINA RESULT:    -5.152      3.295      7.371
REMARK INTER + INTRA:         -10.257
REMARK INTER:                  -9.141
REMARK INTRA:                  -1.116
REMARK UNBOUND:                -0.889
REMARK SMILES CCCCCCCCCCCCCCCC(=O)[O-]
REMARK SMILES IDX 9 1 10 2 11 3 12 4 13 5 14 6 15 7 16 8 17 9 18 10 8 11 7 12
REMARK SMILES IDX 6 13 5 14 4 15 3 16 2 17 1 18
REMARK H PARENT
REMARK Flexibility Score: inf
ROOT
ATOM      1  C   UNL     1      -6.696  66.235  51.807  1.00  0.00     0.000 C 
ENDROOT
BRANCH   1   2
ATOM      2  C   UNL     1      -6.625  65.668  53.234  1.00  0.00     0.000 C 
BRANCH   2   3
ATOM      3  C   UNL     1      -6.493  64.135  53.254  1.00  0.00     0.000 C 
BRANCH   3   4
ATOM      4  C   UNL     1      -7.823  63.425  53.564  1.00  0.00     0.000 C 
BRANCH   4   5
ATOM      5  C   UNL     1      -7.788  62.458  54.765  1.00  0.00     0.000 C 
BRANCH   5   6
ATOM      6  C   UNL     1      -6.902  61.210  54.576  1.00  0.00     0.006 C 
BRANCH   6   7
ATOM      7  C   UNL     1      -6.058  60.840  55.806  1.00  0.00     0.053 C 
BRANCH   7   8
ATOM      8  C   UNL     1      -5.794  59.368  55.882  1.00  0.00     0.041 C 
ATOM      9  O   UNL     1      -6.740  58.565  56.093  1.00  0.00    -0.550 OA
ATOM     10  O   UNL     1      -4.497  58.885  55.753  1.00  0.00    -0.550 OA
ENDBRANCH   7   8
ENDBRANCH   6   7
ENDBRANCH   5   6
ENDBRANCH   4   5
ENDBRANCH   3   4
ENDBRANCH   2   3
ENDBRANCH   1   2
BRANCH   1  11
ATOM     11  C   UNL     1      -5.359  66.826  51.336  1.00  0.00     0.000 C 
BRANCH  11  12
ATOM     12  C   UNL     1      -4.991  66.303  49.940  1.00  0.00    -0.000 C 
BRANCH  12  13
ATOM     13  C   UNL     1      -6.140  65.532  49.266  1.00  0.00    -0.000 C 
BRANCH  13  14
ATOM     14  C   UNL     1      -6.169  64.017  49.555  1.00  0.00    -0.000 C 
BRANCH  14  15
ATOM     15  C   UNL     1      -7.569  63.420  49.784  1.00  0.00    -0.000 C 
BRANCH  15  16
ATOM     16  C   UNL     1      -8.700  64.363  49.343  1.00  0.00    -0.000 C 
BRANCH  16  17
ATOM     17  C   UNL     1      -9.296  63.972  47.982  1.00  0.00    -0.003 C 
ATOM     18  C   UNL     1      -8.986  62.528  47.591  1.00  0.00     0.004 C 
ENDBRANCH  16  17
ENDBRANCH  15  16
ENDBRANCH  14  15
ENDBRANCH  13  14
ENDBRANCH  12  13
ENDBRANCH  11  12
ENDBRANCH   1  11
TORSDOF 14
ENDMDL
MODEL 8
REMARK VINA RESULT:    -5.113      8.301     13.731
REMARK INTER + INTRA:         -10.186
REMARK INTER:                  -8.612
REMARK INTRA:                  -1.573
REMARK UNBOUND:                -0.889
REMARK SMILES CCCCCCCCCCCCCCCC(=O)[O-]
REMARK SMILES IDX 9 1 10 2 11 3 12 4 13 5 14 6 15 7 16 8 17 9 18 10 8 11 7 12
REMARK SMILES IDX 6 13 5 14 4 15 3 16 2 17 1 18
REMARK H PARENT
REMARK Flexibility Score: inf
ROOT
ATOM      1  C   UNL     1      -8.180  64.175  39.931  1.00  0.00     0.000 C 
ENDROOT
BRANCH   1   2
ATOM      2  C   UNL     1      -8.985  64.974  40.969  1.00  0.00     0.000 C 
BRANCH   2   3
ATOM      3  C   UNL     1      -9.861  64.074  41.857  1.00  0.00     0.000 C 
BRANCH   3   4
ATOM      4  C   UNL     1      -9.411  62.602  41.842  1.00  0.00     0.000 C 
BRANCH   4   5
ATOM      5  C   UNL     1     -10.487  61.581  42.265  1.00  0.00     0.000 C 
BRANCH   5   6
ATOM      6  C   UNL     1     -10.782  61.528  43.778  1.00  0.00     0.006 C 
BRANCH   6   7
ATOM      7  C   UNL     1      -9.558  61.208  44.651  1.00  0.00     0.053 C 
BRANCH   7   8
ATOM      8  C   UNL     1      -9.218  62.338  45.574  1.00  0.00     0.041 C 
ATOM      9  O   UNL     1      -9.152  63.516  45.135  1.00  0.00    -0.550 OA
ATOM     10  O   UNL     1      -8.940  62.085  46.911  1.00  0.00    -0.550 OA
ENDBRANCH   7   8
ENDBRANCH   6   7
ENDBRANCH   5   6
ENDBRANCH   4   5
ENDBRANCH   3   4
ENDBRANCH   2   3
ENDBRANCH   1   2
BRANCH   1  11
ATOM     11  C   UNL     1      -8.307  64.747  38.512  1.00  0.00     0.000 C 
BRANCH  11  12
ATOM     12  C   UNL     1      -9.689  64.438  37.918  1.00  0.00    -0.000 C 
BRANCH  12  13
ATOM     13  C   UNL     1     -10.163  63.005  38.219  1.00  0.00    -0.000 C 
BRANCH  13  14
ATOM     14  C   UNL     1     -11.569  62.898  38.843  1.00  0.00    -0.000 C 
BRANCH  14  15
ATOM     15  C   UNL     1     -12.071  61.464  39.091  1.00  0.00    -0.000 C 
BRANCH  15  16
ATOM     16  C   UNL     1     -13.436  61.422  39.796  1.00  0.00    -0.000 C 
BRANCH  16  17
ATOM     17  C   UNL     1     -14.581  61.900  38.889  1.00  0.00    -0.003 C 
ATOM     18  C   UNL     1     -15.356  60.745  38.255  1.00  0.00     0.004 C 
ENDBRANCH  16  17
ENDBRANCH  15  16
ENDBRANCH  14  15
ENDBRANCH  13  14
ENDBRANCH  12  13
ENDBRANCH  11  12
ENDBRANCH   1  11
TORSDOF 14
ENDMDL
MODEL 9
REMARK VINA RESULT:    -4.999      6.616     12.451
REMARK INTER + INTRA:          -9.980
REMARK INTER:                  -9.038
REMARK INTRA:                  -0.942
REMARK UNBOUND:                -0.889
REMARK SMILES CCCCCCCCCCCCCCCC(=O)[O-]
REMARK SMILES IDX 9 1 10 2 11 3 12 4 13 5 14 6 15 7 16 8 17 9 18 10 8 11 7 12
REMARK SMILES IDX 6 13 5 14 4 15 3 16 2 17 1 18
REMARK H PARENT
REMARK Flexibility Score: inf
ROOT
ATOM      1  C   UNL     1     -10.002  63.369  42.804  1.00  0.00     0.000 C 
ENDROOT
BRANCH   1   2
ATOM      2  C   UNL     1      -9.995  61.877  43.177  1.00  0.00     0.000 C 
BRANCH   2   3
ATOM      3  C   UNL     1      -9.629  61.639  44.652  1.00  0.00     0.000 C 
BRANCH   3   4
ATOM      4  C   UNL     1      -9.171  62.922  45.368  1.00  0.00     0.000 C 
BRANCH   4   5
ATOM      5  C   UNL     1      -9.221  62.871  46.908  1.00  0.00     0.000 C 
BRANCH   5   6
ATOM      6  C   UNL     1      -9.181  64.242  47.612  1.00  0.00     0.006 C 
BRANCH   6   7
ATOM      7  C   UNL     1      -9.286  64.172  49.143  1.00  0.00     0.053 C 
BRANCH   7   8
ATOM      8  C   UNL     1      -8.039  64.661  49.814  1.00  0.00     0.041 C 
ATOM      9  O   UNL     1      -6.994  64.860  49.140  1.00  0.00    -0.550 OA
ATOM     10  O   UNL     1      -8.021  64.864  51.188  1.00  0.00    -0.550 OA
ENDBRANCH   7   8
ENDBRANCH   6   7
ENDBRANCH   5   6
ENDBRANCH   4   5
ENDBRANCH   3   4
ENDBRANCH   2   3
ENDBRANCH   1   2
BRANCH   1  11
ATOM     11  C   UNL     1      -9.437  63.634  41.402  1.00  0.00     0.000 C 
BRANCH  11  12
ATOM     12  C   UNL     1      -9.640  62.415  40.490  1.00  0.00    -0.000 C 
BRANCH  12  13
ATOM     13  C   UNL     1     -10.510  62.726  39.259  1.00  0.00    -0.000 C 
BRANCH  13  14
ATOM     14  C   UNL     1     -11.705  61.774  39.045  1.00  0.00    -0.000 C 
BRANCH  14  15
ATOM     15  C   UNL     1     -11.936  60.748  40.168  1.00  0.00    -0.000 C 
BRANCH  15  16
ATOM     16  C   UNL     1     -12.956  59.663  39.785  1.00  0.00    -0.000 C 
BRANCH  16  17
ATOM     17  C   UNL     1     -13.948  60.140  38.713  1.00  0.00    -0.003 C 
ATOM     18  C   UNL     1     -15.259  60.657  39.305  1.00  0.00     0.004 C 
ENDBRANCH  16  17
ENDBRANCH  15  16
ENDBRANCH  14  15
ENDBRANCH  13  14
ENDBRANCH  12  13
ENDBRANCH  11  12
ENDBRANCH   1  11
TORSDOF 14
ENDMDL
