MODEL 1
REMARK VINA RESULT:    -4.489      0.000      0.000
REMARK INTER + INTRA:          -8.168
REMARK INTER:                  -6.589
REMARK INTRA:                  -1.579
REMARK UNBOUND:                -1.579
REMARK SMILES O=c1c(O[C@H]2O[C@H](CO)[C@@H](O)[C@@H](O)[C@@H]2O)c(-c2ccc(O)c(O)c2)oc2cc(O)cc(O)c12
REMARK SMILES IDX 4 1 3 2 16 3 25 4 2 5 26 6 1 7 33 8 27 9 31 10 28 11 30 12
REMARK SMILES IDX 17 13 18 14 19 15 20 16 24 17 22 18 21 19 23 21 32 23 29 25
REMARK SMILES IDX 5 27 14 28 6 29 12 30 7 31 10 32 15 33 13 35 8 37 9 38 11 40
REMARK H PARENT 21 20 23 22 32 24 29 26 15 34 13 36 9 39 11 41
REMARK Flexibility Score: inf
ROOT
ATOM      1  O   UNL     1      20.159   1.488  11.808  1.00  0.00    -0.454 OA
ENDROOT
BRANCH   1   2
ATOM      2  C   UNL     1      19.783   0.195  11.402  1.00  0.00     0.214 A 
ATOM      3  C   UNL     1      18.413  -0.108  11.302  1.00  0.00     0.180 A 
ATOM      4  O   UNL     1      18.015  -1.336  10.994  1.00  0.00    -0.452 OA
ATOM      5  C   UNL     1      20.714  -0.835  11.163  1.00  0.00     0.239 A 
ATOM      6  C   UNL     1      18.857  -2.332  10.754  1.00  0.00     0.146 A 
ATOM      7  O   UNL     1      21.947  -0.608  11.290  1.00  0.00    -0.285 OA
ATOM      8  C   UNL     1      20.253  -2.126  10.822  1.00  0.00     0.111 A 
ATOM      9  C   UNL     1      18.343  -3.593  10.436  1.00  0.00     0.094 A 
ATOM     10  C   UNL     1      21.122  -3.218  10.574  1.00  0.00     0.134 A 
ATOM     11  C   UNL     1      19.208  -4.661  10.175  1.00  0.00     0.123 A 
ATOM     12  C   UNL     1      20.589  -4.465  10.229  1.00  0.00     0.093 A 
BRANCH   3  13
ATOM     13  C   UNL     1      17.385   0.926  11.523  1.00  0.00     0.025 A 
ATOM     14  C   UNL     1      16.855   1.641  10.440  1.00  0.00     0.016 A 
ATOM     15  C   UNL     1      15.882   2.621  10.652  1.00  0.00     0.051 A 
ATOM     16  C   UNL     1      15.420   2.889  11.947  1.00  0.00     0.157 A 
ATOM     17  C   UNL     1      16.910   1.180  12.817  1.00  0.00     0.062 A 
ATOM     18  C   UNL     1      15.938   2.164  13.035  1.00  0.00     0.158 A 
BRANCH  16  19
ATOM     19  O   UNL     1      14.440   3.863  12.154  1.00  0.00    -0.504 OA
ATOM     20  H   UNL     1      13.651   3.965  11.524  1.00  0.00     0.293 HD
ENDBRANCH  16  19
BRANCH  18  21
ATOM     21  O   UNL     1      15.494   2.404  14.337  1.00  0.00    -0.504 OA
ATOM     22  H   UNL     1      15.469   3.336  14.734  1.00  0.00     0.293 HD
ENDBRANCH  18  21
ENDBRANCH   3  13
BRANCH  10  23
ATOM     23  O   UNL     1      22.506  -3.073  10.669  1.00  0.00    -0.507 OA
ATOM     24  H   UNL     1      23.019  -2.427  10.082  1.00  0.00     0.293 HD
ENDBRANCH  10  23
BRANCH  11  25
ATOM     25  O   UNL     1      18.700  -5.926   9.875  1.00  0.00    -0.508 OA
ATOM     26  H   UNL     1      19.002  -6.754  10.380  1.00  0.00     0.293 HD
ENDBRANCH  11  25
ENDBRANCH   1   2
BRANCH   1  27
ATOM     27  C   UNL     1      20.716   2.512  10.971  1.00  0.00     0.339 C 
ATOM     28  C   UNL     1      21.919   3.207  11.636  1.00  0.00     0.214 C 
ATOM     29  O   UNL     1      19.724   3.464  10.633  1.00  0.00    -0.332 OA
ATOM     30  C   UNL     1      21.479   4.157  12.786  1.00  0.00     0.180 C 
ATOM     31  C   UNL     1      19.134   4.120  11.759  1.00  0.00     0.179 C 
ATOM     32  C   UNL     1      19.969   4.100  13.085  1.00  0.00     0.177 C 
BRANCH  28  33
ATOM     33  O   UNL     1      22.603   3.945  10.646  1.00  0.00    -0.384 OA
ATOM     34  H   UNL     1      23.565   3.935  10.899  1.00  0.00     0.211 HD
ENDBRANCH  28  33
BRANCH  30  35
ATOM     35  O   UNL     1      22.239   3.937  13.949  1.00  0.00    -0.387 OA
ATOM     36  H   UNL     1      21.667   3.437  14.591  1.00  0.00     0.211 HD
ENDBRANCH  30  35
BRANCH  31  37
ATOM     37  C   UNL     1      18.812   5.568  11.336  1.00  0.00     0.191 C 
BRANCH  37  38
ATOM     38  O   UNL     1      17.579   5.983  11.881  1.00  0.00    -0.394 OA
ATOM     39  H   UNL     1      16.898   5.928  11.159  1.00  0.00     0.210 HD
ENDBRANCH  37  38
ENDBRANCH  31  37
BRANCH  32  40
ATOM     40  O   UNL     1      19.658   2.962  13.853  1.00  0.00    -0.387 OA
ATOM     41  H   UNL     1      19.947   2.168  13.330  1.00  0.00     0.211 HD
ENDBRANCH  32  40
ENDBRANCH   1  27
TORSDOF 12
ENDMDL
MODEL 2
REMARK VINA RESULT:    -4.453      3.025      7.105
REMARK INTER + INTRA:          -8.115
REMARK INTER:                  -6.479
REMARK INTRA:                  -1.636
REMARK UNBOUND:                -1.579
REMARK SMILES O=c1c(O[C@H]2O[C@H](CO)[C@@H](O)[C@@H](O)[C@@H]2O)c(-c2ccc(O)c(O)c2)oc2cc(O)cc(O)c12
REMARK SMILES IDX 4 1 3 2 16 3 25 4 2 5 26 6 1 7 33 8 27 9 31 10 28 11 30 12
REMARK SMILES IDX 17 13 18 14 19 15 20 16 24 17 22 18 21 19 23 21 32 23 29 25
REMARK SMILES IDX 5 27 14 28 6 29 12 30 7 31 10 32 15 33 13 35 8 37 9 38 11 40
REMARK H PARENT 21 20 23 22 32 24 29 26 15 34 13 36 9 39 11 41
REMARK Flexibility Score: inf
ROOT
ATOM      1  O   UNL     1      20.082   0.289  14.489  1.00  0.00    -0.454 OA
ENDROOT
BRANCH   1   2
ATOM      2  C   UNL     1      18.987   0.788  13.762  1.00  0.00     0.214 A 
ATOM      3  C   UNL     1      18.795   0.341  12.442  1.00  0.00     0.180 A 
ATOM      4  O   UNL     1      17.817   0.843  11.697  1.00  0.00    -0.452 OA
ATOM      5  C   UNL     1      18.116   1.772  14.268  1.00  0.00     0.239 A 
ATOM      6  C   UNL     1      16.971   1.764  12.135  1.00  0.00     0.146 A 
ATOM      7  O   UNL     1      18.290   2.227  15.430  1.00  0.00    -0.285 OA
ATOM      8  C   UNL     1      17.077   2.271  13.451  1.00  0.00     0.111 A 
ATOM      9  C   UNL     1      15.972   2.232  11.277  1.00  0.00     0.094 A 
ATOM     10  C   UNL     1      16.164   3.267  13.880  1.00  0.00     0.134 A 
ATOM     11  C   UNL     1      15.063   3.201  11.714  1.00  0.00     0.123 A 
ATOM     12  C   UNL     1      15.152   3.700  13.015  1.00  0.00     0.093 A 
BRANCH   3  13
ATOM     13  C   UNL     1      19.659  -0.698  11.855  1.00  0.00     0.025 A 
ATOM     14  C   UNL     1      20.885  -0.352  11.267  1.00  0.00     0.016 A 
ATOM     15  C   UNL     1      21.701  -1.340  10.710  1.00  0.00     0.051 A 
ATOM     16  C   UNL     1      21.309  -2.683  10.744  1.00  0.00     0.157 A 
ATOM     17  C   UNL     1      19.274  -2.045  11.907  1.00  0.00     0.062 A 
ATOM     18  C   UNL     1      20.088  -3.037  11.345  1.00  0.00     0.158 A 
BRANCH  16  19
ATOM     19  O   UNL     1      22.133  -3.668  10.195  1.00  0.00    -0.504 OA
ATOM     20  H   UNL     1      22.017  -3.985   9.237  1.00  0.00     0.293 HD
ENDBRANCH  16  19
BRANCH  18  21
ATOM     21  O   UNL     1      19.671  -4.368  11.401  1.00  0.00    -0.504 OA
ATOM     22  H   UNL     1      19.272  -4.842  10.599  1.00  0.00     0.293 HD
ENDBRANCH  18  21
ENDBRANCH   3  13
BRANCH  10  23
ATOM     23  O   UNL     1      16.254   3.825  15.153  1.00  0.00    -0.507 OA
ATOM     24  H   UNL     1      15.596   3.596  15.888  1.00  0.00     0.293 HD
ENDBRANCH  10  23
BRANCH  11  25
ATOM     25  O   UNL     1      14.075   3.685  10.854  1.00  0.00    -0.508 OA
ATOM     26  H   UNL     1      14.082   4.645  10.523  1.00  0.00     0.293 HD
ENDBRANCH  11  25
ENDBRANCH   1   2
BRANCH   1  27
ATOM     27  C   UNL     1      20.021  -0.613  15.604  1.00  0.00     0.339 C 
ATOM     28  C   UNL     1      20.878  -0.123  16.786  1.00  0.00     0.214 C 
ATOM     29  O   UNL     1      20.424  -1.911  15.210  1.00  0.00    -0.332 OA
ATOM     30  C   UNL     1      22.399  -0.302  16.516  1.00  0.00     0.180 C 
ATOM     31  C   UNL     1      21.756  -1.979  14.691  1.00  0.00     0.179 C 
ATOM     32  C   UNL     1      22.714  -0.806  15.094  1.00  0.00     0.177 C 
BRANCH  28  33
ATOM     33  O   UNL     1      20.509  -0.862  17.932  1.00  0.00    -0.384 OA
ATOM     34  H   UNL     1      20.278  -0.198  18.636  1.00  0.00     0.211 HD
ENDBRANCH  28  33
BRANCH  30  35
ATOM     35  O   UNL     1      23.111   0.875  16.810  1.00  0.00    -0.387 OA
ATOM     36  H   UNL     1      22.481   1.638  16.720  1.00  0.00     0.211 HD
ENDBRANCH  30  35
BRANCH  31  37
ATOM     37  C   UNL     1      22.348  -3.340  15.111  1.00  0.00     0.191 C 
BRANCH  37  38
ATOM     38  O   UNL     1      21.743  -3.801  16.299  1.00  0.00    -0.394 OA
ATOM     39  H   UNL     1      22.408  -3.707  17.031  1.00  0.00     0.210 HD
ENDBRANCH  37  38
ENDBRANCH  31  37
BRANCH  32  40
ATOM     40  O   UNL     1      22.632   0.247  14.165  1.00  0.00    -0.387 OA
ATOM     41  H   UNL     1      23.226   0.974  14.493  1.00  0.00     0.211 HD
ENDBRANCH  32  40
ENDBRANCH   1  27
TORSDOF 12
ENDMDL
MODEL 3
REMARK VINA RESULT:    -4.368      3.862      6.038
REMARK INTER + INTRA:          -7.990
REMARK INTER:                  -6.785
REMARK INTRA:                  -1.205
REMARK UNBOUND:                -1.579
REMARK SMILES O=c1c(O[C@H]2O[C@H](CO)[C@@H](O)[C@@H](O)[C@@H]2O)c(-c2ccc(O)c(O)c2)oc2cc(O)cc(O)c12
REMARK SMILES IDX 4 1 3 2 16 3 25 4 2 5 26 6 1 7 33 8 27 9 31 10 28 11 30 12
REMARK SMILES IDX 17 13 18 14 19 15 20 16 24 17 22 18 21 19 23 21 32 23 29 25
REMARK SMILES IDX 5 27 14 28 6 29 12 30 7 31 10 32 15 33 13 35 8 37 9 38 11 40
REMARK H PARENT 21 20 23 22 32 24 29 26 15 34 13 36 9 39 11 41
REMARK Flexibility Score: inf
ROOT
ATOM      1  O   UNL     1      18.842  -0.455  13.171  1.00  0.00    -0.454 OA
ENDROOT
BRANCH   1   2
ATOM      2  C   UNL     1      19.392  -0.462  14.465  1.00  0.00     0.214 A 
ATOM      3  C   UNL     1      19.524   0.761  15.147  1.00  0.00     0.180 A 
ATOM      4  O   UNL     1      20.106   0.808  16.340  1.00  0.00    -0.452 OA
ATOM      5  C   UNL     1      19.887  -1.628  15.081  1.00  0.00     0.239 A 
ATOM      6  C   UNL     1      20.578  -0.264  16.958  1.00  0.00     0.146 A 
ATOM      7  O   UNL     1      19.826  -2.731  14.476  1.00  0.00    -0.285 OA
ATOM      8  C   UNL     1      20.486  -1.541  16.357  1.00  0.00     0.111 A 
ATOM      9  C   UNL     1      21.175  -0.117  18.214  1.00  0.00     0.094 A 
ATOM     10  C   UNL     1      21.016  -2.663  17.042  1.00  0.00     0.134 A 
ATOM     11  C   UNL     1      21.679  -1.231  18.891  1.00  0.00     0.123 A 
ATOM     12  C   UNL     1      21.583  -2.498  18.311  1.00  0.00     0.093 A 
BRANCH   3  13
ATOM     13  C   UNL     1      19.013   2.017  14.568  1.00  0.00     0.025 A 
ATOM     14  C   UNL     1      19.788   2.740  13.649  1.00  0.00     0.016 A 
ATOM     15  C   UNL     1      19.302   3.930  13.103  1.00  0.00     0.051 A 
ATOM     16  C   UNL     1      18.033   4.406  13.459  1.00  0.00     0.157 A 
ATOM     17  C   UNL     1      17.736   2.482  14.911  1.00  0.00     0.062 A 
ATOM     18  C   UNL     1      17.247   3.677  14.369  1.00  0.00     0.158 A 
BRANCH  16  19
ATOM     19  O   UNL     1      17.547   5.591  12.903  1.00  0.00    -0.504 OA
ATOM     20  H   UNL     1      16.562   5.715  12.693  1.00  0.00     0.293 HD
ENDBRANCH  16  19
BRANCH  18  21
ATOM     21  O   UNL     1      15.976   4.120  14.739  1.00  0.00    -0.504 OA
ATOM     22  H   UNL     1      15.802   5.076  15.028  1.00  0.00     0.293 HD
ENDBRANCH  18  21
ENDBRANCH   3  13
BRANCH  10  23
ATOM     23  O   UNL     1      20.984  -3.935  16.473  1.00  0.00    -0.507 OA
ATOM     24  H   UNL     1      21.518  -4.165  15.643  1.00  0.00     0.293 HD
ENDBRANCH  10  23
BRANCH  11  25
ATOM     25  O   UNL     1      22.293  -1.086  20.137  1.00  0.00    -0.508 OA
ATOM     26  H   UNL     1      21.821  -0.629  20.911  1.00  0.00     0.293 HD
ENDBRANCH  11  25
ENDBRANCH   1   2
BRANCH   1  27
ATOM     27  C   UNL     1      19.569  -0.570  11.938  1.00  0.00     0.339 C 
ATOM     28  C   UNL     1      19.120   0.482  10.907  1.00  0.00     0.214 C 
ATOM     29  O   UNL     1      19.428  -1.873  11.404  1.00  0.00    -0.332 OA
ATOM     30  C   UNL     1      17.725   0.148  10.305  1.00  0.00     0.180 C 
ATOM     31  C   UNL     1      18.076  -2.251  11.128  1.00  0.00     0.179 C 
ATOM     32  C   UNL     1      17.053  -1.075  10.956  1.00  0.00     0.177 C 
BRANCH  28  33
ATOM     33  O   UNL     1      20.084   0.525   9.875  1.00  0.00    -0.384 OA
ATOM     34  H   UNL     1      19.904  -0.256   9.286  1.00  0.00     0.211 HD
ENDBRANCH  28  33
BRANCH  30  35
ATOM     35  O   UNL     1      16.877   1.270  10.330  1.00  0.00    -0.387 OA
ATOM     36  H   UNL     1      17.415   2.059  10.054  1.00  0.00     0.211 HD
ENDBRANCH  30  35
BRANCH  31  37
ATOM     37  C   UNL     1      18.092  -3.151   9.876  1.00  0.00     0.191 C 
BRANCH  37  38
ATOM     38  O   UNL     1      18.310  -4.498  10.235  1.00  0.00    -0.394 OA
ATOM     39  H   UNL     1      17.434  -4.964  10.197  1.00  0.00     0.210 HD
ENDBRANCH  37  38
ENDBRANCH  31  37
BRANCH  32  40
ATOM     40  O   UNL     1      16.480  -0.727  12.193  1.00  0.00    -0.387 OA
ATOM     41  H   UNL     1      15.760  -1.388  12.378  1.00  0.00     0.211 HD
ENDBRANCH  32  40
ENDBRANCH   1  27
TORSDOF 12
ENDMDL
MODEL 4
REMARK VINA RESULT:    -4.306      2.975      4.983
REMARK INTER + INTRA:          -7.899
REMARK INTER:                  -6.344
REMARK INTRA:                  -1.556
REMARK UNBOUND:                -1.579
REMARK SMILES O=c1c(O[C@H]2O[C@H](CO)[C@@H](O)[C@@H](O)[C@@H]2O)c(-c2ccc(O)c(O)c2)oc2cc(O)cc(O)c12
REMARK SMILES IDX 4 1 3 2 16 3 25 4 2 5 26 6 1 7 33 8 27 9 31 10 28 11 30 12
REMARK SMILES IDX 17 13 18 14 19 15 20 16 24 17 22 18 21 19 23 21 32 23 29 25
REMARK SMILES IDX 5 27 14 28 6 29 12 30 7 31 10 32 15 33 13 35 8 37 9 38 11 40
REMARK H PARENT 21 20 23 22 32 24 29 26 15 34 13 36 9 39 11 41
REMARK Flexibility Score: inf
ROOT
ATOM      1  O   UNL     1      19.472   0.596  13.100  1.00  0.00    -0.454 OA
ENDROOT
BRANCH   1   2
ATOM      2  C   UNL     1      19.602  -0.798  12.967  1.00  0.00     0.214 A 
ATOM      3  C   UNL     1      20.462  -1.481  13.847  1.00  0.00     0.180 A 
ATOM      4  O   UNL     1      20.670  -2.785  13.709  1.00  0.00    -0.452 OA
ATOM      5  C   UNL     1      18.970  -1.533  11.945  1.00  0.00     0.239 A 
ATOM      6  C   UNL     1      20.091  -3.515  12.767  1.00  0.00     0.146 A 
ATOM      7  O   UNL     1      18.231  -0.943  11.113  1.00  0.00    -0.285 OA
ATOM      8  C   UNL     1      19.205  -2.922  11.839  1.00  0.00     0.111 A 
ATOM      9  C   UNL     1      20.372  -4.884  12.700  1.00  0.00     0.094 A 
ATOM     10  C   UNL     1      18.616  -3.732  10.836  1.00  0.00     0.134 A 
ATOM     11  C   UNL     1      19.773  -5.679  11.719  1.00  0.00     0.123 A 
ATOM     12  C   UNL     1      18.887  -5.105  10.804  1.00  0.00     0.093 A 
BRANCH   3  13
ATOM     13  C   UNL     1      21.142  -0.776  14.949  1.00  0.00     0.025 A 
ATOM     14  C   UNL     1      22.394  -0.179  14.742  1.00  0.00     0.016 A 
ATOM     15  C   UNL     1      23.037   0.486  15.788  1.00  0.00     0.051 A 
ATOM     16  C   UNL     1      22.433   0.573  17.049  1.00  0.00     0.157 A 
ATOM     17  C   UNL     1      20.527  -0.674  16.205  1.00  0.00     0.062 A 
ATOM     18  C   UNL     1      21.171  -0.012  17.257  1.00  0.00     0.158 A 
BRANCH  16  19
ATOM     19  O   UNL     1      23.075   1.248  18.090  1.00  0.00    -0.504 OA
ATOM     20  H   UNL     1      22.762   1.163  19.051  1.00  0.00     0.293 HD
ENDBRANCH  16  19
BRANCH  18  21
ATOM     21  O   UNL     1      20.539   0.062  18.500  1.00  0.00    -0.504 OA
ATOM     22  H   UNL     1      19.575   0.360  18.597  1.00  0.00     0.293 HD
ENDBRANCH  18  21
ENDBRANCH   3  13
BRANCH  10  23
ATOM     23  O   UNL     1      17.767  -3.186   9.875  1.00  0.00    -0.507 OA
ATOM     24  H   UNL     1      16.763  -3.314   9.910  1.00  0.00     0.293 HD
ENDBRANCH  10  23
BRANCH  11  25
ATOM     25  O   UNL     1      20.065  -7.042  11.637  1.00  0.00    -0.508 OA
ATOM     26  H   UNL     1      19.523  -7.734  12.146  1.00  0.00     0.293 HD
ENDBRANCH  11  25
ENDBRANCH   1   2
BRANCH   1  27
ATOM     27  C   UNL     1      18.453   1.286  13.840  1.00  0.00     0.339 C 
ATOM     28  C   UNL     1      17.099   1.267  13.107  1.00  0.00     0.214 C 
ATOM     29  O   UNL     1      18.852   2.619  14.101  1.00  0.00    -0.332 OA
ATOM     30  C   UNL     1      17.088   2.225  11.881  1.00  0.00     0.180 C 
ATOM     31  C   UNL     1      19.112   3.393  12.926  1.00  0.00     0.179 C 
ATOM     32  C   UNL     1      18.455   2.877  11.600  1.00  0.00     0.177 C 
BRANCH  28  33
ATOM     33  O   UNL     1      16.097   1.657  14.023  1.00  0.00    -0.384 OA
ATOM     34  H   UNL     1      15.899   0.859  14.583  1.00  0.00     0.211 HD
ENDBRANCH  28  33
BRANCH  30  35
ATOM     35  O   UNL     1      16.583   1.582  10.736  1.00  0.00    -0.387 OA
ATOM     36  H   UNL     1      17.316   1.028  10.356  1.00  0.00     0.211 HD
ENDBRANCH  30  35
BRANCH  31  37
ATOM     37  C   UNL     1      18.682   4.844  13.222  1.00  0.00     0.191 C 
BRANCH  37  38
ATOM     38  O   UNL     1      19.696   5.750  12.846  1.00  0.00    -0.394 OA
ATOM     39  H   UNL     1      20.364   5.776  13.581  1.00  0.00     0.210 HD
ENDBRANCH  37  38
ENDBRANCH  31  37
BRANCH  32  40
ATOM     40  O   UNL     1      19.308   1.975  10.937  1.00  0.00    -0.387 OA
ATOM     41  H   UNL     1      19.673   2.448  10.142  1.00  0.00     0.211 HD
ENDBRANCH  32  40
ENDBRANCH   1  27
TORSDOF 12
ENDMDL
MODEL 5
REMARK VINA RESULT:    -4.239      6.634      9.198
REMARK INTER + INTRA:          -7.800
REMARK INTER:                  -7.031
REMARK INTRA:                  -0.769
REMARK UNBOUND:                -1.579
REMARK SMILES O=c1c(O[C@H]2O[C@H](CO)[C@@H](O)[C@@H](O)[C@@H]2O)c(-c2ccc(O)c(O)c2)oc2cc(O)cc(O)c12
REMARK SMILES IDX 4 1 3 2 16 3 25 4 2 5 26 6 1 7 33 8 27 9 31 10 28 11 30 12
REMARK SMILES IDX 17 13 18 14 19 15 20 16 24 17 22 18 21 19 23 21 32 23 29 25
REMARK SMILES IDX 5 27 14 28 6 29 12 30 7 31 10 32 15 33 13 35 8 37 9 38 11 40
REMARK H PARENT 21 20 23 22 32 24 29 26 15 34 13 36 9 39 11 41
REMARK Flexibility Score: inf
ROOT
ATOM      1  O   UNL     1      19.239  -4.551  15.240  1.00  0.00    -0.454 OA
ENDROOT
BRANCH   1   2
ATOM      2  C   UNL     1      19.537  -4.233  16.577  1.00  0.00     0.214 A 
ATOM      3  C   UNL     1      18.568  -4.495  17.563  1.00  0.00     0.180 A 
ATOM      4  O   UNL     1      18.780  -4.143  18.826  1.00  0.00    -0.452 OA
ATOM      5  C   UNL     1      20.731  -3.595  16.966  1.00  0.00     0.239 A 
ATOM      6  C   UNL     1      19.890  -3.548  19.235  1.00  0.00     0.146 A 
ATOM      7  O   UNL     1      21.598  -3.305  16.099  1.00  0.00    -0.285 OA
ATOM      8  C   UNL     1      20.926  -3.248  18.321  1.00  0.00     0.111 A 
ATOM      9  C   UNL     1      20.023  -3.214  20.587  1.00  0.00     0.094 A 
ATOM     10  C   UNL     1      22.093  -2.597  18.793  1.00  0.00     0.134 A 
ATOM     11  C   UNL     1      21.186  -2.588  21.048  1.00  0.00     0.123 A 
ATOM     12  C   UNL     1      22.220  -2.299  20.155  1.00  0.00     0.093 A 
BRANCH   3  13
ATOM     13  C   UNL     1      17.304  -5.175  17.229  1.00  0.00     0.025 A 
ATOM     14  C   UNL     1      17.316  -6.391  16.529  1.00  0.00     0.016 A 
ATOM     15  C   UNL     1      16.116  -7.032  16.213  1.00  0.00     0.051 A 
ATOM     16  C   UNL     1      14.892  -6.474  16.601  1.00  0.00     0.157 A 
ATOM     17  C   UNL     1      16.080  -4.625  17.634  1.00  0.00     0.062 A 
ATOM     18  C   UNL     1      14.875  -5.263  17.315  1.00  0.00     0.158 A 
BRANCH  16  19
ATOM     19  O   UNL     1      13.695  -7.124  16.291  1.00  0.00    -0.504 OA
ATOM     20  H   UNL     1      12.876  -6.610  15.981  1.00  0.00     0.293 HD
ENDBRANCH  16  19
BRANCH  18  21
ATOM     21  O   UNL     1      13.672  -4.683  17.722  1.00  0.00    -0.504 OA
ATOM     22  H   UNL     1      13.598  -4.134  18.571  1.00  0.00     0.293 HD
ENDBRANCH  18  21
ENDBRANCH   3  13
BRANCH  10  23
ATOM     23  O   UNL     1      23.124  -2.247  17.923  1.00  0.00    -0.507 OA
ATOM     24  H   UNL     1      23.656  -2.941  17.413  1.00  0.00     0.293 HD
ENDBRANCH  10  23
BRANCH  11  25
ATOM     25  O   UNL     1      21.315  -2.236  22.393  1.00  0.00    -0.508 OA
ATOM     26  H   UNL     1      22.218  -2.015  22.801  1.00  0.00     0.293 HD
ENDBRANCH  11  25
ENDBRANCH   1   2
BRANCH   1  27
ATOM     27  C   UNL     1      19.695  -5.708  14.521  1.00  0.00     0.339 C 
ATOM     28  C   UNL     1      21.205  -5.642  14.227  1.00  0.00     0.214 C 
ATOM     29  O   UNL     1      18.966  -5.857  13.317  1.00  0.00    -0.332 OA
ATOM     30  C   UNL     1      21.536  -4.614  13.108  1.00  0.00     0.180 C 
ATOM     31  C   UNL     1      19.071  -4.743  12.426  1.00  0.00     0.179 C 
ATOM     32  C   UNL     1      20.311  -3.807  12.635  1.00  0.00     0.177 C 
BRANCH  28  33
ATOM     33  O   UNL     1      21.632  -6.929  13.830  1.00  0.00    -0.384 OA
ATOM     34  H   UNL     1      20.927  -7.288  13.227  1.00  0.00     0.211 HD
ENDBRANCH  28  33
BRANCH  30  35
ATOM     35  O   UNL     1      22.590  -3.764  13.491  1.00  0.00    -0.387 OA
ATOM     36  H   UNL     1      22.188  -2.911  13.805  1.00  0.00     0.211 HD
ENDBRANCH  30  35
BRANCH  31  37
ATOM     37  C   UNL     1      19.038  -5.296  10.987  1.00  0.00     0.191 C 
BRANCH  37  38
ATOM     38  O   UNL     1      19.271  -6.687  10.982  1.00  0.00    -0.394 OA
ATOM     39  H   UNL     1      18.549  -7.111  10.447  1.00  0.00     0.210 HD
ENDBRANCH  37  38
ENDBRANCH  31  37
BRANCH  32  40
ATOM     40  O   UNL     1      20.012  -2.778  13.547  1.00  0.00    -0.387 OA
ATOM     41  H   UNL     1      20.849  -2.259  13.688  1.00  0.00     0.211 HD
ENDBRANCH  32  40
ENDBRANCH   1  27
TORSDOF 12
ENDMDL
MODEL 6
REMARK VINA RESULT:    -4.225      7.080      9.438
REMARK INTER + INTRA:          -7.780
REMARK INTER:                  -6.161
REMARK INTRA:                  -1.619
REMARK UNBOUND:                -1.579
REMARK SMILES O=c1c(O[C@H]2O[C@H](CO)[C@@H](O)[C@@H](O)[C@@H]2O)c(-c2ccc(O)c(O)c2)oc2cc(O)cc(O)c12
REMARK SMILES IDX 4 1 3 2 16 3 25 4 2 5 26 6 1 7 33 8 27 9 31 10 28 11 30 12
REMARK SMILES IDX 17 13 18 14 19 15 20 16 24 17 22 18 21 19 23 21 32 23 29 25
REMARK SMILES IDX 5 27 14 28 6 29 12 30 7 31 10 32 15 33 13 35 8 37 9 38 11 40
REMARK H PARENT 21 20 23 22 32 24 29 26 15 34 13 36 9 39 11 41
REMARK Flexibility Score: inf
ROOT
ATOM      1  O   UNL     1      20.772  -3.301  16.556  1.00  0.00    -0.454 OA
ENDROOT
BRANCH   1   2
ATOM      2  C   UNL     1      21.135  -2.735  17.792  1.00  0.00     0.214 A 
ATOM      3  C   UNL     1      21.331  -1.344  17.864  1.00  0.00     0.180 A 
ATOM      4  O   UNL     1      21.745  -0.780  18.992  1.00  0.00    -0.452 OA
ATOM      5  C   UNL     1      21.384  -3.506  18.944  1.00  0.00     0.239 A 
ATOM      6  C   UNL     1      21.984  -1.466  20.100  1.00  0.00     0.146 A 
ATOM      7  O   UNL     1      21.262  -4.760  18.899  1.00  0.00    -0.285 OA
ATOM      8  C   UNL     1      21.809  -2.869  20.130  1.00  0.00     0.111 A 
ATOM      9  C   UNL     1      22.418  -0.784  21.241  1.00  0.00     0.094 A 
ATOM     10  C   UNL     1      22.089  -3.571  21.329  1.00  0.00     0.134 A 
ATOM     11  C   UNL     1      22.674  -1.482  22.425  1.00  0.00     0.123 A 
ATOM     12  C   UNL     1      22.493  -2.866  22.469  1.00  0.00     0.093 A 
BRANCH   3  13
ATOM     13  C   UNL     1      21.073  -0.476  16.701  1.00  0.00     0.025 A 
ATOM     14  C   UNL     1      22.078  -0.249  15.749  1.00  0.00     0.016 A 
ATOM     15  C   UNL     1      21.830   0.576  14.649  1.00  0.00     0.051 A 
ATOM     16  C   UNL     1      20.575   1.173  14.481  1.00  0.00     0.157 A 
ATOM     17  C   UNL     1      19.810   0.106  16.524  1.00  0.00     0.062 A 
ATOM     18  C   UNL     1      19.560   0.936  15.424  1.00  0.00     0.158 A 
BRANCH  16  19
ATOM     19  O   UNL     1      20.329   1.989  13.374  1.00  0.00    -0.504 OA
ATOM     20  H   UNL     1      19.872   1.632  12.541  1.00  0.00     0.293 HD
ENDBRANCH  16  19
BRANCH  18  21
ATOM     21  O   UNL     1      18.295   1.511  15.282  1.00  0.00    -0.504 OA
ATOM     22  H   UNL     1      18.091   2.450  15.605  1.00  0.00     0.293 HD
ENDBRANCH  18  21
ENDBRANCH   3  13
BRANCH  10  23
ATOM     23  O   UNL     1      21.969  -4.958  21.396  1.00  0.00    -0.507 OA
ATOM     24  H   UNL     1      21.070  -5.422  21.355  1.00  0.00     0.293 HD
ENDBRANCH  10  23
BRANCH  11  25
ATOM     25  O   UNL     1      23.125  -0.807  23.562  1.00  0.00    -0.508 OA
ATOM     26  H   UNL     1      22.731  -0.989  24.480  1.00  0.00     0.293 HD
ENDBRANCH  11  25
ENDBRANCH   1   2
BRANCH   1  27
ATOM     27  C   UNL     1      19.435  -3.476  16.062  1.00  0.00     0.339 C 
ATOM     28  C   UNL     1      18.668  -4.552  16.854  1.00  0.00     0.214 C 
ATOM     29  O   UNL     1      19.458  -3.802  14.685  1.00  0.00    -0.332 OA
ATOM     30  C   UNL     1      19.158  -5.987  16.510  1.00  0.00     0.180 C 
ATOM     31  C   UNL     1      20.177  -5.000  14.378  1.00  0.00     0.179 C 
ATOM     32  C   UNL     1      20.372  -6.010  15.562  1.00  0.00     0.177 C 
BRANCH  28  33
ATOM     33  O   UNL     1      17.295  -4.431  16.542  1.00  0.00    -0.384 OA
ATOM     34  H   UNL     1      17.212  -4.589  15.563  1.00  0.00     0.211 HD
ENDBRANCH  28  33
BRANCH  30  35
ATOM     35  O   UNL     1      19.407  -6.734  17.676  1.00  0.00    -0.387 OA
ATOM     36  H   UNL     1      18.715  -6.485  18.345  1.00  0.00     0.211 HD
ENDBRANCH  30  35
BRANCH  31  37
ATOM     37  C   UNL     1      19.463  -5.678  13.191  1.00  0.00     0.191 C 
BRANCH  37  38
ATOM     38  O   UNL     1      19.370  -4.793  12.096  1.00  0.00    -0.394 OA
ATOM     39  H   UNL     1      18.405  -4.660  11.900  1.00  0.00     0.210 HD
ENDBRANCH  37  38
ENDBRANCH  31  37
BRANCH  32  40
ATOM     40  O   UNL     1      21.558  -5.731  16.266  1.00  0.00    -0.387 OA
ATOM     41  H   UNL     1      21.362  -4.973  16.880  1.00  0.00     0.211 HD
ENDBRANCH  32  40
ENDBRANCH   1  27
TORSDOF 12
ENDMDL
MODEL 7
REMARK VINA RESULT:    -4.214      2.709      4.664
REMARK INTER + INTRA:          -7.764
REMARK INTER:                  -6.606
REMARK INTRA:                  -1.158
REMARK UNBOUND:                -1.579
REMARK SMILES O=c1c(O[C@H]2O[C@H](CO)[C@@H](O)[C@@H](O)[C@@H]2O)c(-c2ccc(O)c(O)c2)oc2cc(O)cc(O)c12
REMARK SMILES IDX 4 1 3 2 16 3 25 4 2 5 26 6 1 7 33 8 27 9 31 10 28 11 30 12
REMARK SMILES IDX 17 13 18 14 19 15 20 16 24 17 22 18 21 19 23 21 32 23 29 25
REMARK SMILES IDX 5 27 14 28 6 29 12 30 7 31 10 32 15 33 13 35 8 37 9 38 11 40
REMARK H PARENT 21 20 23 22 32 24 29 26 15 34 13 36 9 39 11 41
REMARK Flexibility Score: inf
ROOT
ATOM      1  O   UNL     1      18.437   0.893  13.499  1.00  0.00    -0.454 OA
ENDROOT
BRANCH   1   2
ATOM      2  C   UNL     1      18.781  -0.371  12.987  1.00  0.00     0.214 A 
ATOM      3  C   UNL     1      19.960  -0.985  13.449  1.00  0.00     0.180 A 
ATOM      4  O   UNL     1      20.360  -2.144  12.938  1.00  0.00    -0.452 OA
ATOM      5  C   UNL     1      18.041  -1.017  11.979  1.00  0.00     0.239 A 
ATOM      6  C   UNL     1      19.690  -2.789  11.994  1.00  0.00     0.146 A 
ATOM      7  O   UNL     1      17.006  -0.471  11.512  1.00  0.00    -0.285 OA
ATOM      8  C   UNL     1      18.490  -2.257  11.470  1.00  0.00     0.111 A 
ATOM      9  C   UNL     1      20.190  -4.005  11.517  1.00  0.00     0.094 A 
ATOM     10  C   UNL     1      17.809  -2.968  10.451  1.00  0.00     0.134 A 
ATOM     11  C   UNL     1      19.503  -4.710  10.524  1.00  0.00     0.123 A 
ATOM     12  C   UNL     1      18.310  -4.198  10.008  1.00  0.00     0.093 A 
BRANCH   3  13
ATOM     13  C   UNL     1      20.773  -0.372  14.514  1.00  0.00     0.025 A 
ATOM     14  C   UNL     1      21.851   0.465  14.190  1.00  0.00     0.016 A 
ATOM     15  C   UNL     1      22.621   1.044  15.201  1.00  0.00     0.051 A 
ATOM     16  C   UNL     1      22.317   0.802  16.547  1.00  0.00     0.157 A 
ATOM     17  C   UNL     1      20.457  -0.600  15.861  1.00  0.00     0.062 A 
ATOM     18  C   UNL     1      21.230  -0.025  16.877  1.00  0.00     0.158 A 
BRANCH  16  19
ATOM     19  O   UNL     1      23.085   1.390  17.555  1.00  0.00    -0.504 OA
ATOM     20  H   UNL     1      22.841   2.293  17.950  1.00  0.00     0.293 HD
ENDBRANCH  16  19
BRANCH  18  21
ATOM     21  O   UNL     1      20.897  -0.281  18.209  1.00  0.00    -0.504 OA
ATOM     22  H   UNL     1      21.542  -0.732  18.848  1.00  0.00     0.293 HD
ENDBRANCH  18  21
ENDBRANCH   3  13
BRANCH  10  23
ATOM     23  O   UNL     1      16.644  -2.463   9.876  1.00  0.00    -0.507 OA
ATOM     24  H   UNL     1      16.376  -2.683   8.924  1.00  0.00     0.293 HD
ENDBRANCH  10  23
BRANCH  11  25
ATOM     25  O   UNL     1      20.008  -5.915  10.032  1.00  0.00    -0.508 OA
ATOM     26  H   UNL     1      19.738  -6.272   9.121  1.00  0.00     0.293 HD
ENDBRANCH  11  25
ENDBRANCH   1   2
BRANCH   1  27
ATOM     27  C   UNL     1      18.862   2.163  12.982  1.00  0.00     0.339 C 
ATOM     28  C   UNL     1      18.655   3.297  14.004  1.00  0.00     0.214 C 
ATOM     29  O   UNL     1      18.181   2.456  11.777  1.00  0.00    -0.332 OA
ATOM     30  C   UNL     1      17.154   3.677  14.154  1.00  0.00     0.180 C 
ATOM     31  C   UNL     1      16.757   2.514  11.907  1.00  0.00     0.179 C 
ATOM     32  C   UNL     1      16.207   2.762  13.354  1.00  0.00     0.177 C 
BRANCH  28  33
ATOM     33  O   UNL     1      19.387   4.422  13.566  1.00  0.00    -0.384 OA
ATOM     34  H   UNL     1      20.182   4.492  14.160  1.00  0.00     0.211 HD
ENDBRANCH  28  33
BRANCH  30  35
ATOM     35  O   UNL     1      16.777   3.742  15.508  1.00  0.00    -0.387 OA
ATOM     36  H   UNL     1      15.822   3.475  15.567  1.00  0.00     0.211 HD
ENDBRANCH  30  35
BRANCH  31  37
ATOM     37  C   UNL     1      16.246   3.595  10.933  1.00  0.00     0.191 C 
BRANCH  37  38
ATOM     38  O   UNL     1      17.301   4.439  10.528  1.00  0.00    -0.394 OA
ATOM     39  H   UNL     1      18.127   4.127  10.984  1.00  0.00     0.210 HD
ENDBRANCH  37  38
ENDBRANCH  31  37
BRANCH  32  40
ATOM     40  O   UNL     1      16.007   1.543  14.027  1.00  0.00    -0.387 OA
ATOM     41  H   UNL     1      15.681   1.763  14.941  1.00  0.00     0.211 HD
ENDBRANCH  32  40
ENDBRANCH   1  27
TORSDOF 12
ENDMDL
MODEL 8
REMARK VINA RESULT:    -4.175      2.840      6.851
REMARK INTER + INTRA:          -7.706
REMARK INTER:                  -6.275
REMARK INTRA:                  -1.431
REMARK UNBOUND:                -1.579
REMARK SMILES O=c1c(O[C@H]2O[C@H](CO)[C@@H](O)[C@@H](O)[C@@H]2O)c(-c2ccc(O)c(O)c2)oc2cc(O)cc(O)c12
REMARK SMILES IDX 4 1 3 2 16 3 25 4 2 5 26 6 1 7 33 8 27 9 31 10 28 11 30 12
REMARK SMILES IDX 17 13 18 14 19 15 20 16 24 17 22 18 21 19 23 21 32 23 29 25
REMARK SMILES IDX 5 27 14 28 6 29 12 30 7 31 10 32 15 33 13 35 8 37 9 38 11 40
REMARK H PARENT 21 20 23 22 32 24 29 26 15 34 13 36 9 39 11 41
REMARK Flexibility Score: inf
ROOT
ATOM      1  O   UNL     1      19.249   0.179  14.046  1.00  0.00    -0.454 OA
ENDROOT
BRANCH   1   2
ATOM      2  C   UNL     1      18.299   0.802  13.218  1.00  0.00     0.214 A 
ATOM      3  C   UNL     1      18.218   0.406  11.870  1.00  0.00     0.180 A 
ATOM      4  O   UNL     1      17.385   1.019  11.037  1.00  0.00    -0.452 OA
ATOM      5  C   UNL     1      17.475   1.856  13.656  1.00  0.00     0.239 A 
ATOM      6  C   UNL     1      16.588   2.010  11.409  1.00  0.00     0.146 A 
ATOM      7  O   UNL     1      17.557   2.265  14.845  1.00  0.00    -0.285 OA
ATOM      8  C   UNL     1      16.590   2.475  12.744  1.00  0.00     0.111 A 
ATOM      9  C   UNL     1      15.744   2.596  10.460  1.00  0.00     0.094 A 
ATOM     10  C   UNL     1      15.735   3.547  13.101  1.00  0.00     0.134 A 
ATOM     11  C   UNL     1      14.889   3.641  10.825  1.00  0.00     0.123 A 
ATOM     12  C   UNL     1      14.876   4.099  12.144  1.00  0.00     0.093 A 
BRANCH   3  13
ATOM     13  C   UNL     1      19.039  -0.701  11.349  1.00  0.00     0.025 A 
ATOM     14  C   UNL     1      20.235  -0.436  10.667  1.00  0.00     0.016 A 
ATOM     15  C   UNL     1      21.011  -1.488  10.173  1.00  0.00     0.051 A 
ATOM     16  C   UNL     1      20.607  -2.815  10.365  1.00  0.00     0.157 A 
ATOM     17  C   UNL     1      18.643  -2.030  11.558  1.00  0.00     0.062 A 
ATOM     18  C   UNL     1      19.416  -3.086  11.061  1.00  0.00     0.158 A 
BRANCH  16  19
ATOM     19  O   UNL     1      21.391  -3.863   9.877  1.00  0.00    -0.504 OA
ATOM     20  H   UNL     1      21.061  -4.823   9.887  1.00  0.00     0.293 HD
ENDBRANCH  16  19
BRANCH  18  21
ATOM     21  O   UNL     1      18.989  -4.398  11.274  1.00  0.00    -0.504 OA
ATOM     22  H   UNL     1      19.532  -5.059  11.819  1.00  0.00     0.293 HD
ENDBRANCH  18  21
ENDBRANCH   3  13
BRANCH  10  23
ATOM     23  O   UNL     1      15.731   4.065  14.395  1.00  0.00    -0.507 OA
ATOM     24  H   UNL     1      15.612   3.474  15.210  1.00  0.00     0.293 HD
ENDBRANCH  10  23
BRANCH  11  25
ATOM     25  O   UNL     1      14.059   4.240   9.876  1.00  0.00    -0.508 OA
ATOM     26  H   UNL     1      13.296   4.853  10.148  1.00  0.00     0.293 HD
ENDBRANCH  11  25
ENDBRANCH   1   2
BRANCH   1  27
ATOM     27  C   UNL     1      20.491   0.746  14.489  1.00  0.00     0.339 C 
ATOM     28  C   UNL     1      21.705  -0.002  13.908  1.00  0.00     0.214 C 
ATOM     29  O   UNL     1      20.551   0.756  15.903  1.00  0.00    -0.332 OA
ATOM     30  C   UNL     1      21.911  -1.389  14.582  1.00  0.00     0.180 C 
ATOM     31  C   UNL     1      20.447  -0.539  16.503  1.00  0.00     0.179 C 
ATOM     32  C   UNL     1      20.796  -1.757  15.579  1.00  0.00     0.177 C 
BRANCH  28  33
ATOM     33  O   UNL     1      22.852   0.797  14.108  1.00  0.00    -0.384 OA
ATOM     34  H   UNL     1      23.531   0.489  13.449  1.00  0.00     0.211 HD
ENDBRANCH  28  33
BRANCH  30  35
ATOM     35  O   UNL     1      22.091  -2.401  13.621  1.00  0.00    -0.387 OA
ATOM     36  H   UNL     1      22.789  -2.091  12.986  1.00  0.00     0.211 HD
ENDBRANCH  30  35
BRANCH  31  37
ATOM     37  C   UNL     1      21.331  -0.538  17.766  1.00  0.00     0.191 C 
BRANCH  37  38
ATOM     38  O   UNL     1      20.868  -1.491  18.698  1.00  0.00    -0.394 OA
ATOM     39  H   UNL     1      19.892  -1.604  18.552  1.00  0.00     0.210 HD
ENDBRANCH  37  38
ENDBRANCH  31  37
BRANCH  32  40
ATOM     40  O   UNL     1      19.651  -2.213  14.899  1.00  0.00    -0.387 OA
ATOM     41  H   UNL     1      19.569  -3.186  15.085  1.00  0.00     0.211 HD
ENDBRANCH  32  40
ENDBRANCH   1  27
TORSDOF 12
ENDMDL
MODEL 9
REMARK VINA RESULT:    -3.799      1.582      4.673
REMARK INTER + INTRA:          -7.155
REMARK INTER:                  -5.789
REMARK INTRA:                  -1.367
REMARK UNBOUND:                -1.579
REMARK SMILES O=c1c(O[C@H]2O[C@H](CO)[C@@H](O)[C@@H](O)[C@@H]2O)c(-c2ccc(O)c(O)c2)oc2cc(O)cc(O)c12
REMARK SMILES IDX 4 1 3 2 16 3 25 4 2 5 26 6 1 7 33 8 27 9 31 10 28 11 30 12
REMARK SMILES IDX 17 13 18 14 19 15 20 16 24 17 22 18 21 19 23 21 32 23 29 25
REMARK SMILES IDX 5 27 14 28 6 29 12 30 7 31 10 32 15 33 13 35 8 37 9 38 11 40
REMARK H PARENT 21 20 23 22 32 24 29 26 15 34 13 36 9 39 11 41
REMARK Flexibility Score: inf
ROOT
ATOM      1  O   UNL     1      18.138   1.162  11.824  1.00  0.00    -0.454 OA
ENDROOT
BRANCH   1   2
ATOM      2  C   UNL     1      18.765  -0.091  11.705  1.00  0.00     0.214 A 
ATOM      3  C   UNL     1      20.100  -0.218  12.127  1.00  0.00     0.180 A 
ATOM      4  O   UNL     1      20.752  -1.363  11.965  1.00  0.00    -0.452 OA
ATOM      5  C   UNL     1      18.141  -1.207  11.114  1.00  0.00     0.239 A 
ATOM      6  C   UNL     1      20.202  -2.439  11.421  1.00  0.00     0.146 A 
ATOM      7  O   UNL     1      16.960  -1.112  10.684  1.00  0.00    -0.285 OA
ATOM      8  C   UNL     1      18.862  -2.413  10.972  1.00  0.00     0.111 A 
ATOM      9  C   UNL     1      20.968  -3.602  11.291  1.00  0.00     0.094 A 
ATOM     10  C   UNL     1      18.312  -3.579  10.382  1.00  0.00     0.134 A 
ATOM     11  C   UNL     1      20.413  -4.753  10.725  1.00  0.00     0.123 A 
ATOM     12  C   UNL     1      19.086  -4.742  10.289  1.00  0.00     0.093 A 
BRANCH   3  13
ATOM     13  C   UNL     1      20.808   0.905  12.768  1.00  0.00     0.025 A 
ATOM     14  C   UNL     1      20.980   0.932  14.160  1.00  0.00     0.016 A 
ATOM     15  C   UNL     1      21.650   1.999  14.765  1.00  0.00     0.051 A 
ATOM     16  C   UNL     1      22.165   3.043  13.987  1.00  0.00     0.157 A 
ATOM     17  C   UNL     1      21.340   1.940  11.987  1.00  0.00     0.062 A 
ATOM     18  C   UNL     1      22.008   3.013  12.590  1.00  0.00     0.158 A 
BRANCH  16  19
ATOM     19  O   UNL     1      22.843   4.102  14.596  1.00  0.00    -0.504 OA
ATOM     20  H   UNL     1      22.562   4.462  15.502  1.00  0.00     0.293 HD
ENDBRANCH  16  19
BRANCH  18  21
ATOM     21  O   UNL     1      22.516   4.035  11.786  1.00  0.00    -0.504 OA
ATOM     22  H   UNL     1      22.293   4.105  10.799  1.00  0.00     0.293 HD
ENDBRANCH  18  21
ENDBRANCH   3  13
BRANCH  10  23
ATOM     23  O   UNL     1      17.008  -3.590   9.889  1.00  0.00    -0.507 OA
ATOM     24  H   UNL     1      16.308  -4.233  10.238  1.00  0.00     0.293 HD
ENDBRANCH  10  23
BRANCH  11  25
ATOM     25  O   UNL     1      21.179  -5.910  10.577  1.00  0.00    -0.508 OA
ATOM     26  H   UNL     1      20.785  -6.833  10.731  1.00  0.00     0.293 HD
ENDBRANCH  11  25
ENDBRANCH   1   2
BRANCH   1  27
ATOM     27  C   UNL     1      17.492   1.681  12.997  1.00  0.00     0.339 C 
ATOM     28  C   UNL     1      15.998   1.966  12.751  1.00  0.00     0.214 C 
ATOM     29  O   UNL     1      18.149   2.852  13.443  1.00  0.00    -0.332 OA
ATOM     30  C   UNL     1      15.785   3.233  11.874  1.00  0.00     0.180 C 
ATOM     31  C   UNL     1      18.178   3.911  12.481  1.00  0.00     0.179 C 
ATOM     32  C   UNL     1      17.098   3.842  11.347  1.00  0.00     0.177 C 
BRANCH  28  33
ATOM     33  O   UNL     1      15.373   2.146  14.004  1.00  0.00    -0.384 OA
ATOM     34  H   UNL     1      15.725   2.998  14.378  1.00  0.00     0.211 HD
ENDBRANCH  28  33
BRANCH  30  35
ATOM     35  O   UNL     1      14.882   2.981  10.825  1.00  0.00    -0.387 OA
ATOM     36  H   UNL     1      14.168   3.671  10.871  1.00  0.00     0.211 HD
ENDBRANCH  30  35
BRANCH  31  37
ATOM     37  C   UNL     1      18.080   5.242  13.252  1.00  0.00     0.191 C 
BRANCH  37  38
ATOM     38  O   UNL     1      17.105   5.157  14.268  1.00  0.00    -0.394 OA
ATOM     39  H   UNL     1      16.568   4.338  14.101  1.00  0.00     0.210 HD
ENDBRANCH  37  38
ENDBRANCH  31  37
BRANCH  32  40
ATOM     40  O   UNL     1      17.577   3.111  10.244  1.00  0.00    -0.387 OA
ATOM     41  H   UNL     1      16.794   2.908   9.665  1.00  0.00     0.211 HD
ENDBRANCH  32  40
ENDBRANCH   1  27
TORSDOF 12
ENDMDL
