MODEL 1
REMARK VINA RESULT:    -4.806      0.000      0.000
REMARK INTER + INTRA:          -6.021
REMARK INTER:                  -5.790
REMARK INTRA:                  -0.232
REMARK UNBOUND:                -0.232
REMARK SMILES O=c1c(O)c(-c2ccc(O)c(O)c2)oc2cc(O)cc(O)c12
REMARK SMILES IDX 5 1 3 2 2 3 1 4 22 5 20 6 19 7 17 8 16 9 15 10 14 11 6 12
REMARK SMILES IDX 7 13 8 14 9 15 13 16 11 17 10 18 12 20 4 22 21 24 18 26
REMARK H PARENT 10 19 12 21 4 23 21 25 18 27
REMARK Flexibility Score: inf
ROOT
ATOM      1  C   UNL     1      98.831 109.208 108.732  1.00  0.00     0.180 A 
ATOM      2  C   UNL     1     100.229 109.339 108.794  1.00  0.00     0.208 A 
ATOM      3  C   UNL     1     100.835 110.456 108.197  1.00  0.00     0.238 A 
ATOM      4  O   UNL     1     102.082 110.597 108.303  1.00  0.00    -0.285 OA
ATOM      5  C   UNL     1     100.038 111.420 107.533  1.00  0.00     0.111 A 
ATOM      6  C   UNL     1     100.550 112.570 106.859  1.00  0.00     0.134 A 
ATOM      7  C   UNL     1      99.661 113.523 106.349  1.00  0.00     0.093 A 
ATOM      8  C   UNL     1      98.278 113.336 106.430  1.00  0.00     0.123 A 
ATOM      9  C   UNL     1      97.770 112.188 107.033  1.00  0.00     0.094 A 
ATOM     10  C   UNL     1      98.632 111.236 107.584  1.00  0.00     0.146 A 
ATOM     11  O   UNL     1      98.105 110.161 108.159  1.00  0.00    -0.452 OA
ENDROOT
BRANCH   1  12
ATOM     12  C   UNL     1      98.122 108.047 109.316  1.00  0.00     0.025 A 
ATOM     13  C   UNL     1      97.260 108.240 110.407  1.00  0.00     0.016 A 
ATOM     14  C   UNL     1      96.565 107.161 110.960  1.00  0.00     0.051 A 
ATOM     15  C   UNL     1      96.708 105.878 110.423  1.00  0.00     0.157 A 
ATOM     16  C   UNL     1      98.249 106.759 108.764  1.00  0.00     0.062 A 
ATOM     17  C   UNL     1      97.550 105.675 109.317  1.00  0.00     0.158 A 
BRANCH  15  18
ATOM     18  O   UNL     1      96.004 104.820 110.998  1.00  0.00    -0.504 OA
ATOM     19  H   UNL     1      95.039 104.913 111.290  1.00  0.00     0.293 HD
ENDBRANCH  15  18
BRANCH  17  20
ATOM     20  O   UNL     1      97.686 104.401 108.767  1.00  0.00    -0.504 OA
ATOM     21  H   UNL     1      96.990 103.680 108.918  1.00  0.00     0.293 HD
ENDBRANCH  17  20
ENDBRANCH   1  12
BRANCH   2  22
ATOM     22  O   UNL     1     100.995 108.389 109.474  1.00  0.00    -0.502 OA
ATOM     23  H   UNL     1     101.339 107.547 109.028  1.00  0.00     0.293 HD
ENDBRANCH   2  22
BRANCH   6  24
ATOM     24  O   UNL     1     101.911 112.806 106.642  1.00  0.00    -0.507 OA
ATOM     25  H   UNL     1     102.649 112.151 106.854  1.00  0.00     0.293 HD
ENDBRANCH   6  24
BRANCH   8  26
ATOM     26  O   UNL     1      97.401 114.282 105.906  1.00  0.00    -0.508 OA
ATOM     27  H   UNL     1      97.507 114.638 104.963  1.00  0.00     0.293 HD
ENDBRANCH   8  26
TORSDOF 6
ENDMDL
MODEL 2
REMARK VINA RESULT:    -4.747      1.378      2.928
REMARK INTER + INTRA:          -5.950
REMARK INTER:                  -5.627
REMARK INTRA:                  -0.323
REMARK UNBOUND:                -0.232
REMARK SMILES O=c1c(O)c(-c2ccc(O)c(O)c2)oc2cc(O)cc(O)c12
REMARK SMILES IDX 5 1 3 2 2 3 1 4 22 5 20 6 19 7 17 8 16 9 15 10 14 11 6 12
REMARK SMILES IDX 7 13 8 14 9 15 13 16 11 17 10 18 12 20 4 22 21 24 18 26
REMARK H PARENT 10 19 12 21 4 23 21 25 18 27
REMARK Flexibility Score: inf
ROOT
ATOM      1  C   UNL     1      98.017 109.498 108.585  1.00  0.00     0.180 A 
ATOM      2  C   UNL     1      96.791 110.123 108.302  1.00  0.00     0.208 A 
ATOM      3  C   UNL     1      96.792 111.338 107.598  1.00  0.00     0.238 A 
ATOM      4  O   UNL     1      95.689 111.866 107.300  1.00  0.00    -0.285 OA
ATOM      5  C   UNL     1      98.020 111.919 107.199  1.00  0.00     0.111 A 
ATOM      6  C   UNL     1      98.141 113.167 106.516  1.00  0.00     0.134 A 
ATOM      7  C   UNL     1      99.397 113.582 106.055  1.00  0.00     0.093 A 
ATOM      8  C   UNL     1     100.544 112.827 106.311  1.00  0.00     0.123 A 
ATOM      9  C   UNL     1     100.443 111.638 107.029  1.00  0.00     0.094 A 
ATOM     10  C   UNL     1      99.200 111.179 107.470  1.00  0.00     0.146 A 
ATOM     11  O   UNL     1      99.148 110.035 108.141  1.00  0.00    -0.452 OA
ENDROOT
BRANCH   1  12
ATOM     12  C   UNL     1      98.097 108.229 109.345  1.00  0.00     0.025 A 
ATOM     13  C   UNL     1      98.190 108.267 110.745  1.00  0.00     0.016 A 
ATOM     14  C   UNL     1      98.246 107.083 111.484  1.00  0.00     0.051 A 
ATOM     15  C   UNL     1      98.195 105.844 110.837  1.00  0.00     0.157 A 
ATOM     16  C   UNL     1      98.025 106.982 108.698  1.00  0.00     0.062 A 
ATOM     17  C   UNL     1      98.079 105.792 109.438  1.00  0.00     0.158 A 
BRANCH  15  18
ATOM     18  O   UNL     1      98.255 104.678 111.601  1.00  0.00    -0.504 OA
ATOM     19  H   UNL     1      97.857 103.804 111.279  1.00  0.00     0.293 HD
ENDBRANCH  15  18
BRANCH  17  20
ATOM     20  O   UNL     1      98.013 104.560 108.788  1.00  0.00    -0.504 OA
ATOM     21  H   UNL     1      97.185 104.270 108.283  1.00  0.00     0.293 HD
ENDBRANCH  17  20
ENDBRANCH   1  12
BRANCH   2  22
ATOM     22  O   UNL     1      95.589 109.521 108.685  1.00  0.00    -0.502 OA
ATOM     23  H   UNL     1      94.753 109.562 108.115  1.00  0.00     0.293 HD
ENDBRANCH   2  22
BRANCH   6  24
ATOM     24  O   UNL     1      97.073 114.041 106.291  1.00  0.00    -0.507 OA
ATOM     25  H   UNL     1      96.761 114.747 106.941  1.00  0.00     0.293 HD
ENDBRANCH   6  24
BRANCH   8  26
ATOM     26  O   UNL     1     101.792 113.256 105.863  1.00  0.00    -0.508 OA
ATOM     27  H   UNL     1     102.639 113.050 106.380  1.00  0.00     0.293 HD
ENDBRANCH   8  26
TORSDOF 6
ENDMDL
MODEL 3
REMARK VINA RESULT:    -4.727      1.496      6.567
REMARK INTER + INTRA:          -5.926
REMARK INTER:                  -5.667
REMARK INTRA:                  -0.259
REMARK UNBOUND:                -0.232
REMARK SMILES O=c1c(O)c(-c2ccc(O)c(O)c2)oc2cc(O)cc(O)c12
REMARK SMILES IDX 5 1 3 2 2 3 1 4 22 5 20 6 19 7 17 8 16 9 15 10 14 11 6 12
REMARK SMILES IDX 7 13 8 14 9 15 13 16 11 17 10 18 12 20 4 22 21 24 18 26
REMARK H PARENT 10 19 12 21 4 23 21 25 18 27
REMARK Flexibility Score: inf
ROOT
ATOM      1  C   UNL     1      99.003 110.185 108.584  1.00  0.00     0.180 A 
ATOM      2  C   UNL     1     100.130 110.183 109.422  1.00  0.00     0.208 A 
ATOM      3  C   UNL     1     100.482 108.997 110.088  1.00  0.00     0.238 A 
ATOM      4  O   UNL     1     101.524 108.986 110.795  1.00  0.00    -0.285 OA
ATOM      5  C   UNL     1      99.693 107.834 109.919  1.00  0.00     0.111 A 
ATOM      6  C   UNL     1      99.933 106.589 110.575  1.00  0.00     0.134 A 
ATOM      7  C   UNL     1      99.166 105.469 110.233  1.00  0.00     0.093 A 
ATOM      8  C   UNL     1      98.124 105.564 109.306  1.00  0.00     0.123 A 
ATOM      9  C   UNL     1      97.844 106.790 108.705  1.00  0.00     0.094 A 
ATOM     10  C   UNL     1      98.615 107.916 108.999  1.00  0.00     0.146 A 
ATOM     11  O   UNL     1      98.321 109.062 108.395  1.00  0.00    -0.452 OA
ENDROOT
BRANCH   1  12
ATOM     12  C   UNL     1      98.555 111.402 107.870  1.00  0.00     0.025 A 
ATOM     13  C   UNL     1      97.456 112.126 108.359  1.00  0.00     0.016 A 
ATOM     14  C   UNL     1      97.029 113.289 107.713  1.00  0.00     0.051 A 
ATOM     15  C   UNL     1      97.702 113.755 106.580  1.00  0.00     0.157 A 
ATOM     16  C   UNL     1      99.243 111.885 106.742  1.00  0.00     0.062 A 
ATOM     17  C   UNL     1      98.818 113.054 106.094  1.00  0.00     0.158 A 
BRANCH  15  18
ATOM     18  O   UNL     1      97.252 114.918 105.954  1.00  0.00    -0.504 OA
ATOM     19  H   UNL     1      96.272 115.073 105.748  1.00  0.00     0.293 HD
ENDBRANCH  15  18
BRANCH  17  20
ATOM     20  O   UNL     1      99.502 113.521 104.972  1.00  0.00    -0.504 OA
ATOM     21  H   UNL     1      99.051 113.597 104.068  1.00  0.00     0.293 HD
ENDBRANCH  17  20
ENDBRANCH   1  12
BRANCH   2  22
ATOM     22  O   UNL     1     100.908 111.336 109.558  1.00  0.00    -0.502 OA
ATOM     23  H   UNL     1     101.441 111.538 110.395  1.00  0.00     0.293 HD
ENDBRANCH   2  22
BRANCH   6  24
ATOM     24  O   UNL     1     100.886 106.409 111.582  1.00  0.00    -0.507 OA
ATOM     25  H   UNL     1     101.880 106.328 111.424  1.00  0.00     0.293 HD
ENDBRANCH   6  24
BRANCH   8  26
ATOM     26  O   UNL     1      97.355 104.449 108.984  1.00  0.00    -0.508 OA
ATOM     27  H   UNL     1      96.612 104.499 108.296  1.00  0.00     0.293 HD
ENDBRANCH   8  26
TORSDOF 6
ENDMDL
MODEL 4
REMARK VINA RESULT:    -4.589     13.093     16.147
REMARK INTER + INTRA:          -5.759
REMARK INTER:                  -5.439
REMARK INTRA:                  -0.321
REMARK UNBOUND:                -0.232
REMARK SMILES O=c1c(O)c(-c2ccc(O)c(O)c2)oc2cc(O)cc(O)c12
REMARK SMILES IDX 5 1 3 2 2 3 1 4 22 5 20 6 19 7 17 8 16 9 15 10 14 11 6 12
REMARK SMILES IDX 7 13 8 14 9 15 13 16 11 17 10 18 12 20 4 22 21 24 18 26
REMARK H PARENT 10 19 12 21 4 23 21 25 18 27
REMARK Flexibility Score: inf
ROOT
ATOM      1  C   UNL     1     107.775  97.079 109.754  1.00  0.00     0.180 A 
ATOM      2  C   UNL     1     107.006  95.937 109.473  1.00  0.00     0.208 A 
ATOM      3  C   UNL     1     105.665  95.898 109.892  1.00  0.00     0.238 A 
ATOM      4  O   UNL     1     104.966  94.896 109.590  1.00  0.00    -0.285 OA
ATOM      5  C   UNL     1     105.117  96.995 110.600  1.00  0.00     0.111 A 
ATOM      6  C   UNL     1     103.783  97.046 111.106  1.00  0.00     0.134 A 
ATOM      7  C   UNL     1     103.307  98.233 111.677  1.00  0.00     0.093 A 
ATOM      8  C   UNL     1     104.136  99.349 111.818  1.00  0.00     0.123 A 
ATOM      9  C   UNL     1     105.458  99.287 111.381  1.00  0.00     0.094 A 
ATOM     10  C   UNL     1     105.951  98.130 110.774  1.00  0.00     0.146 A 
ATOM     11  O   UNL     1     107.213  98.118 110.362  1.00  0.00    -0.452 OA
ENDROOT
BRANCH   1  12
ATOM     12  C   UNL     1     109.200  97.183 109.367  1.00  0.00     0.025 A 
ATOM     13  C   UNL     1     110.187  96.664 110.220  1.00  0.00     0.016 A 
ATOM     14  C   UNL     1     111.537  96.733 109.866  1.00  0.00     0.051 A 
ATOM     15  C   UNL     1     111.920  97.306 108.649  1.00  0.00     0.157 A 
ATOM     16  C   UNL     1     109.586  97.741 108.135  1.00  0.00     0.062 A 
ATOM     17  C   UNL     1     110.940  97.808 107.776  1.00  0.00     0.158 A 
BRANCH  15  18
ATOM     18  O   UNL     1     113.275  97.363 108.323  1.00  0.00    -0.504 OA
ATOM     19  H   UNL     1     113.891  98.069 108.707  1.00  0.00     0.293 HD
ENDBRANCH  15  18
BRANCH  17  20
ATOM     20  O   UNL     1     111.314  98.369 106.555  1.00  0.00    -0.504 OA
ATOM     21  H   UNL     1     111.731  97.810 105.820  1.00  0.00     0.293 HD
ENDBRANCH  17  20
ENDBRANCH   1  12
BRANCH   2  22
ATOM     22  O   UNL     1     107.560  94.875 108.754  1.00  0.00    -0.502 OA
ATOM     23  H   UNL     1     107.288  93.912 108.909  1.00  0.00     0.293 HD
ENDBRANCH   2  22
BRANCH   6  24
ATOM     24  O   UNL     1     102.902  95.960 111.099  1.00  0.00    -0.507 OA
ATOM     25  H   UNL     1     102.123  95.857 110.466  1.00  0.00     0.293 HD
ENDBRANCH   6  24
BRANCH   8  26
ATOM     26  O   UNL     1     103.660 100.520 112.401  1.00  0.00    -0.508 OA
ATOM     27  H   UNL     1     102.688 100.796 112.319  1.00  0.00     0.293 HD
ENDBRANCH   8  26
TORSDOF 6
ENDMDL
MODEL 5
REMARK VINA RESULT:    -4.589     12.628     14.255
REMARK INTER + INTRA:          -5.759
REMARK INTER:                  -5.635
REMARK INTRA:                  -0.124
REMARK UNBOUND:                -0.232
REMARK SMILES O=c1c(O)c(-c2ccc(O)c(O)c2)oc2cc(O)cc(O)c12
REMARK SMILES IDX 5 1 3 2 2 3 1 4 22 5 20 6 19 7 17 8 16 9 15 10 14 11 6 12
REMARK SMILES IDX 7 13 8 14 9 15 13 16 11 17 10 18 12 20 4 22 21 24 18 26
REMARK H PARENT 10 19 12 21 4 23 21 25 18 27
REMARK Flexibility Score: inf
ROOT
ATOM      1  C   UNL     1     108.446 101.854 102.934  1.00  0.00     0.180 A 
ATOM      2  C   UNL     1     108.166 103.227 102.832  1.00  0.00     0.208 A 
ATOM      3  C   UNL     1     109.209 104.150 103.012  1.00  0.00     0.238 A 
ATOM      4  O   UNL     1     108.964 105.377 102.867  1.00  0.00    -0.285 OA
ATOM      5  C   UNL     1     110.515 103.689 103.306  1.00  0.00     0.111 A 
ATOM      6  C   UNL     1     111.639 104.535 103.547  1.00  0.00     0.134 A 
ATOM      7  C   UNL     1     112.910 103.969 103.698  1.00  0.00     0.093 A 
ATOM      8  C   UNL     1     113.088 102.583 103.684  1.00  0.00     0.123 A 
ATOM      9  C   UNL     1     111.988 101.746 103.510  1.00  0.00     0.094 A 
ATOM     10  C   UNL     1     110.712 102.283 103.319  1.00  0.00     0.146 A 
ATOM     11  O   UNL     1     109.693 101.450 103.145  1.00  0.00    -0.452 OA
ENDROOT
BRANCH   1  12
ATOM     12  C   UNL     1     107.394 100.823 102.782  1.00  0.00     0.025 A 
ATOM     13  C   UNL     1     107.550  99.813 101.819  1.00  0.00     0.016 A 
ATOM     14  C   UNL     1     106.581  98.818 101.673  1.00  0.00     0.051 A 
ATOM     15  C   UNL     1     105.449  98.807 102.494  1.00  0.00     0.157 A 
ATOM     16  C   UNL     1     106.265 100.798 103.621  1.00  0.00     0.062 A 
ATOM     17  C   UNL     1     105.292  99.799 103.477  1.00  0.00     0.158 A 
BRANCH  15  18
ATOM     18  O   UNL     1     104.497  97.803 102.323  1.00  0.00    -0.504 OA
ATOM     19  H   UNL     1     104.720  96.921 101.879  1.00  0.00     0.293 HD
ENDBRANCH  15  18
BRANCH  17  20
ATOM     20  O   UNL     1     104.173  99.786 104.309  1.00  0.00    -0.504 OA
ATOM     21  H   UNL     1     103.869  98.940 104.776  1.00  0.00     0.293 HD
ENDBRANCH  17  20
ENDBRANCH   1  12
BRANCH   2  22
ATOM     22  O   UNL     1     106.875 103.661 102.520  1.00  0.00    -0.502 OA
ATOM     23  H   UNL     1     106.595 104.632 102.590  1.00  0.00     0.293 HD
ENDBRANCH   2  22
BRANCH   6  24
ATOM     24  O   UNL     1     111.556 105.925 103.672  1.00  0.00    -0.507 OA
ATOM     25  H   UNL     1     110.991 106.523 103.087  1.00  0.00     0.293 HD
ENDBRANCH   6  24
BRANCH   8  26
ATOM     26  O   UNL     1     114.354 102.026 103.852  1.00  0.00    -0.508 OA
ATOM     27  H   UNL     1     115.089 102.520 104.346  1.00  0.00     0.293 HD
ENDBRANCH   8  26
TORSDOF 6
ENDMDL
MODEL 6
REMARK VINA RESULT:    -4.546      6.776      8.995
REMARK INTER + INTRA:          -5.708
REMARK INTER:                  -5.427
REMARK INTRA:                  -0.281
REMARK UNBOUND:                -0.232
REMARK SMILES O=c1c(O)c(-c2ccc(O)c(O)c2)oc2cc(O)cc(O)c12
REMARK SMILES IDX 5 1 3 2 2 3 1 4 22 5 20 6 19 7 17 8 16 9 15 10 14 11 6 12
REMARK SMILES IDX 7 13 8 14 9 15 13 16 11 17 10 18 12 20 4 22 21 24 18 26
REMARK H PARENT 10 19 12 21 4 23 21 25 18 27
REMARK Flexibility Score: inf
ROOT
ATOM      1  C   UNL     1     106.092 108.879 110.059  1.00  0.00     0.180 A 
ATOM      2  C   UNL     1     106.604 107.688 110.600  1.00  0.00     0.208 A 
ATOM      3  C   UNL     1     107.994 107.482 110.598  1.00  0.00     0.238 A 
ATOM      4  O   UNL     1     108.451 106.438 111.133  1.00  0.00    -0.285 OA
ATOM      5  C   UNL     1     108.850 108.462 110.042  1.00  0.00     0.111 A 
ATOM      6  C   UNL     1     110.270 108.341 109.951  1.00  0.00     0.134 A 
ATOM      7  C   UNL     1     111.029 109.428 109.501  1.00  0.00     0.093 A 
ATOM      8  C   UNL     1     110.415 110.609 109.076  1.00  0.00     0.123 A 
ATOM      9  C   UNL     1     109.025 110.715 109.105  1.00  0.00     0.094 A 
ATOM     10  C   UNL     1     108.244 109.661 109.583  1.00  0.00     0.146 A 
ATOM     11  O   UNL     1     106.925 109.808 109.604  1.00  0.00    -0.452 OA
ENDROOT
BRANCH   1  12
ATOM     12  C   UNL     1     104.638 109.156 110.002  1.00  0.00     0.025 A 
ATOM     13  C   UNL     1     103.976 109.611 111.153  1.00  0.00     0.016 A 
ATOM     14  C   UNL     1     102.609 109.899 111.117  1.00  0.00     0.051 A 
ATOM     15  C   UNL     1     101.887 109.752 109.929  1.00  0.00     0.157 A 
ATOM     16  C   UNL     1     103.914 109.029 108.803  1.00  0.00     0.062 A 
ATOM     17  C   UNL     1     102.543 109.320 108.764  1.00  0.00     0.158 A 
BRANCH  15  18
ATOM     18  O   UNL     1     100.523 110.044 109.924  1.00  0.00    -0.504 OA
ATOM     19  H   UNL     1      99.889 109.639 109.246  1.00  0.00     0.293 HD
ENDBRANCH  15  18
BRANCH  17  20
ATOM     20  O   UNL     1     101.832 109.185 107.572  1.00  0.00    -0.504 OA
ATOM     21  H   UNL     1     102.292 109.235 106.671  1.00  0.00     0.293 HD
ENDBRANCH  17  20
ENDBRANCH   1  12
BRANCH   2  22
ATOM     22  O   UNL     1     105.743 106.743 111.164  1.00  0.00    -0.502 OA
ATOM     23  H   UNL     1     106.034 105.796 111.370  1.00  0.00     0.293 HD
ENDBRANCH   2  22
BRANCH   6  24
ATOM     24  O   UNL     1     110.975 107.174 110.262  1.00  0.00    -0.507 OA
ATOM     25  H   UNL     1     111.380 106.548 109.582  1.00  0.00     0.293 HD
ENDBRANCH   6  24
BRANCH   8  26
ATOM     26  O   UNL     1     111.175 111.680 108.614  1.00  0.00    -0.508 OA
ATOM     27  H   UNL     1     110.742 112.541 108.298  1.00  0.00     0.293 HD
ENDBRANCH   8  26
TORSDOF 6
ENDMDL
MODEL 7
REMARK VINA RESULT:    -4.539     13.520     15.912
REMARK INTER + INTRA:          -5.700
REMARK INTER:                  -5.592
REMARK INTRA:                  -0.108
REMARK UNBOUND:                -0.232
REMARK SMILES O=c1c(O)c(-c2ccc(O)c(O)c2)oc2cc(O)cc(O)c12
REMARK SMILES IDX 5 1 3 2 2 3 1 4 22 5 20 6 19 7 17 8 16 9 15 10 14 11 6 12
REMARK SMILES IDX 7 13 8 14 9 15 13 16 11 17 10 18 12 20 4 22 21 24 18 26
REMARK H PARENT 10 19 12 21 4 23 21 25 18 27
REMARK Flexibility Score: inf
ROOT
ATOM      1  C   UNL     1     109.827 101.295 102.660  1.00  0.00     0.180 A 
ATOM      2  C   UNL     1     109.944 100.482 101.521  1.00  0.00     0.208 A 
ATOM      3  C   UNL     1     108.860  99.670 101.149  1.00  0.00     0.238 A 
ATOM      4  O   UNL     1     108.951  98.984 100.097  1.00  0.00    -0.285 OA
ATOM      5  C   UNL     1     107.679  99.672 101.929  1.00  0.00     0.111 A 
ATOM      6  C   UNL     1     106.534  98.860 101.668  1.00  0.00     0.134 A 
ATOM      7  C   UNL     1     105.373  99.039 102.430  1.00  0.00     0.093 A 
ATOM      8  C   UNL     1     105.336  99.954 103.485  1.00  0.00     0.123 A 
ATOM      9  C   UNL     1     106.469 100.708 103.785  1.00  0.00     0.094 A 
ATOM     10  C   UNL     1     107.630 100.578 103.021  1.00  0.00     0.146 A 
ATOM     11  O   UNL     1     108.683 101.324 103.334  1.00  0.00    -0.452 OA
ENDROOT
BRANCH   1  12
ATOM     12  C   UNL     1     110.935 102.158 103.129  1.00  0.00     0.025 A 
ATOM     13  C   UNL     1     112.166 101.576 103.472  1.00  0.00     0.016 A 
ATOM     14  C   UNL     1     113.233 102.373 103.897  1.00  0.00     0.051 A 
ATOM     15  C   UNL     1     113.091 103.762 103.971  1.00  0.00     0.157 A 
ATOM     16  C   UNL     1     110.802 103.557 103.185  1.00  0.00     0.062 A 
ATOM     17  C   UNL     1     111.872 104.359 103.609  1.00  0.00     0.158 A 
BRANCH  15  18
ATOM     18  O   UNL     1     114.172 104.532 104.401  1.00  0.00    -0.504 OA
ATOM     19  H   UNL     1     114.047 105.389 104.925  1.00  0.00     0.293 HD
ENDBRANCH  15  18
BRANCH  17  20
ATOM     20  O   UNL     1     111.728 105.745 103.667  1.00  0.00    -0.504 OA
ATOM     21  H   UNL     1     111.444 106.283 102.858  1.00  0.00     0.293 HD
ENDBRANCH  17  20
ENDBRANCH   1  12
BRANCH   2  22
ATOM     22  O   UNL     1     111.111 100.512 100.752  1.00  0.00    -0.502 OA
ATOM     23  H   UNL     1     111.295 101.237 100.070  1.00  0.00     0.293 HD
ENDBRANCH   2  22
BRANCH   6  24
ATOM     24  O   UNL     1     106.496  97.853 100.699  1.00  0.00    -0.507 OA
ATOM     25  H   UNL     1     107.023  97.863  99.838  1.00  0.00     0.293 HD
ENDBRANCH   6  24
BRANCH   8  26
ATOM     26  O   UNL     1     104.182 100.114 104.248  1.00  0.00    -0.508 OA
ATOM     27  H   UNL     1     104.219 100.473 105.196  1.00  0.00     0.293 HD
ENDBRANCH   8  26
TORSDOF 6
ENDMDL
MODEL 8
REMARK VINA RESULT:    -4.521     10.555     12.998
REMARK INTER + INTRA:          -5.677
REMARK INTER:                  -5.392
REMARK INTRA:                  -0.286
REMARK UNBOUND:                -0.232
REMARK SMILES O=c1c(O)c(-c2ccc(O)c(O)c2)oc2cc(O)cc(O)c12
REMARK SMILES IDX 5 1 3 2 2 3 1 4 22 5 20 6 19 7 17 8 16 9 15 10 14 11 6 12
REMARK SMILES IDX 7 13 8 14 9 15 13 16 11 17 10 18 12 20 4 22 21 24 18 26
REMARK H PARENT 10 19 12 21 4 23 21 25 18 27
REMARK Flexibility Score: inf
ROOT
ATOM      1  C   UNL     1     101.376 100.045 102.537  1.00  0.00     0.180 A 
ATOM      2  C   UNL     1     101.477  98.657 102.345  1.00  0.00     0.208 A 
ATOM      3  C   UNL     1     100.356  97.850 102.600  1.00  0.00     0.238 A 
ATOM      4  O   UNL     1     100.436  96.614 102.375  1.00  0.00    -0.285 OA
ATOM      5  C   UNL     1      99.154  98.441 103.058  1.00  0.00     0.111 A 
ATOM      6  C   UNL     1      97.968  97.715 103.386  1.00  0.00     0.134 A 
ATOM      7  C   UNL     1      96.797  98.414 103.704  1.00  0.00     0.093 A 
ATOM      8  C   UNL     1      96.786  99.810 103.771  1.00  0.00     0.123 A 
ATOM      9  C   UNL     1      97.954 100.524 103.511  1.00  0.00     0.094 A 
ATOM     10  C   UNL     1      99.128  99.857 103.155  1.00  0.00     0.146 A 
ATOM     11  O   UNL     1     100.215 100.576 102.904  1.00  0.00    -0.452 OA
ENDROOT
BRANCH   1  12
ATOM     12  C   UNL     1     102.521 100.957 102.313  1.00  0.00     0.025 A 
ATOM     13  C   UNL     1     102.533 101.786 101.180  1.00  0.00     0.016 A 
ATOM     14  C   UNL     1     103.593 102.669 100.960  1.00  0.00     0.051 A 
ATOM     15  C   UNL     1     104.649 102.748 101.874  1.00  0.00     0.157 A 
ATOM     16  C   UNL     1     103.573 101.053 103.241  1.00  0.00     0.062 A 
ATOM     17  C   UNL     1     104.637 101.940 103.023  1.00  0.00     0.158 A 
BRANCH  15  18
ATOM     18  O   UNL     1     105.695 103.637 101.627  1.00  0.00    -0.504 OA
ATOM     19  H   UNL     1     106.602 103.534 102.063  1.00  0.00     0.293 HD
ENDBRANCH  15  18
BRANCH  17  20
ATOM     20  O   UNL     1     105.679 102.024 103.946  1.00  0.00    -0.504 OA
ATOM     21  H   UNL     1     105.950 101.230 104.514  1.00  0.00     0.293 HD
ENDBRANCH  17  20
ENDBRANCH   1  12
BRANCH   2  22
ATOM     22  O   UNL     1     102.667  98.097 101.871  1.00  0.00    -0.502 OA
ATOM     23  H   UNL     1     103.178  97.390 102.384  1.00  0.00     0.293 HD
ENDBRANCH   2  22
BRANCH   6  24
ATOM     24  O   UNL     1      97.897  96.320 103.440  1.00  0.00    -0.507 OA
ATOM     25  H   UNL     1      98.228  95.699 102.717  1.00  0.00     0.293 HD
ENDBRANCH   6  24
BRANCH   8  26
ATOM     26  O   UNL     1      95.621 100.496 104.104  1.00  0.00    -0.508 OA
ATOM     27  H   UNL     1      95.344 101.339 103.614  1.00  0.00     0.293 HD
ENDBRANCH   8  26
TORSDOF 6
ENDMDL
MODEL 9
REMARK VINA RESULT:    -4.482     13.407     15.056
REMARK INTER + INTRA:          -5.630
REMARK INTER:                  -5.468
REMARK INTRA:                  -0.163
REMARK UNBOUND:                -0.232
REMARK SMILES O=c1c(O)c(-c2ccc(O)c(O)c2)oc2cc(O)cc(O)c12
REMARK SMILES IDX 5 1 3 2 2 3 1 4 22 5 20 6 19 7 17 8 16 9 15 10 14 11 6 12
REMARK SMILES IDX 7 13 8 14 9 15 13 16 11 17 10 18 12 20 4 22 21 24 18 26
REMARK H PARENT 10 19 12 21 4 23 21 25 18 27
REMARK Flexibility Score: inf
ROOT
ATOM      1  C   UNL     1     108.458 101.521 102.796  1.00  0.00     0.180 A 
ATOM      2  C   UNL     1     109.297 102.570 103.208  1.00  0.00     0.208 A 
ATOM      3  C   UNL     1     110.687 102.365 103.224  1.00  0.00     0.238 A 
ATOM      4  O   UNL     1     111.437 103.325 103.541  1.00  0.00    -0.285 OA
ATOM      5  C   UNL     1     111.217 101.109 102.842  1.00  0.00     0.111 A 
ATOM      6  C   UNL     1     112.606 100.777 102.858  1.00  0.00     0.134 A 
ATOM      7  C   UNL     1     113.028  99.549 102.335  1.00  0.00     0.093 A 
ATOM      8  C   UNL     1     112.106  98.613 101.858  1.00  0.00     0.123 A 
ATOM      9  C   UNL     1     110.744  98.904 101.894  1.00  0.00     0.094 A 
ATOM     10  C   UNL     1     110.295 100.136 102.375  1.00  0.00     0.146 A 
ATOM     11  O   UNL     1     108.989 100.377 102.382  1.00  0.00    -0.452 OA
ENDROOT
BRANCH   1  12
ATOM     12  C   UNL     1     106.983 101.654 102.778  1.00  0.00     0.025 A 
ATOM     13  C   UNL     1     106.380 102.536 101.867  1.00  0.00     0.016 A 
ATOM     14  C   UNL     1     104.990 102.662 101.818  1.00  0.00     0.051 A 
ATOM     15  C   UNL     1     104.181 101.898 102.665  1.00  0.00     0.157 A 
ATOM     16  C   UNL     1     106.167 100.871 103.614  1.00  0.00     0.062 A 
ATOM     17  C   UNL     1     104.770 100.994 103.564  1.00  0.00     0.158 A 
BRANCH  15  18
ATOM     18  O   UNL     1     102.795 102.046 102.595  1.00  0.00    -0.504 OA
ATOM     19  H   UNL     1     102.198 101.903 103.400  1.00  0.00     0.293 HD
ENDBRANCH  15  18
BRANCH  17  20
ATOM     20  O   UNL     1     103.969 100.219 104.402  1.00  0.00    -0.504 OA
ATOM     21  H   UNL     1     103.011  99.993 104.160  1.00  0.00     0.293 HD
ENDBRANCH  17  20
ENDBRANCH   1  12
BRANCH   2  22
ATOM     22  O   UNL     1     108.754 103.809 103.560  1.00  0.00    -0.502 OA
ATOM     23  H   UNL     1     108.874 104.637 102.990  1.00  0.00     0.293 HD
ENDBRANCH   2  22
BRANCH   6  24
ATOM     24  O   UNL     1     113.599 101.601 103.396  1.00  0.00    -0.507 OA
ATOM     25  H   UNL     1     113.682 101.837 104.374  1.00  0.00     0.293 HD
ENDBRANCH   6  24
BRANCH   8  26
ATOM     26  O   UNL     1     112.533  97.387 101.355  1.00  0.00    -0.508 OA
ATOM     27  H   UNL     1     112.566  96.557 101.937  1.00  0.00     0.293 HD
ENDBRANCH   8  26
TORSDOF 6
ENDMDL
