MODEL 1
REMARK VINA RESULT:    -4.383      0.000      0.000
REMARK INTER + INTRA:          -9.211
REMARK INTER:                  -7.458
REMARK INTRA:                  -1.754
REMARK UNBOUND:                -1.754
REMARK SMILES CCCCCCCCCCCCCC(=O)[O-]
REMARK SMILES IDX 8 1 9 2 10 3 11 4 12 5 13 6 14 7 15 8 16 9 7 10 6 11 5 12
REMARK SMILES IDX 4 13 3 14 2 15 1 16
REMARK H PARENT
REMARK Flexibility Score: inf
ROOT
ATOM      1  C   UNL     1     -23.555  18.210 -24.248  1.00  0.00     0.000 C 
ENDROOT
BRANCH   1   2
ATOM      2  C   UNL     1     -22.479  17.368 -24.953  1.00  0.00     0.000 C 
BRANCH   2   3
ATOM      3  C   UNL     1     -21.078  17.999 -24.853  1.00  0.00     0.000 C 
BRANCH   3   4
ATOM      4  C   UNL     1     -20.149  17.226 -23.903  1.00  0.00     0.000 C 
BRANCH   4   5
ATOM      5  C   UNL     1     -20.827  15.996 -23.280  1.00  0.00     0.006 C 
BRANCH   5   6
ATOM      6  C   UNL     1     -20.854  16.102 -21.752  1.00  0.00     0.053 C 
BRANCH   6   7
ATOM      7  C   UNL     1     -21.533  14.909 -21.155  1.00  0.00     0.041 C 
ATOM      8  O   UNL     1     -20.853  13.986 -20.636  1.00  0.00    -0.550 OA
ATOM      9  O   UNL     1     -22.915  14.793 -21.219  1.00  0.00    -0.550 OA
ENDBRANCH   6   7
ENDBRANCH   5   6
ENDBRANCH   4   5
ENDBRANCH   3   4
ENDBRANCH   2   3
ENDBRANCH   1   2
BRANCH   1  10
ATOM     10  C   UNL     1     -24.218  17.461 -23.079  1.00  0.00     0.000 C 
BRANCH  10  11
ATOM     11  C   UNL     1     -23.982  18.155 -21.728  1.00  0.00    -0.000 C 
BRANCH  11  12
ATOM     12  C   UNL     1     -22.791  19.127 -21.758  1.00  0.00    -0.000 C 
BRANCH  12  13
ATOM     13  C   UNL     1     -23.157  20.534 -21.253  1.00  0.00    -0.000 C 
BRANCH  13  14
ATOM     14  C   UNL     1     -23.940  21.402 -22.258  1.00  0.00    -0.000 C 
BRANCH  14  15
ATOM     15  C   UNL     1     -23.074  22.333 -23.126  1.00  0.00    -0.003 C 
ATOM     16  C   UNL     1     -22.724  21.726 -24.484  1.00  0.00     0.004 C 
ENDBRANCH  14  15
ENDBRANCH  13  14
ENDBRANCH  12  13
ENDBRANCH  11  12
ENDBRANCH  10  11
ENDBRANCH   1  10
TORSDOF 12
ENDMDL
MODEL 2
REMARK VINA RESULT:    -4.248      2.484      5.351
REMARK INTER + INTRA:          -8.981
REMARK INTER:                  -7.480
REMARK INTRA:                  -1.501
REMARK UNBOUND:                -1.754
REMARK SMILES CCCCCCCCCCCCCC(=O)[O-]
REMARK SMILES IDX 8 1 9 2 10 3 11 4 12 5 13 6 14 7 15 8 16 9 7 10 6 11 5 12
REMARK SMILES IDX 4 13 3 14 2 15 1 16
REMARK H PARENT
REMARK Flexibility Score: inf
ROOT
ATOM      1  C   UNL     1     -23.283  20.969 -21.316  1.00  0.00     0.000 C 
ENDROOT
BRANCH   1   2
ATOM      2  C   UNL     1     -23.800  21.339 -22.716  1.00  0.00     0.000 C 
BRANCH   2   3
ATOM      3  C   UNL     1     -22.812  22.228 -23.493  1.00  0.00     0.000 C 
BRANCH   3   4
ATOM      4  C   UNL     1     -22.412  21.621 -24.847  1.00  0.00     0.000 C 
BRANCH   4   5
ATOM      5  C   UNL     1     -22.491  20.086 -24.857  1.00  0.00     0.006 C 
BRANCH   5   6
ATOM      6  C   UNL     1     -21.179  19.474 -25.355  1.00  0.00     0.053 C 
BRANCH   6   7
ATOM      7  C   UNL     1     -21.451  18.293 -26.233  1.00  0.00     0.041 C 
ATOM      8  O   UNL     1     -22.456  17.564 -26.020  1.00  0.00    -0.550 OA
ATOM      9  O   UNL     1     -20.568  17.967 -27.254  1.00  0.00    -0.550 OA
ENDBRANCH   6   7
ENDBRANCH   5   6
ENDBRANCH   4   5
ENDBRANCH   3   4
ENDBRANCH   2   3
ENDBRANCH   1   2
BRANCH   1  10
ATOM     10  C   UNL     1     -22.696  19.547 -21.260  1.00  0.00     0.000 C 
BRANCH  10  11
ATOM     11  C   UNL     1     -23.655  18.492 -21.833  1.00  0.00    -0.000 C 
BRANCH  11  12
ATOM     12  C   UNL     1     -22.919  17.285 -22.438  1.00  0.00    -0.000 C 
BRANCH  12  13
ATOM     13  C   UNL     1     -21.400  17.326 -22.186  1.00  0.00    -0.000 C 
BRANCH  13  14
ATOM     14  C   UNL     1     -20.561  16.441 -23.129  1.00  0.00    -0.000 C 
BRANCH  14  15
ATOM     15  C   UNL     1     -20.670  14.928 -22.870  1.00  0.00    -0.003 C 
ATOM     16  C   UNL     1     -20.586  14.570 -21.386  1.00  0.00     0.004 C 
ENDBRANCH  14  15
ENDBRANCH  13  14
ENDBRANCH  12  13
ENDBRANCH  11  12
ENDBRANCH  10  11
ENDBRANCH   1  10
TORSDOF 12
ENDMDL
MODEL 3
REMARK VINA RESULT:    -4.236      1.732      3.436
REMARK INTER + INTRA:          -8.961
REMARK INTER:                  -7.356
REMARK INTRA:                  -1.605
REMARK UNBOUND:                -1.754
REMARK SMILES CCCCCCCCCCCCCC(=O)[O-]
REMARK SMILES IDX 8 1 9 2 10 3 11 4 12 5 13 6 14 7 15 8 16 9 7 10 6 11 5 12
REMARK SMILES IDX 4 13 3 14 2 15 1 16
REMARK H PARENT
REMARK Flexibility Score: inf
ROOT
ATOM      1  C   UNL     1     -20.216  17.680 -24.190  1.00  0.00     0.000 C 
ENDROOT
BRANCH   1   2
ATOM      2  C   UNL     1     -20.318  16.313 -23.495  1.00  0.00     0.000 C 
BRANCH   2   3
ATOM      3  C   UNL     1     -20.839  16.422 -22.051  1.00  0.00     0.000 C 
BRANCH   3   4
ATOM      4  C   UNL     1     -21.358  15.082 -21.507  1.00  0.00     0.000 C 
BRANCH   4   5
ATOM      5  C   UNL     1     -22.769  15.189 -20.910  1.00  0.00     0.006 C 
BRANCH   5   6
ATOM      6  C   UNL     1     -23.472  13.827 -20.917  1.00  0.00     0.053 C 
BRANCH   6   7
ATOM      7  C   UNL     1     -24.222  13.617 -19.640  1.00  0.00     0.041 C 
ATOM      8  O   UNL     1     -24.410  12.453 -19.199  1.00  0.00    -0.550 OA
ATOM      9  O   UNL     1     -24.759  14.704 -18.963  1.00  0.00    -0.550 OA
ENDBRANCH   6   7
ENDBRANCH   5   6
ENDBRANCH   4   5
ENDBRANCH   3   4
ENDBRANCH   2   3
ENDBRANCH   1   2
BRANCH   1  10
ATOM     10  C   UNL     1     -20.976  17.721 -25.528  1.00  0.00     0.000 C 
BRANCH  10  11
ATOM     11  C   UNL     1     -22.420  17.208 -25.400  1.00  0.00    -0.000 C 
BRANCH  11  12
ATOM     12  C   UNL     1     -23.348  18.214 -24.697  1.00  0.00    -0.000 C 
BRANCH  12  13
ATOM     13  C   UNL     1     -24.075  17.607 -23.484  1.00  0.00    -0.000 C 
BRANCH  13  14
ATOM     14  C   UNL     1     -23.948  18.417 -22.178  1.00  0.00    -0.000 C 
BRANCH  14  15
ATOM     15  C   UNL     1     -22.861  19.507 -22.192  1.00  0.00    -0.003 C 
ATOM     16  C   UNL     1     -23.112  20.610 -21.164  1.00  0.00     0.004 C 
ENDBRANCH  14  15
ENDBRANCH  13  14
ENDBRANCH  12  13
ENDBRANCH  11  12
ENDBRANCH  10  11
ENDBRANCH   1  10
TORSDOF 12
ENDMDL
MODEL 4
REMARK VINA RESULT:    -4.228      3.949      5.806
REMARK INTER + INTRA:          -8.948
REMARK INTER:                  -7.380
REMARK INTRA:                  -1.569
REMARK UNBOUND:                -1.754
REMARK SMILES CCCCCCCCCCCCCC(=O)[O-]
REMARK SMILES IDX 8 1 9 2 10 3 11 4 12 5 13 6 14 7 15 8 16 9 7 10 6 11 5 12
REMARK SMILES IDX 4 13 3 14 2 15 1 16
REMARK H PARENT
REMARK Flexibility Score: inf
ROOT
ATOM      1  C   UNL     1     -21.546  17.030 -25.384  1.00  0.00     0.000 C 
ENDROOT
BRANCH   1   2
ATOM      2  C   UNL     1     -21.000  18.461 -25.251  1.00  0.00     0.000 C 
BRANCH   2   3
ATOM      3  C   UNL     1     -22.117  19.520 -25.245  1.00  0.00     0.000 C 
BRANCH   3   4
ATOM      4  C   UNL     1     -21.584  20.938 -24.987  1.00  0.00     0.000 C 
BRANCH   4   5
ATOM      5  C   UNL     1     -22.707  21.974 -24.823  1.00  0.00     0.006 C 
BRANCH   5   6
ATOM      6  C   UNL     1     -22.162  23.285 -24.248  1.00  0.00     0.053 C 
BRANCH   6   7
ATOM      7  C   UNL     1     -21.121  23.862 -25.154  1.00  0.00     0.041 C 
ATOM      8  O   UNL     1     -19.931  23.978 -24.759  1.00  0.00    -0.550 OA
ATOM      9  O   UNL     1     -21.474  24.318 -26.418  1.00  0.00    -0.550 OA
ENDBRANCH   6   7
ENDBRANCH   5   6
ENDBRANCH   4   5
ENDBRANCH   3   4
ENDBRANCH   2   3
ENDBRANCH   1   2
BRANCH   1  10
ATOM     10  C   UNL     1     -20.988  16.082 -24.307  1.00  0.00     0.000 C 
BRANCH  10  11
ATOM     11  C   UNL     1     -20.691  16.805 -22.984  1.00  0.00    -0.000 C 
BRANCH  11  12
ATOM     12  C   UNL     1     -21.741  16.514 -21.899  1.00  0.00    -0.000 C 
BRANCH  12  13
ATOM     13  C   UNL     1     -22.900  17.528 -21.904  1.00  0.00    -0.000 C 
BRANCH  13  14
ATOM     14  C   UNL     1     -22.492  18.982 -21.595  1.00  0.00    -0.000 C 
BRANCH  14  15
ATOM     15  C   UNL     1     -23.604  20.027 -21.800  1.00  0.00    -0.003 C 
ATOM     16  C   UNL     1     -23.334  21.336 -21.059  1.00  0.00     0.004 C 
ENDBRANCH  14  15
ENDBRANCH  13  14
ENDBRANCH  12  13
ENDBRANCH  11  12
ENDBRANCH  10  11
ENDBRANCH   1  10
TORSDOF 12
ENDMDL
MODEL 5
REMARK VINA RESULT:    -4.226      3.068      6.106
REMARK INTER + INTRA:          -8.945
REMARK INTER:                  -7.445
REMARK INTRA:                  -1.499
REMARK UNBOUND:                -1.754
REMARK SMILES CCCCCCCCCCCCCC(=O)[O-]
REMARK SMILES IDX 8 1 9 2 10 3 11 4 12 5 13 6 14 7 15 8 16 9 7 10 6 11 5 12
REMARK SMILES IDX 4 13 3 14 2 15 1 16
REMARK H PARENT
REMARK Flexibility Score: inf
ROOT
ATOM      1  C   UNL     1     -23.660  18.083 -21.979  1.00  0.00     0.000 C 
ENDROOT
BRANCH   1   2
ATOM      2  C   UNL     1     -22.754  19.318 -22.116  1.00  0.00     0.000 C 
BRANCH   2   3
ATOM      3  C   UNL     1     -23.230  20.497 -21.249  1.00  0.00     0.000 C 
BRANCH   3   4
ATOM      4  C   UNL     1     -24.012  21.545 -22.057  1.00  0.00     0.000 C 
BRANCH   4   5
ATOM      5  C   UNL     1     -23.096  22.472 -22.872  1.00  0.00     0.006 C 
BRANCH   5   6
ATOM      6  C   UNL     1     -23.221  22.185 -24.371  1.00  0.00     0.053 C 
BRANCH   6   7
ATOM      7  C   UNL     1     -21.867  22.053 -24.994  1.00  0.00     0.041 C 
ATOM      8  O   UNL     1     -21.395  20.914 -25.249  1.00  0.00    -0.550 OA
ATOM      9  O   UNL     1     -21.105  23.186 -25.246  1.00  0.00    -0.550 OA
ENDBRANCH   6   7
ENDBRANCH   5   6
ENDBRANCH   4   5
ENDBRANCH   3   4
ENDBRANCH   2   3
ENDBRANCH   1   2
BRANCH   1  10
ATOM     10  C   UNL     1     -24.051  17.483 -23.341  1.00  0.00     0.000 C 
BRANCH  10  11
ATOM     11  C   UNL     1     -23.308  18.147 -24.511  1.00  0.00    -0.000 C 
BRANCH  11  12
ATOM     12  C   UNL     1     -22.344  17.184 -25.225  1.00  0.00    -0.000 C 
BRANCH  12  13
ATOM     13  C   UNL     1     -20.866  17.475 -24.906  1.00  0.00    -0.000 C 
BRANCH  13  14
ATOM     14  C   UNL     1     -20.377  16.934 -23.547  1.00  0.00    -0.000 C 
BRANCH  14  15
ATOM     15  C   UNL     1     -20.741  15.466 -23.263  1.00  0.00    -0.003 C 
ATOM     16  C   UNL     1     -20.394  15.032 -21.839  1.00  0.00     0.004 C 
ENDBRANCH  14  15
ENDBRANCH  13  14
ENDBRANCH  12  13
ENDBRANCH  11  12
ENDBRANCH  10  11
ENDBRANCH   1  10
TORSDOF 12
ENDMDL
MODEL 6
REMARK VINA RESULT:    -4.205      3.881      6.230
REMARK INTER + INTRA:          -8.909
REMARK INTER:                  -7.569
REMARK INTRA:                  -1.340
REMARK UNBOUND:                -1.754
REMARK SMILES CCCCCCCCCCCCCC(=O)[O-]
REMARK SMILES IDX 8 1 9 2 10 3 11 4 12 5 13 6 14 7 15 8 16 9 7 10 6 11 5 12
REMARK SMILES IDX 4 13 3 14 2 15 1 16
REMARK H PARENT
REMARK Flexibility Score: inf
ROOT
ATOM      1  C   UNL     1     -22.558  19.075 -21.647  1.00  0.00     0.000 C 
ENDROOT
BRANCH   1   2
ATOM      2  C   UNL     1     -23.203  20.410 -21.243  1.00  0.00     0.000 C 
BRANCH   2   3
ATOM      3  C   UNL     1     -23.251  21.418 -22.404  1.00  0.00     0.000 C 
BRANCH   3   4
ATOM      4  C   UNL     1     -22.821  20.798 -23.743  1.00  0.00     0.000 C 
BRANCH   4   5
ATOM      5  C   UNL     1     -22.642  21.845 -24.853  1.00  0.00     0.006 C 
BRANCH   5   6
ATOM      6  C   UNL     1     -22.084  23.154 -24.286  1.00  0.00     0.053 C 
BRANCH   6   7
ATOM      7  C   UNL     1     -20.933  23.634 -25.112  1.00  0.00     0.041 C 
ATOM      8  O   UNL     1     -19.906  24.106 -24.556  1.00  0.00    -0.550 OA
ATOM      9  O   UNL     1     -21.013  23.609 -26.498  1.00  0.00    -0.550 OA
ENDBRANCH   6   7
ENDBRANCH   5   6
ENDBRANCH   4   5
ENDBRANCH   3   4
ENDBRANCH   2   3
ENDBRANCH   1   2
BRANCH   1  10
ATOM     10  C   UNL     1     -23.556  17.904 -21.619  1.00  0.00     0.000 C 
BRANCH  10  11
ATOM     11  C   UNL     1     -22.881  16.548 -21.879  1.00  0.00    -0.000 C 
BRANCH  11  12
ATOM     12  C   UNL     1     -21.349  16.613 -21.751  1.00  0.00    -0.000 C 
BRANCH  12  13
ATOM     13  C   UNL     1     -20.624  16.132 -23.021  1.00  0.00    -0.000 C 
BRANCH  13  14
ATOM     14  C   UNL     1     -19.913  17.241 -23.822  1.00  0.00    -0.000 C 
BRANCH  14  15
ATOM     15  C   UNL     1     -20.818  18.028 -24.787  1.00  0.00    -0.003 C 
ATOM     16  C   UNL     1     -21.861  17.148 -25.476  1.00  0.00     0.004 C 
ENDBRANCH  14  15
ENDBRANCH  13  14
ENDBRANCH  12  13
ENDBRANCH  11  12
ENDBRANCH  10  11
ENDBRANCH   1  10
TORSDOF 12
ENDMDL
MODEL 7
REMARK VINA RESULT:    -4.195      1.186      3.374
REMARK INTER + INTRA:          -8.891
REMARK INTER:                  -7.228
REMARK INTRA:                  -1.663
REMARK UNBOUND:                -1.754
REMARK SMILES CCCCCCCCCCCCCC(=O)[O-]
REMARK SMILES IDX 8 1 9 2 10 3 11 4 12 5 13 6 14 7 15 8 16 9 7 10 6 11 5 12
REMARK SMILES IDX 4 13 3 14 2 15 1 16
REMARK H PARENT
REMARK Flexibility Score: inf
ROOT
ATOM      1  C   UNL     1     -23.246  20.627 -21.134  1.00  0.00     0.000 C 
ENDROOT
BRANCH   1   2
ATOM      2  C   UNL     1     -22.523  19.342 -21.572  1.00  0.00     0.000 C 
BRANCH   2   3
ATOM      3  C   UNL     1     -23.430  18.404 -22.389  1.00  0.00     0.000 C 
BRANCH   3   4
ATOM      4  C   UNL     1     -22.778  17.038 -22.655  1.00  0.00     0.000 C 
BRANCH   4   5
ATOM      5  C   UNL     1     -21.406  16.892 -21.979  1.00  0.00     0.006 C 
BRANCH   5   6
ATOM      6  C   UNL     1     -20.636  15.700 -22.555  1.00  0.00     0.053 C 
BRANCH   6   7
ATOM      7  C   UNL     1     -20.798  14.499 -21.678  1.00  0.00     0.041 C 
ATOM      8  O   UNL     1     -21.091  14.636 -20.462  1.00  0.00    -0.550 OA
ATOM      9  O   UNL     1     -20.576  13.228 -22.193  1.00  0.00    -0.550 OA
ENDBRANCH   6   7
ENDBRANCH   5   6
ENDBRANCH   4   5
ENDBRANCH   3   4
ENDBRANCH   2   3
ENDBRANCH   1   2
BRANCH   1  10
ATOM     10  C   UNL     1     -24.019  21.291 -22.287  1.00  0.00     0.000 C 
BRANCH  10  11
ATOM     11  C   UNL     1     -23.471  22.684 -22.637  1.00  0.00    -0.000 C 
BRANCH  11  12
ATOM     12  C   UNL     1     -22.689  22.698 -23.962  1.00  0.00    -0.000 C 
BRANCH  12  13
ATOM     13  C   UNL     1     -22.809  21.375 -24.739  1.00  0.00    -0.000 C 
BRANCH  13  14
ATOM     14  C   UNL     1     -21.471  20.661 -25.017  1.00  0.00    -0.000 C 
BRANCH  14  15
ATOM     15  C   UNL     1     -21.600  19.209 -25.513  1.00  0.00    -0.003 C 
ATOM     16  C   UNL     1     -20.356  18.369 -25.224  1.00  0.00     0.004 C 
ENDBRANCH  14  15
ENDBRANCH  13  14
ENDBRANCH  12  13
ENDBRANCH  11  12
ENDBRANCH  10  11
ENDBRANCH   1  10
TORSDOF 12
ENDMDL
MODEL 8
REMARK VINA RESULT:    -4.143      2.550      5.755
REMARK INTER + INTRA:          -8.803
REMARK INTER:                  -7.201
REMARK INTRA:                  -1.602
REMARK UNBOUND:                -1.754
REMARK SMILES CCCCCCCCCCCCCC(=O)[O-]
REMARK SMILES IDX 8 1 9 2 10 3 11 4 12 5 13 6 14 7 15 8 16 9 7 10 6 11 5 12
REMARK SMILES IDX 4 13 3 14 2 15 1 16
REMARK H PARENT
REMARK Flexibility Score: inf
ROOT
ATOM      1  C   UNL     1     -23.558  17.626 -22.495  1.00  0.00     0.000 C 
ENDROOT
BRANCH   1   2
ATOM      2  C   UNL     1     -23.154  18.957 -21.840  1.00  0.00     0.000 C 
BRANCH   2   3
ATOM      3  C   UNL     1     -22.896  20.068 -22.873  1.00  0.00     0.000 C 
BRANCH   3   4
ATOM      4  C   UNL     1     -22.934  19.550 -24.319  1.00  0.00     0.000 C 
BRANCH   4   5
ATOM      5  C   UNL     1     -21.651  19.875 -25.100  1.00  0.00     0.006 C 
BRANCH   5   6
ATOM      6  C   UNL     1     -20.750  18.640 -25.210  1.00  0.00     0.053 C 
BRANCH   6   7
ATOM      7  C   UNL     1     -21.350  17.635 -26.141  1.00  0.00     0.041 C 
ATOM      8  O   UNL     1     -21.439  17.884 -27.371  1.00  0.00    -0.550 OA
ATOM      9  O   UNL     1     -21.857  16.442 -25.642  1.00  0.00    -0.550 OA
ENDBRANCH   6   7
ENDBRANCH   5   6
ENDBRANCH   4   5
ENDBRANCH   3   4
ENDBRANCH   2   3
ENDBRANCH   1   2
BRANCH   1  10
ATOM     10  C   UNL     1     -22.636  16.463 -22.088  1.00  0.00     0.000 C 
BRANCH  10  11
ATOM     11  C   UNL     1     -21.154  16.870 -22.059  1.00  0.00    -0.000 C 
BRANCH  11  12
ATOM     12  C   UNL     1     -20.211  15.710 -22.422  1.00  0.00    -0.000 C 
BRANCH  12  13
ATOM     13  C   UNL     1     -20.916  14.342 -22.401  1.00  0.00    -0.000 C 
BRANCH  13  14
ATOM     14  C   UNL     1     -20.485  13.407 -21.253  1.00  0.00    -0.000 C 
BRANCH  14  15
ATOM     15  C   UNL     1     -21.217  13.637 -19.918  1.00  0.00    -0.003 C 
ATOM     16  C   UNL     1     -22.709  13.314 -19.994  1.00  0.00     0.004 C 
ENDBRANCH  14  15
ENDBRANCH  13  14
ENDBRANCH  12  13
ENDBRANCH  11  12
ENDBRANCH  10  11
ENDBRANCH   1  10
TORSDOF 12
ENDMDL
MODEL 9
REMARK VINA RESULT:    -4.125      1.623      4.219
REMARK INTER + INTRA:          -8.773
REMARK INTER:                  -7.277
REMARK INTRA:                  -1.496
REMARK UNBOUND:                -1.754
REMARK SMILES CCCCCCCCCCCCCC(=O)[O-]
REMARK SMILES IDX 8 1 9 2 10 3 11 4 12 5 13 6 14 7 15 8 16 9 7 10 6 11 5 12
REMARK SMILES IDX 4 13 3 14 2 15 1 16
REMARK H PARENT
REMARK Flexibility Score: inf
ROOT
ATOM      1  C   UNL     1     -23.702  20.725 -22.367  1.00  0.00     0.000 C 
ENDROOT
BRANCH   1   2
ATOM      2  C   UNL     1     -22.878  20.022 -21.276  1.00  0.00     0.000 C 
BRANCH   2   3
ATOM      3  C   UNL     1     -22.534  18.567 -21.641  1.00  0.00     0.000 C 
BRANCH   3   4
ATOM      4  C   UNL     1     -23.729  17.813 -22.246  1.00  0.00     0.000 C 
BRANCH   4   5
ATOM      5  C   UNL     1     -24.370  16.826 -21.258  1.00  0.00     0.006 C 
BRANCH   5   6
ATOM      6  C   UNL     1     -23.642  15.479 -21.279  1.00  0.00     0.053 C 
BRANCH   6   7
ATOM      7  C   UNL     1     -24.363  14.480 -20.429  1.00  0.00     0.041 C 
ATOM      8  O   UNL     1     -24.592  13.323 -20.868  1.00  0.00    -0.550 OA
ATOM      9  O   UNL     1     -24.827  14.844 -19.172  1.00  0.00    -0.550 OA
ENDBRANCH   6   7
ENDBRANCH   5   6
ENDBRANCH   4   5
ENDBRANCH   3   4
ENDBRANCH   2   3
ENDBRANCH   1   2
BRANCH   1  10
ATOM     10  C   UNL     1     -22.928  21.869 -23.046  1.00  0.00     0.000 C 
BRANCH  10  11
ATOM     11  C   UNL     1     -22.792  21.668 -24.564  1.00  0.00    -0.000 C 
BRANCH  11  12
ATOM     12  C   UNL     1     -22.660  20.186 -24.957  1.00  0.00    -0.000 C 
BRANCH  12  13
ATOM     13  C   UNL     1     -21.256  19.832 -25.481  1.00  0.00    -0.000 C 
BRANCH  13  14
ATOM     14  C   UNL     1     -20.638  18.558 -24.871  1.00  0.00    -0.000 C 
BRANCH  14  15
ATOM     15  C   UNL     1     -21.455  17.272 -25.084  1.00  0.00    -0.003 C 
ATOM     16  C   UNL     1     -20.983  16.114 -24.205  1.00  0.00     0.004 C 
ENDBRANCH  14  15
ENDBRANCH  13  14
ENDBRANCH  12  13
ENDBRANCH  11  12
ENDBRANCH  10  11
ENDBRANCH   1  10
TORSDOF 12
ENDMDL
