MODEL 1
REMARK VINA RESULT:    -4.948      0.000      0.000
REMARK INTER + INTRA:          -6.372
REMARK INTER:                  -5.961
REMARK INTRA:                  -0.412
REMARK UNBOUND:                -0.412
REMARK SMILES O=c1c(O)c(-c2ccc(O)cc2O)oc2cc(O)cc(O)c12
REMARK SMILES IDX 5 1 3 2 2 3 1 4 22 5 20 6 19 7 17 8 16 9 15 10 14 11 6 12
REMARK SMILES IDX 8 13 7 14 9 15 11 16 12 17 10 18 13 20 4 22 21 24 18 26
REMARK H PARENT 10 19 13 21 4 23 21 25 18 27
REMARK Flexibility Score: inf
ROOT
ATOM      1  C   UNL     1      14.928  48.308  30.795  1.00  0.00     0.184 A 
ATOM      2  C   UNL     1      15.026  49.708  30.771  1.00  0.00     0.208 A 
ATOM      3  C   UNL     1      15.725  50.324  29.722  1.00  0.00     0.238 A 
ATOM      4  O   UNL     1      15.763  51.581  29.677  1.00  0.00    -0.285 OA
ATOM      5  C   UNL     1      16.332  49.529  28.718  1.00  0.00     0.111 A 
ATOM      6  C   UNL     1      17.099  50.044  27.631  1.00  0.00     0.134 A 
ATOM      7  C   UNL     1      17.544  49.175  26.627  1.00  0.00     0.093 A 
ATOM      8  C   UNL     1      17.303  47.801  26.705  1.00  0.00     0.123 A 
ATOM      9  C   UNL     1      16.606  47.282  27.793  1.00  0.00     0.094 A 
ATOM     10  C   UNL     1      16.119  48.127  28.793  1.00  0.00     0.146 A 
ATOM     11  O   UNL     1      15.449  47.592  29.807  1.00  0.00    -0.451 OA
ENDROOT
BRANCH   1  12
ATOM     12  C   UNL     1      14.220  47.597  31.880  1.00  0.00     0.063 A 
ATOM     13  C   UNL     1      12.117  46.973  32.928  1.00  0.00     0.047 A 
ATOM     14  C   UNL     1      12.817  47.639  31.919  1.00  0.00     0.020 A 
ATOM     15  C   UNL     1      12.807  46.247  33.902  1.00  0.00     0.119 A 
ATOM     16  C   UNL     1      14.205  46.180  33.859  1.00  0.00     0.093 A 
ATOM     17  C   UNL     1      14.916  46.841  32.845  1.00  0.00     0.130 A 
BRANCH  15  18
ATOM     18  O   UNL     1      12.094  45.591  34.903  1.00  0.00    -0.508 OA
ATOM     19  H   UNL     1      11.274  46.008  35.329  1.00  0.00     0.293 HD
ENDBRANCH  15  18
BRANCH  17  20
ATOM     20  O   UNL     1      16.305  46.726  32.785  1.00  0.00    -0.507 OA
ATOM     21  H   UNL     1      16.822  46.962  31.946  1.00  0.00     0.293 HD
ENDBRANCH  17  20
ENDBRANCH   1  12
BRANCH   2  22
ATOM     22  O   UNL     1      14.401  50.469  31.764  1.00  0.00    -0.502 OA
ATOM     23  H   UNL     1      14.205  51.456  31.648  1.00  0.00     0.293 HD
ENDBRANCH   2  22
BRANCH   6  24
ATOM     24  O   UNL     1      17.473  51.385  27.506  1.00  0.00    -0.507 OA
ATOM     25  H   UNL     1      18.323  51.707  27.068  1.00  0.00     0.293 HD
ENDBRANCH   6  24
BRANCH   8  26
ATOM     26  O   UNL     1      17.761  46.941  25.710  1.00  0.00    -0.508 OA
ATOM     27  H   UNL     1      17.407  45.996  25.621  1.00  0.00     0.293 HD
ENDBRANCH   8  26
TORSDOF 6
ENDMDL
MODEL 2
REMARK VINA RESULT:    -4.863      1.869      3.607
REMARK INTER + INTRA:          -6.269
REMARK INTER:                  -6.228
REMARK INTRA:                  -0.042
REMARK UNBOUND:                -0.412
REMARK SMILES O=c1c(O)c(-c2ccc(O)cc2O)oc2cc(O)cc(O)c12
REMARK SMILES IDX 5 1 3 2 2 3 1 4 22 5 20 6 19 7 17 8 16 9 15 10 14 11 6 12
REMARK SMILES IDX 8 13 7 14 9 15 11 16 12 17 10 18 13 20 4 22 21 24 18 26
REMARK H PARENT 10 19 13 21 4 23 21 25 18 27
REMARK Flexibility Score: inf
ROOT
ATOM      1  C   UNL     1      14.245  47.709  31.944  1.00  0.00     0.184 A 
ATOM      2  C   UNL     1      15.408  47.124  31.418  1.00  0.00     0.208 A 
ATOM      3  C   UNL     1      16.207  47.870  30.539  1.00  0.00     0.238 A 
ATOM      4  O   UNL     1      17.277  47.359  30.114  1.00  0.00    -0.285 OA
ATOM      5  C   UNL     1      15.824  49.186  30.184  1.00  0.00     0.111 A 
ATOM      6  C   UNL     1      16.536  50.019  29.270  1.00  0.00     0.134 A 
ATOM      7  C   UNL     1      16.137  51.349  29.092  1.00  0.00     0.093 A 
ATOM      8  C   UNL     1      15.012  51.857  29.747  1.00  0.00     0.123 A 
ATOM      9  C   UNL     1      14.275  51.034  30.595  1.00  0.00     0.094 A 
ATOM     10  C   UNL     1      14.669  49.714  30.821  1.00  0.00     0.146 A 
ATOM     11  O   UNL     1      13.945  48.967  31.646  1.00  0.00    -0.451 OA
ENDROOT
BRANCH   1  12
ATOM     12  C   UNL     1      13.351  46.972  32.862  1.00  0.00     0.063 A 
ATOM     13  C   UNL     1      13.102  45.488  34.772  1.00  0.00     0.047 A 
ATOM     14  C   UNL     1      13.918  46.193  33.883  1.00  0.00     0.020 A 
ATOM     15  C   UNL     1      11.711  45.563  34.659  1.00  0.00     0.119 A 
ATOM     16  C   UNL     1      11.135  46.356  33.658  1.00  0.00     0.093 A 
ATOM     17  C   UNL     1      11.948  47.072  32.766  1.00  0.00     0.130 A 
BRANCH  15  18
ATOM     18  O   UNL     1      10.910  44.852  35.551  1.00  0.00    -0.508 OA
ATOM     19  H   UNL     1      10.477  45.302  36.348  1.00  0.00     0.293 HD
ENDBRANCH  15  18
BRANCH  17  20
ATOM     20  O   UNL     1      11.363  47.896  31.805  1.00  0.00    -0.507 OA
ATOM     21  H   UNL     1      11.095  47.543  30.894  1.00  0.00     0.293 HD
ENDBRANCH  17  20
ENDBRANCH   1  12
BRANCH   2  22
ATOM     22  O   UNL     1      15.773  45.830  31.801  1.00  0.00    -0.502 OA
ATOM     23  H   UNL     1      16.739  45.557  31.940  1.00  0.00     0.293 HD
ENDBRANCH   2  22
BRANCH   6  24
ATOM     24  O   UNL     1      17.617  49.584  28.498  1.00  0.00    -0.507 OA
ATOM     25  H   UNL     1      18.182  50.179  27.910  1.00  0.00     0.293 HD
ENDBRANCH   6  24
BRANCH   8  26
ATOM     26  O   UNL     1      14.612  53.177  29.552  1.00  0.00    -0.508 OA
ATOM     27  H   UNL     1      14.467  53.556  28.624  1.00  0.00     0.293 HD
ENDBRANCH   8  26
TORSDOF 6
ENDMDL
MODEL 3
REMARK VINA RESULT:    -4.849      3.355      6.165
REMARK INTER + INTRA:          -6.253
REMARK INTER:                  -5.824
REMARK INTRA:                  -0.429
REMARK UNBOUND:                -0.412
REMARK SMILES O=c1c(O)c(-c2ccc(O)cc2O)oc2cc(O)cc(O)c12
REMARK SMILES IDX 5 1 3 2 2 3 1 4 22 5 20 6 19 7 17 8 16 9 15 10 14 11 6 12
REMARK SMILES IDX 8 13 7 14 9 15 11 16 12 17 10 18 13 20 4 22 21 24 18 26
REMARK H PARENT 10 19 13 21 4 23 21 25 18 27
REMARK Flexibility Score: inf
ROOT
ATOM      1  C   UNL     1      14.813  50.473  31.007  1.00  0.00     0.184 A 
ATOM      2  C   UNL     1      13.483  50.550  30.564  1.00  0.00     0.208 A 
ATOM      3  C   UNL     1      12.737  51.703  30.849  1.00  0.00     0.238 A 
ATOM      4  O   UNL     1      11.562  51.789  30.403  1.00  0.00    -0.285 OA
ATOM      5  C   UNL     1      13.326  52.759  31.588  1.00  0.00     0.111 A 
ATOM      6  C   UNL     1      12.651  53.957  31.969  1.00  0.00     0.134 A 
ATOM      7  C   UNL     1      13.369  54.988  32.586  1.00  0.00     0.093 A 
ATOM      8  C   UNL     1      14.724  54.838  32.894  1.00  0.00     0.123 A 
ATOM      9  C   UNL     1      15.377  53.649  32.580  1.00  0.00     0.094 A 
ATOM     10  C   UNL     1      14.696  52.616  31.931  1.00  0.00     0.146 A 
ATOM     11  O   UNL     1      15.360  51.503  31.639  1.00  0.00    -0.451 OA
ENDROOT
BRANCH   1  12
ATOM     12  C   UNL     1      15.648  49.280  30.755  1.00  0.00     0.063 A 
ATOM     13  C   UNL     1      16.204  46.979  31.311  1.00  0.00     0.047 A 
ATOM     14  C   UNL     1      15.436  48.127  31.527  1.00  0.00     0.020 A 
ATOM     15  C   UNL     1      17.182  46.965  30.314  1.00  0.00     0.119 A 
ATOM     16  C   UNL     1      17.386  48.103  29.523  1.00  0.00     0.093 A 
ATOM     17  C   UNL     1      16.615  49.257  29.729  1.00  0.00     0.130 A 
BRANCH  15  18
ATOM     18  O   UNL     1      17.942  45.815  30.113  1.00  0.00    -0.508 OA
ATOM     19  H   UNL     1      18.003  45.090  30.819  1.00  0.00     0.293 HD
ENDBRANCH  15  18
BRANCH  17  20
ATOM     20  O   UNL     1      16.793  50.367  28.903  1.00  0.00    -0.507 OA
ATOM     21  H   UNL     1      17.715  50.729  28.690  1.00  0.00     0.293 HD
ENDBRANCH  17  20
ENDBRANCH   1  12
BRANCH   2  22
ATOM     22  O   UNL     1      12.932  49.502  29.821  1.00  0.00    -0.502 OA
ATOM     23  H   UNL     1      13.448  48.656  29.610  1.00  0.00     0.293 HD
ENDBRANCH   2  22
BRANCH   6  24
ATOM     24  O   UNL     1      11.281  54.171  31.790  1.00  0.00    -0.507 OA
ATOM     25  H   UNL     1      10.880  54.792  31.104  1.00  0.00     0.293 HD
ENDBRANCH   6  24
BRANCH   8  26
ATOM     26  O   UNL     1      15.427  55.863  33.522  1.00  0.00    -0.508 OA
ATOM     27  H   UNL     1      16.039  56.482  33.003  1.00  0.00     0.293 HD
ENDBRANCH   8  26
TORSDOF 6
ENDMDL
MODEL 4
REMARK VINA RESULT:    -4.842      5.374      7.768
REMARK INTER + INTRA:          -6.244
REMARK INTER:                  -5.817
REMARK INTRA:                  -0.427
REMARK UNBOUND:                -0.412
REMARK SMILES O=c1c(O)c(-c2ccc(O)cc2O)oc2cc(O)cc(O)c12
REMARK SMILES IDX 5 1 3 2 2 3 1 4 22 5 20 6 19 7 17 8 16 9 15 10 14 11 6 12
REMARK SMILES IDX 8 13 7 14 9 15 11 16 12 17 10 18 13 20 4 22 21 24 18 26
REMARK H PARENT 10 19 13 21 4 23 21 25 18 27
REMARK Flexibility Score: inf
ROOT
ATOM      1  C   UNL     1      14.715  53.969  31.269  1.00  0.00     0.184 A 
ATOM      2  C   UNL     1      13.567  54.647  31.709  1.00  0.00     0.208 A 
ATOM      3  C   UNL     1      13.684  55.979  32.132  1.00  0.00     0.238 A 
ATOM      4  O   UNL     1      12.642  56.598  32.473  1.00  0.00    -0.285 OA
ATOM      5  C   UNL     1      14.951  56.612  32.125  1.00  0.00     0.111 A 
ATOM      6  C   UNL     1      15.193  57.946  32.571  1.00  0.00     0.134 A 
ATOM      7  C   UNL     1      16.462  58.512  32.399  1.00  0.00     0.093 A 
ATOM      8  C   UNL     1      17.514  57.770  31.856  1.00  0.00     0.123 A 
ATOM      9  C   UNL     1      17.303  56.448  31.473  1.00  0.00     0.094 A 
ATOM     10  C   UNL     1      16.039  55.866  31.599  1.00  0.00     0.146 A 
ATOM     11  O   UNL     1      15.878  54.607  31.211  1.00  0.00    -0.451 OA
ENDROOT
BRANCH   1  12
ATOM     12  C   UNL     1      14.664  52.560  30.826  1.00  0.00     0.063 A 
ATOM     13  C   UNL     1      14.494  50.205  31.408  1.00  0.00     0.047 A 
ATOM     14  C   UNL     1      14.550  51.548  31.792  1.00  0.00     0.020 A 
ATOM     15  C   UNL     1      14.537  49.859  30.055  1.00  0.00     0.119 A 
ATOM     16  C   UNL     1      14.628  50.863  29.082  1.00  0.00     0.093 A 
ATOM     17  C   UNL     1      14.679  52.213  29.460  1.00  0.00     0.130 A 
BRANCH  15  18
ATOM     18  O   UNL     1      14.483  48.516  29.688  1.00  0.00    -0.508 OA
ATOM     19  H   UNL     1      13.870  47.862  30.161  1.00  0.00     0.293 HD
ENDBRANCH  15  18
BRANCH  17  20
ATOM     20  O   UNL     1      14.719  53.206  28.480  1.00  0.00    -0.507 OA
ATOM     21  H   UNL     1      14.268  54.103  28.614  1.00  0.00     0.293 HD
ENDBRANCH  17  20
ENDBRANCH   1  12
BRANCH   2  22
ATOM     22  O   UNL     1      12.326  54.005  31.686  1.00  0.00    -0.502 OA
ATOM     23  H   UNL     1      11.460  54.489  31.890  1.00  0.00     0.293 HD
ENDBRANCH   2  22
BRANCH   6  24
ATOM     24  O   UNL     1      14.237  58.741  33.209  1.00  0.00    -0.507 OA
ATOM     25  H   UNL     1      14.255  58.991  34.186  1.00  0.00     0.293 HD
ENDBRANCH   6  24
BRANCH   8  26
ATOM     26  O   UNL     1      18.778  58.336  31.702  1.00  0.00    -0.508 OA
ATOM     27  H   UNL     1      19.250  58.342  30.806  1.00  0.00     0.293 HD
ENDBRANCH   8  26
TORSDOF 6
ENDMDL
MODEL 5
REMARK VINA RESULT:    -4.729      6.351      7.536
REMARK INTER + INTRA:          -6.108
REMARK INTER:                  -5.754
REMARK INTRA:                  -0.354
REMARK UNBOUND:                -0.412
REMARK SMILES O=c1c(O)c(-c2ccc(O)cc2O)oc2cc(O)cc(O)c12
REMARK SMILES IDX 5 1 3 2 2 3 1 4 22 5 20 6 19 7 17 8 16 9 15 10 14 11 6 12
REMARK SMILES IDX 8 13 7 14 9 15 11 16 12 17 10 18 13 20 4 22 21 24 18 26
REMARK H PARENT 10 19 13 21 4 23 21 25 18 27
REMARK Flexibility Score: inf
ROOT
ATOM      1  C   UNL     1      14.908  55.589  32.215  1.00  0.00     0.184 A 
ATOM      2  C   UNL     1      15.327  56.927  32.280  1.00  0.00     0.208 A 
ATOM      3  C   UNL     1      15.630  57.604  31.089  1.00  0.00     0.238 A 
ATOM      4  O   UNL     1      15.953  58.820  31.150  1.00  0.00    -0.285 OA
ATOM      5  C   UNL     1      15.527  56.928  29.849  1.00  0.00     0.111 A 
ATOM      6  C   UNL     1      15.848  57.503  28.583  1.00  0.00     0.134 A 
ATOM      7  C   UNL     1      15.586  56.784  27.411  1.00  0.00     0.093 A 
ATOM      8  C   UNL     1      15.073  55.485  27.462  1.00  0.00     0.123 A 
ATOM      9  C   UNL     1      14.813  54.893  28.695  1.00  0.00     0.094 A 
ATOM     10  C   UNL     1      15.030  55.598  29.881  1.00  0.00     0.146 A 
ATOM     11  O   UNL     1      14.757  55.000  31.035  1.00  0.00    -0.451 OA
ENDROOT
BRANCH   1  12
ATOM     12  C   UNL     1      14.590  54.814  33.432  1.00  0.00     0.063 A 
ATOM     13  C   UNL     1      13.171  54.500  35.382  1.00  0.00     0.047 A 
ATOM     14  C   UNL     1      13.503  55.213  34.227  1.00  0.00     0.020 A 
ATOM     15  C   UNL     1      13.911  53.373  35.749  1.00  0.00     0.119 A 
ATOM     16  C   UNL     1      14.982  52.953  34.951  1.00  0.00     0.093 A 
ATOM     17  C   UNL     1      15.319  53.660  33.786  1.00  0.00     0.130 A 
BRANCH  15  18
ATOM     18  O   UNL     1      13.569  52.674  36.905  1.00  0.00    -0.508 OA
ATOM     19  H   UNL     1      14.058  52.826  37.780  1.00  0.00     0.293 HD
ENDBRANCH  15  18
BRANCH  17  20
ATOM     20  O   UNL     1      16.356  53.204  32.973  1.00  0.00    -0.507 OA
ATOM     21  H   UNL     1      16.728  53.769  32.218  1.00  0.00     0.293 HD
ENDBRANCH  17  20
ENDBRANCH   1  12
BRANCH   2  22
ATOM     22  O   UNL     1      15.401  57.576  33.516  1.00  0.00    -0.502 OA
ATOM     23  H   UNL     1      14.651  58.159  33.869  1.00  0.00     0.293 HD
ENDBRANCH   2  22
BRANCH   6  24
ATOM     24  O   UNL     1      16.448  58.756  28.425  1.00  0.00    -0.507 OA
ATOM     25  H   UNL     1      16.693  59.377  29.182  1.00  0.00     0.293 HD
ENDBRANCH   6  24
BRANCH   8  26
ATOM     26  O   UNL     1      14.829  54.771  26.292  1.00  0.00    -0.508 OA
ATOM     27  H   UNL     1      14.662  55.240  25.409  1.00  0.00     0.293 HD
ENDBRANCH   8  26
TORSDOF 6
ENDMDL
MODEL 6
REMARK VINA RESULT:    -4.728      3.508      5.978
REMARK INTER + INTRA:          -6.107
REMARK INTER:                  -5.797
REMARK INTRA:                  -0.310
REMARK UNBOUND:                -0.412
REMARK SMILES O=c1c(O)c(-c2ccc(O)cc2O)oc2cc(O)cc(O)c12
REMARK SMILES IDX 5 1 3 2 2 3 1 4 22 5 20 6 19 7 17 8 16 9 15 10 14 11 6 12
REMARK SMILES IDX 8 13 7 14 9 15 11 16 12 17 10 18 13 20 4 22 21 24 18 26
REMARK H PARENT 10 19 13 21 4 23 21 25 18 27
REMARK Flexibility Score: inf
ROOT
ATOM      1  C   UNL     1      15.010  51.111  31.183  1.00  0.00     0.184 A 
ATOM      2  C   UNL     1      15.148  52.024  30.125  1.00  0.00     0.208 A 
ATOM      3  C   UNL     1      15.198  53.396  30.413  1.00  0.00     0.238 A 
ATOM      4  O   UNL     1      15.375  54.206  29.466  1.00  0.00    -0.285 OA
ATOM      5  C   UNL     1      15.093  53.838  31.755  1.00  0.00     0.111 A 
ATOM      6  C   UNL     1      15.091  55.207  32.160  1.00  0.00     0.134 A 
ATOM      7  C   UNL     1      15.112  55.524  33.523  1.00  0.00     0.093 A 
ATOM      8  C   UNL     1      15.071  54.522  34.497  1.00  0.00     0.123 A 
ATOM      9  C   UNL     1      15.012  53.186  34.111  1.00  0.00     0.094 A 
ATOM     10  C   UNL     1      15.026  52.836  32.759  1.00  0.00     0.146 A 
ATOM     11  O   UNL     1      14.981  51.549  32.435  1.00  0.00    -0.451 OA
ENDROOT
BRANCH   1  12
ATOM     12  C   UNL     1      14.934  49.654  30.946  1.00  0.00     0.063 A 
ATOM     13  C   UNL     1      13.604  47.618  30.937  1.00  0.00     0.047 A 
ATOM     14  C   UNL     1      13.712  48.994  31.156  1.00  0.00     0.020 A 
ATOM     15  C   UNL     1      14.709  46.888  30.493  1.00  0.00     0.119 A 
ATOM     16  C   UNL     1      15.927  47.540  30.259  1.00  0.00     0.093 A 
ATOM     17  C   UNL     1      16.042  48.923  30.471  1.00  0.00     0.130 A 
BRANCH  15  18
ATOM     18  O   UNL     1      14.587  45.516  30.282  1.00  0.00    -0.508 OA
ATOM     19  H   UNL     1      13.838  45.133  29.717  1.00  0.00     0.293 HD
ENDBRANCH  15  18
BRANCH  17  20
ATOM     20  O   UNL     1      17.245  49.570  30.188  1.00  0.00    -0.507 OA
ATOM     21  H   UNL     1      17.461  49.906  29.257  1.00  0.00     0.293 HD
ENDBRANCH  17  20
ENDBRANCH   1  12
BRANCH   2  22
ATOM     22  O   UNL     1      15.268  51.559  28.813  1.00  0.00    -0.502 OA
ATOM     23  H   UNL     1      14.838  52.032  28.027  1.00  0.00     0.293 HD
ENDBRANCH   2  22
BRANCH   6  24
ATOM     24  O   UNL     1      15.041  56.283  31.269  1.00  0.00    -0.507 OA
ATOM     25  H   UNL     1      14.260  56.915  31.174  1.00  0.00     0.293 HD
ENDBRANCH   6  24
BRANCH   8  26
ATOM     26  O   UNL     1      15.077  54.847  35.851  1.00  0.00    -0.508 OA
ATOM     27  H   UNL     1      14.683  55.717  36.190  1.00  0.00     0.293 HD
ENDBRANCH   8  26
TORSDOF 6
ENDMDL
MODEL 7
REMARK VINA RESULT:    -4.654      2.719      5.896
REMARK INTER + INTRA:          -6.018
REMARK INTER:                  -5.602
REMARK INTRA:                  -0.416
REMARK UNBOUND:                -0.412
REMARK SMILES O=c1c(O)c(-c2ccc(O)cc2O)oc2cc(O)cc(O)c12
REMARK SMILES IDX 5 1 3 2 2 3 1 4 22 5 20 6 19 7 17 8 16 9 15 10 14 11 6 12
REMARK SMILES IDX 8 13 7 14 9 15 11 16 12 17 10 18 13 20 4 22 21 24 18 26
REMARK H PARENT 10 19 13 21 4 23 21 25 18 27
REMARK Flexibility Score: inf
ROOT
ATOM      1  C   UNL     1      14.971  50.637  30.771  1.00  0.00     0.184 A 
ATOM      2  C   UNL     1      16.007  50.265  29.899  1.00  0.00     0.208 A 
ATOM      3  C   UNL     1      16.520  48.961  29.969  1.00  0.00     0.238 A 
ATOM      4  O   UNL     1      17.412  48.618  29.149  1.00  0.00    -0.285 OA
ATOM      5  C   UNL     1      16.002  48.050  30.922  1.00  0.00     0.111 A 
ATOM      6  C   UNL     1      16.474  46.717  31.109  1.00  0.00     0.134 A 
ATOM      7  C   UNL     1      15.801  45.863  31.992  1.00  0.00     0.093 A 
ATOM      8  C   UNL     1      14.712  46.315  32.742  1.00  0.00     0.123 A 
ATOM      9  C   UNL     1      14.282  47.633  32.610  1.00  0.00     0.094 A 
ATOM     10  C   UNL     1      14.909  48.498  31.712  1.00  0.00     0.146 A 
ATOM     11  O   UNL     1      14.459  49.743  31.608  1.00  0.00    -0.451 OA
ENDROOT
BRANCH   1  12
ATOM     12  C   UNL     1      14.398  51.999  30.761  1.00  0.00     0.063 A 
ATOM     13  C   UNL     1      12.670  53.518  29.976  1.00  0.00     0.047 A 
ATOM     14  C   UNL     1      13.241  52.243  30.004  1.00  0.00     0.020 A 
ATOM     15  C   UNL     1      13.238  54.560  30.714  1.00  0.00     0.119 A 
ATOM     16  C   UNL     1      14.379  54.321  31.490  1.00  0.00     0.093 A 
ATOM     17  C   UNL     1      14.956  53.042  31.528  1.00  0.00     0.130 A 
BRANCH  15  18
ATOM     18  O   UNL     1      12.659  55.826  30.673  1.00  0.00    -0.508 OA
ATOM     19  H   UNL     1      12.187  56.219  31.480  1.00  0.00     0.293 HD
ENDBRANCH  15  18
BRANCH  17  20
ATOM     20  O   UNL     1      16.062  52.804  32.343  1.00  0.00    -0.507 OA
ATOM     21  H   UNL     1      16.564  53.560  32.793  1.00  0.00     0.293 HD
ENDBRANCH  17  20
ENDBRANCH   1  12
BRANCH   2  22
ATOM     22  O   UNL     1      16.487  51.178  28.956  1.00  0.00    -0.502 OA
ATOM     23  H   UNL     1      16.208  52.152  28.952  1.00  0.00     0.293 HD
ENDBRANCH   2  22
BRANCH   6  24
ATOM     24  O   UNL     1      17.606  46.195  30.478  1.00  0.00    -0.507 OA
ATOM     25  H   UNL     1      18.406  46.738  30.189  1.00  0.00     0.293 HD
ENDBRANCH   6  24
BRANCH   8  26
ATOM     26  O   UNL     1      14.058  45.464  33.629  1.00  0.00    -0.508 OA
ATOM     27  H   UNL     1      13.201  45.739  34.093  1.00  0.00     0.293 HD
ENDBRANCH   8  26
TORSDOF 6
ENDMDL
MODEL 8
REMARK VINA RESULT:    -4.619      3.778      5.369
REMARK INTER + INTRA:          -5.975
REMARK INTER:                  -5.647
REMARK INTRA:                  -0.328
REMARK UNBOUND:                -0.412
REMARK SMILES O=c1c(O)c(-c2ccc(O)cc2O)oc2cc(O)cc(O)c12
REMARK SMILES IDX 5 1 3 2 2 3 1 4 22 5 20 6 19 7 17 8 16 9 15 10 14 11 6 12
REMARK SMILES IDX 8 13 7 14 9 15 11 16 12 17 10 18 13 20 4 22 21 24 18 26
REMARK H PARENT 10 19 13 21 4 23 21 25 18 27
REMARK Flexibility Score: inf
ROOT
ATOM      1  C   UNL     1      14.875  52.726  31.788  1.00  0.00     0.184 A 
ATOM      2  C   UNL     1      15.003  53.548  30.657  1.00  0.00     0.208 A 
ATOM      3  C   UNL     1      15.417  52.976  29.444  1.00  0.00     0.238 A 
ATOM      4  O   UNL     1      15.477  53.708  28.421  1.00  0.00    -0.285 OA
ATOM      5  C   UNL     1      15.713  51.592  29.382  1.00  0.00     0.111 A 
ATOM      6  C   UNL     1      16.180  50.915  28.216  1.00  0.00     0.134 A 
ATOM      7  C   UNL     1      16.317  49.522  28.235  1.00  0.00     0.093 A 
ATOM      8  C   UNL     1      16.067  48.789  29.399  1.00  0.00     0.123 A 
ATOM      9  C   UNL     1      15.669  49.449  30.559  1.00  0.00     0.094 A 
ATOM     10  C   UNL     1      15.488  50.834  30.561  1.00  0.00     0.146 A 
ATOM     11  O   UNL     1      15.096  51.421  31.686  1.00  0.00    -0.451 OA
ENDROOT
BRANCH   1  12
ATOM     12  C   UNL     1      14.460  53.267  33.099  1.00  0.00     0.063 A 
ATOM     13  C   UNL     1      15.057  53.883  35.375  1.00  0.00     0.047 A 
ATOM     14  C   UNL     1      15.414  53.370  34.125  1.00  0.00     0.020 A 
ATOM     15  C   UNL     1      13.748  54.311  35.611  1.00  0.00     0.119 A 
ATOM     16  C   UNL     1      12.795  54.234  34.588  1.00  0.00     0.093 A 
ATOM     17  C   UNL     1      13.147  53.726  33.328  1.00  0.00     0.130 A 
BRANCH  15  18
ATOM     18  O   UNL     1      13.407  54.817  36.863  1.00  0.00    -0.508 OA
ATOM     19  H   UNL     1      13.978  55.514  37.327  1.00  0.00     0.293 HD
ENDBRANCH  15  18
BRANCH  17  20
ATOM     20  O   UNL     1      12.202  53.700  32.302  1.00  0.00    -0.507 OA
ATOM     21  H   UNL     1      12.120  54.459  31.636  1.00  0.00     0.293 HD
ENDBRANCH  17  20
ENDBRANCH   1  12
BRANCH   2  22
ATOM     22  O   UNL     1      14.685  54.906  30.741  1.00  0.00    -0.502 OA
ATOM     23  H   UNL     1      14.625  55.396  31.626  1.00  0.00     0.293 HD
ENDBRANCH   2  22
BRANCH   6  24
ATOM     24  O   UNL     1      16.545  51.562  27.032  1.00  0.00    -0.507 OA
ATOM     25  H   UNL     1      16.030  51.511  26.166  1.00  0.00     0.293 HD
ENDBRANCH   6  24
BRANCH   8  26
ATOM     26  O   UNL     1      16.221  47.405  29.414  1.00  0.00    -0.508 OA
ATOM     27  H   UNL     1      16.734  46.936  30.152  1.00  0.00     0.293 HD
ENDBRANCH   8  26
TORSDOF 6
ENDMDL
MODEL 9
REMARK VINA RESULT:    -4.587      1.420      3.186
REMARK INTER + INTRA:          -5.937
REMARK INTER:                  -5.522
REMARK INTRA:                  -0.415
REMARK UNBOUND:                -0.412
REMARK SMILES O=c1c(O)c(-c2ccc(O)cc2O)oc2cc(O)cc(O)c12
REMARK SMILES IDX 5 1 3 2 2 3 1 4 22 5 20 6 19 7 17 8 16 9 15 10 14 11 6 12
REMARK SMILES IDX 8 13 7 14 9 15 11 16 12 17 10 18 13 20 4 22 21 24 18 26
REMARK H PARENT 10 19 13 21 4 23 21 25 18 27
REMARK Flexibility Score: inf
ROOT
ATOM      1  C   UNL     1      15.396  47.735  30.415  1.00  0.00     0.184 A 
ATOM      2  C   UNL     1      16.180  46.892  29.611  1.00  0.00     0.208 A 
ATOM      3  C   UNL     1      16.861  47.439  28.514  1.00  0.00     0.238 A 
ATOM      4  O   UNL     1      17.606  46.689  27.829  1.00  0.00    -0.285 OA
ATOM      5  C   UNL     1      16.737  48.820  28.224  1.00  0.00     0.111 A 
ATOM      6  C   UNL     1      17.349  49.474  27.113  1.00  0.00     0.134 A 
ATOM      7  C   UNL     1      17.263  50.867  26.998  1.00  0.00     0.093 A 
ATOM      8  C   UNL     1      16.530  51.622  27.918  1.00  0.00     0.123 A 
ATOM      9  C   UNL     1      15.879  50.985  28.972  1.00  0.00     0.094 A 
ATOM     10  C   UNL     1      15.977  49.602  29.134  1.00  0.00     0.146 A 
ATOM     11  O   UNL     1      15.350  49.037  30.159  1.00  0.00    -0.451 OA
ENDROOT
BRANCH   1  12
ATOM     12  C   UNL     1      14.640  47.220  31.575  1.00  0.00     0.063 A 
ATOM     13  C   UNL     1      14.653  46.401  33.865  1.00  0.00     0.047 A 
ATOM     14  C   UNL     1      15.338  46.886  32.747  1.00  0.00     0.020 A 
ATOM     15  C   UNL     1      13.264  46.256  33.830  1.00  0.00     0.119 A 
ATOM     16  C   UNL     1      12.556  46.608  32.674  1.00  0.00     0.093 A 
ATOM     17  C   UNL     1      13.236  47.102  31.549  1.00  0.00     0.130 A 
BRANCH  15  18
ATOM     18  O   UNL     1      12.596  45.769  34.951  1.00  0.00    -0.508 OA
ATOM     19  H   UNL     1      12.361  46.371  35.732  1.00  0.00     0.293 HD
ENDBRANCH  15  18
BRANCH  17  20
ATOM     20  O   UNL     1      12.515  47.495  30.422  1.00  0.00    -0.507 OA
ATOM     21  H   UNL     1      11.918  46.849  29.920  1.00  0.00     0.293 HD
ENDBRANCH  17  20
ENDBRANCH   1  12
BRANCH   2  22
ATOM     22  O   UNL     1      16.302  45.537  29.931  1.00  0.00    -0.502 OA
ATOM     23  H   UNL     1      15.913  45.142  30.780  1.00  0.00     0.293 HD
ENDBRANCH   2  22
BRANCH   6  24
ATOM     24  O   UNL     1      18.026  48.804  26.090  1.00  0.00    -0.507 OA
ATOM     25  H   UNL     1      17.630  48.580  25.189  1.00  0.00     0.293 HD
ENDBRANCH   6  24
BRANCH   8  26
ATOM     26  O   UNL     1      16.436  53.005  27.787  1.00  0.00    -0.508 OA
ATOM     27  H   UNL     1      16.807  53.488  26.977  1.00  0.00     0.293 HD
ENDBRANCH   8  26
TORSDOF 6
ENDMDL
