MODEL 1
REMARK VINA RESULT:    -3.617      0.000      0.000
REMARK INTER + INTRA:          -9.034
REMARK INTER:                  -6.576
REMARK INTRA:                  -2.457
REMARK UNBOUND:                -2.457
REMARK SMILES CCCCCCCCCCCCCCCC(=O)[O-]
REMARK SMILES IDX 9 1 10 2 11 3 12 4 13 5 14 6 15 7 16 8 17 9 18 10 8 11 7 12
REMARK SMILES IDX 6 13 5 14 4 15 3 16 2 17 1 18
REMARK H PARENT
REMARK Flexibility Score: inf
ROOT
ATOM      1  C   UNL     1      -3.133   6.989  40.154  1.00  0.00     0.000 C 
ENDROOT
BRANCH   1   2
ATOM      2  C   UNL     1      -2.639   8.399  39.787  1.00  0.00     0.000 C 
BRANCH   2   3
ATOM      3  C   UNL     1      -2.294   8.531  38.296  1.00  0.00     0.000 C 
BRANCH   3   4
ATOM      4  C   UNL     1      -1.990   9.984  37.887  1.00  0.00     0.000 C 
BRANCH   4   5
ATOM      5  C   UNL     1      -1.429  10.091  36.460  1.00  0.00     0.000 C 
BRANCH   5   6
ATOM      6  C   UNL     1       0.106  10.080  36.427  1.00  0.00     0.006 C 
BRANCH   6   7
ATOM      7  C   UNL     1       0.640   8.660  36.220  1.00  0.00     0.053 C 
BRANCH   7   8
ATOM      8  C   UNL     1       0.496   8.249  34.789  1.00  0.00     0.041 C 
ATOM      9  O   UNL     1       0.879   9.016  33.867  1.00  0.00    -0.550 OA
ATOM     10  O   UNL     1      -0.107   7.038  34.471  1.00  0.00    -0.550 OA
ENDBRANCH   7   8
ENDBRANCH   6   7
ENDBRANCH   5   6
ENDBRANCH   4   5
ENDBRANCH   3   4
ENDBRANCH   2   3
ENDBRANCH   1   2
BRANCH   1  11
ATOM     11  C   UNL     1      -2.796   5.948  39.075  1.00  0.00     0.000 C 
BRANCH  11  12
ATOM     12  C   UNL     1      -1.567   5.099  39.438  1.00  0.00    -0.000 C 
BRANCH  12  13
ATOM     13  C   UNL     1      -0.384   5.322  38.478  1.00  0.00    -0.000 C 
BRANCH  13  14
ATOM     14  C   UNL     1       0.849   5.993  39.115  1.00  0.00    -0.000 C 
BRANCH  14  15
ATOM     15  C   UNL     1       0.738   6.269  40.628  1.00  0.00    -0.000 C 
BRANCH  15  16
ATOM     16  C   UNL     1       0.798   7.756  41.023  1.00  0.00    -0.000 C 
BRANCH  16  17
ATOM     17  C   UNL     1       1.102   8.676  39.833  1.00  0.00    -0.003 C 
ATOM     18  C   UNL     1       0.748  10.125  40.155  1.00  0.00     0.004 C 
ENDBRANCH  16  17
ENDBRANCH  15  16
ENDBRANCH  14  15
ENDBRANCH  13  14
ENDBRANCH  12  13
ENDBRANCH  11  12
ENDBRANCH   1  11
TORSDOF 14
ENDMDL
MODEL 2
REMARK VINA RESULT:    -3.577      1.655      4.757
REMARK INTER + INTRA:          -8.961
REMARK INTER:                  -6.478
REMARK INTRA:                  -2.483
REMARK UNBOUND:                -2.457
REMARK SMILES CCCCCCCCCCCCCCCC(=O)[O-]
REMARK SMILES IDX 9 1 10 2 11 3 12 4 13 5 14 6 15 7 16 8 17 9 18 10 8 11 7 12
REMARK SMILES IDX 6 13 5 14 4 15 3 16 2 17 1 18
REMARK H PARENT
REMARK Flexibility Score: inf
ROOT
ATOM      1  C   UNL     1       1.860   9.690  38.386  1.00  0.00     0.000 C 
ENDROOT
BRANCH   1   2
ATOM      2  C   UNL     1       1.097  10.125  39.649  1.00  0.00     0.000 C 
BRANCH   2   3
ATOM      3  C   UNL     1       0.709   8.935  40.541  1.00  0.00     0.000 C 
BRANCH   3   4
ATOM      4  C   UNL     1       1.454   7.644  40.160  1.00  0.00     0.000 C 
BRANCH   4   5
ATOM      5  C   UNL     1       0.540   6.408  40.173  1.00  0.00     0.000 C 
BRANCH   5   6
ATOM      6  C   UNL     1       0.724   5.523  38.931  1.00  0.00     0.006 C 
BRANCH   6   7
ATOM      7  C   UNL     1       2.059   5.819  38.242  1.00  0.00     0.053 C 
BRANCH   7   8
ATOM      8  C   UNL     1       2.038   5.332  36.827  1.00  0.00     0.041 C 
ATOM      9  O   UNL     1       2.979   5.623  36.043  1.00  0.00    -0.550 OA
ATOM     10  O   UNL     1       0.955   4.598  36.361  1.00  0.00    -0.550 OA
ENDBRANCH   7   8
ENDBRANCH   6   7
ENDBRANCH   5   6
ENDBRANCH   4   5
ENDBRANCH   3   4
ENDBRANCH   2   3
ENDBRANCH   1   2
BRANCH   1  11
ATOM     11  C   UNL     1       1.066   9.960  37.098  1.00  0.00     0.000 C 
BRANCH  11  12
ATOM     12  C   UNL     1       0.381   8.696  36.552  1.00  0.00    -0.000 C 
BRANCH  12  13
ATOM     13  C   UNL     1      -1.118   8.904  36.274  1.00  0.00    -0.000 C 
BRANCH  13  14
ATOM     14  C   UNL     1      -1.803   9.954  37.171  1.00  0.00    -0.000 C 
BRANCH  14  15
ATOM     15  C   UNL     1      -2.349   9.418  38.510  1.00  0.00    -0.000 C 
BRANCH  15  16
ATOM     16  C   UNL     1      -2.299   7.887  38.664  1.00  0.00    -0.000 C 
BRANCH  16  17
ATOM     17  C   UNL     1      -3.081   7.386  39.886  1.00  0.00    -0.003 C 
ATOM     18  C   UNL     1      -3.539   5.944  39.691  1.00  0.00     0.004 C 
ENDBRANCH  16  17
ENDBRANCH  15  16
ENDBRANCH  14  15
ENDBRANCH  13  14
ENDBRANCH  12  13
ENDBRANCH  11  12
ENDBRANCH   1  11
TORSDOF 14
ENDMDL
MODEL 3
REMARK VINA RESULT:    -3.566      1.794      4.323
REMARK INTER + INTRA:          -8.942
REMARK INTER:                  -6.292
REMARK INTRA:                  -2.651
REMARK UNBOUND:                -2.457
REMARK SMILES CCCCCCCCCCCCCCCC(=O)[O-]
REMARK SMILES IDX 9 1 10 2 11 3 12 4 13 5 14 6 15 7 16 8 17 9 18 10 8 11 7 12
REMARK SMILES IDX 6 13 5 14 4 15 3 16 2 17 1 18
REMARK H PARENT
REMARK Flexibility Score: inf
ROOT
ATOM      1  C   UNL     1       0.076   8.832  36.302  1.00  0.00     0.000 C 
ENDROOT
BRANCH   1   2
ATOM      2  C   UNL     1       0.657  10.081  36.990  1.00  0.00     0.000 C 
BRANCH   2   3
ATOM      3  C   UNL     1       1.726   9.731  38.036  1.00  0.00     0.000 C 
BRANCH   3   4
ATOM      4  C   UNL     1       1.190   9.808  39.477  1.00  0.00     0.000 C 
BRANCH   4   5
ATOM      5  C   UNL     1       0.994   8.420  40.109  1.00  0.00     0.000 C 
BRANCH   5   6
ATOM      6  C   UNL     1       1.745   7.315  39.351  1.00  0.00     0.006 C 
BRANCH   6   7
ATOM      7  C   UNL     1       0.881   6.059  39.217  1.00  0.00     0.053 C 
BRANCH   7   8
ATOM      8  C   UNL     1       0.967   5.509  37.828  1.00  0.00     0.041 C 
ATOM      9  O   UNL     1      -0.081   5.317  37.157  1.00  0.00    -0.550 OA
ATOM     10  O   UNL     1       2.201   5.161  37.293  1.00  0.00    -0.550 OA
ENDBRANCH   7   8
ENDBRANCH   6   7
ENDBRANCH   5   6
ENDBRANCH   4   5
ENDBRANCH   3   4
ENDBRANCH   2   3
ENDBRANCH   1   2
BRANCH   1  11
ATOM     11  C   UNL     1      -1.440   8.697  36.511  1.00  0.00     0.000 C 
BRANCH  11  12
ATOM     12  C   UNL     1      -1.984   9.700  37.542  1.00  0.00    -0.000 C 
BRANCH  12  13
ATOM     13  C   UNL     1      -2.469   9.022  38.835  1.00  0.00    -0.000 C 
BRANCH  13  14
ATOM     14  C   UNL     1      -2.384   7.483  38.831  1.00  0.00    -0.000 C 
BRANCH  14  15
ATOM     15  C   UNL     1      -2.901   6.793  40.109  1.00  0.00    -0.000 C 
BRANCH  15  16
ATOM     16  C   UNL     1      -3.052   7.720  41.330  1.00  0.00    -0.000 C 
BRANCH  16  17
ATOM     17  C   UNL     1      -1.837   7.673  42.267  1.00  0.00    -0.003 C 
ATOM     18  C   UNL     1      -1.287   6.255  42.382  1.00  0.00     0.004 C 
ENDBRANCH  16  17
ENDBRANCH  15  16
ENDBRANCH  14  15
ENDBRANCH  13  14
ENDBRANCH  12  13
ENDBRANCH  11  12
ENDBRANCH   1  11
TORSDOF 14
ENDMDL
MODEL 4
REMARK VINA RESULT:    -3.562      1.353      3.687
REMARK INTER + INTRA:          -8.934
REMARK INTER:                  -6.465
REMARK INTRA:                  -2.469
REMARK UNBOUND:                -2.457
REMARK SMILES CCCCCCCCCCCCCCCC(=O)[O-]
REMARK SMILES IDX 9 1 10 2 11 3 12 4 13 5 14 6 15 7 16 8 17 9 18 10 8 11 7 12
REMARK SMILES IDX 6 13 5 14 4 15 3 16 2 17 1 18
REMARK H PARENT
REMARK Flexibility Score: inf
ROOT
ATOM      1  C   UNL     1       0.895   7.754  39.747  1.00  0.00     0.000 C 
ENDROOT
BRANCH   1   2
ATOM      2  C   UNL     1       1.215   9.221  39.412  1.00  0.00     0.000 C 
BRANCH   2   3
ATOM      3  C   UNL     1       0.527   9.693  38.121  1.00  0.00     0.000 C 
BRANCH   3   4
ATOM      4  C   UNL     1      -0.932  10.125  38.353  1.00  0.00     0.000 C 
BRANCH   4   5
ATOM      5  C   UNL     1      -1.934   9.272  37.560  1.00  0.00     0.000 C 
BRANCH   5   6
ATOM      6  C   UNL     1      -1.510   9.070  36.098  1.00  0.00     0.006 C 
BRANCH   6   7
ATOM      7  C   UNL     1      -1.583   7.591  35.705  1.00  0.00     0.053 C 
BRANCH   7   8
ATOM      8  C   UNL     1      -0.210   7.031  35.514  1.00  0.00     0.041 C 
ATOM      9  O   UNL     1       0.407   6.519  36.485  1.00  0.00    -0.550 OA
ATOM     10  O   UNL     1       0.410   7.118  34.273  1.00  0.00    -0.550 OA
ENDBRANCH   7   8
ENDBRANCH   6   7
ENDBRANCH   5   6
ENDBRANCH   4   5
ENDBRANCH   3   4
ENDBRANCH   2   3
ENDBRANCH   1   2
BRANCH   1  11
ATOM     11  C   UNL     1       0.427   7.571  41.199  1.00  0.00     0.000 C 
BRANCH  11  12
ATOM     12  C   UNL     1      -0.760   8.481  41.555  1.00  0.00    -0.000 C 
BRANCH  12  13
ATOM     13  C   UNL     1      -2.079   7.704  41.712  1.00  0.00    -0.000 C 
BRANCH  13  14
ATOM     14  C   UNL     1      -3.017   7.766  40.490  1.00  0.00    -0.000 C 
BRANCH  14  15
ATOM     15  C   UNL     1      -3.320   6.407  39.826  1.00  0.00    -0.000 C 
BRANCH  15  16
ATOM     16  C   UNL     1      -2.207   5.872  38.906  1.00  0.00    -0.000 C 
BRANCH  16  17
ATOM     17  C   UNL     1      -1.406   4.729  39.544  1.00  0.00    -0.003 C 
ATOM     18  C   UNL     1      -2.110   4.191  40.785  1.00  0.00     0.004 C 
ENDBRANCH  16  17
ENDBRANCH  15  16
ENDBRANCH  14  15
ENDBRANCH  13  14
ENDBRANCH  12  13
ENDBRANCH  11  12
ENDBRANCH   1  11
TORSDOF 14
ENDMDL
MODEL 5
REMARK VINA RESULT:    -3.525      1.486      4.606
REMARK INTER + INTRA:          -8.867
REMARK INTER:                  -6.245
REMARK INTRA:                  -2.622
REMARK UNBOUND:                -2.457
REMARK SMILES CCCCCCCCCCCCCCCC(=O)[O-]
REMARK SMILES IDX 9 1 10 2 11 3 12 4 13 5 14 6 15 7 16 8 17 9 18 10 8 11 7 12
REMARK SMILES IDX 6 13 5 14 4 15 3 16 2 17 1 18
REMARK H PARENT
REMARK Flexibility Score: inf
ROOT
ATOM      1  C   UNL     1       1.765   7.433  38.926  1.00  0.00     0.000 C 
ENDROOT
BRANCH   1   2
ATOM      2  C   UNL     1       1.005   6.995  40.190  1.00  0.00     0.000 C 
BRANCH   2   3
ATOM      3  C   UNL     1       0.511   5.542  40.105  1.00  0.00     0.000 C 
BRANCH   3   4
ATOM      4  C   UNL     1       0.639   4.957  38.687  1.00  0.00     0.000 C 
BRANCH   4   5
ATOM      5  C   UNL     1      -0.645   4.254  38.219  1.00  0.00     0.000 C 
BRANCH   5   6
ATOM      6  C   UNL     1      -1.165   4.802  36.882  1.00  0.00     0.006 C 
BRANCH   6   7
ATOM      7  C   UNL     1      -0.084   5.616  36.166  1.00  0.00     0.053 C 
BRANCH   7   8
ATOM      8  C   UNL     1      -0.674   6.389  35.030  1.00  0.00     0.041 C 
ATOM      9  O   UNL     1      -1.655   7.153  35.225  1.00  0.00    -0.550 OA
ATOM     10  O   UNL     1      -0.173   6.226  33.744  1.00  0.00    -0.550 OA
ENDBRANCH   7   8
ENDBRANCH   6   7
ENDBRANCH   5   6
ENDBRANCH   4   5
ENDBRANCH   3   4
ENDBRANCH   2   3
ENDBRANCH   1   2
BRANCH   1  11
ATOM     11  C   UNL     1       1.465   8.889  38.535  1.00  0.00     0.000 C 
BRANCH  11  12
ATOM     12  C   UNL     1       0.281   9.006  37.561  1.00  0.00    -0.000 C 
BRANCH  12  13
ATOM     13  C   UNL     1      -0.751  10.059  38.002  1.00  0.00    -0.000 C 
BRANCH  13  14
ATOM     14  C   UNL     1      -2.090   9.483  38.504  1.00  0.00    -0.000 C 
BRANCH  14  15
ATOM     15  C   UNL     1      -2.143   7.946  38.612  1.00  0.00    -0.000 C 
BRANCH  15  16
ATOM     16  C   UNL     1      -2.920   7.407  39.827  1.00  0.00    -0.000 C 
BRANCH  16  17
ATOM     17  C   UNL     1      -3.461   5.988  39.607  1.00  0.00    -0.003 C 
ATOM     18  C   UNL     1      -3.137   5.086  40.794  1.00  0.00     0.004 C 
ENDBRANCH  16  17
ENDBRANCH  15  16
ENDBRANCH  14  15
ENDBRANCH  13  14
ENDBRANCH  12  13
ENDBRANCH  11  12
ENDBRANCH   1  11
TORSDOF 14
ENDMDL
MODEL 6
REMARK VINA RESULT:    -3.490      2.065      3.194
REMARK INTER + INTRA:          -8.804
REMARK INTER:                  -6.420
REMARK INTRA:                  -2.383
REMARK UNBOUND:                -2.457
REMARK SMILES CCCCCCCCCCCCCCCC(=O)[O-]
REMARK SMILES IDX 9 1 10 2 11 3 12 4 13 5 14 6 15 7 16 8 17 9 18 10 8 11 7 12
REMARK SMILES IDX 6 13 5 14 4 15 3 16 2 17 1 18
REMARK H PARENT
REMARK Flexibility Score: inf
ROOT
ATOM      1  C   UNL     1      -2.536   9.358  38.600  1.00  0.00     0.000 C 
ENDROOT
BRANCH   1   2
ATOM      2  C   UNL     1      -1.828   9.767  37.296  1.00  0.00     0.000 C 
BRANCH   2   3
ATOM      3  C   UNL     1      -1.527   8.564  36.388  1.00  0.00     0.000 C 
BRANCH   3   4
ATOM      4  C   UNL     1      -0.242   8.754  35.563  1.00  0.00     0.000 C 
BRANCH   4   5
ATOM      5  C   UNL     1       0.654   7.505  35.568  1.00  0.00     0.000 C 
BRANCH   5   6
ATOM      6  C   UNL     1       0.190   6.450  36.584  1.00  0.00     0.006 C 
BRANCH   6   7
ATOM      7  C   UNL     1       1.383   5.856  37.338  1.00  0.00     0.053 C 
BRANCH   7   8
ATOM      8  C   UNL     1       2.225   5.027  36.420  1.00  0.00     0.041 C 
ATOM      9  O   UNL     1       3.442   5.302  36.256  1.00  0.00    -0.550 OA
ATOM     10  O   UNL     1       1.652   3.982  35.706  1.00  0.00    -0.550 OA
ENDBRANCH   7   8
ENDBRANCH   6   7
ENDBRANCH   5   6
ENDBRANCH   4   5
ENDBRANCH   3   4
ENDBRANCH   2   3
ENDBRANCH   1   2
BRANCH   1  11
ATOM     11  C   UNL     1      -2.309   7.880  38.953  1.00  0.00     0.000 C 
BRANCH  11  12
ATOM     12  C   UNL     1      -3.034   7.465  40.244  1.00  0.00    -0.000 C 
BRANCH  12  13
ATOM     13  C   UNL     1      -2.261   7.860  41.515  1.00  0.00    -0.000 C 
BRANCH  13  14
ATOM     14  C   UNL     1      -0.727   7.753  41.400  1.00  0.00    -0.000 C 
BRANCH  14  15
ATOM     15  C   UNL     1       0.044   9.058  41.681  1.00  0.00    -0.000 C 
BRANCH  15  16
ATOM     16  C   UNL     1       0.525   9.812  40.428  1.00  0.00    -0.000 C 
BRANCH  16  17
ATOM     17  C   UNL     1       1.167   8.885  39.386  1.00  0.00    -0.003 C 
ATOM     18  C   UNL     1       1.972   9.682  38.364  1.00  0.00     0.004 C 
ENDBRANCH  16  17
ENDBRANCH  15  16
ENDBRANCH  14  15
ENDBRANCH  13  14
ENDBRANCH  12  13
ENDBRANCH  11  12
ENDBRANCH   1  11
TORSDOF 14
ENDMDL
MODEL 7
REMARK VINA RESULT:    -3.474      1.230      2.837
REMARK INTER + INTRA:          -8.775
REMARK INTER:                  -6.068
REMARK INTRA:                  -2.707
REMARK UNBOUND:                -2.457
REMARK SMILES CCCCCCCCCCCCCCCC(=O)[O-]
REMARK SMILES IDX 9 1 10 2 11 3 12 4 13 5 14 6 15 7 16 8 17 9 18 10 8 11 7 12
REMARK SMILES IDX 6 13 5 14 4 15 3 16 2 17 1 18
REMARK H PARENT
REMARK Flexibility Score: inf
ROOT
ATOM      1  C   UNL     1      -2.631   6.178  41.402  1.00  0.00     0.000 C 
ENDROOT
BRANCH   1   2
ATOM      2  C   UNL     1      -3.157   6.731  40.066  1.00  0.00     0.000 C 
BRANCH   2   3
ATOM      3  C   UNL     1      -2.985   8.254  39.952  1.00  0.00     0.000 C 
BRANCH   3   4
ATOM      4  C   UNL     1      -2.334   8.676  38.623  1.00  0.00     0.000 C 
BRANCH   4   5
ATOM      5  C   UNL     1      -1.152   9.639  38.824  1.00  0.00     0.000 C 
BRANCH   5   6
ATOM      6  C   UNL     1      -0.400   9.931  37.517  1.00  0.00     0.006 C 
BRANCH   6   7
ATOM      7  C   UNL     1      -1.140   9.337  36.315  1.00  0.00     0.053 C 
BRANCH   7   8
ATOM      8  C   UNL     1      -0.189   8.602  35.425  1.00  0.00     0.041 C 
ATOM      9  O   UNL     1      -0.552   7.546  34.845  1.00  0.00    -0.550 OA
ATOM     10  O   UNL     1       1.116   9.057  35.275  1.00  0.00    -0.550 OA
ENDBRANCH   7   8
ENDBRANCH   6   7
ENDBRANCH   5   6
ENDBRANCH   4   5
ENDBRANCH   3   4
ENDBRANCH   2   3
ENDBRANCH   1   2
BRANCH   1  11
ATOM     11  C   UNL     1      -2.104   7.284  42.330  1.00  0.00     0.000 C 
BRANCH  11  12
ATOM     12  C   UNL     1      -0.623   7.092  42.694  1.00  0.00    -0.000 C 
BRANCH  12  13
ATOM     13  C   UNL     1       0.331   7.676  41.637  1.00  0.00    -0.000 C 
BRANCH  13  14
ATOM     14  C   UNL     1       1.044   6.629  40.758  1.00  0.00    -0.000 C 
BRANCH  14  15
ATOM     15  C   UNL     1       1.544   7.149  39.395  1.00  0.00    -0.000 C 
BRANCH  15  16
ATOM     16  C   UNL     1       0.892   6.484  38.168  1.00  0.00    -0.000 C 
BRANCH  16  17
ATOM     17  C   UNL     1      -0.264   5.548  38.543  1.00  0.00    -0.003 C 
ATOM     18  C   UNL     1      -1.013   5.076  37.300  1.00  0.00     0.004 C 
ENDBRANCH  16  17
ENDBRANCH  15  16
ENDBRANCH  14  15
ENDBRANCH  13  14
ENDBRANCH  12  13
ENDBRANCH  11  12
ENDBRANCH   1  11
TORSDOF 14
ENDMDL
MODEL 8
REMARK VINA RESULT:    -3.444      1.507      3.556
REMARK INTER + INTRA:          -8.721
REMARK INTER:                  -6.122
REMARK INTRA:                  -2.599
REMARK UNBOUND:                -2.457
REMARK SMILES CCCCCCCCCCCCCCCC(=O)[O-]
REMARK SMILES IDX 9 1 10 2 11 3 12 4 13 5 14 6 15 7 16 8 17 9 18 10 8 11 7 12
REMARK SMILES IDX 6 13 5 14 4 15 3 16 2 17 1 18
REMARK H PARENT
REMARK Flexibility Score: inf
ROOT
ATOM      1  C   UNL     1      -3.276   7.348  40.136  1.00  0.00     0.000 C 
ENDROOT
BRANCH   1   2
ATOM      2  C   UNL     1      -3.125   5.868  39.744  1.00  0.00     0.000 C 
BRANCH   2   3
ATOM      3  C   UNL     1      -1.656   5.417  39.703  1.00  0.00     0.000 C 
BRANCH   3   4
ATOM      4  C   UNL     1      -1.285   4.735  38.374  1.00  0.00     0.000 C 
BRANCH   4   5
ATOM      5  C   UNL     1      -2.170   5.195  37.205  1.00  0.00     0.000 C 
BRANCH   5   6
ATOM      6  C   UNL     1      -1.381   5.964  36.135  1.00  0.00     0.006 C 
BRANCH   6   7
ATOM      7  C   UNL     1      -0.045   5.277  35.841  1.00  0.00     0.053 C 
BRANCH   7   8
ATOM      8  C   UNL     1       0.695   6.007  34.764  1.00  0.00     0.041 C 
ATOM      9  O   UNL     1       1.953   6.023  34.759  1.00  0.00    -0.550 OA
ATOM     10  O   UNL     1      -0.007   6.711  33.794  1.00  0.00    -0.550 OA
ENDBRANCH   7   8
ENDBRANCH   6   7
ENDBRANCH   5   6
ENDBRANCH   4   5
ENDBRANCH   3   4
ENDBRANCH   2   3
ENDBRANCH   1   2
BRANCH   1  11
ATOM     11  C   UNL     1      -2.049   8.187  39.748  1.00  0.00     0.000 C 
BRANCH  11  12
ATOM     12  C   UNL     1      -2.218   8.885  38.388  1.00  0.00    -0.000 C 
BRANCH  12  13
ATOM     13  C   UNL     1      -1.065   9.852  38.068  1.00  0.00    -0.000 C 
BRANCH  13  14
ATOM     14  C   UNL     1      -0.203   9.453  36.853  1.00  0.00    -0.000 C 
BRANCH  14  15
ATOM     15  C   UNL     1       1.103   8.706  37.193  1.00  0.00    -0.000 C 
BRANCH  15  16
ATOM     16  C   UNL     1       1.516   8.763  38.675  1.00  0.00    -0.000 C 
BRANCH  16  17
ATOM     17  C   UNL     1       1.533   7.381  39.342  1.00  0.00    -0.003 C 
ATOM     18  C   UNL     1       2.253   6.359  38.469  1.00  0.00     0.004 C 
ENDBRANCH  16  17
ENDBRANCH  15  16
ENDBRANCH  14  15
ENDBRANCH  13  14
ENDBRANCH  12  13
ENDBRANCH  11  12
ENDBRANCH   1  11
TORSDOF 14
ENDMDL
MODEL 9
REMARK VINA RESULT:    -3.425      2.072      3.296
REMARK INTER + INTRA:          -8.685
REMARK INTER:                  -6.311
REMARK INTRA:                  -2.374
REMARK UNBOUND:                -2.457
REMARK SMILES CCCCCCCCCCCCCCCC(=O)[O-]
REMARK SMILES IDX 9 1 10 2 11 3 12 4 13 5 14 6 15 7 16 8 17 9 18 10 8 11 7 12
REMARK SMILES IDX 6 13 5 14 4 15 3 16 2 17 1 18
REMARK H PARENT
REMARK Flexibility Score: inf
ROOT
ATOM      1  C   UNL     1      -2.946   6.664  39.398  1.00  0.00     0.000 C 
ENDROOT
BRANCH   1   2
ATOM      2  C   UNL     1      -1.904   5.574  39.703  1.00  0.00     0.000 C 
BRANCH   2   3
ATOM      3  C   UNL     1      -1.079   5.187  38.466  1.00  0.00     0.000 C 
BRANCH   3   4
ATOM      4  C   UNL     1      -1.892   5.276  37.162  1.00  0.00     0.000 C 
BRANCH   4   5
ATOM      5  C   UNL     1      -1.071   5.840  35.992  1.00  0.00     0.000 C 
BRANCH   5   6
ATOM      6  C   UNL     1      -0.539   7.254  36.270  1.00  0.00     0.006 C 
BRANCH   6   7
ATOM      7  C   UNL     1      -1.636   8.302  36.061  1.00  0.00     0.053 C 
BRANCH   7   8
ATOM      8  C   UNL     1      -1.332   9.543  36.839  1.00  0.00     0.041 C 
ATOM      9  O   UNL     1      -0.224  10.124  36.697  1.00  0.00    -0.550 OA
ATOM     10  O   UNL     1      -2.252  10.029  37.759  1.00  0.00    -0.550 OA
ENDBRANCH   7   8
ENDBRANCH   6   7
ENDBRANCH   5   6
ENDBRANCH   4   5
ENDBRANCH   3   4
ENDBRANCH   2   3
ENDBRANCH   1   2
BRANCH   1  11
ATOM     11  C   UNL     1      -2.880   7.836  40.390  1.00  0.00     0.000 C 
BRANCH  11  12
ATOM     12  C   UNL     1      -2.984   7.375  41.853  1.00  0.00    -0.000 C 
BRANCH  12  13
ATOM     13  C   UNL     1      -1.846   7.925  42.732  1.00  0.00    -0.000 C 
BRANCH  13  14
ATOM     14  C   UNL     1      -0.521   7.143  42.641  1.00  0.00    -0.000 C 
BRANCH  14  15
ATOM     15  C   UNL     1       0.694   7.966  42.166  1.00  0.00    -0.000 C 
BRANCH  15  16
ATOM     16  C   UNL     1       0.361   9.382  41.660  1.00  0.00    -0.000 C 
BRANCH  16  17
ATOM     17  C   UNL     1       0.538   9.529  40.143  1.00  0.00    -0.003 C 
ATOM     18  C   UNL     1       1.032   8.228  39.518  1.00  0.00     0.004 C 
ENDBRANCH  16  17
ENDBRANCH  15  16
ENDBRANCH  14  15
ENDBRANCH  13  14
ENDBRANCH  12  13
ENDBRANCH  11  12
ENDBRANCH   1  11
TORSDOF 14
ENDMDL
