MODEL 1
REMARK VINA RESULT:    -4.522      0.000      0.000
REMARK INTER + INTRA:         -10.161
REMARK INTER:                  -8.752
REMARK INTRA:                  -1.408
REMARK UNBOUND:                -1.408
REMARK SMILES CCCCCCCCCCCCCCCCCC(=O)[O-]
REMARK SMILES IDX 10 1 11 2 12 3 13 4 14 5 15 6 16 7 17 8 18 9 19 10 20 11
REMARK SMILES IDX 9 12 8 13 7 14 6 15 5 16 4 17 3 18 2 19 1 20
REMARK H PARENT
REMARK Flexibility Score: inf
ROOT
ATOM      1  C   UNL     1      -8.137   5.776  -7.326  1.00  0.00     0.000 C 
ENDROOT
BRANCH   1   2
ATOM      2  C   UNL     1      -6.760   5.952  -7.991  1.00  0.00     0.000 C 
BRANCH   2   3
ATOM      3  C   UNL     1      -5.896   7.022  -7.302  1.00  0.00     0.000 C 
BRANCH   3   4
ATOM      4  C   UNL     1      -6.641   7.764  -6.178  1.00  0.00     0.000 C 
BRANCH   4   5
ATOM      5  C   UNL     1      -5.980   7.685  -4.789  1.00  0.00     0.000 C 
BRANCH   5   6
ATOM      6  C   UNL     1      -4.965   6.539  -4.671  1.00  0.00     0.000 C 
BRANCH   6   7
ATOM      7  C   UNL     1      -5.395   5.533  -3.594  1.00  0.00     0.006 C 
BRANCH   7   8
ATOM      8  C   UNL     1      -6.649   4.746  -3.999  1.00  0.00     0.053 C 
BRANCH   8   9
ATOM      9  C   UNL     1      -7.854   5.180  -3.224  1.00  0.00     0.041 C 
ATOM     10  O   UNL     1      -8.800   5.776  -3.804  1.00  0.00    -0.550 OA
ATOM     11  O   UNL     1      -7.950   4.895  -1.868  1.00  0.00    -0.550 OA
ENDBRANCH   8   9
ENDBRANCH   7   8
ENDBRANCH   6   7
ENDBRANCH   5   6
ENDBRANCH   4   5
ENDBRANCH   3   4
ENDBRANCH   2   3
ENDBRANCH   1   2
BRANCH   1  12
ATOM     12  C   UNL     1      -9.326   5.621  -8.297  1.00  0.00     0.000 C 
BRANCH  12  13
ATOM     13  C   UNL     1      -9.157   4.528  -9.368  1.00  0.00    -0.000 C 
BRANCH  13  14
ATOM     14  C   UNL     1      -9.479   5.026 -10.784  1.00  0.00    -0.000 C 
BRANCH  14  15
ATOM     15  C   UNL     1      -8.201   5.165 -11.620  1.00  0.00    -0.000 C 
BRANCH  15  16
ATOM     16  C   UNL     1      -8.381   4.536 -13.009  1.00  0.00    -0.000 C 
BRANCH  16  17
ATOM     17  C   UNL     1      -8.155   5.536 -14.156  1.00  0.00    -0.000 C 
BRANCH  17  18
ATOM     18  C   UNL     1      -6.923   5.251 -15.035  1.00  0.00    -0.000 C 
BRANCH  18  19
ATOM     19  C   UNL     1      -5.926   4.289 -14.374  1.00  0.00    -0.003 C 
ATOM     20  C   UNL     1      -5.637   3.092 -15.274  1.00  0.00     0.004 C 
ENDBRANCH  18  19
ENDBRANCH  17  18
ENDBRANCH  16  17
ENDBRANCH  15  16
ENDBRANCH  14  15
ENDBRANCH  13  14
ENDBRANCH  12  13
ENDBRANCH   1  12
TORSDOF 16
ENDMDL
MODEL 2
REMARK VINA RESULT:    -4.488      1.791      3.719
REMARK INTER + INTRA:         -10.094
REMARK INTER:                  -9.082
REMARK INTRA:                  -1.012
REMARK UNBOUND:                -1.408
REMARK SMILES CCCCCCCCCCCCCCCCCC(=O)[O-]
REMARK SMILES IDX 10 1 11 2 12 3 13 4 14 5 15 6 16 7 17 8 18 9 19 10 20 11
REMARK SMILES IDX 9 12 8 13 7 14 6 15 5 16 4 17 3 18 2 19 1 20
REMARK H PARENT
REMARK Flexibility Score: inf
ROOT
ATOM      1  C   UNL     1      -8.742   4.689 -11.862  1.00  0.00     0.000 C 
ENDROOT
BRANCH   1   2
ATOM      2  C   UNL     1      -9.563   5.179 -10.656  1.00  0.00     0.000 C 
BRANCH   2   3
ATOM      3  C   UNL     1      -9.189   4.463  -9.347  1.00  0.00     0.000 C 
BRANCH   3   4
ATOM      4  C   UNL     1      -8.931   5.436  -8.183  1.00  0.00     0.000 C 
BRANCH   4   5
ATOM      5  C   UNL     1      -7.448   5.698  -7.863  1.00  0.00     0.000 C 
BRANCH   5   6
ATOM      6  C   UNL     1      -7.216   6.148  -6.413  1.00  0.00     0.000 C 
BRANCH   6   7
ATOM      7  C   UNL     1      -7.863   5.167  -5.424  1.00  0.00     0.006 C 
BRANCH   7   8
ATOM      8  C   UNL     1      -6.960   4.879  -4.217  1.00  0.00     0.053 C 
BRANCH   8   9
ATOM      9  C   UNL     1      -7.511   5.469  -2.956  1.00  0.00     0.041 C 
ATOM     10  O   UNL     1      -7.579   6.719  -2.817  1.00  0.00    -0.550 OA
ATOM     11  O   UNL     1      -7.984   4.639  -1.947  1.00  0.00    -0.550 OA
ENDBRANCH   8   9
ENDBRANCH   7   8
ENDBRANCH   6   7
ENDBRANCH   5   6
ENDBRANCH   4   5
ENDBRANCH   3   4
ENDBRANCH   2   3
ENDBRANCH   1   2
BRANCH   1  12
ATOM     12  C   UNL     1      -7.514   5.551 -12.222  1.00  0.00     0.000 C 
BRANCH  12  13
ATOM     13  C   UNL     1      -6.376   4.802 -12.938  1.00  0.00    -0.000 C 
BRANCH  13  14
ATOM     14  C   UNL     1      -6.854   4.043 -14.184  1.00  0.00    -0.000 C 
BRANCH  14  15
ATOM     15  C   UNL     1      -6.045   4.453 -15.420  1.00  0.00    -0.000 C 
BRANCH  15  16
ATOM     16  C   UNL     1      -6.245   5.942 -15.740  1.00  0.00    -0.000 C 
BRANCH  16  17
ATOM     17  C   UNL     1      -7.711   6.300 -16.044  1.00  0.00    -0.000 C 
BRANCH  17  18
ATOM     18  C   UNL     1      -7.905   7.446 -17.053  1.00  0.00    -0.000 C 
BRANCH  18  19
ATOM     19  C   UNL     1      -8.915   7.107 -18.158  1.00  0.00    -0.003 C 
ATOM     20  C   UNL     1      -8.710   5.686 -18.674  1.00  0.00     0.004 C 
ENDBRANCH  18  19
ENDBRANCH  17  18
ENDBRANCH  16  17
ENDBRANCH  15  16
ENDBRANCH  14  15
ENDBRANCH  13  14
ENDBRANCH  12  13
ENDBRANCH   1  12
TORSDOF 16
ENDMDL
MODEL 3
REMARK VINA RESULT:    -4.481      2.018      4.532
REMARK INTER + INTRA:         -10.080
REMARK INTER:                  -8.915
REMARK INTRA:                  -1.165
REMARK UNBOUND:                -1.408
REMARK SMILES CCCCCCCCCCCCCCCCCC(=O)[O-]
REMARK SMILES IDX 10 1 11 2 12 3 13 4 14 5 15 6 16 7 17 8 18 9 19 10 20 11
REMARK SMILES IDX 9 12 8 13 7 14 6 15 5 16 4 17 3 18 2 19 1 20
REMARK H PARENT
REMARK Flexibility Score: inf
ROOT
ATOM      1  C   UNL     1      -8.770   4.480 -12.974  1.00  0.00     0.000 C 
ENDROOT
BRANCH   1   2
ATOM      2  C   UNL     1      -8.412   5.089 -11.607  1.00  0.00     0.000 C 
BRANCH   2   3
ATOM      3  C   UNL     1      -9.597   5.092 -10.625  1.00  0.00     0.000 C 
BRANCH   3   4
ATOM      4  C   UNL     1      -9.237   4.505  -9.248  1.00  0.00     0.000 C 
BRANCH   4   5
ATOM      5  C   UNL     1      -9.111   5.533  -8.109  1.00  0.00     0.000 C 
BRANCH   5   6
ATOM      6  C   UNL     1      -7.709   5.569  -7.485  1.00  0.00     0.000 C 
BRANCH   6   7
ATOM      7  C   UNL     1      -7.763   5.218  -5.991  1.00  0.00     0.006 C 
BRANCH   7   8
ATOM      8  C   UNL     1      -9.109   5.590  -5.355  1.00  0.00     0.053 C 
BRANCH   8   9
ATOM      9  C   UNL     1      -8.938   6.504  -4.182  1.00  0.00     0.041 C 
ATOM     10  O   UNL     1      -9.674   7.519  -4.056  1.00  0.00    -0.550 OA
ATOM     11  O   UNL     1      -7.990   6.218  -3.208  1.00  0.00    -0.550 OA
ENDBRANCH   8   9
ENDBRANCH   7   8
ENDBRANCH   6   7
ENDBRANCH   5   6
ENDBRANCH   4   5
ENDBRANCH   3   4
ENDBRANCH   2   3
ENDBRANCH   1   2
BRANCH   1  12
ATOM     12  C   UNL     1      -7.903   4.957 -14.158  1.00  0.00     0.000 C 
BRANCH  12  13
ATOM     13  C   UNL     1      -6.404   5.114 -13.849  1.00  0.00    -0.000 C 
BRANCH  13  14
ATOM     14  C   UNL     1      -5.518   4.940 -15.091  1.00  0.00    -0.000 C 
BRANCH  14  15
ATOM     15  C   UNL     1      -5.013   6.296 -15.599  1.00  0.00    -0.000 C 
BRANCH  15  16
ATOM     16  C   UNL     1      -5.543   6.587 -17.010  1.00  0.00    -0.000 C 
BRANCH  16  17
ATOM     17  C   UNL     1      -6.517   7.778 -17.052  1.00  0.00    -0.000 C 
BRANCH  17  18
ATOM     18  C   UNL     1      -8.009   7.398 -17.046  1.00  0.00    -0.000 C 
BRANCH  18  19
ATOM     19  C   UNL     1      -8.273   5.995 -17.611  1.00  0.00    -0.003 C 
ATOM     20  C   UNL     1      -8.639   6.058 -19.091  1.00  0.00     0.004 C 
ENDBRANCH  18  19
ENDBRANCH  17  18
ENDBRANCH  16  17
ENDBRANCH  15  16
ENDBRANCH  14  15
ENDBRANCH  13  14
ENDBRANCH  12  13
ENDBRANCH   1  12
TORSDOF 16
ENDMDL
MODEL 4
REMARK VINA RESULT:    -4.480      1.978      3.476
REMARK INTER + INTRA:         -10.078
REMARK INTER:                  -9.025
REMARK INTRA:                  -1.053
REMARK UNBOUND:                -1.408
REMARK SMILES CCCCCCCCCCCCCCCCCC(=O)[O-]
REMARK SMILES IDX 10 1 11 2 12 3 13 4 14 5 15 6 16 7 17 8 18 9 19 10 20 11
REMARK SMILES IDX 9 12 8 13 7 14 6 15 5 16 4 17 3 18 2 19 1 20
REMARK H PARENT
REMARK Flexibility Score: inf
ROOT
ATOM      1  C   UNL     1      -9.499   5.108 -10.645  1.00  0.00     0.000 C 
ENDROOT
BRANCH   1   2
ATOM      2  C   UNL     1      -9.370   4.486  -9.244  1.00  0.00     0.000 C 
BRANCH   2   3
ATOM      3  C   UNL     1      -9.068   5.527  -8.153  1.00  0.00     0.000 C 
BRANCH   3   4
ATOM      4  C   UNL     1      -7.577   5.587  -7.776  1.00  0.00     0.000 C 
BRANCH   4   5
ATOM      5  C   UNL     1      -7.277   6.148  -6.373  1.00  0.00     0.000 C 
BRANCH   5   6
ATOM      6  C   UNL     1      -7.591   5.152  -5.248  1.00  0.00     0.000 C 
BRANCH   6   7
ATOM      7  C   UNL     1      -8.818   5.602  -4.442  1.00  0.00     0.006 C 
BRANCH   7   8
ATOM      8  C   UNL     1      -9.152   7.082  -4.670  1.00  0.00     0.053 C 
BRANCH   8   9
ATOM      9  C   UNL     1      -9.474   7.785  -3.388  1.00  0.00     0.041 C 
ATOM     10  O   UNL     1      -9.602   9.038  -3.367  1.00  0.00    -0.550 OA
ATOM     11  O   UNL     1      -9.668   7.054  -2.222  1.00  0.00    -0.550 OA
ENDBRANCH   8   9
ENDBRANCH   7   8
ENDBRANCH   6   7
ENDBRANCH   5   6
ENDBRANCH   4   5
ENDBRANCH   3   4
ENDBRANCH   2   3
ENDBRANCH   1   2
BRANCH   1  12
ATOM     12  C   UNL     1      -8.318   4.837 -11.601  1.00  0.00     0.000 C 
BRANCH  12  13
ATOM     13  C   UNL     1      -8.714   4.495 -13.048  1.00  0.00    -0.000 C 
BRANCH  13  14
ATOM     14  C   UNL     1      -7.864   5.237 -14.090  1.00  0.00    -0.000 C 
BRANCH  14  15
ATOM     15  C   UNL     1      -6.408   5.356 -13.626  1.00  0.00    -0.000 C 
BRANCH  15  16
ATOM     16  C   UNL     1      -5.463   5.544 -14.821  1.00  0.00    -0.000 C 
BRANCH  16  17
ATOM     17  C   UNL     1      -6.209   5.773 -16.147  1.00  0.00    -0.000 C 
BRANCH  17  18
ATOM     18  C   UNL     1      -5.669   6.932 -17.006  1.00  0.00    -0.000 C 
BRANCH  18  19
ATOM     19  C   UNL     1      -6.751   7.955 -17.379  1.00  0.00    -0.003 C 
ATOM     20  C   UNL     1      -8.102   7.569 -16.784  1.00  0.00     0.004 C 
ENDBRANCH  18  19
ENDBRANCH  17  18
ENDBRANCH  16  17
ENDBRANCH  15  16
ENDBRANCH  14  15
ENDBRANCH  13  14
ENDBRANCH  12  13
ENDBRANCH   1  12
TORSDOF 16
ENDMDL
MODEL 5
REMARK VINA RESULT:    -4.412      4.744      9.903
REMARK INTER + INTRA:          -9.948
REMARK INTER:                  -8.986
REMARK INTRA:                  -0.962
REMARK UNBOUND:                -1.408
REMARK SMILES CCCCCCCCCCCCCCCCCC(=O)[O-]
REMARK SMILES IDX 10 1 11 2 12 3 13 4 14 5 15 6 16 7 17 8 18 9 19 10 20 11
REMARK SMILES IDX 9 12 8 13 7 14 6 15 5 16 4 17 3 18 2 19 1 20
REMARK H PARENT
REMARK Flexibility Score: inf
ROOT
ATOM      1  C   UNL     1      -9.225   4.529  -9.192  1.00  0.00     0.000 C 
ENDROOT
BRANCH   1   2
ATOM      2  C   UNL     1      -9.569   5.065 -10.593  1.00  0.00     0.000 C 
BRANCH   2   3
ATOM      3  C   UNL     1      -8.340   5.168 -11.512  1.00  0.00     0.000 C 
BRANCH   3   4
ATOM      4  C   UNL     1      -8.565   4.521 -12.890  1.00  0.00     0.000 C 
BRANCH   4   5
ATOM      5  C   UNL     1      -7.285   4.233 -13.697  1.00  0.00     0.000 C 
BRANCH   5   6
ATOM      6  C   UNL     1      -6.250   5.363 -13.605  1.00  0.00     0.000 C 
BRANCH   6   7
ATOM      7  C   UNL     1      -5.601   5.626 -14.972  1.00  0.00     0.006 C 
BRANCH   7   8
ATOM      8  C   UNL     1      -6.489   5.166 -16.135  1.00  0.00     0.053 C 
BRANCH   8   9
ATOM      9  C   UNL     1      -7.158   6.321 -16.816  1.00  0.00     0.041 C 
ATOM     10  O   UNL     1      -8.020   7.005 -16.203  1.00  0.00    -0.550 OA
ATOM     11  O   UNL     1      -6.803   6.664 -18.114  1.00  0.00    -0.550 OA
ENDBRANCH   8   9
ENDBRANCH   7   8
ENDBRANCH   6   7
ENDBRANCH   5   6
ENDBRANCH   4   5
ENDBRANCH   3   4
ENDBRANCH   2   3
ENDBRANCH   1   2
BRANCH   1  12
ATOM     12  C   UNL     1      -8.923   5.604  -8.127  1.00  0.00     0.000 C 
BRANCH  12  13
ATOM     13  C   UNL     1      -7.441   5.733  -7.730  1.00  0.00    -0.000 C 
BRANCH  13  14
ATOM     14  C   UNL     1      -7.251   6.212  -6.284  1.00  0.00    -0.000 C 
BRANCH  14  15
ATOM     15  C   UNL     1      -7.701   5.138  -5.287  1.00  0.00    -0.000 C 
BRANCH  15  16
ATOM     16  C   UNL     1      -8.561   5.749  -4.171  1.00  0.00    -0.000 C 
BRANCH  16  17
ATOM     17  C   UNL     1      -9.279   7.039  -4.604  1.00  0.00    -0.000 C 
BRANCH  17  18
ATOM     18  C   UNL     1      -9.226   8.188  -3.580  1.00  0.00    -0.000 C 
BRANCH  18  19
ATOM     19  C   UNL     1     -10.481   8.263  -2.698  1.00  0.00    -0.003 C 
ATOM     20  C   UNL     1     -11.322   9.489  -3.043  1.00  0.00     0.004 C 
ENDBRANCH  18  19
ENDBRANCH  17  18
ENDBRANCH  16  17
ENDBRANCH  15  16
ENDBRANCH  14  15
ENDBRANCH  13  14
ENDBRANCH  12  13
ENDBRANCH   1  12
TORSDOF 16
ENDMDL
MODEL 6
REMARK VINA RESULT:    -4.365      2.147      5.936
REMARK INTER + INTRA:          -9.856
REMARK INTER:                  -8.165
REMARK INTRA:                  -1.691
REMARK UNBOUND:                -1.408
REMARK SMILES CCCCCCCCCCCCCCCCCC(=O)[O-]
REMARK SMILES IDX 10 1 11 2 12 3 13 4 14 5 15 6 16 7 17 8 18 9 19 10 20 11
REMARK SMILES IDX 9 12 8 13 7 14 6 15 5 16 4 17 3 18 2 19 1 20
REMARK H PARENT
REMARK Flexibility Score: inf
ROOT
ATOM      1  C   UNL     1      -5.919   4.984 -14.341  1.00  0.00     0.000 C 
ENDROOT
BRANCH   1   2
ATOM      2  C   UNL     1      -7.350   5.397 -13.955  1.00  0.00     0.000 C 
BRANCH   2   3
ATOM      3  C   UNL     1      -7.555   5.489 -12.433  1.00  0.00     0.000 C 
BRANCH   3   4
ATOM      4  C   UNL     1      -8.698   4.593 -11.925  1.00  0.00     0.000 C 
BRANCH   4   5
ATOM      5  C   UNL     1      -9.508   5.166 -10.747  1.00  0.00     0.000 C 
BRANCH   5   6
ATOM      6  C   UNL     1      -9.222   4.452  -9.418  1.00  0.00     0.000 C 
BRANCH   6   7
ATOM      7  C   UNL     1      -9.109   5.460  -8.265  1.00  0.00     0.006 C 
BRANCH   7   8
ATOM      8  C   UNL     1      -7.684   5.541  -7.702  1.00  0.00     0.053 C 
BRANCH   8   9
ATOM      9  C   UNL     1      -7.680   5.871  -6.241  1.00  0.00     0.041 C 
ATOM     10  O   UNL     1      -7.730   4.950  -5.383  1.00  0.00    -0.550 OA
ATOM     11  O   UNL     1      -7.584   7.193  -5.826  1.00  0.00    -0.550 OA
ENDBRANCH   8   9
ENDBRANCH   7   8
ENDBRANCH   6   7
ENDBRANCH   5   6
ENDBRANCH   4   5
ENDBRANCH   3   4
ENDBRANCH   2   3
ENDBRANCH   1   2
BRANCH   1  12
ATOM     12  C   UNL     1      -5.743   3.506 -14.748  1.00  0.00     0.000 C 
BRANCH  12  13
ATOM     13  C   UNL     1      -5.329   3.276 -16.213  1.00  0.00    -0.000 C 
BRANCH  13  14
ATOM     14  C   UNL     1      -4.662   4.507 -16.844  1.00  0.00    -0.000 C 
BRANCH  14  15
ATOM     15  C   UNL     1      -5.015   4.620 -18.331  1.00  0.00    -0.000 C 
BRANCH  15  16
ATOM     16  C   UNL     1      -6.521   4.423 -18.556  1.00  0.00    -0.000 C 
BRANCH  16  17
ATOM     17  C   UNL     1      -7.283   5.750 -18.717  1.00  0.00    -0.000 C 
BRANCH  17  18
ATOM     18  C   UNL     1      -8.228   6.103 -17.554  1.00  0.00    -0.000 C 
BRANCH  18  19
ATOM     19  C   UNL     1      -7.973   7.504 -16.979  1.00  0.00    -0.003 C 
ATOM     20  C   UNL     1      -6.481   7.824 -16.953  1.00  0.00     0.004 C 
ENDBRANCH  18  19
ENDBRANCH  17  18
ENDBRANCH  16  17
ENDBRANCH  15  16
ENDBRANCH  14  15
ENDBRANCH  13  14
ENDBRANCH  12  13
ENDBRANCH   1  12
TORSDOF 16
ENDMDL
MODEL 7
REMARK VINA RESULT:    -4.300      3.947      9.726
REMARK INTER + INTRA:          -9.731
REMARK INTER:                  -8.593
REMARK INTRA:                  -1.138
REMARK UNBOUND:                -1.408
REMARK SMILES CCCCCCCCCCCCCCCCCC(=O)[O-]
REMARK SMILES IDX 10 1 11 2 12 3 13 4 14 5 15 6 16 7 17 8 18 9 19 10 20 11
REMARK SMILES IDX 9 12 8 13 7 14 6 15 5 16 4 17 3 18 2 19 1 20
REMARK H PARENT
REMARK Flexibility Score: inf
ROOT
ATOM      1  C   UNL     1      -8.404   5.264  -7.234  1.00  0.00     0.000 C 
ENDROOT
BRANCH   1   2
ATOM      2  C   UNL     1      -9.183   5.616  -8.514  1.00  0.00     0.000 C 
BRANCH   2   3
ATOM      3  C   UNL     1      -9.169   4.481  -9.552  1.00  0.00     0.000 C 
BRANCH   3   4
ATOM      4  C   UNL     1      -9.377   4.983 -10.993  1.00  0.00     0.000 C 
BRANCH   4   5
ATOM      5  C   UNL     1      -8.109   5.010 -11.867  1.00  0.00     0.000 C 
BRANCH   5   6
ATOM      6  C   UNL     1      -8.363   4.543 -13.307  1.00  0.00     0.000 C 
BRANCH   6   7
ATOM      7  C   UNL     1      -8.142   5.689 -14.304  1.00  0.00     0.006 C 
BRANCH   7   8
ATOM      8  C   UNL     1      -7.071   5.352 -15.350  1.00  0.00     0.053 C 
BRANCH   8   9
ATOM      9  C   UNL     1      -5.776   4.952 -14.712  1.00  0.00     0.041 C 
ATOM     10  O   UNL     1      -5.103   5.794 -14.060  1.00  0.00    -0.550 OA
ATOM     11  O   UNL     1      -5.329   3.640 -14.806  1.00  0.00    -0.550 OA
ENDBRANCH   8   9
ENDBRANCH   7   8
ENDBRANCH   6   7
ENDBRANCH   5   6
ENDBRANCH   4   5
ENDBRANCH   3   4
ENDBRANCH   2   3
ENDBRANCH   1   2
BRANCH   1  12
ATOM     12  C   UNL     1      -8.950   5.891  -5.934  1.00  0.00     0.000 C 
BRANCH  12  13
ATOM     13  C   UNL     1      -8.243   5.439  -4.643  1.00  0.00    -0.000 C 
BRANCH  13  14
ATOM     14  C   UNL     1      -6.832   6.026  -4.499  1.00  0.00    -0.000 C 
BRANCH  14  15
ATOM     15  C   UNL     1      -5.988   5.194  -3.526  1.00  0.00    -0.000 C 
BRANCH  15  16
ATOM     16  C   UNL     1      -6.309   3.698  -3.660  1.00  0.00    -0.000 C 
BRANCH  16  17
ATOM     17  C   UNL     1      -6.814   3.072  -2.348  1.00  0.00    -0.000 C 
BRANCH  17  18
ATOM     18  C   UNL     1      -7.107   4.077  -1.218  1.00  0.00    -0.000 C 
BRANCH  18  19
ATOM     19  C   UNL     1      -8.591   4.124  -0.829  1.00  0.00    -0.003 C 
ATOM     20  C   UNL     1      -9.181   5.509  -1.078  1.00  0.00     0.004 C 
ENDBRANCH  18  19
ENDBRANCH  17  18
ENDBRANCH  16  17
ENDBRANCH  15  16
ENDBRANCH  14  15
ENDBRANCH  13  14
ENDBRANCH  12  13
ENDBRANCH   1  12
TORSDOF 16
ENDMDL
MODEL 8
REMARK VINA RESULT:    -4.279      4.249      8.922
REMARK INTER + INTRA:          -9.690
REMARK INTER:                  -8.197
REMARK INTRA:                  -1.494
REMARK UNBOUND:                -1.408
REMARK SMILES CCCCCCCCCCCCCCCCCC(=O)[O-]
REMARK SMILES IDX 10 1 11 2 12 3 13 4 14 5 15 6 16 7 17 8 18 9 19 10 20 11
REMARK SMILES IDX 9 12 8 13 7 14 6 15 5 16 4 17 3 18 2 19 1 20
REMARK H PARENT
REMARK Flexibility Score: inf
ROOT
ATOM      1  C   UNL     1      -7.504   2.630  -1.269  1.00  0.00     0.000 C 
ENDROOT
BRANCH   1   2
ATOM      2  C   UNL     1      -6.180   3.343  -1.595  1.00  0.00     0.000 C 
BRANCH   2   3
ATOM      3  C   UNL     1      -5.996   3.601  -3.101  1.00  0.00     0.000 C 
BRANCH   3   4
ATOM      4  C   UNL     1      -5.440   5.003  -3.406  1.00  0.00     0.000 C 
BRANCH   4   5
ATOM      5  C   UNL     1      -6.450   5.989  -4.023  1.00  0.00     0.000 C 
BRANCH   5   6
ATOM      6  C   UNL     1      -7.668   5.291  -4.645  1.00  0.00     0.000 C 
BRANCH   6   7
ATOM      7  C   UNL     1      -8.558   6.298  -5.388  1.00  0.00     0.006 C 
BRANCH   7   8
ATOM      8  C   UNL     1      -9.320   5.651  -6.552  1.00  0.00     0.053 C 
BRANCH   8   9
ATOM      9  C   UNL     1      -8.484   5.574  -7.791  1.00  0.00     0.041 C 
ATOM     10  O   UNL     1      -7.343   6.107  -7.821  1.00  0.00    -0.550 OA
ATOM     11  O   UNL     1      -8.948   4.883  -8.903  1.00  0.00    -0.550 OA
ENDBRANCH   8   9
ENDBRANCH   7   8
ENDBRANCH   6   7
ENDBRANCH   5   6
ENDBRANCH   4   5
ENDBRANCH   3   4
ENDBRANCH   2   3
ENDBRANCH   1   2
BRANCH   1  12
ATOM     12  C   UNL     1      -8.539   3.476  -0.497  1.00  0.00     0.000 C 
BRANCH  12  13
ATOM     13  C   UNL     1      -8.421   4.998  -0.700  1.00  0.00    -0.000 C 
BRANCH  13  14
ATOM     14  C   UNL     1      -9.474   5.553  -1.669  1.00  0.00    -0.000 C 
BRANCH  14  15
ATOM     15  C   UNL     1     -10.026   6.894  -1.171  1.00  0.00    -0.000 C 
BRANCH  15  16
ATOM     16  C   UNL     1     -10.332   7.834  -2.346  1.00  0.00    -0.000 C 
BRANCH  16  17
ATOM     17  C   UNL     1     -11.089   9.104  -1.918  1.00  0.00    -0.000 C 
BRANCH  17  18
ATOM     18  C   UNL     1     -11.773   9.871  -3.065  1.00  0.00    -0.000 C 
BRANCH  18  19
ATOM     19  C   UNL     1     -13.020  10.641  -2.609  1.00  0.00    -0.003 C 
ATOM     20  C   UNL     1     -14.029  10.776  -3.746  1.00  0.00     0.004 C 
ENDBRANCH  18  19
ENDBRANCH  17  18
ENDBRANCH  16  17
ENDBRANCH  15  16
ENDBRANCH  14  15
ENDBRANCH  13  14
ENDBRANCH  12  13
ENDBRANCH   1  12
TORSDOF 16
ENDMDL
MODEL 9
REMARK VINA RESULT:    -4.195      3.102      6.062
REMARK INTER + INTRA:          -9.527
REMARK INTER:                  -7.556
REMARK INTRA:                  -1.971
REMARK UNBOUND:                -1.408
REMARK SMILES CCCCCCCCCCCCCCCCCC(=O)[O-]
REMARK SMILES IDX 10 1 11 2 12 3 13 4 14 5 15 6 16 7 17 8 18 9 19 10 20 11
REMARK SMILES IDX 9 12 8 13 7 14 6 15 5 16 4 17 3 18 2 19 1 20
REMARK H PARENT
REMARK Flexibility Score: inf
ROOT
ATOM      1  C   UNL     1      -6.196   4.213  -3.655  1.00  0.00     0.000 C 
ENDROOT
BRANCH   1   2
ATOM      2  C   UNL     1      -6.473   3.015  -2.729  1.00  0.00     0.000 C 
BRANCH   2   3
ATOM      3  C   UNL     1      -6.177   3.322  -1.251  1.00  0.00     0.000 C 
BRANCH   3   4
ATOM      4  C   UNL     1      -7.300   2.860  -0.305  1.00  0.00     0.000 C 
BRANCH   4   5
ATOM      5  C   UNL     1      -8.666   3.534  -0.531  1.00  0.00     0.000 C 
BRANCH   5   6
ATOM      6  C   UNL     1      -8.580   5.067  -0.575  1.00  0.00     0.000 C 
BRANCH   6   7
ATOM      7  C   UNL     1      -9.139   5.611  -1.897  1.00  0.00     0.006 C 
BRANCH   7   8
ATOM      8  C   UNL     1      -8.841   7.105  -2.082  1.00  0.00     0.053 C 
BRANCH   8   9
ATOM      9  C   UNL     1      -9.790   7.747  -3.047  1.00  0.00     0.041 C 
ATOM     10  O   UNL     1      -9.706   7.498  -4.279  1.00  0.00    -0.550 OA
ATOM     11  O   UNL     1     -10.790   8.592  -2.583  1.00  0.00    -0.550 OA
ENDBRANCH   8   9
ENDBRANCH   7   8
ENDBRANCH   6   7
ENDBRANCH   5   6
ENDBRANCH   4   5
ENDBRANCH   3   4
ENDBRANCH   2   3
ENDBRANCH   1   2
BRANCH   1  12
ATOM     12  C   UNL     1      -5.104   5.188  -3.167  1.00  0.00     0.000 C 
BRANCH  12  13
ATOM     13  C   UNL     1      -5.264   6.642  -3.648  1.00  0.00    -0.000 C 
BRANCH  13  14
ATOM     14  C   UNL     1      -6.345   6.797  -4.728  1.00  0.00    -0.000 C 
BRANCH  14  15
ATOM     15  C   UNL     1      -5.714   6.971  -6.114  1.00  0.00    -0.000 C 
BRANCH  15  16
ATOM     16  C   UNL     1      -6.744   6.717  -7.224  1.00  0.00    -0.000 C 
BRANCH  16  17
ATOM     17  C   UNL     1      -7.747   5.605  -6.871  1.00  0.00    -0.000 C 
BRANCH  17  18
ATOM     18  C   UNL     1      -9.040   5.606  -7.706  1.00  0.00    -0.000 C 
BRANCH  18  19
ATOM     19  C   UNL     1      -8.886   4.881  -9.050  1.00  0.00    -0.003 C 
ATOM     20  C   UNL     1      -9.989   5.286 -10.023  1.00  0.00     0.004 C 
ENDBRANCH  18  19
ENDBRANCH  17  18
ENDBRANCH  16  17
ENDBRANCH  15  16
ENDBRANCH  14  15
ENDBRANCH  13  14
ENDBRANCH  12  13
ENDBRANCH   1  12
TORSDOF 16
ENDMDL
