MODEL 1
REMARK VINA RESULT:    -4.126      0.000      0.000
REMARK INTER + INTRA:         -10.393
REMARK INTER:                  -7.985
REMARK INTRA:                  -2.408
REMARK UNBOUND:                -2.408
REMARK SMILES CCCCCCCCCCCCCCCCCC(=O)[O-]
REMARK SMILES IDX 10 1 11 2 12 3 13 4 14 5 15 6 16 7 17 8 18 9 19 10 20 11
REMARK SMILES IDX 9 12 8 13 7 14 6 15 5 16 4 17 3 18 2 19 1 20
REMARK H PARENT
REMARK Flexibility Score: inf
ROOT
ATOM      1  C   UNL     1      29.662  -3.163  -4.740  1.00  0.00     0.000 C 
ENDROOT
BRANCH   1   2
ATOM      2  C   UNL     1      28.475  -2.749  -5.622  1.00  0.00     0.000 C 
BRANCH   2   3
ATOM      3  C   UNL     1      27.269  -2.344  -4.765  1.00  0.00     0.000 C 
BRANCH   3   4
ATOM      4  C   UNL     1      27.693  -2.045  -3.322  1.00  0.00     0.000 C 
BRANCH   4   5
ATOM      5  C   UNL     1      26.960  -2.962  -2.332  1.00  0.00     0.000 C 
BRANCH   5   6
ATOM      6  C   UNL     1      27.449  -2.795  -0.881  1.00  0.00     0.000 C 
BRANCH   6   7
ATOM      7  C   UNL     1      28.849  -2.170  -0.735  1.00  0.00     0.006 C 
BRANCH   7   8
ATOM      8  C   UNL     1      29.051  -1.468   0.614  1.00  0.00     0.053 C 
BRANCH   8   9
ATOM      9  C   UNL     1      28.794  -2.417   1.741  1.00  0.00     0.041 C 
ATOM     10  O   UNL     1      29.251  -3.590   1.698  1.00  0.00    -0.550 OA
ATOM     11  O   UNL     1      28.091  -1.993   2.863  1.00  0.00    -0.550 OA
ENDBRANCH   8   9
ENDBRANCH   7   8
ENDBRANCH   6   7
ENDBRANCH   5   6
ENDBRANCH   4   5
ENDBRANCH   3   4
ENDBRANCH   2   3
ENDBRANCH   1   2
BRANCH   1  12
ATOM     12  C   UNL     1      29.865  -4.688  -4.682  1.00  0.00     0.000 C 
BRANCH  12  13
ATOM     13  C   UNL     1      29.953  -5.285  -3.265  1.00  0.00    -0.000 C 
BRANCH  13  14
ATOM     14  C   UNL     1      29.839  -6.820  -3.252  1.00  0.00    -0.000 C 
BRANCH  14  15
ATOM     15  C   UNL     1      30.124  -7.452  -4.627  1.00  0.00    -0.000 C 
BRANCH  15  16
ATOM     16  C   UNL     1      28.954  -8.242  -5.247  1.00  0.00    -0.000 C 
BRANCH  16  17
ATOM     17  C   UNL     1      28.259  -7.558  -6.438  1.00  0.00    -0.000 C 
BRANCH  17  18
ATOM     18  C   UNL     1      26.759  -7.319  -6.197  1.00  0.00    -0.000 C 
BRANCH  18  19
ATOM     19  C   UNL     1      26.468  -5.923  -5.626  1.00  0.00    -0.003 C 
ATOM     20  C   UNL     1      26.371  -5.915  -4.101  1.00  0.00     0.004 C 
ENDBRANCH  18  19
ENDBRANCH  17  18
ENDBRANCH  16  17
ENDBRANCH  15  16
ENDBRANCH  14  15
ENDBRANCH  13  14
ENDBRANCH  12  13
ENDBRANCH   1  12
TORSDOF 16
ENDMDL
MODEL 2
REMARK VINA RESULT:    -4.055      1.478      2.647
REMARK INTER + INTRA:         -10.256
REMARK INTER:                  -7.684
REMARK INTRA:                  -2.571
REMARK UNBOUND:                -2.408
REMARK SMILES CCCCCCCCCCCCCCCCCC(=O)[O-]
REMARK SMILES IDX 10 1 11 2 12 3 13 4 14 5 15 6 16 7 17 8 18 9 19 10 20 11
REMARK SMILES IDX 9 12 8 13 7 14 6 15 5 16 4 17 3 18 2 19 1 20
REMARK H PARENT
REMARK Flexibility Score: inf
ROOT
ATOM      1  C   UNL     1      30.077  -2.934  -5.277  1.00  0.00     0.000 C 
ENDROOT
BRANCH   1   2
ATOM      2  C   UNL     1      29.120  -2.209  -6.235  1.00  0.00     0.000 C 
BRANCH   2   3
ATOM      3  C   UNL     1      28.687  -0.855  -5.659  1.00  0.00     0.000 C 
BRANCH   3   4
ATOM      4  C   UNL     1      27.303  -0.949  -5.006  1.00  0.00     0.000 C 
BRANCH   4   5
ATOM      5  C   UNL     1      27.292  -0.252  -3.638  1.00  0.00     0.000 C 
BRANCH   5   6
ATOM      6  C   UNL     1      28.643  -0.341  -2.904  1.00  0.00     0.000 C 
BRANCH   6   7
ATOM      7  C   UNL     1      28.545  -0.432  -1.370  1.00  0.00     0.006 C 
BRANCH   7   8
ATOM      8  C   UNL     1      29.038  -1.777  -0.820  1.00  0.00     0.053 C 
BRANCH   8   9
ATOM      9  C   UNL     1      27.908  -2.534  -0.198  1.00  0.00     0.041 C 
ATOM     10  O   UNL     1      26.839  -2.716  -0.839  1.00  0.00    -0.550 OA
ATOM     11  O   UNL     1      28.051  -3.082   1.071  1.00  0.00    -0.550 OA
ENDBRANCH   8   9
ENDBRANCH   7   8
ENDBRANCH   6   7
ENDBRANCH   5   6
ENDBRANCH   4   5
ENDBRANCH   3   4
ENDBRANCH   2   3
ENDBRANCH   1   2
BRANCH   1  12
ATOM     12  C   UNL     1      29.511  -4.269  -4.758  1.00  0.00     0.000 C 
BRANCH  12  13
ATOM     13  C   UNL     1      28.549  -4.154  -3.561  1.00  0.00    -0.000 C 
BRANCH  13  14
ATOM     14  C   UNL     1      27.221  -4.899  -3.784  1.00  0.00    -0.000 C 
BRANCH  14  15
ATOM     15  C   UNL     1      26.538  -4.518  -5.110  1.00  0.00    -0.000 C 
BRANCH  15  16
ATOM     16  C   UNL     1      26.434  -5.652  -6.150  1.00  0.00    -0.000 C 
BRANCH  16  17
ATOM     17  C   UNL     1      26.901  -7.035  -5.662  1.00  0.00    -0.000 C 
BRANCH  17  18
ATOM     18  C   UNL     1      27.947  -7.674  -6.591  1.00  0.00    -0.000 C 
BRANCH  18  19
ATOM     19  C   UNL     1      29.005  -8.480  -5.822  1.00  0.00    -0.003 C 
ATOM     20  C   UNL     1      29.510  -7.756  -4.574  1.00  0.00     0.004 C 
ENDBRANCH  18  19
ENDBRANCH  17  18
ENDBRANCH  16  17
ENDBRANCH  15  16
ENDBRANCH  14  15
ENDBRANCH  13  14
ENDBRANCH  12  13
ENDBRANCH   1  12
TORSDOF 16
ENDMDL
MODEL 3
REMARK VINA RESULT:    -3.988      1.563      2.786
REMARK INTER + INTRA:         -10.127
REMARK INTER:                  -7.568
REMARK INTRA:                  -2.559
REMARK UNBOUND:                -2.408
REMARK SMILES CCCCCCCCCCCCCCCCCC(=O)[O-]
REMARK SMILES IDX 10 1 11 2 12 3 13 4 14 5 15 6 16 7 17 8 18 9 19 10 20 11
REMARK SMILES IDX 9 12 8 13 7 14 6 15 5 16 4 17 3 18 2 19 1 20
REMARK H PARENT
REMARK Flexibility Score: inf
ROOT
ATOM      1  C   UNL     1      29.710  -5.220  -3.822  1.00  0.00     0.000 C 
ENDROOT
BRANCH   1   2
ATOM      2  C   UNL     1      29.771  -4.230  -4.995  1.00  0.00     0.000 C 
BRANCH   2   3
ATOM      3  C   UNL     1      29.477  -2.800  -4.523  1.00  0.00     0.000 C 
BRANCH   3   4
ATOM      4  C   UNL     1      28.456  -2.116  -5.440  1.00  0.00     0.000 C 
BRANCH   4   5
ATOM      5  C   UNL     1      27.331  -1.466  -4.622  1.00  0.00     0.000 C 
BRANCH   5   6
ATOM      6  C   UNL     1      27.639  -0.010  -4.224  1.00  0.00     0.000 C 
BRANCH   6   7
ATOM      7  C   UNL     1      27.613   0.269  -2.710  1.00  0.00     0.006 C 
BRANCH   7   8
ATOM      8  C   UNL     1      28.727  -0.460  -1.949  1.00  0.00     0.053 C 
BRANCH   8   9
ATOM      9  C   UNL     1      28.162  -1.591  -1.149  1.00  0.00     0.041 C 
ATOM     10  O   UNL     1      28.923  -2.484  -0.691  1.00  0.00    -0.550 OA
ATOM     11  O   UNL     1      26.802  -1.634  -0.867  1.00  0.00    -0.550 OA
ENDBRANCH   8   9
ENDBRANCH   7   8
ENDBRANCH   6   7
ENDBRANCH   5   6
ENDBRANCH   4   5
ENDBRANCH   3   4
ENDBRANCH   2   3
ENDBRANCH   1   2
BRANCH   1  12
ATOM     12  C   UNL     1      30.125  -6.649  -4.218  1.00  0.00     0.000 C 
BRANCH  12  13
ATOM     13  C   UNL     1      28.962  -7.639  -4.417  1.00  0.00    -0.000 C 
BRANCH  13  14
ATOM     14  C   UNL     1      29.028  -8.380  -5.764  1.00  0.00    -0.000 C 
BRANCH  14  15
ATOM     15  C   UNL     1      27.972  -7.887  -6.769  1.00  0.00    -0.000 C 
BRANCH  15  16
ATOM     16  C   UNL     1      26.780  -7.124  -6.155  1.00  0.00    -0.000 C 
BRANCH  16  17
ATOM     17  C   UNL     1      26.757  -5.611  -6.433  1.00  0.00    -0.000 C 
BRANCH  17  18
ATOM     18  C   UNL     1      26.041  -4.813  -5.330  1.00  0.00    -0.000 C 
BRANCH  18  19
ATOM     19  C   UNL     1      26.148  -5.484  -3.952  1.00  0.00    -0.003 C 
ATOM     20  C   UNL     1      26.517  -4.500  -2.841  1.00  0.00     0.004 C 
ENDBRANCH  18  19
ENDBRANCH  17  18
ENDBRANCH  16  17
ENDBRANCH  15  16
ENDBRANCH  14  15
ENDBRANCH  13  14
ENDBRANCH  12  13
ENDBRANCH   1  12
TORSDOF 16
ENDMDL
MODEL 4
REMARK VINA RESULT:    -3.957      1.248      1.981
REMARK INTER + INTRA:         -10.065
REMARK INTER:                  -7.827
REMARK INTRA:                  -2.239
REMARK UNBOUND:                -2.408
REMARK SMILES CCCCCCCCCCCCCCCCCC(=O)[O-]
REMARK SMILES IDX 10 1 11 2 12 3 13 4 14 5 15 6 16 7 17 8 18 9 19 10 20 11
REMARK SMILES IDX 9 12 8 13 7 14 6 15 5 16 4 17 3 18 2 19 1 20
REMARK H PARENT
REMARK Flexibility Score: inf
ROOT
ATOM      1  C   UNL     1      27.692  -3.246  -5.740  1.00  0.00     0.000 C 
ENDROOT
BRANCH   1   2
ATOM      2  C   UNL     1      27.914  -1.726  -5.699  1.00  0.00     0.000 C 
BRANCH   2   3
ATOM      3  C   UNL     1      27.131  -1.088  -4.544  1.00  0.00     0.000 C 
BRANCH   3   4
ATOM      4  C   UNL     1      28.062  -0.713  -3.386  1.00  0.00     0.000 C 
BRANCH   4   5
ATOM      5  C   UNL     1      27.277  -0.067  -2.235  1.00  0.00     0.000 C 
BRANCH   5   6
ATOM      6  C   UNL     1      27.571  -0.713  -0.868  1.00  0.00     0.000 C 
BRANCH   6   7
ATOM      7  C   UNL     1      27.870  -2.223  -0.914  1.00  0.00     0.006 C 
BRANCH   7   8
ATOM      8  C   UNL     1      29.071  -2.620  -0.046  1.00  0.00     0.053 C 
BRANCH   8   9
ATOM      9  C   UNL     1      28.684  -2.656   1.399  1.00  0.00     0.041 C 
ATOM     10  O   UNL     1      27.955  -3.586   1.835  1.00  0.00    -0.550 OA
ATOM     11  O   UNL     1      29.166  -1.692   2.275  1.00  0.00    -0.550 OA
ENDBRANCH   8   9
ENDBRANCH   7   8
ENDBRANCH   6   7
ENDBRANCH   5   6
ENDBRANCH   4   5
ENDBRANCH   3   4
ENDBRANCH   2   3
ENDBRANCH   1   2
BRANCH   1  12
ATOM     12  C   UNL     1      26.736  -3.744  -4.640  1.00  0.00     0.000 C 
BRANCH  12  13
ATOM     13  C   UNL     1      27.342  -4.757  -3.652  1.00  0.00    -0.000 C 
BRANCH  13  14
ATOM     14  C   UNL     1      28.869  -4.621  -3.514  1.00  0.00    -0.000 C 
BRANCH  14  15
ATOM     15  C   UNL     1      29.626  -5.872  -3.995  1.00  0.00    -0.000 C 
BRANCH  15  16
ATOM     16  C   UNL     1      28.809  -7.179  -3.998  1.00  0.00    -0.000 C 
BRANCH  16  17
ATOM     17  C   UNL     1      29.233  -8.216  -5.054  1.00  0.00    -0.000 C 
BRANCH  17  18
ATOM     18  C   UNL     1      28.420  -8.108  -6.356  1.00  0.00    -0.000 C 
BRANCH  18  19
ATOM     19  C   UNL     1      27.057  -7.433  -6.146  1.00  0.00    -0.003 C 
ATOM     20  C   UNL     1      26.710  -6.440  -7.255  1.00  0.00     0.004 C 
ENDBRANCH  18  19
ENDBRANCH  17  18
ENDBRANCH  16  17
ENDBRANCH  15  16
ENDBRANCH  14  15
ENDBRANCH  13  14
ENDBRANCH  12  13
ENDBRANCH   1  12
TORSDOF 16
ENDMDL
MODEL 5
REMARK VINA RESULT:    -3.946      2.473      6.522
REMARK INTER + INTRA:         -10.045
REMARK INTER:                  -7.653
REMARK INTRA:                  -2.393
REMARK UNBOUND:                -2.408
REMARK SMILES CCCCCCCCCCCCCCCCCC(=O)[O-]
REMARK SMILES IDX 10 1 11 2 12 3 13 4 14 5 15 6 16 7 17 8 18 9 19 10 20 11
REMARK SMILES IDX 9 12 8 13 7 14 6 15 5 16 4 17 3 18 2 19 1 20
REMARK H PARENT
REMARK Flexibility Score: inf
ROOT
ATOM      1  C   UNL     1      29.972  -4.774  -4.677  1.00  0.00     0.000 C 
ENDROOT
BRANCH   1   2
ATOM      2  C   UNL     1      29.768  -5.368  -3.275  1.00  0.00     0.000 C 
BRANCH   2   3
ATOM      3  C   UNL     1      29.533  -6.882  -3.349  1.00  0.00     0.000 C 
BRANCH   3   4
ATOM      4  C   UNL     1      30.034  -7.454  -4.680  1.00  0.00     0.000 C 
BRANCH   4   5
ATOM      5  C   UNL     1      28.995  -8.402  -5.297  1.00  0.00     0.000 C 
BRANCH   5   6
ATOM      6  C   UNL     1      28.271  -7.793  -6.513  1.00  0.00     0.000 C 
BRANCH   6   7
ATOM      7  C   UNL     1      26.814  -7.365  -6.254  1.00  0.00     0.006 C 
BRANCH   7   8
ATOM      8  C   UNL     1      26.652  -5.844  -6.131  1.00  0.00     0.053 C 
BRANCH   8   9
ATOM      9  C   UNL     1      26.355  -5.462  -4.716  1.00  0.00     0.041 C 
ATOM     10  O   UNL     1      26.302  -4.248  -4.386  1.00  0.00    -0.550 OA
ATOM     11  O   UNL     1      26.088  -6.444  -3.769  1.00  0.00    -0.550 OA
ENDBRANCH   8   9
ENDBRANCH   7   8
ENDBRANCH   6   7
ENDBRANCH   5   6
ENDBRANCH   4   5
ENDBRANCH   3   4
ENDBRANCH   2   3
ENDBRANCH   1   2
BRANCH   1  12
ATOM     12  C   UNL     1      29.620  -3.277  -4.753  1.00  0.00     0.000 C 
BRANCH  12  13
ATOM     13  C   UNL     1      28.993  -2.817  -6.082  1.00  0.00    -0.000 C 
BRANCH  13  14
ATOM     14  C   UNL     1      28.495  -1.361  -6.040  1.00  0.00    -0.000 C 
BRANCH  14  15
ATOM     15  C   UNL     1      27.622  -1.064  -4.807  1.00  0.00    -0.000 C 
BRANCH  15  16
ATOM     16  C   UNL     1      28.080   0.129  -3.944  1.00  0.00    -0.000 C 
BRANCH  16  17
ATOM     17  C   UNL     1      28.442  -0.215  -2.489  1.00  0.00    -0.000 C 
BRANCH  17  18
ATOM     18  C   UNL     1      27.444  -1.189  -1.840  1.00  0.00    -0.000 C 
BRANCH  18  19
ATOM     19  C   UNL     1      28.095  -2.524  -1.446  1.00  0.00    -0.003 C 
ATOM     20  C   UNL     1      28.483  -2.580   0.032  1.00  0.00     0.004 C 
ENDBRANCH  18  19
ENDBRANCH  17  18
ENDBRANCH  16  17
ENDBRANCH  15  16
ENDBRANCH  14  15
ENDBRANCH  13  14
ENDBRANCH  12  13
ENDBRANCH   1  12
TORSDOF 16
ENDMDL
MODEL 6
REMARK VINA RESULT:    -3.928      3.795      7.252
REMARK INTER + INTRA:         -10.009
REMARK INTER:                  -7.339
REMARK INTRA:                  -2.670
REMARK UNBOUND:                -2.408
REMARK SMILES CCCCCCCCCCCCCCCCCC(=O)[O-]
REMARK SMILES IDX 10 1 11 2 12 3 13 4 14 5 15 6 16 7 17 8 18 9 19 10 20 11
REMARK SMILES IDX 9 12 8 13 7 14 6 15 5 16 4 17 3 18 2 19 1 20
REMARK H PARENT
REMARK Flexibility Score: inf
ROOT
ATOM      1  C   UNL     1      28.026  -3.369  -2.940  1.00  0.00     0.000 C 
ENDROOT
BRANCH   1   2
ATOM      2  C   UNL     1      29.474  -3.430  -3.450  1.00  0.00     0.000 C 
BRANCH   2   3
ATOM      3  C   UNL     1      30.076  -4.824  -3.228  1.00  0.00     0.000 C 
BRANCH   3   4
ATOM      4  C   UNL     1      29.750  -5.759  -4.398  1.00  0.00     0.000 C 
BRANCH   4   5
ATOM      5  C   UNL     1      29.058  -7.038  -3.904  1.00  0.00     0.000 C 
BRANCH   5   6
ATOM      6  C   UNL     1      27.525  -6.903  -3.833  1.00  0.00     0.000 C 
BRANCH   6   7
ATOM      7  C   UNL     1      26.872  -6.242  -5.062  1.00  0.00     0.006 C 
BRANCH   7   8
ATOM      8  C   UNL     1      26.471  -7.255  -6.141  1.00  0.00     0.053 C 
BRANCH   8   9
ATOM      9  C   UNL     1      27.480  -7.271  -7.246  1.00  0.00     0.041 C 
ATOM     10  O   UNL     1      27.412  -6.427  -8.177  1.00  0.00    -0.550 OA
ATOM     11  O   UNL     1      28.525  -8.188  -7.222  1.00  0.00    -0.550 OA
ENDBRANCH   8   9
ENDBRANCH   7   8
ENDBRANCH   6   7
ENDBRANCH   5   6
ENDBRANCH   4   5
ENDBRANCH   3   4
ENDBRANCH   2   3
ENDBRANCH   1   2
BRANCH   1  12
ATOM     12  C   UNL     1      27.058  -2.734  -3.956  1.00  0.00     0.000 C 
BRANCH  12  13
ATOM     13  C   UNL     1      27.597  -2.619  -5.394  1.00  0.00    -0.000 C 
BRANCH  13  14
ATOM     14  C   UNL     1      27.870  -1.165  -5.818  1.00  0.00    -0.000 C 
BRANCH  14  15
ATOM     15  C   UNL     1      27.019  -0.146  -5.039  1.00  0.00    -0.000 C 
BRANCH  15  16
ATOM     16  C   UNL     1      27.813   0.846  -4.164  1.00  0.00    -0.000 C 
BRANCH  16  17
ATOM     17  C   UNL     1      29.105   0.285  -3.544  1.00  0.00    -0.000 C 
BRANCH  17  18
ATOM     18  C   UNL     1      29.107   0.351  -2.008  1.00  0.00    -0.000 C 
BRANCH  18  19
ATOM     19  C   UNL     1      27.713   0.632  -1.427  1.00  0.00    -0.003 C 
ATOM     20  C   UNL     1      27.087  -0.597  -0.767  1.00  0.00     0.004 C 
ENDBRANCH  18  19
ENDBRANCH  17  18
ENDBRANCH  16  17
ENDBRANCH  15  16
ENDBRANCH  14  15
ENDBRANCH  13  14
ENDBRANCH  12  13
ENDBRANCH   1  12
TORSDOF 16
ENDMDL
MODEL 7
REMARK VINA RESULT:    -3.884      1.422      2.879
REMARK INTER + INTRA:          -9.925
REMARK INTER:                  -7.709
REMARK INTRA:                  -2.217
REMARK UNBOUND:                -2.408
REMARK SMILES CCCCCCCCCCCCCCCCCC(=O)[O-]
REMARK SMILES IDX 10 1 11 2 12 3 13 4 14 5 15 6 16 7 17 8 18 9 19 10 20 11
REMARK SMILES IDX 9 12 8 13 7 14 6 15 5 16 4 17 3 18 2 19 1 20
REMARK H PARENT
REMARK Flexibility Score: inf
ROOT
ATOM      1  C   UNL     1      30.075  -3.284  -4.165  1.00  0.00     0.000 C 
ENDROOT
BRANCH   1   2
ATOM      2  C   UNL     1      29.578  -2.312  -3.084  1.00  0.00     0.000 C 
BRANCH   2   3
ATOM      3  C   UNL     1      29.236  -3.058  -1.789  1.00  0.00     0.000 C 
BRANCH   3   4
ATOM      4  C   UNL     1      27.848  -2.660  -1.273  1.00  0.00     0.000 C 
BRANCH   4   5
ATOM      5  C   UNL     1      27.492  -1.229  -1.700  1.00  0.00     0.000 C 
BRANCH   5   6
ATOM      6  C   UNL     1      26.972  -0.364  -0.537  1.00  0.00     0.000 C 
BRANCH   6   7
ATOM      7  C   UNL     1      28.037   0.040   0.500  1.00  0.00     0.006 C 
BRANCH   7   8
ATOM      8  C   UNL     1      27.600  -0.239   1.944  1.00  0.00     0.053 C 
BRANCH   8   9
ATOM      9  C   UNL     1      28.361  -1.398   2.506  1.00  0.00     0.041 C 
ATOM     10  O   UNL     1      29.293  -1.925   1.843  1.00  0.00    -0.550 OA
ATOM     11  O   UNL     1      28.075  -1.866   3.783  1.00  0.00    -0.550 OA
ENDBRANCH   8   9
ENDBRANCH   7   8
ENDBRANCH   6   7
ENDBRANCH   5   6
ENDBRANCH   4   5
ENDBRANCH   3   4
ENDBRANCH   2   3
ENDBRANCH   1   2
BRANCH   1  12
ATOM     12  C   UNL     1      29.147  -3.346  -5.392  1.00  0.00     0.000 C 
BRANCH  12  13
ATOM     13  C   UNL     1      27.842  -2.538  -5.269  1.00  0.00    -0.000 C 
BRANCH  13  14
ATOM     14  C   UNL     1      26.671  -3.369  -4.716  1.00  0.00    -0.000 C 
BRANCH  14  15
ATOM     15  C   UNL     1      26.741  -4.850  -5.130  1.00  0.00    -0.000 C 
BRANCH  15  16
ATOM     16  C   UNL     1      26.626  -5.866  -3.976  1.00  0.00    -0.000 C 
BRANCH  16  17
ATOM     17  C   UNL     1      27.821  -6.823  -3.823  1.00  0.00    -0.000 C 
BRANCH  17  18
ATOM     18  C   UNL     1      28.761  -6.804  -5.041  1.00  0.00    -0.000 C 
BRANCH  18  19
ATOM     19  C   UNL     1      28.577  -8.031  -5.948  1.00  0.00    -0.003 C 
ATOM     20  C   UNL     1      27.875  -7.695  -7.263  1.00  0.00     0.004 C 
ENDBRANCH  18  19
ENDBRANCH  17  18
ENDBRANCH  16  17
ENDBRANCH  15  16
ENDBRANCH  14  15
ENDBRANCH  13  14
ENDBRANCH  12  13
ENDBRANCH   1  12
TORSDOF 16
ENDMDL
MODEL 8
REMARK VINA RESULT:    -3.843      1.540      2.985
REMARK INTER + INTRA:          -9.847
REMARK INTER:                  -7.979
REMARK INTRA:                  -1.868
REMARK UNBOUND:                -2.408
REMARK SMILES CCCCCCCCCCCCCCCCCC(=O)[O-]
REMARK SMILES IDX 10 1 11 2 12 3 13 4 14 5 15 6 16 7 17 8 18 9 19 10 20 11
REMARK SMILES IDX 9 12 8 13 7 14 6 15 5 16 4 17 3 18 2 19 1 20
REMARK H PARENT
REMARK Flexibility Score: inf
ROOT
ATOM      1  C   UNL     1      27.337  -2.838  -3.560  1.00  0.00     0.000 C 
ENDROOT
BRANCH   1   2
ATOM      2  C   UNL     1      26.758  -3.727  -2.450  1.00  0.00     0.000 C 
BRANCH   2   3
ATOM      3  C   UNL     1      26.751  -2.991  -1.104  1.00  0.00     0.000 C 
BRANCH   3   4
ATOM      4  C   UNL     1      27.945  -2.036  -0.991  1.00  0.00     0.000 C 
BRANCH   4   5
ATOM      5  C   UNL     1      28.943  -2.526   0.068  1.00  0.00     0.000 C 
BRANCH   5   6
ATOM      6  C   UNL     1      28.263  -2.972   1.376  1.00  0.00     0.000 C 
BRANCH   6   7
ATOM      7  C   UNL     1      28.560  -2.083   2.599  1.00  0.00     0.006 C 
BRANCH   7   8
ATOM      8  C   UNL     1      27.690  -0.821   2.644  1.00  0.00     0.053 C 
BRANCH   8   9
ATOM      9  C   UNL     1      27.221  -0.557   4.040  1.00  0.00     0.041 C 
ATOM     10  O   UNL     1      27.946  -0.871   5.021  1.00  0.00    -0.550 OA
ATOM     11  O   UNL     1      26.005   0.078   4.258  1.00  0.00    -0.550 OA
ENDBRANCH   8   9
ENDBRANCH   7   8
ENDBRANCH   6   7
ENDBRANCH   5   6
ENDBRANCH   4   5
ENDBRANCH   3   4
ENDBRANCH   2   3
ENDBRANCH   1   2
BRANCH   1  12
ATOM     12  C   UNL     1      27.230  -3.475  -4.958  1.00  0.00     0.000 C 
BRANCH  12  13
ATOM     13  C   UNL     1      28.573  -3.820  -5.627  1.00  0.00    -0.000 C 
BRANCH  13  14
ATOM     14  C   UNL     1      29.716  -4.014  -4.614  1.00  0.00    -0.000 C 
BRANCH  14  15
ATOM     15  C   UNL     1      30.094  -5.494  -4.417  1.00  0.00    -0.000 C 
BRANCH  15  16
ATOM     16  C   UNL     1      29.160  -6.296  -3.488  1.00  0.00    -0.000 C 
BRANCH  16  17
ATOM     17  C   UNL     1      28.455  -7.496  -4.144  1.00  0.00    -0.000 C 
BRANCH  17  18
ATOM     18  C   UNL     1      29.004  -7.818  -5.544  1.00  0.00    -0.000 C 
BRANCH  18  19
ATOM     19  C   UNL     1      27.900  -7.878  -6.611  1.00  0.00    -0.003 C 
ATOM     20  C   UNL     1      26.730  -6.942  -6.307  1.00  0.00     0.004 C 
ENDBRANCH  18  19
ENDBRANCH  17  18
ENDBRANCH  16  17
ENDBRANCH  15  16
ENDBRANCH  14  15
ENDBRANCH  13  14
ENDBRANCH  12  13
ENDBRANCH   1  12
TORSDOF 16
ENDMDL
MODEL 9
REMARK VINA RESULT:    -3.791      3.273      6.888
REMARK INTER + INTRA:          -9.746
REMARK INTER:                  -7.171
REMARK INTRA:                  -2.575
REMARK UNBOUND:                -2.408
REMARK SMILES CCCCCCCCCCCCCCCCCC(=O)[O-]
REMARK SMILES IDX 10 1 11 2 12 3 13 4 14 5 15 6 16 7 17 8 18 9 19 10 20 11
REMARK SMILES IDX 9 12 8 13 7 14 6 15 5 16 4 17 3 18 2 19 1 20
REMARK H PARENT
REMARK Flexibility Score: inf
ROOT
ATOM      1  C   UNL     1      26.698  -2.401  -4.615  1.00  0.00     0.000 C 
ENDROOT
BRANCH   1   2
ATOM      2  C   UNL     1      27.418  -3.757  -4.551  1.00  0.00     0.000 C 
BRANCH   2   3
ATOM      3  C   UNL     1      28.635  -3.777  -5.485  1.00  0.00     0.000 C 
BRANCH   3   4
ATOM      4  C   UNL     1      29.916  -4.118  -4.715  1.00  0.00     0.000 C 
BRANCH   4   5
ATOM      5  C   UNL     1      29.624  -5.100  -3.571  1.00  0.00     0.000 C 
BRANCH   5   6
ATOM      6  C   UNL     1      30.066  -6.541  -3.887  1.00  0.00     0.000 C 
BRANCH   6   7
ATOM      7  C   UNL     1      28.915  -7.544  -4.090  1.00  0.00     0.006 C 
BRANCH   7   8
ATOM      8  C   UNL     1      29.030  -8.326  -5.404  1.00  0.00     0.053 C 
BRANCH   8   9
ATOM      9  C   UNL     1      28.084  -7.776  -6.425  1.00  0.00     0.041 C 
ATOM     10  O   UNL     1      28.296  -7.968  -7.652  1.00  0.00    -0.550 OA
ATOM     11  O   UNL     1      26.943  -7.094  -6.022  1.00  0.00    -0.550 OA
ENDBRANCH   8   9
ENDBRANCH   7   8
ENDBRANCH   6   7
ENDBRANCH   5   6
ENDBRANCH   4   5
ENDBRANCH   3   4
ENDBRANCH   2   3
ENDBRANCH   1   2
BRANCH   1  12
ATOM     12  C   UNL     1      27.559  -1.292  -5.247  1.00  0.00     0.000 C 
BRANCH  12  13
ATOM     13  C   UNL     1      27.788  -0.054  -4.361  1.00  0.00    -0.000 C 
BRANCH  13  14
ATOM     14  C   UNL     1      27.977  -0.406  -2.875  1.00  0.00    -0.000 C 
BRANCH  14  15
ATOM     15  C   UNL     1      29.399  -0.902  -2.555  1.00  0.00    -0.000 C 
BRANCH  15  16
ATOM     16  C   UNL     1      29.479  -2.093  -1.578  1.00  0.00    -0.000 C 
BRANCH  16  17
ATOM     17  C   UNL     1      28.123  -2.657  -1.119  1.00  0.00    -0.000 C 
BRANCH  17  18
ATOM     18  C   UNL     1      27.917  -2.553   0.402  1.00  0.00    -0.000 C 
BRANCH  18  19
ATOM     19  C   UNL     1      28.459  -1.237   0.981  1.00  0.00    -0.003 C 
ATOM     20  C   UNL     1      27.418  -0.118   0.985  1.00  0.00     0.004 C 
ENDBRANCH  18  19
ENDBRANCH  17  18
ENDBRANCH  16  17
ENDBRANCH  15  16
ENDBRANCH  14  15
ENDBRANCH  13  14
ENDBRANCH  12  13
ENDBRANCH   1  12
TORSDOF 16
ENDMDL
