MODEL 1
REMARK VINA RESULT:    -4.223      0.000      0.000
REMARK INTER + INTRA:          -7.521
REMARK INTER:                  -6.692
REMARK INTRA:                  -0.829
REMARK UNBOUND:                -0.829
REMARK SMILES CCCCCCCCCCCC(=O)[O-]
REMARK SMILES IDX 7 1 8 2 9 3 10 4 11 5 12 6 13 7 14 8 6 9 5 10 4 11 3 12 2 13
REMARK SMILES IDX 1 14
REMARK H PARENT
REMARK Flexibility Score: inf
ROOT
ATOM      1  C   UNL     1      31.526   8.734  48.225  1.00  0.00     0.000 C 
ENDROOT
BRANCH   1   2
ATOM      2  C   UNL     1      31.279   7.274  48.638  1.00  0.00     0.000 C 
BRANCH   2   3
ATOM      3  C   UNL     1      31.414   6.293  47.461  1.00  0.00     0.000 C 
BRANCH   3   4
ATOM      4  C   UNL     1      32.465   5.198  47.717  1.00  0.00     0.006 C 
BRANCH   4   5
ATOM      5  C   UNL     1      33.919   5.678  47.579  1.00  0.00     0.053 C 
BRANCH   5   6
ATOM      6  C   UNL     1      34.462   5.440  46.204  1.00  0.00     0.041 C 
ATOM      7  O   UNL     1      34.192   6.238  45.269  1.00  0.00    -0.550 OA
ATOM      8  O   UNL     1      35.238   4.315  45.947  1.00  0.00    -0.550 OA
ENDBRANCH   5   6
ENDBRANCH   4   5
ENDBRANCH   3   4
ENDBRANCH   2   3
ENDBRANCH   1   2
BRANCH   1   9
ATOM      9  C   UNL     1      32.977   9.179  48.475  1.00  0.00     0.000 C 
BRANCH   9  10
ATOM     10  C   UNL     1      33.801   9.237  47.179  1.00  0.00    -0.000 C 
BRANCH  10  11
ATOM     11  C   UNL     1      34.699  10.486  47.105  1.00  0.00    -0.000 C 
BRANCH  11  12
ATOM     12  C   UNL     1      35.206  10.754  45.673  1.00  0.00    -0.000 C 
BRANCH  12  13
ATOM     13  C   UNL     1      34.779   9.680  44.658  1.00  0.00    -0.003 C 
ATOM     14  C   UNL     1      33.895  10.229  43.541  1.00  0.00     0.004 C 
ENDBRANCH  12  13
ENDBRANCH  11  12
ENDBRANCH  10  11
ENDBRANCH   9  10
ENDBRANCH   1   9
TORSDOF 10
ENDMDL
MODEL 2
REMARK VINA RESULT:    -4.126      3.266      6.151
REMARK INTER + INTRA:          -7.368
REMARK INTER:                  -6.827
REMARK INTRA:                  -0.540
REMARK UNBOUND:                -0.829
REMARK SMILES CCCCCCCCCCCC(=O)[O-]
REMARK SMILES IDX 7 1 8 2 9 3 10 4 11 5 12 6 13 7 14 8 6 9 5 10 4 11 3 12 2 13
REMARK SMILES IDX 1 14
REMARK H PARENT
REMARK Flexibility Score: inf
ROOT
ATOM      1  C   UNL     1      33.993   7.743  45.317  1.00  0.00     0.000 C 
ENDROOT
BRANCH   1   2
ATOM      2  C   UNL     1      34.433   8.507  44.058  1.00  0.00     0.000 C 
BRANCH   2   3
ATOM      3  C   UNL     1      34.458  10.031  44.268  1.00  0.00     0.000 C 
BRANCH   3   4
ATOM      4  C   UNL     1      34.749  10.425  45.728  1.00  0.00     0.006 C 
BRANCH   4   5
ATOM      5  C   UNL     1      36.005  11.292  45.907  1.00  0.00     0.053 C 
BRANCH   5   6
ATOM      6  C   UNL     1      35.713  12.561  46.645  1.00  0.00     0.041 C 
ATOM      7  O   UNL     1      35.596  12.554  47.899  1.00  0.00    -0.550 OA
ATOM      8  O   UNL     1      35.531  13.748  45.944  1.00  0.00    -0.550 OA
ENDBRANCH   5   6
ENDBRANCH   4   5
ENDBRANCH   3   4
ENDBRANCH   2   3
ENDBRANCH   1   2
BRANCH   1   9
ATOM      9  C   UNL     1      33.977   6.218  45.106  1.00  0.00     0.000 C 
BRANCH   9  10
ATOM     10  C   UNL     1      34.332   5.448  46.387  1.00  0.00    -0.000 C 
BRANCH  10  11
ATOM     11  C   UNL     1      33.700   6.072  47.645  1.00  0.00    -0.000 C 
BRANCH  11  12
ATOM     12  C   UNL     1      32.296   5.503  47.935  1.00  0.00    -0.000 C 
BRANCH  12  13
ATOM     13  C   UNL     1      31.158   6.329  47.313  1.00  0.00    -0.003 C 
ATOM     14  C   UNL     1      29.847   6.222  48.089  1.00  0.00     0.004 C 
ENDBRANCH  12  13
ENDBRANCH  11  12
ENDBRANCH  10  11
ENDBRANCH   9  10
ENDBRANCH   1   9
TORSDOF 10
ENDMDL
MODEL 3
REMARK VINA RESULT:    -4.122      1.673      4.512
REMARK INTER + INTRA:          -7.361
REMARK INTER:                  -6.173
REMARK INTRA:                  -1.188
REMARK UNBOUND:                -0.829
REMARK SMILES CCCCCCCCCCCC(=O)[O-]
REMARK SMILES IDX 7 1 8 2 9 3 10 4 11 5 12 6 13 7 14 8 6 9 5 10 4 11 3 12 2 13
REMARK SMILES IDX 1 14
REMARK H PARENT
REMARK Flexibility Score: inf
ROOT
ATOM      1  C   UNL     1      30.944   8.813  48.884  1.00  0.00     0.000 C 
ENDROOT
BRANCH   1   2
ATOM      2  C   UNL     1      32.412   9.268  48.895  1.00  0.00     0.000 C 
BRANCH   2   3
ATOM      3  C   UNL     1      32.829   9.958  47.585  1.00  0.00     0.000 C 
BRANCH   3   4
ATOM      4  C   UNL     1      34.013   9.256  46.894  1.00  0.00     0.006 C 
BRANCH   4   5
ATOM      5  C   UNL     1      34.778  10.144  45.899  1.00  0.00     0.053 C 
BRANCH   5   6
ATOM      6  C   UNL     1      34.434   9.821  44.479  1.00  0.00     0.041 C 
ATOM      7  O   UNL     1      34.838   8.749  43.956  1.00  0.00    -0.550 OA
ATOM      8  O   UNL     1      33.698  10.723  43.718  1.00  0.00    -0.550 OA
ENDBRANCH   5   6
ENDBRANCH   4   5
ENDBRANCH   3   4
ENDBRANCH   2   3
ENDBRANCH   1   2
BRANCH   1   9
ATOM      9  C   UNL     1      30.798   7.287  49.017  1.00  0.00     0.000 C 
BRANCH   9  10
ATOM     10  C   UNL     1      30.526   6.607  47.666  1.00  0.00    -0.000 C 
BRANCH  10  11
ATOM     11  C   UNL     1      31.817   6.141  46.968  1.00  0.00    -0.000 C 
BRANCH  11  12
ATOM     12  C   UNL     1      32.897   5.699  47.977  1.00  0.00    -0.000 C 
BRANCH  12  13
ATOM     13  C   UNL     1      34.247   5.363  47.323  1.00  0.00    -0.003 C 
ATOM     14  C   UNL     1      34.314   5.756  45.849  1.00  0.00     0.004 C 
ENDBRANCH  12  13
ENDBRANCH  11  12
ENDBRANCH  10  11
ENDBRANCH   9  10
ENDBRANCH   1   9
TORSDOF 10
ENDMDL
MODEL 4
REMARK VINA RESULT:    -4.076     16.585     18.071
REMARK INTER + INTRA:          -7.288
REMARK INTER:                  -6.283
REMARK INTRA:                  -1.005
REMARK UNBOUND:                -0.829
REMARK SMILES CCCCCCCCCCCC(=O)[O-]
REMARK SMILES IDX 7 1 8 2 9 3 10 4 11 5 12 6 13 7 14 8 6 9 5 10 4 11 3 12 2 13
REMARK SMILES IDX 1 14
REMARK H PARENT
REMARK Flexibility Score: inf
ROOT
ATOM      1  C   UNL     1      21.183   9.656  35.080  1.00  0.00     0.000 C 
ENDROOT
BRANCH   1   2
ATOM      2  C   UNL     1      20.086   9.504  36.145  1.00  0.00     0.000 C 
BRANCH   2   3
ATOM      3  C   UNL     1      19.575   8.057  36.268  1.00  0.00     0.000 C 
BRANCH   3   4
ATOM      4  C   UNL     1      20.308   7.086  35.325  1.00  0.00     0.006 C 
BRANCH   4   5
ATOM      5  C   UNL     1      19.434   6.532  34.189  1.00  0.00     0.053 C 
BRANCH   5   6
ATOM      6  C   UNL     1      20.083   6.691  32.850  1.00  0.00     0.041 C 
ATOM      7  O   UNL     1      20.689   5.723  32.319  1.00  0.00    -0.550 OA
ATOM      8  O   UNL     1      20.051   7.921  32.202  1.00  0.00    -0.550 OA
ENDBRANCH   5   6
ENDBRANCH   4   5
ENDBRANCH   3   4
ENDBRANCH   2   3
ENDBRANCH   1   2
BRANCH   1   9
ATOM      9  C   UNL     1      22.445  10.345  35.628  1.00  0.00     0.000 C 
BRANCH   9  10
ATOM     10  C   UNL     1      22.323  11.877  35.623  1.00  0.00    -0.000 C 
BRANCH  10  11
ATOM     11  C   UNL     1      21.638  12.411  34.352  1.00  0.00    -0.000 C 
BRANCH  11  12
ATOM     12  C   UNL     1      20.623  13.529  34.665  1.00  0.00    -0.000 C 
BRANCH  12  13
ATOM     13  C   UNL     1      19.176  13.026  34.804  1.00  0.00    -0.003 C 
ATOM     14  C   UNL     1      18.679  13.024  36.248  1.00  0.00     0.004 C 
ENDBRANCH  12  13
ENDBRANCH  11  12
ENDBRANCH  10  11
ENDBRANCH   9  10
ENDBRANCH   1   9
TORSDOF 10
ENDMDL
MODEL 5
REMARK VINA RESULT:    -4.064     16.814     18.677
REMARK INTER + INTRA:          -7.269
REMARK INTER:                  -6.403
REMARK INTRA:                  -0.866
REMARK UNBOUND:                -0.829
REMARK SMILES CCCCCCCCCCCC(=O)[O-]
REMARK SMILES IDX 7 1 8 2 9 3 10 4 11 5 12 6 13 7 14 8 6 9 5 10 4 11 3 12 2 13
REMARK SMILES IDX 1 14
REMARK H PARENT
REMARK Flexibility Score: inf
ROOT
ATOM      1  C   UNL     1      22.379  10.229  35.625  1.00  0.00     0.000 C 
ENDROOT
BRANCH   1   2
ATOM      2  C   UNL     1      22.419  11.741  35.352  1.00  0.00     0.000 C 
BRANCH   2   3
ATOM      3  C   UNL     1      22.001  12.096  33.914  1.00  0.00     0.000 C 
BRANCH   3   4
ATOM      4  C   UNL     1      20.649  12.828  33.852  1.00  0.00     0.006 C 
BRANCH   4   5
ATOM      5  C   UNL     1      20.172  13.386  35.202  1.00  0.00     0.053 C 
BRANCH   5   6
ATOM      6  C   UNL     1      18.836  12.839  35.597  1.00  0.00     0.041 C 
ATOM      7  O   UNL     1      18.321  11.891  34.948  1.00  0.00    -0.550 OA
ATOM      8  O   UNL     1      18.141  13.402  36.662  1.00  0.00    -0.550 OA
ENDBRANCH   5   6
ENDBRANCH   4   5
ENDBRANCH   3   4
ENDBRANCH   2   3
ENDBRANCH   1   2
BRANCH   1   9
ATOM      9  C   UNL     1      20.951   9.712  35.874  1.00  0.00     0.000 C 
BRANCH   9  10
ATOM     10  C   UNL     1      20.396   8.930  34.674  1.00  0.00    -0.000 C 
BRANCH  10  11
ATOM     11  C   UNL     1      19.341   7.887  35.086  1.00  0.00    -0.000 C 
BRANCH  11  12
ATOM     12  C   UNL     1      19.332   7.638  36.608  1.00  0.00    -0.000 C 
BRANCH  12  13
ATOM     13  C   UNL     1      19.326   6.147  36.987  1.00  0.00    -0.003 C 
ATOM     14  C   UNL     1      18.032   5.435  36.599  1.00  0.00     0.004 C 
ENDBRANCH  12  13
ENDBRANCH  11  12
ENDBRANCH  10  11
ENDBRANCH   9  10
ENDBRANCH   1   9
TORSDOF 10
ENDMDL
MODEL 6
REMARK VINA RESULT:    -4.034     17.105     18.902
REMARK INTER + INTRA:          -7.222
REMARK INTER:                  -6.168
REMARK INTRA:                  -1.054
REMARK UNBOUND:                -0.829
REMARK SMILES CCCCCCCCCCCC(=O)[O-]
REMARK SMILES IDX 7 1 8 2 9 3 10 4 11 5 12 6 13 7 14 8 6 9 5 10 4 11 3 12 2 13
REMARK SMILES IDX 1 14
REMARK H PARENT
REMARK Flexibility Score: inf
ROOT
ATOM      1  C   UNL     1      20.356   9.860  35.839  1.00  0.00     0.000 C 
ENDROOT
BRANCH   1   2
ATOM      2  C   UNL     1      21.764  10.185  35.317  1.00  0.00     0.000 C 
BRANCH   2   3
ATOM      3  C   UNL     1      22.169  11.647  35.574  1.00  0.00     0.000 C 
BRANCH   3   4
ATOM      4  C   UNL     1      20.970  12.612  35.535  1.00  0.00     0.006 C 
BRANCH   4   5
ATOM      5  C   UNL     1      20.979  13.580  34.341  1.00  0.00     0.053 C 
BRANCH   5   6
ATOM      6  C   UNL     1      20.704  12.880  33.047  1.00  0.00     0.041 C 
ATOM      7  O   UNL     1      19.618  12.264  32.878  1.00  0.00    -0.550 OA
ATOM      8  O   UNL     1      21.661  12.876  32.040  1.00  0.00    -0.550 OA
ENDBRANCH   5   6
ENDBRANCH   4   5
ENDBRANCH   3   4
ENDBRANCH   2   3
ENDBRANCH   1   2
BRANCH   1   9
ATOM      9  C   UNL     1      19.426   9.323  34.736  1.00  0.00     0.000 C 
BRANCH   9  10
ATOM     10  C   UNL     1      20.124   8.292  33.836  1.00  0.00    -0.000 C 
BRANCH  10  11
ATOM     11  C   UNL     1      20.030   6.860  34.394  1.00  0.00    -0.000 C 
BRANCH  11  12
ATOM     12  C   UNL     1      18.568   6.401  34.574  1.00  0.00    -0.000 C 
BRANCH  12  13
ATOM     13  C   UNL     1      18.184   6.134  36.039  1.00  0.00    -0.003 C 
ATOM     14  C   UNL     1      19.362   6.267  37.002  1.00  0.00     0.004 C 
ENDBRANCH  12  13
ENDBRANCH  11  12
ENDBRANCH  10  11
ENDBRANCH   9  10
ENDBRANCH   1   9
TORSDOF 10
ENDMDL
MODEL 7
REMARK VINA RESULT:    -4.025     16.842     18.703
REMARK INTER + INTRA:          -7.208
REMARK INTER:                  -6.187
REMARK INTRA:                  -1.021
REMARK UNBOUND:                -0.829
REMARK SMILES CCCCCCCCCCCC(=O)[O-]
REMARK SMILES IDX 7 1 8 2 9 3 10 4 11 5 12 6 13 7 14 8 6 9 5 10 4 11 3 12 2 13
REMARK SMILES IDX 1 14
REMARK H PARENT
REMARK Flexibility Score: inf
ROOT
ATOM      1  C   UNL     1      20.920   9.439  35.049  1.00  0.00     0.000 C 
ENDROOT
BRANCH   1   2
ATOM      2  C   UNL     1      22.035  10.275  35.697  1.00  0.00     0.000 C 
BRANCH   2   3
ATOM      3  C   UNL     1      22.694  11.252  34.707  1.00  0.00     0.000 C 
BRANCH   3   4
ATOM      4  C   UNL     1      21.668  12.118  33.954  1.00  0.00     0.006 C 
BRANCH   4   5
ATOM      5  C   UNL     1      21.043  13.235  34.803  1.00  0.00     0.053 C 
BRANCH   5   6
ATOM      6  C   UNL     1      19.576  13.027  35.015  1.00  0.00     0.041 C 
ATOM      7  O   UNL     1      18.791  12.994  34.030  1.00  0.00    -0.550 OA
ATOM      8  O   UNL     1      19.068  12.905  36.303  1.00  0.00    -0.550 OA
ENDBRANCH   5   6
ENDBRANCH   4   5
ENDBRANCH   3   4
ENDBRANCH   2   3
ENDBRANCH   1   2
BRANCH   1   9
ATOM      9  C   UNL     1      19.656   9.362  35.924  1.00  0.00     0.000 C 
BRANCH   9  10
ATOM     10  C   UNL     1      19.580   8.053  36.725  1.00  0.00    -0.000 C 
BRANCH  10  11
ATOM     11  C   UNL     1      19.872   6.813  35.861  1.00  0.00    -0.000 C 
BRANCH  11  12
ATOM     12  C   UNL     1      18.673   6.430  34.969  1.00  0.00    -0.000 C 
BRANCH  12  13
ATOM     13  C   UNL     1      18.987   6.475  33.464  1.00  0.00    -0.003 C 
ATOM     14  C   UNL     1      20.462   6.231  33.152  1.00  0.00     0.004 C 
ENDBRANCH  12  13
ENDBRANCH  11  12
ENDBRANCH  10  11
ENDBRANCH   9  10
ENDBRANCH   1   9
TORSDOF 10
ENDMDL
MODEL 8
REMARK VINA RESULT:    -4.000     16.453     18.060
REMARK INTER + INTRA:          -7.167
REMARK INTER:                  -5.997
REMARK INTRA:                  -1.170
REMARK UNBOUND:                -0.829
REMARK SMILES CCCCCCCCCCCC(=O)[O-]
REMARK SMILES IDX 7 1 8 2 9 3 10 4 11 5 12 6 13 7 14 8 6 9 5 10 4 11 3 12 2 13
REMARK SMILES IDX 1 14
REMARK H PARENT
REMARK Flexibility Score: inf
ROOT
ATOM      1  C   UNL     1      22.244  11.624  35.579  1.00  0.00     0.000 C 
ENDROOT
BRANCH   1   2
ATOM      2  C   UNL     1      22.130  10.092  35.611  1.00  0.00     0.000 C 
BRANCH   2   3
ATOM      3  C   UNL     1      20.669   9.607  35.637  1.00  0.00     0.000 C 
BRANCH   3   4
ATOM      4  C   UNL     1      20.401   8.476  34.627  1.00  0.00     0.006 C 
BRANCH   4   5
ATOM      5  C   UNL     1      20.553   7.062  35.209  1.00  0.00     0.053 C 
BRANCH   5   6
ATOM      6  C   UNL     1      19.346   6.641  35.988  1.00  0.00     0.041 C 
ATOM      7  O   UNL     1      19.397   6.565  37.244  1.00  0.00    -0.550 OA
ATOM      8  O   UNL     1      18.174   6.298  35.324  1.00  0.00    -0.550 OA
ENDBRANCH   5   6
ENDBRANCH   4   5
ENDBRANCH   3   4
ENDBRANCH   2   3
ENDBRANCH   1   2
BRANCH   1   9
ATOM      9  C   UNL     1      20.872  12.320  35.638  1.00  0.00     0.000 C 
BRANCH   9  10
ATOM     10  C   UNL     1      20.801  13.549  34.719  1.00  0.00    -0.000 C 
BRANCH  10  11
ATOM     11  C   UNL     1      20.184  13.225  33.346  1.00  0.00    -0.000 C 
BRANCH  11  12
ATOM     12  C   UNL     1      21.234  13.244  32.216  1.00  0.00    -0.000 C 
BRANCH  12  13
ATOM     13  C   UNL     1      21.849  11.865  31.925  1.00  0.00    -0.003 C 
ATOM     14  C   UNL     1      20.806  10.756  31.810  1.00  0.00     0.004 C 
ENDBRANCH  12  13
ENDBRANCH  11  12
ENDBRANCH  10  11
ENDBRANCH   9  10
ENDBRANCH   1   9
TORSDOF 10
ENDMDL
MODEL 9
REMARK VINA RESULT:    -3.930     16.716     18.321
REMARK INTER + INTRA:          -7.057
REMARK INTER:                  -5.555
REMARK INTRA:                  -1.503
REMARK UNBOUND:                -0.829
REMARK SMILES CCCCCCCCCCCC(=O)[O-]
REMARK SMILES IDX 7 1 8 2 9 3 10 4 11 5 12 6 13 7 14 8 6 9 5 10 4 11 3 12 2 13
REMARK SMILES IDX 1 14
REMARK H PARENT
REMARK Flexibility Score: inf
ROOT
ATOM      1  C   UNL     1      21.754  10.093  35.375  1.00  0.00     0.000 C 
ENDROOT
BRANCH   1   2
ATOM      2  C   UNL     1      20.296  10.149  35.858  1.00  0.00     0.000 C 
BRANCH   2   3
ATOM      3  C   UNL     1      19.293   9.741  34.765  1.00  0.00     0.000 C 
BRANCH   3   4
ATOM      4  C   UNL     1      19.975   9.103  33.541  1.00  0.00     0.006 C 
BRANCH   4   5
ATOM      5  C   UNL     1      19.506   7.672  33.233  1.00  0.00     0.053 C 
BRANCH   5   6
ATOM      6  C   UNL     1      20.483   6.645  33.714  1.00  0.00     0.041 C 
ATOM      7  O   UNL     1      20.937   5.780  32.919  1.00  0.00    -0.550 OA
ATOM      8  O   UNL     1      20.864   6.618  35.050  1.00  0.00    -0.550 OA
ENDBRANCH   5   6
ENDBRANCH   4   5
ENDBRANCH   3   4
ENDBRANCH   2   3
ENDBRANCH   1   2
BRANCH   1   9
ATOM      9  C   UNL     1      22.358  11.492  35.161  1.00  0.00     0.000 C 
BRANCH   9  10
ATOM     10  C   UNL     1      21.405  12.613  35.603  1.00  0.00    -0.000 C 
BRANCH  10  11
ATOM     11  C   UNL     1      20.955  13.503  34.429  1.00  0.00    -0.000 C 
BRANCH  11  12
ATOM     12  C   UNL     1      21.516  13.013  33.079  1.00  0.00    -0.000 C 
BRANCH  12  13
ATOM     13  C   UNL     1      20.431  12.538  32.097  1.00  0.00    -0.003 C 
ATOM     14  C   UNL     1      19.014  12.727  32.634  1.00  0.00     0.004 C 
ENDBRANCH  12  13
ENDBRANCH  11  12
ENDBRANCH  10  11
ENDBRANCH   9  10
ENDBRANCH   1   9
TORSDOF 10
ENDMDL
