MODEL 1
REMARK VINA RESULT:     1.902      0.000      0.000
REMARK INTER + INTRA:           3.329
REMARK INTER:                   3.681
REMARK INTRA:                  -0.352
REMARK UNBOUND:                -0.352
REMARK SMILES CCCCCCCCCCCCCCCCCC(=O)[O-]
REMARK SMILES IDX 10 1 11 2 12 3 13 4 14 5 15 6 16 7 17 8 18 9 19 10 20 11
REMARK SMILES IDX 9 12 8 13 7 14 6 15 5 16 4 17 3 18 2 19 1 20
REMARK H PARENT
REMARK Flexibility Score: inf
ROOT
ATOM      1  C   UNL     1      -3.846  15.262  26.165  1.00  0.00     0.000 C 
ENDROOT
BRANCH   1   2
ATOM      2  C   UNL     1      -5.056  16.219  26.211  1.00  0.00     0.000 C 
BRANCH   2   3
ATOM      3  C   UNL     1      -5.060  17.156  27.434  1.00  0.00     0.000 C 
BRANCH   3   4
ATOM      4  C   UNL     1      -3.666  17.573  27.934  1.00  0.00     0.000 C 
BRANCH   4   5
ATOM      5  C   UNL     1      -2.916  18.462  26.926  1.00  0.00     0.000 C 
BRANCH   5   6
ATOM      6  C   UNL     1      -3.396  19.921  26.952  1.00  0.00     0.000 C 
BRANCH   6   7
ATOM      7  C   UNL     1      -4.876  20.055  27.340  1.00  0.00     0.006 C 
BRANCH   7   8
ATOM      8  C   UNL     1      -5.122  21.349  28.124  1.00  0.00     0.053 C 
BRANCH   8   9
ATOM      9  C   UNL     1      -4.895  22.543  27.252  1.00  0.00     0.041 C 
ATOM     10  O   UNL     1      -4.829  22.412  26.002  1.00  0.00    -0.550 OA
ATOM     11  O   UNL     1      -4.805  23.808  27.818  1.00  0.00    -0.550 OA
ENDBRANCH   8   9
ENDBRANCH   7   8
ENDBRANCH   6   7
ENDBRANCH   5   6
ENDBRANCH   4   5
ENDBRANCH   3   4
ENDBRANCH   2   3
ENDBRANCH   1   2
BRANCH   1  12
ATOM     12  C   UNL     1      -3.913  14.188  27.263  1.00  0.00     0.000 C 
BRANCH  12  13
ATOM     13  C   UNL     1      -2.751  13.184  27.192  1.00  0.00    -0.000 C 
BRANCH  13  14
ATOM     14  C   UNL     1      -3.168  11.729  27.498  1.00  0.00    -0.000 C 
BRANCH  14  15
ATOM     15  C   UNL     1      -3.461  10.924  26.219  1.00  0.00    -0.000 C 
BRANCH  15  16
ATOM     16  C   UNL     1      -4.924  11.075  25.753  1.00  0.00    -0.000 C 
BRANCH  16  17
ATOM     17  C   UNL     1      -5.087  11.083  24.223  1.00  0.00    -0.000 C 
BRANCH  17  18
ATOM     18  C   UNL     1      -4.194  12.123  23.533  1.00  0.00    -0.000 C 
BRANCH  18  19
ATOM     19  C   UNL     1      -4.876  13.495  23.495  1.00  0.00    -0.003 C 
ATOM     20  C   UNL     1      -5.125  13.949  22.060  1.00  0.00     0.004 C 
ENDBRANCH  18  19
ENDBRANCH  17  18
ENDBRANCH  16  17
ENDBRANCH  15  16
ENDBRANCH  14  15
ENDBRANCH  13  14
ENDBRANCH  12  13
ENDBRANCH   1  12
TORSDOF 16
ENDMDL
