MODEL 1
REMARK VINA RESULT:    -4.444      0.000      0.000
REMARK INTER + INTRA:         -15.315
REMARK INTER:                 -11.718
REMARK INTRA:                  -3.596
REMARK UNBOUND:                -3.596
REMARK SMILES CCCCCCCCCCCCCCCCCCCCCCCCCCCCCC(=O)[O-]
REMARK SMILES IDX 16 1 17 2 18 3 19 4 20 5 21 6 22 7 23 8 24 9 25 10 26 11
REMARK SMILES IDX 27 12 28 13 29 14 30 15 31 16 32 17 15 18 14 19 13 20 12 21
REMARK SMILES IDX 11 22 10 23 9 24 8 25 7 26 6 27 5 28 4 29 3 30 2 31 1 32
REMARK H PARENT
REMARK Flexibility Score: inf
ROOT
ATOM      1  C   UNL     1      31.360  29.764  11.248  1.00  0.00     0.000 C 
ENDROOT
BRANCH   1   2
ATOM      2  C   UNL     1      30.263  30.052  10.210  1.00  0.00     0.000 C 
BRANCH   2   3
ATOM      3  C   UNL     1      29.283  28.879  10.047  1.00  0.00     0.000 C 
BRANCH   3   4
ATOM      4  C   UNL     1      28.485  28.955   8.734  1.00  0.00     0.000 C 
BRANCH   4   5
ATOM      5  C   UNL     1      29.376  29.205   7.503  1.00  0.00     0.000 C 
BRANCH   5   6
ATOM      6  C   UNL     1      28.716  30.011   6.370  1.00  0.00     0.000 C 
BRANCH   6   7
ATOM      7  C   UNL     1      29.543  31.238   5.947  1.00  0.00     0.000 C 
BRANCH   7   8
ATOM      8  C   UNL     1      30.811  31.427   6.800  1.00  0.00     0.000 C 
BRANCH   8   9
ATOM      9  C   UNL     1      30.813  32.682   7.692  1.00  0.00     0.000 C 
BRANCH   9  10
ATOM     10  C   UNL     1      29.466  33.427   7.679  1.00  0.00     0.000 C 
BRANCH  10  11
ATOM     11  C   UNL     1      28.932  33.697   9.095  1.00  0.00     0.000 C 
BRANCH  11  12
ATOM     12  C   UNL     1      27.893  32.652   9.538  1.00  0.00     0.000 C 
BRANCH  12  13
ATOM     13  C   UNL     1      27.449  32.846  10.997  1.00  0.00     0.006 C 
BRANCH  13  14
ATOM     14  C   UNL     1      27.105  31.518  11.685  1.00  0.00     0.053 C 
BRANCH  14  15
ATOM     15  C   UNL     1      27.877  31.374  12.959  1.00  0.00     0.041 C 
ATOM     16  O   UNL     1      28.048  32.369  13.712  1.00  0.00    -0.550 OA
ATOM     17  O   UNL     1      28.446  30.151  13.293  1.00  0.00    -0.550 OA
ENDBRANCH  14  15
ENDBRANCH  13  14
ENDBRANCH  12  13
ENDBRANCH  11  12
ENDBRANCH  10  11
ENDBRANCH   9  10
ENDBRANCH   8   9
ENDBRANCH   7   8
ENDBRANCH   6   7
ENDBRANCH   5   6
ENDBRANCH   4   5
ENDBRANCH   3   4
ENDBRANCH   2   3
ENDBRANCH   1   2
BRANCH   1  18
ATOM     18  C   UNL     1      32.445  30.856  11.290  1.00  0.00     0.000 C 
BRANCH  18  19
ATOM     19  C   UNL     1      33.496  30.686  12.405  1.00  0.00     0.000 C 
BRANCH  19  20
ATOM     20  C   UNL     1      34.231  31.979  12.812  1.00  0.00     0.000 C 
BRANCH  20  21
ATOM     21  C   UNL     1      35.427  31.771  13.761  1.00  0.00     0.000 C 
BRANCH  21  22
ATOM     22  C   UNL     1      35.350  30.509  14.643  1.00  0.00     0.000 C 
BRANCH  22  23
ATOM     23  C   UNL     1      36.703  29.855  14.979  1.00  0.00     0.000 C 
BRANCH  23  24
ATOM     24  C   UNL     1      37.905  30.737  14.602  1.00  0.00    -0.000 C 
BRANCH  24  25
ATOM     25  C   UNL     1      38.809  30.100  13.531  1.00  0.00    -0.000 C 
BRANCH  25  26
ATOM     26  C   UNL     1      39.131  28.608  13.737  1.00  0.00    -0.000 C 
BRANCH  26  27
ATOM     27  C   UNL     1      40.499  28.372  14.398  1.00  0.00    -0.000 C 
BRANCH  27  28
ATOM     28  C   UNL     1      41.569  29.382  13.942  1.00  0.00    -0.000 C 
BRANCH  28  29
ATOM     29  C   UNL     1      42.203  30.217  15.068  1.00  0.00    -0.000 C 
BRANCH  29  30
ATOM     30  C   UNL     1      41.256  30.433  16.261  1.00  0.00    -0.000 C 
BRANCH  30  31
ATOM     31  C   UNL     1      41.999  30.441  17.607  1.00  0.00    -0.003 C 
ATOM     32  C   UNL     1      42.529  29.060  17.995  1.00  0.00     0.004 C 
ENDBRANCH  30  31
ENDBRANCH  29  30
ENDBRANCH  28  29
ENDBRANCH  27  28
ENDBRANCH  26  27
ENDBRANCH  25  26
ENDBRANCH  24  25
ENDBRANCH  23  24
ENDBRANCH  22  23
ENDBRANCH  21  22
ENDBRANCH  20  21
ENDBRANCH  19  20
ENDBRANCH  18  19
ENDBRANCH   1  18
TORSDOF 28
ENDMDL
MODEL 2
REMARK VINA RESULT:    -4.311      2.135      3.863
REMARK INTER + INTRA:         -14.964
REMARK INTER:                 -12.033
REMARK INTRA:                  -2.931
REMARK UNBOUND:                -3.596
REMARK SMILES CCCCCCCCCCCCCCCCCCCCCCCCCCCCCC(=O)[O-]
REMARK SMILES IDX 16 1 17 2 18 3 19 4 20 5 21 6 22 7 23 8 24 9 25 10 26 11
REMARK SMILES IDX 27 12 28 13 29 14 30 15 31 16 32 17 15 18 14 19 13 20 12 21
REMARK SMILES IDX 11 22 10 23 9 24 8 25 7 26 6 27 5 28 4 29 3 30 2 31 1 32
REMARK H PARENT
REMARK Flexibility Score: inf
ROOT
ATOM      1  C   UNL     1      32.956  30.108  12.346  1.00  0.00     0.000 C 
ENDROOT
BRANCH   1   2
ATOM      2  C   UNL     1      31.978  30.472  11.216  1.00  0.00     0.000 C 
BRANCH   2   3
ATOM      3  C   UNL     1      30.872  29.420  11.033  1.00  0.00     0.000 C 
BRANCH   3   4
ATOM      4  C   UNL     1      29.476  29.964  11.385  1.00  0.00     0.000 C 
BRANCH   4   5
ATOM      5  C   UNL     1      28.912  29.373  12.690  1.00  0.00     0.000 C 
BRANCH   5   6
ATOM      6  C   UNL     1      27.712  30.131  13.287  1.00  0.00     0.000 C 
BRANCH   6   7
ATOM      7  C   UNL     1      27.988  31.632  13.483  1.00  0.00     0.000 C 
BRANCH   7   8
ATOM      8  C   UNL     1      26.893  32.526  12.873  1.00  0.00     0.000 C 
BRANCH   8   9
ATOM      9  C   UNL     1      27.241  33.137  11.503  1.00  0.00     0.000 C 
BRANCH   9  10
ATOM     10  C   UNL     1      26.451  32.500  10.346  1.00  0.00     0.000 C 
BRANCH  10  11
ATOM     11  C   UNL     1      27.368  31.850   9.297  1.00  0.00     0.000 C 
BRANCH  11  12
ATOM     12  C   UNL     1      27.281  32.550   7.930  1.00  0.00     0.000 C 
BRANCH  12  13
ATOM     13  C   UNL     1      28.666  32.881   7.350  1.00  0.00     0.006 C 
BRANCH  13  14
ATOM     14  C   UNL     1      29.661  33.326   8.430  1.00  0.00     0.053 C 
BRANCH  14  15
ATOM     15  C   UNL     1      30.902  32.492   8.374  1.00  0.00     0.041 C 
ATOM     16  O   UNL     1      32.010  32.979   8.723  1.00  0.00    -0.550 OA
ATOM     17  O   UNL     1      30.844  31.189   7.892  1.00  0.00    -0.550 OA
ENDBRANCH  14  15
ENDBRANCH  13  14
ENDBRANCH  12  13
ENDBRANCH  11  12
ENDBRANCH  10  11
ENDBRANCH   9  10
ENDBRANCH   8   9
ENDBRANCH   7   8
ENDBRANCH   6   7
ENDBRANCH   5   6
ENDBRANCH   4   5
ENDBRANCH   3   4
ENDBRANCH   2   3
ENDBRANCH   1   2
BRANCH   1  18
ATOM     18  C   UNL     1      33.972  31.227  12.640  1.00  0.00     0.000 C 
BRANCH  18  19
ATOM     19  C   UNL     1      35.165  30.807  13.521  1.00  0.00     0.000 C 
BRANCH  19  20
ATOM     20  C   UNL     1      35.839  31.955  14.299  1.00  0.00     0.000 C 
BRANCH  20  21
ATOM     21  C   UNL     1      37.376  31.868  14.378  1.00  0.00     0.000 C 
BRANCH  21  22
ATOM     22  C   UNL     1      37.997  30.644  13.677  1.00  0.00     0.000 C 
BRANCH  22  23
ATOM     23  C   UNL     1      39.162  29.975  14.429  1.00  0.00     0.000 C 
BRANCH  23  24
ATOM     24  C   UNL     1      39.582  28.631  13.809  1.00  0.00    -0.000 C 
BRANCH  24  25
ATOM     25  C   UNL     1      39.902  28.732  12.307  1.00  0.00    -0.000 C 
BRANCH  25  26
ATOM     26  C   UNL     1      41.392  28.623  11.937  1.00  0.00    -0.000 C 
BRANCH  26  27
ATOM     27  C   UNL     1      42.308  28.474  13.163  1.00  0.00    -0.000 C 
BRANCH  27  28
ATOM     28  C   UNL     1      43.085  29.762  13.495  1.00  0.00    -0.000 C 
BRANCH  28  29
ATOM     29  C   UNL     1      43.224  30.075  14.995  1.00  0.00    -0.000 C 
BRANCH  29  30
ATOM     30  C   UNL     1      42.577  29.007  15.893  1.00  0.00    -0.000 C 
BRANCH  30  31
ATOM     31  C   UNL     1      42.217  29.550  17.285  1.00  0.00    -0.003 C 
ATOM     32  C   UNL     1      41.327  30.791  17.221  1.00  0.00     0.004 C 
ENDBRANCH  30  31
ENDBRANCH  29  30
ENDBRANCH  28  29
ENDBRANCH  27  28
ENDBRANCH  26  27
ENDBRANCH  25  26
ENDBRANCH  24  25
ENDBRANCH  23  24
ENDBRANCH  22  23
ENDBRANCH  21  22
ENDBRANCH  20  21
ENDBRANCH  19  20
ENDBRANCH  18  19
ENDBRANCH   1  18
TORSDOF 28
ENDMDL
MODEL 3
REMARK VINA RESULT:    -4.261      4.039     11.805
REMARK INTER + INTRA:         -14.833
REMARK INTER:                 -11.428
REMARK INTRA:                  -3.406
REMARK UNBOUND:                -3.596
REMARK SMILES CCCCCCCCCCCCCCCCCCCCCCCCCCCCCC(=O)[O-]
REMARK SMILES IDX 16 1 17 2 18 3 19 4 20 5 21 6 22 7 23 8 24 9 25 10 26 11
REMARK SMILES IDX 27 12 28 13 29 14 30 15 31 16 32 17 15 18 14 19 13 20 12 21
REMARK SMILES IDX 11 22 10 23 9 24 8 25 7 26 6 27 5 28 4 29 3 30 2 31 1 32
REMARK H PARENT
REMARK Flexibility Score: inf
ROOT
ATOM      1  C   UNL     1      30.346  29.707  10.573  1.00  0.00     0.000 C 
ENDROOT
BRANCH   1   2
ATOM      2  C   UNL     1      31.493  29.673  11.597  1.00  0.00     0.000 C 
BRANCH   2   3
ATOM      3  C   UNL     1      32.347  30.951  11.567  1.00  0.00     0.000 C 
BRANCH   3   4
ATOM      4  C   UNL     1      33.697  30.775  12.284  1.00  0.00     0.000 C 
BRANCH   4   5
ATOM      5  C   UNL     1      34.280  32.103  12.802  1.00  0.00     0.000 C 
BRANCH   5   6
ATOM      6  C   UNL     1      35.257  31.972  13.985  1.00  0.00     0.000 C 
BRANCH   6   7
ATOM      7  C   UNL     1      35.581  30.509  14.336  1.00  0.00     0.000 C 
BRANCH   7   8
ATOM      8  C   UNL     1      36.692  30.381  15.395  1.00  0.00     0.000 C 
BRANCH   8   9
ATOM      9  C   UNL     1      38.078  30.883  14.947  1.00  0.00     0.000 C 
BRANCH   9  10
ATOM     10  C   UNL     1      38.585  30.181  13.676  1.00  0.00     0.000 C 
BRANCH  10  11
ATOM     11  C   UNL     1      39.444  28.946  13.991  1.00  0.00     0.000 C 
BRANCH  11  12
ATOM     12  C   UNL     1      40.952  29.249  13.925  1.00  0.00     0.000 C 
BRANCH  12  13
ATOM     13  C   UNL     1      41.642  29.103  15.291  1.00  0.00     0.006 C 
BRANCH  13  14
ATOM     14  C   UNL     1      41.514  30.368  16.149  1.00  0.00     0.053 C 
BRANCH  14  15
ATOM     15  C   UNL     1      42.858  30.807  16.638  1.00  0.00     0.041 C 
ATOM     16  O   UNL     1      43.574  31.563  15.930  1.00  0.00    -0.550 OA
ATOM     17  O   UNL     1      43.341  30.345  17.857  1.00  0.00    -0.550 OA
ENDBRANCH  14  15
ENDBRANCH  13  14
ENDBRANCH  12  13
ENDBRANCH  11  12
ENDBRANCH  10  11
ENDBRANCH   9  10
ENDBRANCH   8   9
ENDBRANCH   7   8
ENDBRANCH   6   7
ENDBRANCH   5   6
ENDBRANCH   4   5
ENDBRANCH   3   4
ENDBRANCH   2   3
ENDBRANCH   1   2
BRANCH   1  18
ATOM     18  C   UNL     1      28.955  29.692  11.234  1.00  0.00     0.000 C 
BRANCH  18  19
ATOM     19  C   UNL     1      28.966  29.762  12.774  1.00  0.00     0.000 C 
BRANCH  19  20
ATOM     20  C   UNL     1      28.095  30.879  13.383  1.00  0.00     0.000 C 
BRANCH  20  21
ATOM     21  C   UNL     1      26.589  30.764  13.074  1.00  0.00     0.000 C 
BRANCH  21  22
ATOM     22  C   UNL     1      26.005  31.918  12.236  1.00  0.00     0.000 C 
BRANCH  22  23
ATOM     23  C   UNL     1      26.770  33.251  12.325  1.00  0.00     0.000 C 
BRANCH  23  24
ATOM     24  C   UNL     1      27.089  33.853  10.946  1.00  0.00    -0.000 C 
BRANCH  24  25
ATOM     25  C   UNL     1      27.870  32.889  10.033  1.00  0.00    -0.000 C 
BRANCH  25  26
ATOM     26  C   UNL     1      27.133  32.444   8.756  1.00  0.00    -0.000 C 
BRANCH  26  27
ATOM     27  C   UNL     1      27.461  31.000   8.343  1.00  0.00    -0.000 C 
BRANCH  27  28
ATOM     28  C   UNL     1      28.323  30.918   7.069  1.00  0.00    -0.000 C 
BRANCH  28  29
ATOM     29  C   UNL     1      28.558  32.259   6.351  1.00  0.00    -0.000 C 
BRANCH  29  30
ATOM     30  C   UNL     1      30.045  32.645   6.272  1.00  0.00    -0.000 C 
BRANCH  30  31
ATOM     31  C   UNL     1      30.905  31.879   7.290  1.00  0.00    -0.003 C 
ATOM     32  C   UNL     1      31.316  32.742   8.483  1.00  0.00     0.004 C 
ENDBRANCH  30  31
ENDBRANCH  29  30
ENDBRANCH  28  29
ENDBRANCH  27  28
ENDBRANCH  26  27
ENDBRANCH  25  26
ENDBRANCH  24  25
ENDBRANCH  23  24
ENDBRANCH  22  23
ENDBRANCH  21  22
ENDBRANCH  20  21
ENDBRANCH  19  20
ENDBRANCH  18  19
ENDBRANCH   1  18
TORSDOF 28
ENDMDL
MODEL 4
REMARK VINA RESULT:    -4.227      2.267      4.076
REMARK INTER + INTRA:         -14.742
REMARK INTER:                 -12.147
REMARK INTRA:                  -2.595
REMARK UNBOUND:                -3.596
REMARK SMILES CCCCCCCCCCCCCCCCCCCCCCCCCCCCCC(=O)[O-]
REMARK SMILES IDX 16 1 17 2 18 3 19 4 20 5 21 6 22 7 23 8 24 9 25 10 26 11
REMARK SMILES IDX 27 12 28 13 29 14 30 15 31 16 32 17 15 18 14 19 13 20 12 21
REMARK SMILES IDX 11 22 10 23 9 24 8 25 7 26 6 27 5 28 4 29 3 30 2 31 1 32
REMARK H PARENT
REMARK Flexibility Score: inf
ROOT
ATOM      1  C   UNL     1      30.650  30.127  10.505  1.00  0.00     0.000 C 
ENDROOT
BRANCH   1   2
ATOM      2  C   UNL     1      29.183  30.028  10.956  1.00  0.00     0.000 C 
BRANCH   2   3
ATOM      3  C   UNL     1      29.046  29.614  12.429  1.00  0.00     0.000 C 
BRANCH   3   4
ATOM      4  C   UNL     1      28.423  30.720  13.298  1.00  0.00     0.000 C 
BRANCH   4   5
ATOM      5  C   UNL     1      27.522  31.677  12.497  1.00  0.00     0.000 C 
BRANCH   5   6
ATOM      6  C   UNL     1      27.309  33.064  13.133  1.00  0.00     0.000 C 
BRANCH   6   7
ATOM      7  C   UNL     1      25.917  33.650  12.842  1.00  0.00     0.000 C 
BRANCH   7   8
ATOM      8  C   UNL     1      25.974  35.099  12.325  1.00  0.00     0.000 C 
BRANCH   8   9
ATOM      9  C   UNL     1      26.536  35.259  10.900  1.00  0.00     0.000 C 
BRANCH   9  10
ATOM     10  C   UNL     1      25.879  34.304   9.888  1.00  0.00     0.000 C 
BRANCH  10  11
ATOM     11  C   UNL     1      26.899  33.683   8.920  1.00  0.00     0.000 C 
BRANCH  11  12
ATOM     12  C   UNL     1      28.288  33.516   9.562  1.00  0.00     0.000 C 
BRANCH  12  13
ATOM     13  C   UNL     1      29.373  33.163   8.531  1.00  0.00     0.006 C 
BRANCH  13  14
ATOM     14  C   UNL     1      28.833  32.296   7.386  1.00  0.00     0.053 C 
BRANCH  14  15
ATOM     15  C   UNL     1      29.936  31.492   6.773  1.00  0.00     0.041 C 
ATOM     16  O   UNL     1      30.061  30.271   7.053  1.00  0.00    -0.550 OA
ATOM     17  O   UNL     1      30.855  32.102   5.927  1.00  0.00    -0.550 OA
ENDBRANCH  14  15
ENDBRANCH  13  14
ENDBRANCH  12  13
ENDBRANCH  11  12
ENDBRANCH  10  11
ENDBRANCH   9  10
ENDBRANCH   8   9
ENDBRANCH   7   8
ENDBRANCH   6   7
ENDBRANCH   5   6
ENDBRANCH   4   5
ENDBRANCH   3   4
ENDBRANCH   2   3
ENDBRANCH   1   2
BRANCH   1  18
ATOM     18  C   UNL     1      31.645  29.760  11.621  1.00  0.00     0.000 C 
BRANCH  18  19
ATOM     19  C   UNL     1      32.804  30.759  11.813  1.00  0.00     0.000 C 
BRANCH  19  20
ATOM     20  C   UNL     1      33.893  30.311  12.808  1.00  0.00     0.000 C 
BRANCH  20  21
ATOM     21  C   UNL     1      34.902  31.409  13.199  1.00  0.00     0.000 C 
BRANCH  21  22
ATOM     22  C   UNL     1      35.642  31.171  14.530  1.00  0.00     0.000 C 
BRANCH  22  23
ATOM     23  C   UNL     1      37.023  31.842  14.646  1.00  0.00     0.000 C 
BRANCH  23  24
ATOM     24  C   UNL     1      38.139  30.854  15.026  1.00  0.00    -0.000 C 
BRANCH  24  25
ATOM     25  C   UNL     1      38.320  29.722  13.999  1.00  0.00    -0.000 C 
BRANCH  25  26
ATOM     26  C   UNL     1      39.689  29.018  14.023  1.00  0.00    -0.000 C 
BRANCH  26  27
ATOM     27  C   UNL     1      40.778  29.841  14.731  1.00  0.00    -0.000 C 
BRANCH  27  28
ATOM     28  C   UNL     1      42.203  29.347  14.420  1.00  0.00    -0.000 C 
BRANCH  28  29
ATOM     29  C   UNL     1      43.217  29.508  15.567  1.00  0.00    -0.000 C 
BRANCH  29  30
ATOM     30  C   UNL     1      42.670  30.342  16.738  1.00  0.00    -0.000 C 
BRANCH  30  31
ATOM     31  C   UNL     1      42.446  29.501  18.005  1.00  0.00    -0.003 C 
ATOM     32  C   UNL     1      43.568  29.669  19.030  1.00  0.00     0.004 C 
ENDBRANCH  30  31
ENDBRANCH  29  30
ENDBRANCH  28  29
ENDBRANCH  27  28
ENDBRANCH  26  27
ENDBRANCH  25  26
ENDBRANCH  24  25
ENDBRANCH  23  24
ENDBRANCH  22  23
ENDBRANCH  21  22
ENDBRANCH  20  21
ENDBRANCH  19  20
ENDBRANCH  18  19
ENDBRANCH   1  18
TORSDOF 28
ENDMDL
MODEL 5
REMARK VINA RESULT:    -4.223      4.503     12.779
REMARK INTER + INTRA:         -14.733
REMARK INTER:                 -12.067
REMARK INTRA:                  -2.666
REMARK UNBOUND:                -3.596
REMARK SMILES CCCCCCCCCCCCCCCCCCCCCCCCCCCCCC(=O)[O-]
REMARK SMILES IDX 16 1 17 2 18 3 19 4 20 5 21 6 22 7 23 8 24 9 25 10 26 11
REMARK SMILES IDX 27 12 28 13 29 14 30 15 31 16 32 17 15 18 14 19 13 20 12 21
REMARK SMILES IDX 11 22 10 23 9 24 8 25 7 26 6 27 5 28 4 29 3 30 2 31 1 32
REMARK H PARENT
REMARK Flexibility Score: inf
ROOT
ATOM      1  C   UNL     1      33.539  31.211  12.377  1.00  0.00     0.000 C 
ENDROOT
BRANCH   1   2
ATOM      2  C   UNL     1      34.815  30.871  13.165  1.00  0.00     0.000 C 
BRANCH   2   3
ATOM      3  C   UNL     1      35.373  32.079  13.933  1.00  0.00     0.000 C 
BRANCH   3   4
ATOM      4  C   UNL     1      36.841  31.886  14.351  1.00  0.00     0.000 C 
BRANCH   4   5
ATOM      5  C   UNL     1      37.279  30.410  14.340  1.00  0.00     0.000 C 
BRANCH   5   6
ATOM      6  C   UNL     1      38.785  30.171  14.561  1.00  0.00     0.000 C 
BRANCH   6   7
ATOM      7  C   UNL     1      39.288  28.873  13.907  1.00  0.00     0.000 C 
BRANCH   7   8
ATOM      8  C   UNL     1      40.391  29.120  12.861  1.00  0.00     0.000 C 
BRANCH   8   9
ATOM      9  C   UNL     1      41.767  28.523  13.213  1.00  0.00     0.000 C 
BRANCH   9  10
ATOM     10  C   UNL     1      42.805  29.596  13.587  1.00  0.00     0.000 C 
BRANCH  10  11
ATOM     11  C   UNL     1      42.523  30.232  14.958  1.00  0.00     0.000 C 
BRANCH  11  12
ATOM     12  C   UNL     1      42.363  29.180  16.069  1.00  0.00     0.000 C 
BRANCH  12  13
ATOM     13  C   UNL     1      42.081  29.813  17.442  1.00  0.00     0.006 C 
BRANCH  13  14
ATOM     14  C   UNL     1      42.736  29.036  18.591  1.00  0.00     0.053 C 
BRANCH  14  15
ATOM     15  C   UNL     1      43.891  29.804  19.151  1.00  0.00     0.041 C 
ATOM     16  O   UNL     1      44.051  29.889  20.398  1.00  0.00    -0.550 OA
ATOM     17  O   UNL     1      44.767  30.466  18.299  1.00  0.00    -0.550 OA
ENDBRANCH  14  15
ENDBRANCH  13  14
ENDBRANCH  12  13
ENDBRANCH  11  12
ENDBRANCH  10  11
ENDBRANCH   9  10
ENDBRANCH   8   9
ENDBRANCH   7   8
ENDBRANCH   6   7
ENDBRANCH   5   6
ENDBRANCH   4   5
ENDBRANCH   3   4
ENDBRANCH   2   3
ENDBRANCH   1   2
BRANCH   1  18
ATOM     18  C   UNL     1      32.639  29.985  12.138  1.00  0.00     0.000 C 
BRANCH  18  19
ATOM     19  C   UNL     1      31.501  30.202  11.120  1.00  0.00     0.000 C 
BRANCH  19  20
ATOM     20  C   UNL     1      30.708  28.934  10.748  1.00  0.00     0.000 C 
BRANCH  20  21
ATOM     21  C   UNL     1      29.397  28.738  11.535  1.00  0.00     0.000 C 
BRANCH  21  22
ATOM     22  C   UNL     1      28.944  29.956  12.363  1.00  0.00     0.000 C 
BRANCH  22  23
ATOM     23  C   UNL     1      27.596  29.795  13.090  1.00  0.00     0.000 C 
BRANCH  23  24
ATOM     24  C   UNL     1      26.651  30.988  12.872  1.00  0.00    -0.000 C 
BRANCH  24  25
ATOM     25  C   UNL     1      27.391  32.334  12.767  1.00  0.00    -0.000 C 
BRANCH  25  26
ATOM     26  C   UNL     1      26.856  33.303  11.697  1.00  0.00    -0.000 C 
BRANCH  26  27
ATOM     27  C   UNL     1      27.715  33.327  10.422  1.00  0.00    -0.000 C 
BRANCH  27  28
ATOM     28  C   UNL     1      27.577  32.046   9.579  1.00  0.00    -0.000 C 
BRANCH  28  29
ATOM     29  C   UNL     1      28.859  31.597   8.855  1.00  0.00    -0.000 C 
BRANCH  29  30
ATOM     30  C   UNL     1      29.860  32.746   8.641  1.00  0.00    -0.000 C 
BRANCH  30  31
ATOM     31  C   UNL     1      29.883  33.242   7.187  1.00  0.00    -0.003 C 
ATOM     32  C   UNL     1      29.106  32.328   6.240  1.00  0.00     0.004 C 
ENDBRANCH  30  31
ENDBRANCH  29  30
ENDBRANCH  28  29
ENDBRANCH  27  28
ENDBRANCH  26  27
ENDBRANCH  25  26
ENDBRANCH  24  25
ENDBRANCH  23  24
ENDBRANCH  22  23
ENDBRANCH  21  22
ENDBRANCH  20  21
ENDBRANCH  19  20
ENDBRANCH  18  19
ENDBRANCH   1  18
TORSDOF 28
ENDMDL
MODEL 6
REMARK VINA RESULT:    -4.216      2.063      3.862
REMARK INTER + INTRA:         -14.713
REMARK INTER:                 -11.720
REMARK INTRA:                  -2.993
REMARK UNBOUND:                -3.596
REMARK SMILES CCCCCCCCCCCCCCCCCCCCCCCCCCCCCC(=O)[O-]
REMARK SMILES IDX 16 1 17 2 18 3 19 4 20 5 21 6 22 7 23 8 24 9 25 10 26 11
REMARK SMILES IDX 27 12 28 13 29 14 30 15 31 16 32 17 15 18 14 19 13 20 12 21
REMARK SMILES IDX 11 22 10 23 9 24 8 25 7 26 6 27 5 28 4 29 3 30 2 31 1 32
REMARK H PARENT
REMARK Flexibility Score: inf
ROOT
ATOM      1  C   UNL     1      33.481  31.098  12.116  1.00  0.00     0.000 C 
ENDROOT
BRANCH   1   2
ATOM      2  C   UNL     1      32.298  30.116  12.170  1.00  0.00     0.000 C 
BRANCH   2   3
ATOM      3  C   UNL     1      31.445  30.151  10.891  1.00  0.00     0.000 C 
BRANCH   3   4
ATOM      4  C   UNL     1      30.852  28.775  10.541  1.00  0.00     0.000 C 
BRANCH   4   5
ATOM      5  C   UNL     1      29.509  28.872   9.794  1.00  0.00     0.000 C 
BRANCH   5   6
ATOM      6  C   UNL     1      28.309  28.237  10.520  1.00  0.00     0.000 C 
BRANCH   6   7
ATOM      7  C   UNL     1      28.528  28.104  12.037  1.00  0.00     0.000 C 
BRANCH   7   8
ATOM      8  C   UNL     1      27.747  29.155  12.848  1.00  0.00     0.000 C 
BRANCH   8   9
ATOM      9  C   UNL     1      28.491  30.484  13.075  1.00  0.00     0.000 C 
BRANCH   9  10
ATOM     10  C   UNL     1      27.693  31.705  12.584  1.00  0.00     0.000 C 
BRANCH  10  11
ATOM     11  C   UNL     1      27.052  31.472  11.207  1.00  0.00     0.000 C 
BRANCH  11  12
ATOM     12  C   UNL     1      27.234  32.676  10.265  1.00  0.00     0.000 C 
BRANCH  12  13
ATOM     13  C   UNL     1      28.131  32.351   9.061  1.00  0.00     0.006 C 
BRANCH  13  14
ATOM     14  C   UNL     1      29.289  33.346   8.907  1.00  0.00     0.053 C 
BRANCH  14  15
ATOM     15  C   UNL     1      30.465  32.686   8.259  1.00  0.00     0.041 C 
ATOM     16  O   UNL     1      31.596  33.238   8.287  1.00  0.00    -0.550 OA
ATOM     17  O   UNL     1      30.302  31.482   7.584  1.00  0.00    -0.550 OA
ENDBRANCH  14  15
ENDBRANCH  13  14
ENDBRANCH  12  13
ENDBRANCH  11  12
ENDBRANCH  10  11
ENDBRANCH   9  10
ENDBRANCH   8   9
ENDBRANCH   7   8
ENDBRANCH   6   7
ENDBRANCH   5   6
ENDBRANCH   4   5
ENDBRANCH   3   4
ENDBRANCH   2   3
ENDBRANCH   1   2
BRANCH   1  18
ATOM     18  C   UNL     1      34.601  30.738  13.109  1.00  0.00     0.000 C 
BRANCH  18  19
ATOM     19  C   UNL     1      35.288  31.945  13.779  1.00  0.00     0.000 C 
BRANCH  19  20
ATOM     20  C   UNL     1      36.599  31.621  14.522  1.00  0.00     0.000 C 
BRANCH  20  21
ATOM     21  C   UNL     1      37.655  30.882  13.677  1.00  0.00     0.000 C 
BRANCH  21  22
ATOM     22  C   UNL     1      38.742  30.148  14.486  1.00  0.00     0.000 C 
BRANCH  22  23
ATOM     23  C   UNL     1      39.243  28.827  13.872  1.00  0.00     0.000 C 
BRANCH  23  24
ATOM     24  C   UNL     1      39.854  29.011  12.473  1.00  0.00    -0.000 C 
BRANCH  24  25
ATOM     25  C   UNL     1      41.375  28.770  12.442  1.00  0.00    -0.000 C 
BRANCH  25  26
ATOM     26  C   UNL     1      42.072  28.756  13.815  1.00  0.00    -0.000 C 
BRANCH  26  27
ATOM     27  C   UNL     1      42.849  30.049  14.110  1.00  0.00    -0.000 C 
BRANCH  27  28
ATOM     28  C   UNL     1      42.990  30.336  15.617  1.00  0.00    -0.000 C 
BRANCH  28  29
ATOM     29  C   UNL     1      41.731  30.057  16.457  1.00  0.00    -0.000 C 
BRANCH  29  30
ATOM     30  C   UNL     1      42.051  29.728  17.925  1.00  0.00    -0.000 C 
BRANCH  30  31
ATOM     31  C   UNL     1      43.493  30.093  18.309  1.00  0.00    -0.003 C 
ATOM     32  C   UNL     1      43.953  29.407  19.595  1.00  0.00     0.004 C 
ENDBRANCH  30  31
ENDBRANCH  29  30
ENDBRANCH  28  29
ENDBRANCH  27  28
ENDBRANCH  26  27
ENDBRANCH  25  26
ENDBRANCH  24  25
ENDBRANCH  23  24
ENDBRANCH  22  23
ENDBRANCH  21  22
ENDBRANCH  20  21
ENDBRANCH  19  20
ENDBRANCH  18  19
ENDBRANCH   1  18
TORSDOF 28
ENDMDL
MODEL 7
REMARK VINA RESULT:    -4.193      3.836     11.162
REMARK INTER + INTRA:         -14.653
REMARK INTER:                 -10.729
REMARK INTRA:                  -3.924
REMARK UNBOUND:                -3.596
REMARK SMILES CCCCCCCCCCCCCCCCCCCCCCCCCCCCCC(=O)[O-]
REMARK SMILES IDX 16 1 17 2 18 3 19 4 20 5 21 6 22 7 23 8 24 9 25 10 26 11
REMARK SMILES IDX 27 12 28 13 29 14 30 15 31 16 32 17 15 18 14 19 13 20 12 21
REMARK SMILES IDX 11 22 10 23 9 24 8 25 7 26 6 27 5 28 4 29 3 30 2 31 1 32
REMARK H PARENT
REMARK Flexibility Score: inf
ROOT
ATOM      1  C   UNL     1      29.712  32.803   8.342  1.00  0.00     0.000 C 
ENDROOT
BRANCH   1   2
ATOM      2  C   UNL     1      31.244  32.905   8.257  1.00  0.00     0.000 C 
BRANCH   2   3
ATOM      3  C   UNL     1      31.946  31.610   8.696  1.00  0.00     0.000 C 
BRANCH   3   4
ATOM      4  C   UNL     1      31.023  30.686   9.510  1.00  0.00     0.000 C 
BRANCH   4   5
ATOM      5  C   UNL     1      31.662  30.207  10.826  1.00  0.00     0.000 C 
BRANCH   5   6
ATOM      6  C   UNL     1      32.736  31.143  11.412  1.00  0.00     0.000 C 
BRANCH   6   7
ATOM      7  C   UNL     1      33.574  30.476  12.516  1.00  0.00     0.000 C 
BRANCH   7   8
ATOM      8  C   UNL     1      34.711  31.379  13.030  1.00  0.00     0.000 C 
BRANCH   8   9
ATOM      9  C   UNL     1      35.578  30.761  14.143  1.00  0.00     0.000 C 
BRANCH   9  10
ATOM     10  C   UNL     1      36.666  31.722  14.656  1.00  0.00     0.000 C 
BRANCH  10  11
ATOM     11  C   UNL     1      37.972  30.994  15.009  1.00  0.00     0.000 C 
BRANCH  11  12
ATOM     12  C   UNL     1      38.393  29.987  13.924  1.00  0.00     0.000 C 
BRANCH  12  13
ATOM     13  C   UNL     1      39.827  29.471  14.125  1.00  0.00     0.006 C 
BRANCH  13  14
ATOM     14  C   UNL     1      40.504  30.088  15.356  1.00  0.00     0.053 C 
BRANCH  14  15
ATOM     15  C   UNL     1      41.871  29.511  15.547  1.00  0.00     0.041 C 
ATOM     16  O   UNL     1      42.286  29.233  16.703  1.00  0.00    -0.550 OA
ATOM     17  O   UNL     1      42.706  29.322  14.452  1.00  0.00    -0.550 OA
ENDBRANCH  14  15
ENDBRANCH  13  14
ENDBRANCH  12  13
ENDBRANCH  11  12
ENDBRANCH  10  11
ENDBRANCH   9  10
ENDBRANCH   8   9
ENDBRANCH   7   8
ENDBRANCH   6   7
ENDBRANCH   5   6
ENDBRANCH   4   5
ENDBRANCH   3   4
ENDBRANCH   2   3
ENDBRANCH   1   2
BRANCH   1  18
ATOM     18  C   UNL     1      29.023  33.006   6.979  1.00  0.00     0.000 C 
BRANCH  18  19
ATOM     19  C   UNL     1      29.447  32.009   5.882  1.00  0.00     0.000 C 
BRANCH  19  20
ATOM     20  C   UNL     1      28.632  30.701   5.840  1.00  0.00     0.000 C 
BRANCH  20  21
ATOM     21  C   UNL     1      29.271  29.516   6.590  1.00  0.00     0.000 C 
BRANCH  21  22
ATOM     22  C   UNL     1      28.409  28.915   7.718  1.00  0.00     0.000 C 
BRANCH  22  23
ATOM     23  C   UNL     1      27.479  29.910   8.438  1.00  0.00     0.000 C 
BRANCH  23  24
ATOM     24  C   UNL     1      27.151  29.487   9.880  1.00  0.00    -0.000 C 
BRANCH  24  25
ATOM     25  C   UNL     1      28.228  28.581  10.504  1.00  0.00    -0.000 C 
BRANCH  25  26
ATOM     26  C   UNL     1      28.367  28.675  12.035  1.00  0.00    -0.000 C 
BRANCH  26  27
ATOM     27  C   UNL     1      28.498  30.121  12.541  1.00  0.00    -0.000 C 
BRANCH  27  28
ATOM     28  C   UNL     1      27.317  30.557  13.428  1.00  0.00    -0.000 C 
BRANCH  28  29
ATOM     29  C   UNL     1      26.616  31.856  12.993  1.00  0.00    -0.000 C 
BRANCH  29  30
ATOM     30  C   UNL     1      27.448  32.683  11.998  1.00  0.00    -0.000 C 
BRANCH  30  31
ATOM     31  C   UNL     1      26.648  33.070  10.743  1.00  0.00    -0.003 C 
ATOM     32  C   UNL     1      27.031  34.448  10.203  1.00  0.00     0.004 C 
ENDBRANCH  30  31
ENDBRANCH  29  30
ENDBRANCH  28  29
ENDBRANCH  27  28
ENDBRANCH  26  27
ENDBRANCH  25  26
ENDBRANCH  24  25
ENDBRANCH  23  24
ENDBRANCH  22  23
ENDBRANCH  21  22
ENDBRANCH  20  21
ENDBRANCH  19  20
ENDBRANCH  18  19
ENDBRANCH   1  18
TORSDOF 28
ENDMDL
MODEL 8
REMARK VINA RESULT:    -4.160      0.925      2.153
REMARK INTER + INTRA:         -14.565
REMARK INTER:                 -11.422
REMARK INTRA:                  -3.144
REMARK UNBOUND:                -3.596
REMARK SMILES CCCCCCCCCCCCCCCCCCCCCCCCCCCCCC(=O)[O-]
REMARK SMILES IDX 16 1 17 2 18 3 19 4 20 5 21 6 22 7 23 8 24 9 25 10 26 11
REMARK SMILES IDX 27 12 28 13 29 14 30 15 31 16 32 17 15 18 14 19 13 20 12 21
REMARK SMILES IDX 11 22 10 23 9 24 8 25 7 26 6 27 5 28 4 29 3 30 2 31 1 32
REMARK H PARENT
REMARK Flexibility Score: inf
ROOT
ATOM      1  C   UNL     1      28.968  29.467  10.441  1.00  0.00     0.000 C 
ENDROOT
BRANCH   1   2
ATOM      2  C   UNL     1      28.260  28.607   9.380  1.00  0.00     0.000 C 
BRANCH   2   3
ATOM      3  C   UNL     1      28.715  28.943   7.951  1.00  0.00     0.000 C 
BRANCH   3   4
ATOM      4  C   UNL     1      27.870  30.058   7.310  1.00  0.00     0.000 C 
BRANCH   4   5
ATOM      5  C   UNL     1      28.661  30.906   6.298  1.00  0.00     0.000 C 
BRANCH   5   6
ATOM      6  C   UNL     1      30.188  30.912   6.501  1.00  0.00     0.000 C 
BRANCH   6   7
ATOM      7  C   UNL     1      30.737  32.297   6.883  1.00  0.00     0.000 C 
BRANCH   7   8
ATOM      8  C   UNL     1      30.526  32.633   8.371  1.00  0.00     0.000 C 
BRANCH   8   9
ATOM      9  C   UNL     1      29.481  33.729   8.649  1.00  0.00     0.000 C 
BRANCH   9  10
ATOM     10  C   UNL     1      28.209  33.185   9.322  1.00  0.00     0.000 C 
BRANCH  10  11
ATOM     11  C   UNL     1      27.451  34.268  10.106  1.00  0.00     0.000 C 
BRANCH  11  12
ATOM     12  C   UNL     1      26.737  33.702  11.346  1.00  0.00     0.000 C 
BRANCH  12  13
ATOM     13  C   UNL     1      27.293  32.332  11.770  1.00  0.00     0.006 C 
BRANCH  13  14
ATOM     14  C   UNL     1      26.182  31.315  12.061  1.00  0.00     0.053 C 
BRANCH  14  15
ATOM     15  C   UNL     1      26.395  30.675  13.397  1.00  0.00     0.041 C 
ATOM     16  O   UNL     1      25.576  30.875  14.333  1.00  0.00    -0.550 OA
ATOM     17  O   UNL     1      27.522  29.895  13.623  1.00  0.00    -0.550 OA
ENDBRANCH  14  15
ENDBRANCH  13  14
ENDBRANCH  12  13
ENDBRANCH  11  12
ENDBRANCH  10  11
ENDBRANCH   9  10
ENDBRANCH   8   9
ENDBRANCH   7   8
ENDBRANCH   6   7
ENDBRANCH   5   6
ENDBRANCH   4   5
ENDBRANCH   3   4
ENDBRANCH   2   3
ENDBRANCH   1   2
BRANCH   1  18
ATOM     18  C   UNL     1      30.444  29.743  10.100  1.00  0.00     0.000 C 
BRANCH  18  19
ATOM     19  C   UNL     1      31.407  29.702  11.303  1.00  0.00     0.000 C 
BRANCH  19  20
ATOM     20  C   UNL     1      32.451  30.837  11.341  1.00  0.00     0.000 C 
BRANCH  20  21
ATOM     21  C   UNL     1      33.528  30.687  12.433  1.00  0.00     0.000 C 
BRANCH  21  22
ATOM     22  C   UNL     1      34.250  31.993  12.822  1.00  0.00     0.000 C 
BRANCH  22  23
ATOM     23  C   UNL     1      35.360  31.843  13.879  1.00  0.00     0.000 C 
BRANCH  23  24
ATOM     24  C   UNL     1      35.436  30.426  14.471  1.00  0.00    -0.000 C 
BRANCH  24  25
ATOM     25  C   UNL     1      36.791  30.121  15.137  1.00  0.00    -0.000 C 
BRANCH  25  26
ATOM     26  C   UNL     1      38.006  30.847  14.529  1.00  0.00    -0.000 C 
BRANCH  26  27
ATOM     27  C   UNL     1      38.771  29.990  13.507  1.00  0.00    -0.000 C 
BRANCH  27  28
ATOM     28  C   UNL     1      39.754  29.004  14.165  1.00  0.00    -0.000 C 
BRANCH  28  29
ATOM     29  C   UNL     1      41.240  29.256  13.855  1.00  0.00    -0.000 C 
BRANCH  29  30
ATOM     30  C   UNL     1      41.939  30.111  14.927  1.00  0.00    -0.000 C 
BRANCH  30  31
ATOM     31  C   UNL     1      41.203  30.079  16.276  1.00  0.00    -0.003 C 
ATOM     32  C   UNL     1      42.155  30.162  17.469  1.00  0.00     0.004 C 
ENDBRANCH  30  31
ENDBRANCH  29  30
ENDBRANCH  28  29
ENDBRANCH  27  28
ENDBRANCH  26  27
ENDBRANCH  25  26
ENDBRANCH  24  25
ENDBRANCH  23  24
ENDBRANCH  22  23
ENDBRANCH  21  22
ENDBRANCH  20  21
ENDBRANCH  19  20
ENDBRANCH  18  19
ENDBRANCH   1  18
TORSDOF 28
ENDMDL
MODEL 9
REMARK VINA RESULT:    -4.144      2.158      4.036
REMARK INTER + INTRA:         -14.525
REMARK INTER:                 -12.103
REMARK INTRA:                  -2.422
REMARK UNBOUND:                -3.596
REMARK SMILES CCCCCCCCCCCCCCCCCCCCCCCCCCCCCC(=O)[O-]
REMARK SMILES IDX 16 1 17 2 18 3 19 4 20 5 21 6 22 7 23 8 24 9 25 10 26 11
REMARK SMILES IDX 27 12 28 13 29 14 30 15 31 16 32 17 15 18 14 19 13 20 12 21
REMARK SMILES IDX 11 22 10 23 9 24 8 25 7 26 6 27 5 28 4 29 3 30 2 31 1 32
REMARK H PARENT
REMARK Flexibility Score: inf
ROOT
ATOM      1  C   UNL     1      32.753  30.844  11.669  1.00  0.00     0.000 C 
ENDROOT
BRANCH   1   2
ATOM      2  C   UNL     1      31.780  29.653  11.636  1.00  0.00     0.000 C 
BRANCH   2   3
ATOM      3  C   UNL     1      30.361  30.062  11.212  1.00  0.00     0.000 C 
BRANCH   3   4
ATOM      4  C   UNL     1      29.444  28.850  10.974  1.00  0.00     0.000 C 
BRANCH   4   5
ATOM      5  C   UNL     1      28.047  29.245  10.460  1.00  0.00     0.000 C 
BRANCH   5   6
ATOM      6  C   UNL     1      26.918  29.165  11.504  1.00  0.00     0.000 C 
BRANCH   6   7
ATOM      7  C   UNL     1      27.415  29.388  12.943  1.00  0.00     0.000 C 
BRANCH   7   8
ATOM      8  C   UNL     1      26.992  30.753  13.517  1.00  0.00     0.000 C 
BRANCH   8   9
ATOM      9  C   UNL     1      27.847  31.947  13.053  1.00  0.00     0.000 C 
BRANCH   9  10
ATOM     10  C   UNL     1      27.027  33.019  12.315  1.00  0.00     0.000 C 
BRANCH  10  11
ATOM     11  C   UNL     1      26.857  32.703  10.820  1.00  0.00     0.000 C 
BRANCH  11  12
ATOM     12  C   UNL     1      27.819  33.517   9.937  1.00  0.00     0.000 C 
BRANCH  12  13
ATOM     13  C   UNL     1      28.523  32.650   8.880  1.00  0.00     0.006 C 
BRANCH  13  14
ATOM     14  C   UNL     1      29.940  33.146   8.566  1.00  0.00     0.053 C 
BRANCH  14  15
ATOM     15  C   UNL     1      30.633  32.198   7.638  1.00  0.00     0.041 C 
ATOM     16  O   UNL     1      31.432  31.337   8.093  1.00  0.00    -0.550 OA
ATOM     17  O   UNL     1      30.432  32.294   6.267  1.00  0.00    -0.550 OA
ENDBRANCH  14  15
ENDBRANCH  13  14
ENDBRANCH  12  13
ENDBRANCH  11  12
ENDBRANCH  10  11
ENDBRANCH   9  10
ENDBRANCH   8   9
ENDBRANCH   7   8
ENDBRANCH   6   7
ENDBRANCH   5   6
ENDBRANCH   4   5
ENDBRANCH   3   4
ENDBRANCH   2   3
ENDBRANCH   1   2
BRANCH   1  18
ATOM     18  C   UNL     1      33.846  30.694  12.743  1.00  0.00     0.000 C 
BRANCH  18  19
ATOM     19  C   UNL     1      34.541  32.008  13.151  1.00  0.00     0.000 C 
BRANCH  19  20
ATOM     20  C   UNL     1      35.654  31.856  14.208  1.00  0.00     0.000 C 
BRANCH  20  21
ATOM     21  C   UNL     1      37.025  31.430  13.647  1.00  0.00     0.000 C 
BRANCH  21  22
ATOM     22  C   UNL     1      37.966  30.757  14.665  1.00  0.00     0.000 C 
BRANCH  22  23
ATOM     23  C   UNL     1      38.480  29.361  14.266  1.00  0.00     0.000 C 
BRANCH  23  24
ATOM     24  C   UNL     1      39.442  29.397  13.066  1.00  0.00    -0.000 C 
BRANCH  24  25
ATOM     25  C   UNL     1      40.912  29.166  13.464  1.00  0.00    -0.000 C 
BRANCH  25  26
ATOM     26  C   UNL     1      41.182  29.074  14.977  1.00  0.00    -0.000 C 
BRANCH  26  27
ATOM     27  C   UNL     1      41.798  30.358  15.558  1.00  0.00    -0.000 C 
BRANCH  27  28
ATOM     28  C   UNL     1      41.930  30.321  17.092  1.00  0.00    -0.000 C 
BRANCH  28  29
ATOM     29  C   UNL     1      43.335  29.979  17.620  1.00  0.00    -0.000 C 
BRANCH  29  30
ATOM     30  C   UNL     1      43.303  29.176  18.932  1.00  0.00    -0.000 C 
BRANCH  30  31
ATOM     31  C   UNL     1      44.095  29.861  20.058  1.00  0.00    -0.003 C 
ATOM     32  C   UNL     1      44.588  28.873  21.116  1.00  0.00     0.004 C 
ENDBRANCH  30  31
ENDBRANCH  29  30
ENDBRANCH  28  29
ENDBRANCH  27  28
ENDBRANCH  26  27
ENDBRANCH  25  26
ENDBRANCH  24  25
ENDBRANCH  23  24
ENDBRANCH  22  23
ENDBRANCH  21  22
ENDBRANCH  20  21
ENDBRANCH  19  20
ENDBRANCH  18  19
ENDBRANCH   1  18
TORSDOF 28
ENDMDL
