MODEL 1
REMARK VINA RESULT:    -4.976      0.000      0.000
REMARK INTER + INTRA:          -5.457
REMARK INTER:                  -5.267
REMARK INTRA:                  -0.190
REMARK UNBOUND:                -0.190
REMARK SMILES CC1=CC[C@@H](C(C)C)C=C1
REMARK SMILES IDX 1 1 2 2 3 3 4 4 5 5 9 6 10 7 6 8 7 9 8 10
REMARK H PARENT
REMARK Flexibility Score: inf
ROOT
ATOM      1  C   UNL     1     104.867 111.999 129.290  1.00  0.00     0.044 C 
ATOM      2  C   UNL     1     105.585 111.455 128.091  1.00  0.00    -0.055 C 
ATOM      3  C   UNL     1     106.715 110.746 128.242  1.00  0.00    -0.023 C 
ATOM      4  C   UNL     1     107.363 110.068 127.062  1.00  0.00     0.035 C 
ATOM      5  C   UNL     1     107.164 110.898 125.769  1.00  0.00     0.018 C 
ATOM      6  C   UNL     1     105.721 111.343 125.648  1.00  0.00    -0.023 C 
ATOM      7  C   UNL     1     105.010 111.645 126.739  1.00  0.00    -0.001 C 
ENDROOT
BRANCH   5   8
ATOM      8  C   UNL     1     107.654 110.185 124.475  1.00  0.00    -0.010 C 
ATOM      9  C   UNL     1     108.409 108.886 124.791  1.00  0.00     0.008 C 
ATOM     10  C   UNL     1     106.531 109.916 123.458  1.00  0.00     0.008 C 
ENDBRANCH   5   8
TORSDOF 1
ENDMDL
MODEL 2
REMARK VINA RESULT:    -4.920      8.075      9.463
REMARK INTER + INTRA:          -5.397
REMARK INTER:                  -5.206
REMARK INTRA:                  -0.191
REMARK UNBOUND:                -0.190
REMARK SMILES CC1=CC[C@@H](C(C)C)C=C1
REMARK SMILES IDX 1 1 2 2 3 3 4 4 5 5 9 6 10 7 6 8 7 9 8 10
REMARK H PARENT
REMARK Flexibility Score: inf
ROOT
ATOM      1  C   UNL     1     107.761 100.380 129.306  1.00  0.00     0.044 C 
ATOM      2  C   UNL     1     106.978 100.955 128.164  1.00  0.00    -0.055 C 
ATOM      3  C   UNL     1     105.859 101.659 128.396  1.00  0.00    -0.023 C 
ATOM      4  C   UNL     1     105.147 102.368 127.272  1.00  0.00     0.035 C 
ATOM      5  C   UNL     1     105.272 101.570 125.948  1.00  0.00     0.018 C 
ATOM      6  C   UNL     1     106.705 101.129 125.735  1.00  0.00    -0.023 C 
ATOM      7  C   UNL     1     107.475 100.799 126.777  1.00  0.00    -0.001 C 
ENDROOT
BRANCH   5   8
ATOM      8  C   UNL     1     104.711 102.316 124.703  1.00  0.00    -0.010 C 
ATOM      9  C   UNL     1     104.295 103.755 125.039  1.00  0.00     0.008 C 
ATOM     10  C   UNL     1     105.667 102.304 123.497  1.00  0.00     0.008 C 
ENDBRANCH   5   8
TORSDOF 1
ENDMDL
MODEL 3
REMARK VINA RESULT:    -4.904      6.327      6.675
REMARK INTER + INTRA:          -5.381
REMARK INTER:                  -5.190
REMARK INTRA:                  -0.190
REMARK UNBOUND:                -0.190
REMARK SMILES CC1=CC[C@@H](C(C)C)C=C1
REMARK SMILES IDX 1 1 2 2 3 3 4 4 5 5 9 6 10 7 6 8 7 9 8 10
REMARK H PARENT
REMARK Flexibility Score: inf
ROOT
ATOM      1  C   UNL     1     112.008 107.551 129.304  1.00  0.00     0.044 C 
ATOM      2  C   UNL     1     111.445 106.840 128.110  1.00  0.00    -0.055 C 
ATOM      3  C   UNL     1     110.717 105.723 128.268  1.00  0.00    -0.023 C 
ATOM      4  C   UNL     1     110.020 105.084 127.094  1.00  0.00     0.035 C 
ATOM      5  C   UNL     1     110.846 105.264 125.795  1.00  0.00     0.018 C 
ATOM      6  C   UNL     1     111.316 106.699 125.667  1.00  0.00    -0.023 C 
ATOM      7  C   UNL     1     111.637 107.407 126.755  1.00  0.00    -0.001 C 
ENDROOT
BRANCH   5   8
ATOM      8  C   UNL     1     110.117 104.783 124.507  1.00  0.00    -0.010 C 
ATOM      9  C   UNL     1     108.782 104.097 124.830  1.00  0.00     0.008 C 
ATOM     10  C   UNL     1     109.906 105.898 123.468  1.00  0.00     0.008 C 
ENDBRANCH   5   8
TORSDOF 1
ENDMDL
MODEL 4
REMARK VINA RESULT:    -4.903      6.338      6.695
REMARK INTER + INTRA:          -5.380
REMARK INTER:                  -5.188
REMARK INTRA:                  -0.191
REMARK UNBOUND:                -0.190
REMARK SMILES CC1=CC[C@@H](C(C)C)C=C1
REMARK SMILES IDX 1 1 2 2 3 3 4 4 5 5 9 6 10 7 6 8 7 9 8 10
REMARK H PARENT
REMARK Flexibility Score: inf
ROOT
ATOM      1  C   UNL     1     100.410 104.810 129.278  1.00  0.00     0.044 C 
ATOM      2  C   UNL     1     100.964 105.563 128.106  1.00  0.00    -0.055 C 
ATOM      3  C   UNL     1     101.593 106.735 128.289  1.00  0.00    -0.023 C 
ATOM      4  C   UNL     1     102.285 107.426 127.143  1.00  0.00     0.035 C 
ATOM      5  C   UNL     1     101.531 107.179 125.811  1.00  0.00     0.018 C 
ATOM      6  C   UNL     1     101.184 105.711 125.670  1.00  0.00    -0.023 C 
ATOM      7  C   UNL     1     100.875 104.980 126.747  1.00  0.00    -0.001 C 
ENDROOT
BRANCH   5   8
ATOM      8  C   UNL     1     102.274 107.716 124.553  1.00  0.00    -0.010 C 
ATOM      9  C   UNL     1     103.725 108.103 124.869  1.00  0.00     0.008 C 
ATOM     10  C   UNL     1     102.228 106.751 123.355  1.00  0.00     0.008 C 
ENDBRANCH   5   8
TORSDOF 1
ENDMDL
MODEL 5
REMARK VINA RESULT:    -4.824      1.696      4.406
REMARK INTER + INTRA:          -5.296
REMARK INTER:                  -5.106
REMARK INTRA:                  -0.190
REMARK UNBOUND:                -0.190
REMARK SMILES CC1=CC[C@@H](C(C)C)C=C1
REMARK SMILES IDX 1 1 2 2 3 3 4 4 5 5 9 6 10 7 6 8 7 9 8 10
REMARK H PARENT
REMARK Flexibility Score: inf
ROOT
ATOM      1  C   UNL     1     109.537 107.316 128.169  1.00  0.00     0.044 C 
ATOM      2  C   UNL     1     108.523 108.415 128.058  1.00  0.00    -0.055 C 
ATOM      3  C   UNL     1     108.119 108.845 126.852  1.00  0.00    -0.023 C 
ATOM      4  C   UNL     1     106.994 109.840 126.725  1.00  0.00     0.035 C 
ATOM      5  C   UNL     1     106.998 110.834 127.915  1.00  0.00     0.018 C 
ATOM      6  C   UNL     1     107.161 110.086 129.222  1.00  0.00    -0.023 C 
ATOM      7  C   UNL     1     107.916 108.984 129.283  1.00  0.00    -0.001 C 
ENDROOT
BRANCH   5   8
ATOM      8  C   UNL     1     105.768 111.787 127.949  1.00  0.00    -0.010 C 
ATOM      9  C   UNL     1     104.904 111.649 126.687  1.00  0.00     0.008 C 
ATOM     10  C   UNL     1     104.900 111.624 129.210  1.00  0.00     0.008 C 
ENDBRANCH   5   8
TORSDOF 1
ENDMDL
MODEL 6
REMARK VINA RESULT:    -4.794      6.304      7.311
REMARK INTER + INTRA:          -5.264
REMARK INTER:                  -5.074
REMARK INTRA:                  -0.190
REMARK UNBOUND:                -0.190
REMARK SMILES CC1=CC[C@@H](C(C)C)C=C1
REMARK SMILES IDX 1 1 2 2 3 3 4 4 5 5 9 6 10 7 6 8 7 9 8 10
REMARK H PARENT
REMARK Flexibility Score: inf
ROOT
ATOM      1  C   UNL     1     107.320 102.885 128.153  1.00  0.00     0.044 C 
ATOM      2  C   UNL     1     108.402 103.914 128.018  1.00  0.00    -0.055 C 
ATOM      3  C   UNL     1     108.790 104.333 126.802  1.00  0.00    -0.023 C 
ATOM      4  C   UNL     1     109.766 105.472 126.655  1.00  0.00     0.035 C 
ATOM      5  C   UNL     1     110.796 105.472 127.814  1.00  0.00     0.018 C 
ATOM      6  C   UNL     1     110.090 105.288 129.142  1.00  0.00    -0.023 C 
ATOM      7  C   UNL     1     109.000 104.519 129.230  1.00  0.00    -0.001 C 
ENDROOT
BRANCH   5   8
ATOM      8  C   UNL     1     111.733 106.714 127.830  1.00  0.00    -0.010 C 
ATOM      9  C   UNL     1     111.591 107.553 126.551  1.00  0.00     0.008 C 
ATOM     10  C   UNL     1     111.555 107.603 129.073  1.00  0.00     0.008 C 
ENDBRANCH   5   8
TORSDOF 1
ENDMDL
MODEL 7
REMARK VINA RESULT:    -4.764      7.866      8.784
REMARK INTER + INTRA:          -5.232
REMARK INTER:                  -5.042
REMARK INTRA:                  -0.190
REMARK UNBOUND:                -0.190
REMARK SMILES CC1=CC[C@@H](C(C)C)C=C1
REMARK SMILES IDX 1 1 2 2 3 3 4 4 5 5 9 6 10 7 6 8 7 9 8 10
REMARK H PARENT
REMARK Flexibility Score: inf
ROOT
ATOM      1  C   UNL     1     102.983 105.252 127.979  1.00  0.00     0.044 C 
ATOM      2  C   UNL     1     103.967 104.122 127.920  1.00  0.00    -0.055 C 
ATOM      3  C   UNL     1     104.380 103.644 126.735  1.00  0.00    -0.023 C 
ATOM      4  C   UNL     1     105.478 102.615 126.660  1.00  0.00     0.035 C 
ATOM      5  C   UNL     1     105.424 101.657 127.878  1.00  0.00     0.018 C 
ATOM      6  C   UNL     1     105.258 102.448 129.159  1.00  0.00    -0.023 C 
ATOM      7  C   UNL     1     104.534 103.573 129.173  1.00  0.00    -0.001 C 
ENDROOT
BRANCH   5   8
ATOM      8  C   UNL     1     106.626 100.672 127.964  1.00  0.00    -0.010 C 
ATOM      9  C   UNL     1     107.525 100.758 126.723  1.00  0.00     0.008 C 
ATOM     10  C   UNL     1     107.465 100.837 129.243  1.00  0.00     0.008 C 
ENDBRANCH   5   8
TORSDOF 1
ENDMDL
MODEL 8
REMARK VINA RESULT:    -4.753      5.657      6.560
REMARK INTER + INTRA:          -5.221
REMARK INTER:                  -5.030
REMARK INTRA:                  -0.191
REMARK UNBOUND:                -0.190
REMARK SMILES CC1=CC[C@@H](C(C)C)C=C1
REMARK SMILES IDX 1 1 2 2 3 3 4 4 5 5 9 6 10 7 6 8 7 9 8 10
REMARK H PARENT
REMARK Flexibility Score: inf
ROOT
ATOM      1  C   UNL     1     105.212 109.519 128.000  1.00  0.00     0.044 C 
ATOM      2  C   UNL     1     104.097 108.519 127.938  1.00  0.00    -0.055 C 
ATOM      3  C   UNL     1     103.594 108.138 126.752  1.00  0.00    -0.023 C 
ATOM      4  C   UNL     1     102.580 107.026 126.667  1.00  0.00     0.035 C 
ATOM      5  C   UNL     1     101.655 107.023 127.911  1.00  0.00     0.018 C 
ATOM      6  C   UNL     1     102.478 107.160 129.176  1.00  0.00    -0.023 C 
ATOM      7  C   UNL     1     103.591 107.901 129.185  1.00  0.00    -0.001 C 
ENDROOT
BRANCH   5   8
ATOM      8  C   UNL     1     100.692 105.803 127.983  1.00  0.00    -0.010 C 
ATOM      9  C   UNL     1     100.879 104.857 126.789  1.00  0.00     0.008 C 
ATOM     10  C   UNL     1     100.789 105.020 129.304  1.00  0.00     0.008 C 
ENDBRANCH   5   8
TORSDOF 1
ENDMDL
MODEL 9
REMARK VINA RESULT:    -4.733      5.836      7.314
REMARK INTER + INTRA:          -5.200
REMARK INTER:                  -5.070
REMARK INTRA:                  -0.130
REMARK UNBOUND:                -0.190
REMARK SMILES CC1=CC[C@@H](C(C)C)C=C1
REMARK SMILES IDX 1 1 2 2 3 3 4 4 5 5 9 6 10 7 6 8 7 9 8 10
REMARK H PARENT
REMARK Flexibility Score: inf
ROOT
ATOM      1  C   UNL     1     103.435 107.942 123.529  1.00  0.00     0.044 C 
ATOM      2  C   UNL     1     102.840 107.487 124.828  1.00  0.00    -0.055 C 
ATOM      3  C   UNL     1     101.670 106.827 124.843  1.00  0.00    -0.023 C 
ATOM      4  C   UNL     1     101.137 106.233 126.122  1.00  0.00     0.035 C 
ATOM      5  C   UNL     1     101.521 107.109 127.341  1.00  0.00     0.018 C 
ATOM      6  C   UNL     1     102.986 107.489 127.274  1.00  0.00    -0.023 C 
ATOM      7  C   UNL     1     103.576 107.708 126.094  1.00  0.00    -0.001 C 
ENDROOT
BRANCH   5   8
ATOM      8  C   UNL     1     101.156 106.478 128.716  1.00  0.00    -0.010 C 
ATOM      9  C   UNL     1     100.297 107.424 129.568  1.00  0.00     0.008 C 
ATOM     10  C   UNL     1     100.477 105.102 128.600  1.00  0.00     0.008 C 
ENDBRANCH   5   8
TORSDOF 1
ENDMDL
