MODEL 1
REMARK VINA RESULT:    -4.587      0.000      0.000
REMARK INTER + INTRA:         -17.505
REMARK INTER:                 -12.096
REMARK INTRA:                  -5.409
REMARK UNBOUND:                -5.409
REMARK SMILES CCCCCCCCCCCCCCCCCCCCCCCCCCCCCC(=O)[O-]
REMARK SMILES IDX 16 1 17 2 18 3 19 4 20 5 21 6 22 7 23 8 24 9 25 10 26 11
REMARK SMILES IDX 27 12 28 13 29 14 30 15 31 16 32 17 15 18 14 19 13 20 12 21
REMARK SMILES IDX 11 22 10 23 9 24 8 25 7 26 6 27 5 28 4 29 3 30 2 31 1 32
REMARK H PARENT
REMARK Flexibility Score: inf
ROOT
ATOM      1  C   UNL     1      23.137  -1.315  49.397  1.00  0.00     0.000 C 
ENDROOT
BRANCH   1   2
ATOM      2  C   UNL     1      22.606  -2.298  50.448  1.00  0.00     0.000 C 
BRANCH   2   3
ATOM      3  C   UNL     1      23.585  -3.463  50.655  1.00  0.00     0.000 C 
BRANCH   3   4
ATOM      4  C   UNL     1      22.892  -4.712  51.240  1.00  0.00     0.000 C 
BRANCH   4   5
ATOM      5  C   UNL     1      23.634  -6.034  50.950  1.00  0.00     0.000 C 
BRANCH   5   6
ATOM      6  C   UNL     1      22.779  -7.141  50.306  1.00  0.00     0.000 C 
BRANCH   6   7
ATOM      7  C   UNL     1      21.299  -7.143  50.734  1.00  0.00     0.000 C 
BRANCH   7   8
ATOM      8  C   UNL     1      20.317  -7.079  49.544  1.00  0.00     0.000 C 
BRANCH   8   9
ATOM      9  C   UNL     1      21.005  -7.416  48.210  1.00  0.00     0.000 C 
BRANCH   9  10
ATOM     10  C   UNL     1      20.122  -7.110  46.981  1.00  0.00     0.000 C 
BRANCH  10  11
ATOM     11  C   UNL     1      20.571  -7.821  45.689  1.00  0.00     0.000 C 
BRANCH  11  12
ATOM     12  C   UNL     1      21.194  -6.860  44.662  1.00  0.00     0.000 C 
BRANCH  12  13
ATOM     13  C   UNL     1      20.489  -6.920  43.294  1.00  0.00     0.006 C 
BRANCH  13  14
ATOM     14  C   UNL     1      20.195  -5.542  42.681  1.00  0.00     0.053 C 
BRANCH  14  15
ATOM     15  C   UNL     1      18.915  -4.961  43.204  1.00  0.00     0.041 C 
ATOM     16  O   UNL     1      18.881  -3.773  43.620  1.00  0.00    -0.550 OA
ATOM     17  O   UNL     1      17.778  -5.754  43.295  1.00  0.00    -0.550 OA
ENDBRANCH  14  15
ENDBRANCH  13  14
ENDBRANCH  12  13
ENDBRANCH  11  12
ENDBRANCH  10  11
ENDBRANCH   9  10
ENDBRANCH   8   9
ENDBRANCH   7   8
ENDBRANCH   6   7
ENDBRANCH   5   6
ENDBRANCH   4   5
ENDBRANCH   3   4
ENDBRANCH   2   3
ENDBRANCH   1   2
BRANCH   1  18
ATOM     18  C   UNL     1      24.628  -1.526  49.088  1.00  0.00     0.000 C 
BRANCH  18  19
ATOM     19  C   UNL     1      25.041  -1.219  47.633  1.00  0.00     0.000 C 
BRANCH  19  20
ATOM     20  C   UNL     1      26.529  -1.495  47.328  1.00  0.00     0.000 C 
BRANCH  20  21
ATOM     21  C   UNL     1      26.937  -1.044  45.913  1.00  0.00     0.000 C 
BRANCH  21  22
ATOM     22  C   UNL     1      25.989  -1.571  44.825  1.00  0.00     0.000 C 
BRANCH  22  23
ATOM     23  C   UNL     1      26.603  -2.717  44.001  1.00  0.00     0.000 C 
BRANCH  23  24
ATOM     24  C   UNL     1      25.750  -3.995  44.035  1.00  0.00    -0.000 C 
BRANCH  24  25
ATOM     25  C   UNL     1      25.522  -4.518  45.465  1.00  0.00    -0.000 C 
BRANCH  25  26
ATOM     26  C   UNL     1      24.089  -5.054  45.671  1.00  0.00    -0.000 C 
BRANCH  26  27
ATOM     27  C   UNL     1      23.583  -4.893  47.117  1.00  0.00    -0.000 C 
BRANCH  27  28
ATOM     28  C   UNL     1      22.286  -4.072  47.203  1.00  0.00    -0.000 C 
BRANCH  28  29
ATOM     29  C   UNL     1      21.826  -3.541  45.835  1.00  0.00    -0.000 C 
BRANCH  29  30
ATOM     30  C   UNL     1      22.032  -2.022  45.694  1.00  0.00    -0.000 C 
BRANCH  30  31
ATOM     31  C   UNL     1      22.496  -1.617  44.285  1.00  0.00    -0.003 C 
ATOM     32  C   UNL     1      22.504  -0.103  44.081  1.00  0.00     0.004 C 
ENDBRANCH  30  31
ENDBRANCH  29  30
ENDBRANCH  28  29
ENDBRANCH  27  28
ENDBRANCH  26  27
ENDBRANCH  25  26
ENDBRANCH  24  25
ENDBRANCH  23  24
ENDBRANCH  22  23
ENDBRANCH  21  22
ENDBRANCH  20  21
ENDBRANCH  19  20
ENDBRANCH  18  19
ENDBRANCH   1  18
TORSDOF 28
ENDMDL
MODEL 2
REMARK VINA RESULT:    -4.543      1.564      4.004
REMARK INTER + INTRA:         -17.388
REMARK INTER:                 -11.144
REMARK INTRA:                  -6.244
REMARK UNBOUND:                -5.409
REMARK SMILES CCCCCCCCCCCCCCCCCCCCCCCCCCCCCC(=O)[O-]
REMARK SMILES IDX 16 1 17 2 18 3 19 4 20 5 21 6 22 7 23 8 24 9 25 10 26 11
REMARK SMILES IDX 27 12 28 13 29 14 30 15 31 16 32 17 15 18 14 19 13 20 12 21
REMARK SMILES IDX 11 22 10 23 9 24 8 25 7 26 6 27 5 28 4 29 3 30 2 31 1 32
REMARK H PARENT
REMARK Flexibility Score: inf
ROOT
ATOM      1  C   UNL     1      20.378  -7.546  48.641  1.00  0.00     0.000 C 
ENDROOT
BRANCH   1   2
ATOM      2  C   UNL     1      20.127  -7.167  50.106  1.00  0.00     0.000 C 
BRANCH   2   3
ATOM      3  C   UNL     1      21.365  -7.454  50.968  1.00  0.00     0.000 C 
BRANCH   3   4
ATOM      4  C   UNL     1      22.415  -6.327  50.875  1.00  0.00     0.000 C 
BRANCH   4   5
ATOM      5  C   UNL     1      23.832  -6.821  50.508  1.00  0.00     0.000 C 
BRANCH   5   6
ATOM      6  C   UNL     1      24.016  -7.259  49.043  1.00  0.00     0.000 C 
BRANCH   6   7
ATOM      7  C   UNL     1      24.100  -8.783  48.832  1.00  0.00     0.000 C 
BRANCH   7   8
ATOM      8  C   UNL     1      24.387  -9.184  47.368  1.00  0.00     0.000 C 
BRANCH   8   9
ATOM      9  C   UNL     1      23.101  -9.556  46.610  1.00  0.00     0.000 C 
BRANCH   9  10
ATOM     10  C   UNL     1      22.555  -8.401  45.744  1.00  0.00     0.000 C 
BRANCH  10  11
ATOM     11  C   UNL     1      21.739  -8.861  44.520  1.00  0.00     0.000 C 
BRANCH  11  12
ATOM     12  C   UNL     1      21.519  -7.740  43.491  1.00  0.00     0.000 C 
BRANCH  12  13
ATOM     13  C   UNL     1      20.145  -7.061  43.642  1.00  0.00     0.006 C 
BRANCH  13  14
ATOM     14  C   UNL     1      19.998  -5.762  42.834  1.00  0.00     0.053 C 
BRANCH  14  15
ATOM     15  C   UNL     1      18.746  -5.020  43.195  1.00  0.00     0.041 C 
ATOM     16  O   UNL     1      18.800  -3.804  43.519  1.00  0.00    -0.550 OA
ATOM     17  O   UNL     1      17.530  -5.690  43.242  1.00  0.00    -0.550 OA
ENDBRANCH  14  15
ENDBRANCH  13  14
ENDBRANCH  12  13
ENDBRANCH  11  12
ENDBRANCH  10  11
ENDBRANCH   9  10
ENDBRANCH   8   9
ENDBRANCH   7   8
ENDBRANCH   6   7
ENDBRANCH   5   6
ENDBRANCH   4   5
ENDBRANCH   3   4
ENDBRANCH   2   3
ENDBRANCH   1   2
BRANCH   1  18
ATOM     18  C   UNL     1      20.069  -6.395  47.670  1.00  0.00     0.000 C 
BRANCH  18  19
ATOM     19  C   UNL     1      21.238  -5.418  47.425  1.00  0.00     0.000 C 
BRANCH  19  20
ATOM     20  C   UNL     1      21.059  -4.517  46.185  1.00  0.00     0.000 C 
BRANCH  20  21
ATOM     21  C   UNL     1      22.299  -4.510  45.273  1.00  0.00     0.000 C 
BRANCH  21  22
ATOM     22  C   UNL     1      22.553  -3.140  44.624  1.00  0.00     0.000 C 
BRANCH  22  23
ATOM     23  C   UNL     1      21.950  -1.977  45.432  1.00  0.00     0.000 C 
BRANCH  23  24
ATOM     24  C   UNL     1      22.949  -1.365  46.427  1.00  0.00    -0.000 C 
BRANCH  24  25
ATOM     25  C   UNL     1      22.603  -1.692  47.891  1.00  0.00    -0.000 C 
BRANCH  25  26
ATOM     26  C   UNL     1      23.855  -2.039  48.726  1.00  0.00    -0.000 C 
BRANCH  26  27
ATOM     27  C   UNL     1      24.156  -3.548  48.771  1.00  0.00    -0.000 C 
BRANCH  27  28
ATOM     28  C   UNL     1      25.523  -3.899  48.159  1.00  0.00    -0.000 C 
BRANCH  28  29
ATOM     29  C   UNL     1      25.403  -4.681  46.842  1.00  0.00    -0.000 C 
BRANCH  29  30
ATOM     30  C   UNL     1      26.183  -4.019  45.691  1.00  0.00    -0.000 C 
BRANCH  30  31
ATOM     31  C   UNL     1      26.418  -2.518  45.923  1.00  0.00    -0.003 C 
ATOM     32  C   UNL     1      26.209  -1.687  44.657  1.00  0.00     0.004 C 
ENDBRANCH  30  31
ENDBRANCH  29  30
ENDBRANCH  28  29
ENDBRANCH  27  28
ENDBRANCH  26  27
ENDBRANCH  25  26
ENDBRANCH  24  25
ENDBRANCH  23  24
ENDBRANCH  22  23
ENDBRANCH  21  22
ENDBRANCH  20  21
ENDBRANCH  19  20
ENDBRANCH  18  19
ENDBRANCH   1  18
TORSDOF 28
ENDMDL
MODEL 3
REMARK VINA RESULT:    -4.516      3.291      6.800
REMARK INTER + INTRA:         -17.316
REMARK INTER:                 -11.737
REMARK INTRA:                  -5.579
REMARK UNBOUND:                -5.409
REMARK SMILES CCCCCCCCCCCCCCCCCCCCCCCCCCCCCC(=O)[O-]
REMARK SMILES IDX 16 1 17 2 18 3 19 4 20 5 21 6 22 7 23 8 24 9 25 10 26 11
REMARK SMILES IDX 27 12 28 13 29 14 30 15 31 16 32 17 15 18 14 19 13 20 12 21
REMARK SMILES IDX 11 22 10 23 9 24 8 25 7 26 6 27 5 28 4 29 3 30 2 31 1 32
REMARK H PARENT
REMARK Flexibility Score: inf
ROOT
ATOM      1  C   UNL     1      20.240  -3.767  45.359  1.00  0.00     0.000 C 
ENDROOT
BRANCH   1   2
ATOM      2  C   UNL     1      20.914  -3.996  44.001  1.00  0.00     0.000 C 
BRANCH   2   3
ATOM      3  C   UNL     1      19.871  -4.084  42.877  1.00  0.00     0.000 C 
BRANCH   3   4
ATOM      4  C   UNL     1      18.476  -4.480  43.405  1.00  0.00     0.000 C 
BRANCH   4   5
ATOM      5  C   UNL     1      18.129  -5.970  43.201  1.00  0.00     0.000 C 
BRANCH   5   6
ATOM      6  C   UNL     1      18.463  -6.892  44.388  1.00  0.00     0.000 C 
BRANCH   6   7
ATOM      7  C   UNL     1      19.386  -8.077  44.044  1.00  0.00     0.000 C 
BRANCH   7   8
ATOM      8  C   UNL     1      20.742  -7.645  43.445  1.00  0.00     0.000 C 
BRANCH   8   9
ATOM      9  C   UNL     1      21.869  -7.673  44.491  1.00  0.00     0.000 C 
BRANCH   9  10
ATOM     10  C   UNL     1      21.504  -8.489  45.750  1.00  0.00     0.000 C 
BRANCH  10  11
ATOM     11  C   UNL     1      22.566  -8.437  46.865  1.00  0.00     0.000 C 
BRANCH  11  12
ATOM     12  C   UNL     1      23.435  -9.705  46.923  1.00  0.00     0.000 C 
BRANCH  12  13
ATOM     13  C   UNL     1      24.720  -9.503  47.749  1.00  0.00     0.006 C 
BRANCH  13  14
ATOM     14  C   UNL     1      25.187  -8.041  47.832  1.00  0.00     0.053 C 
BRANCH  14  15
ATOM     15  C   UNL     1      26.240  -7.852  48.881  1.00  0.00     0.041 C 
ATOM     16  O   UNL     1      27.395  -7.465  48.558  1.00  0.00    -0.550 OA
ATOM     17  O   UNL     1      25.968  -8.170  50.206  1.00  0.00    -0.550 OA
ENDBRANCH  14  15
ENDBRANCH  13  14
ENDBRANCH  12  13
ENDBRANCH  11  12
ENDBRANCH  10  11
ENDBRANCH   9  10
ENDBRANCH   8   9
ENDBRANCH   7   8
ENDBRANCH   6   7
ENDBRANCH   5   6
ENDBRANCH   4   5
ENDBRANCH   3   4
ENDBRANCH   2   3
ENDBRANCH   1   2
BRANCH   1  18
ATOM     18  C   UNL     1      20.629  -4.829  46.401  1.00  0.00     0.000 C 
BRANCH  18  19
ATOM     19  C   UNL     1      21.708  -4.386  47.411  1.00  0.00     0.000 C 
BRANCH  19  20
ATOM     20  C   UNL     1      23.145  -4.789  47.017  1.00  0.00     0.000 C 
BRANCH  20  21
ATOM     21  C   UNL     1      24.035  -3.574  46.697  1.00  0.00     0.000 C 
BRANCH  21  22
ATOM     22  C   UNL     1      23.311  -2.235  46.912  1.00  0.00     0.000 C 
BRANCH  22  23
ATOM     23  C   UNL     1      23.743  -1.524  48.206  1.00  0.00     0.000 C 
BRANCH  23  24
ATOM     24  C   UNL     1      22.560  -1.229  49.143  1.00  0.00    -0.000 C 
BRANCH  24  25
ATOM     25  C   UNL     1      22.793  -1.748  50.574  1.00  0.00    -0.000 C 
BRANCH  25  26
ATOM     26  C   UNL     1      23.624  -3.049  50.597  1.00  0.00    -0.000 C 
BRANCH  26  27
ATOM     27  C   UNL     1      22.878  -4.235  51.235  1.00  0.00    -0.000 C 
BRANCH  27  28
ATOM     28  C   UNL     1      23.559  -5.585  50.954  1.00  0.00    -0.000 C 
BRANCH  28  29
ATOM     29  C   UNL     1      22.634  -6.580  50.236  1.00  0.00    -0.000 C 
BRANCH  29  30
ATOM     30  C   UNL     1      21.950  -7.556  51.210  1.00  0.00    -0.000 C 
BRANCH  30  31
ATOM     31  C   UNL     1      20.475  -7.807  50.858  1.00  0.00    -0.003 C 
ATOM     32  C   UNL     1      20.079  -7.199  49.514  1.00  0.00     0.004 C 
ENDBRANCH  30  31
ENDBRANCH  29  30
ENDBRANCH  28  29
ENDBRANCH  27  28
ENDBRANCH  26  27
ENDBRANCH  25  26
ENDBRANCH  24  25
ENDBRANCH  23  24
ENDBRANCH  22  23
ENDBRANCH  21  22
ENDBRANCH  20  21
ENDBRANCH  19  20
ENDBRANCH  18  19
ENDBRANCH   1  18
TORSDOF 28
ENDMDL
MODEL 4
REMARK VINA RESULT:    -4.508      2.035      6.394
REMARK INTER + INTRA:         -17.297
REMARK INTER:                 -11.000
REMARK INTRA:                  -6.296
REMARK UNBOUND:                -5.409
REMARK SMILES CCCCCCCCCCCCCCCCCCCCCCCCCCCCCC(=O)[O-]
REMARK SMILES IDX 16 1 17 2 18 3 19 4 20 5 21 6 22 7 23 8 24 9 25 10 26 11
REMARK SMILES IDX 27 12 28 13 29 14 30 15 31 16 32 17 15 18 14 19 13 20 12 21
REMARK SMILES IDX 11 22 10 23 9 24 8 25 7 26 6 27 5 28 4 29 3 30 2 31 1 32
REMARK H PARENT
REMARK Flexibility Score: inf
ROOT
ATOM      1  C   UNL     1      22.421  -8.604  46.521  1.00  0.00     0.000 C 
ENDROOT
BRANCH   1   2
ATOM      2  C   UNL     1      21.240  -7.842  47.138  1.00  0.00     0.000 C 
BRANCH   2   3
ATOM      3  C   UNL     1      21.547  -7.431  48.585  1.00  0.00     0.000 C 
BRANCH   3   4
ATOM      4  C   UNL     1      22.970  -7.840  49.019  1.00  0.00     0.000 C 
BRANCH   4   5
ATOM      5  C   UNL     1      23.460  -7.135  50.303  1.00  0.00     0.000 C 
BRANCH   5   6
ATOM      6  C   UNL     1      22.447  -6.175  50.953  1.00  0.00     0.000 C 
BRANCH   6   7
ATOM      7  C   UNL     1      22.899  -4.703  51.011  1.00  0.00     0.000 C 
BRANCH   7   8
ATOM      8  C   UNL     1      24.427  -4.525  50.869  1.00  0.00     0.000 C 
BRANCH   8   9
ATOM      9  C   UNL     1      24.806  -3.081  50.496  1.00  0.00     0.000 C 
BRANCH   9  10
ATOM     10  C   UNL     1      23.587  -2.219  50.106  1.00  0.00     0.000 C 
BRANCH  10  11
ATOM     11  C   UNL     1      23.765  -1.434  48.791  1.00  0.00     0.000 C 
BRANCH  11  12
ATOM     12  C   UNL     1      25.185  -1.548  48.213  1.00  0.00     0.000 C 
BRANCH  12  13
ATOM     13  C   UNL     1      25.186  -1.734  46.683  1.00  0.00     0.006 C 
BRANCH  13  14
ATOM     14  C   UNL     1      24.074  -0.960  45.959  1.00  0.00     0.053 C 
BRANCH  14  15
ATOM     15  C   UNL     1      23.707  -1.603  44.655  1.00  0.00     0.041 C 
ATOM     16  O   UNL     1      22.655  -1.261  44.053  1.00  0.00    -0.550 OA
ATOM     17  O   UNL     1      24.489  -2.630  44.141  1.00  0.00    -0.550 OA
ENDBRANCH  14  15
ENDBRANCH  13  14
ENDBRANCH  12  13
ENDBRANCH  11  12
ENDBRANCH  10  11
ENDBRANCH   9  10
ENDBRANCH   8   9
ENDBRANCH   7   8
ENDBRANCH   6   7
ENDBRANCH   5   6
ENDBRANCH   4   5
ENDBRANCH   3   4
ENDBRANCH   2   3
ENDBRANCH   1   2
BRANCH   1  18
ATOM     18  C   UNL     1      21.993  -9.925  45.860  1.00  0.00     0.000 C 
BRANCH  18  19
ATOM     19  C   UNL     1      22.333 -10.042  44.360  1.00  0.00     0.000 C 
BRANCH  19  20
ATOM     20  C   UNL     1      21.437  -9.185  43.440  1.00  0.00     0.000 C 
BRANCH  20  21
ATOM     21  C   UNL     1      22.014  -7.779  43.194  1.00  0.00     0.000 C 
BRANCH  21  22
ATOM     22  C   UNL     1      20.922  -6.721  42.965  1.00  0.00     0.000 C 
BRANCH  22  23
ATOM     23  C   UNL     1      19.602  -7.062  43.678  1.00  0.00     0.000 C 
BRANCH  23  24
ATOM     24  C   UNL     1      19.193  -5.999  44.710  1.00  0.00    -0.000 C 
BRANCH  24  25
ATOM     25  C   UNL     1      19.319  -4.565  44.167  1.00  0.00    -0.000 C 
BRANCH  25  26
ATOM     26  C   UNL     1      20.266  -3.695  45.021  1.00  0.00    -0.000 C 
BRANCH  26  27
ATOM     27  C   UNL     1      21.558  -4.427  45.431  1.00  0.00    -0.000 C 
BRANCH  27  28
ATOM     28  C   UNL     1      21.965  -4.141  46.886  1.00  0.00    -0.000 C 
BRANCH  28  29
ATOM     29  C   UNL     1      23.345  -4.717  47.242  1.00  0.00    -0.000 C 
BRANCH  29  30
ATOM     30  C   UNL     1      24.005  -5.440  46.053  1.00  0.00    -0.000 C 
BRANCH  30  31
ATOM     31  C   UNL     1      25.385  -6.018  46.404  1.00  0.00    -0.003 C 
ATOM     32  C   UNL     1      25.850  -5.622  47.805  1.00  0.00     0.004 C 
ENDBRANCH  30  31
ENDBRANCH  29  30
ENDBRANCH  28  29
ENDBRANCH  27  28
ENDBRANCH  26  27
ENDBRANCH  25  26
ENDBRANCH  24  25
ENDBRANCH  23  24
ENDBRANCH  22  23
ENDBRANCH  21  22
ENDBRANCH  20  21
ENDBRANCH  19  20
ENDBRANCH  18  19
ENDBRANCH   1  18
TORSDOF 28
ENDMDL
MODEL 5
REMARK VINA RESULT:    -4.488      2.411      6.624
REMARK INTER + INTRA:         -17.242
REMARK INTER:                 -11.370
REMARK INTRA:                  -5.872
REMARK UNBOUND:                -5.409
REMARK SMILES CCCCCCCCCCCCCCCCCCCCCCCCCCCCCC(=O)[O-]
REMARK SMILES IDX 16 1 17 2 18 3 19 4 20 5 21 6 22 7 23 8 24 9 25 10 26 11
REMARK SMILES IDX 27 12 28 13 29 14 30 15 31 16 32 17 15 18 14 19 13 20 12 21
REMARK SMILES IDX 11 22 10 23 9 24 8 25 7 26 6 27 5 28 4 29 3 30 2 31 1 32
REMARK H PARENT
REMARK Flexibility Score: inf
ROOT
ATOM      1  C   UNL     1      19.620  -5.524  42.892  1.00  0.00     0.000 C 
ENDROOT
BRANCH   1   2
ATOM      2  C   UNL     1      18.431  -6.044  43.709  1.00  0.00     0.000 C 
BRANCH   2   3
ATOM      3  C   UNL     1      18.664  -7.493  44.159  1.00  0.00     0.000 C 
BRANCH   3   4
ATOM      4  C   UNL     1      20.017  -8.048  43.665  1.00  0.00     0.000 C 
BRANCH   4   5
ATOM      5  C   UNL     1      20.638  -9.109  44.598  1.00  0.00     0.000 C 
BRANCH   5   6
ATOM      6  C   UNL     1      22.153  -8.972  44.834  1.00  0.00     0.000 C 
BRANCH   6   7
ATOM      7  C   UNL     1      22.672  -9.660  46.111  1.00  0.00     0.000 C 
BRANCH   7   8
ATOM      8  C   UNL     1      23.310  -8.679  47.120  1.00  0.00     0.000 C 
BRANCH   8   9
ATOM      9  C   UNL     1      24.836  -8.853  47.206  1.00  0.00     0.000 C 
BRANCH   9  10
ATOM     10  C   UNL     1      25.593  -7.510  47.289  1.00  0.00     0.000 C 
BRANCH  10  11
ATOM     11  C   UNL     1      24.773  -6.294  46.814  1.00  0.00     0.000 C 
BRANCH  11  12
ATOM     12  C   UNL     1      25.640  -5.208  46.155  1.00  0.00     0.000 C 
BRANCH  12  13
ATOM     13  C   UNL     1      25.037  -4.691  44.835  1.00  0.00     0.006 C 
BRANCH  13  14
ATOM     14  C   UNL     1      25.914  -3.660  44.108  1.00  0.00     0.053 C 
BRANCH  14  15
ATOM     15  C   UNL     1      25.669  -2.269  44.608  1.00  0.00     0.041 C 
ATOM     16  O   UNL     1      24.492  -1.840  44.738  1.00  0.00    -0.550 OA
ATOM     17  O   UNL     1      26.740  -1.423  44.866  1.00  0.00    -0.550 OA
ENDBRANCH  14  15
ENDBRANCH  13  14
ENDBRANCH  12  13
ENDBRANCH  11  12
ENDBRANCH  10  11
ENDBRANCH   9  10
ENDBRANCH   8   9
ENDBRANCH   7   8
ENDBRANCH   6   7
ENDBRANCH   5   6
ENDBRANCH   4   5
ENDBRANCH   3   4
ENDBRANCH   2   3
ENDBRANCH   1   2
BRANCH   1  18
ATOM     18  C   UNL     1      20.279  -4.288  43.524  1.00  0.00     0.000 C 
BRANCH  18  19
ATOM     19  C   UNL     1      21.486  -4.588  44.438  1.00  0.00     0.000 C 
BRANCH  19  20
ATOM     20  C   UNL     1      21.563  -3.696  45.696  1.00  0.00     0.000 C 
BRANCH  20  21
ATOM     21  C   UNL     1      21.356  -4.490  46.999  1.00  0.00     0.000 C 
BRANCH  21  22
ATOM     22  C   UNL     1      20.987  -5.961  46.746  1.00  0.00     0.000 C 
BRANCH  22  23
ATOM     23  C   UNL     1      19.904  -6.478  47.709  1.00  0.00     0.000 C 
BRANCH  23  24
ATOM     24  C   UNL     1      20.445  -7.513  48.709  1.00  0.00    -0.000 C 
BRANCH  24  25
ATOM     25  C   UNL     1      20.134  -7.144  50.170  1.00  0.00    -0.000 C 
BRANCH  25  26
ATOM     26  C   UNL     1      21.384  -7.220  51.073  1.00  0.00    -0.000 C 
BRANCH  26  27
ATOM     27  C   UNL     1      22.694  -7.403  50.283  1.00  0.00    -0.000 C 
BRANCH  27  28
ATOM     28  C   UNL     1      23.517  -6.108  50.191  1.00  0.00    -0.000 C 
BRANCH  28  29
ATOM     29  C   UNL     1      22.910  -4.958  51.011  1.00  0.00    -0.000 C 
BRANCH  29  30
ATOM     30  C   UNL     1      23.507  -3.589  50.635  1.00  0.00    -0.000 C 
BRANCH  30  31
ATOM     31  C   UNL     1      24.432  -3.663  49.410  1.00  0.00    -0.003 C 
ATOM     32  C   UNL     1      24.162  -2.548  48.401  1.00  0.00     0.004 C 
ENDBRANCH  30  31
ENDBRANCH  29  30
ENDBRANCH  28  29
ENDBRANCH  27  28
ENDBRANCH  26  27
ENDBRANCH  25  26
ENDBRANCH  24  25
ENDBRANCH  23  24
ENDBRANCH  22  23
ENDBRANCH  21  22
ENDBRANCH  20  21
ENDBRANCH  19  20
ENDBRANCH  18  19
ENDBRANCH   1  18
TORSDOF 28
ENDMDL
MODEL 6
REMARK VINA RESULT:    -4.442      2.407      5.902
REMARK INTER + INTRA:         -17.123
REMARK INTER:                 -11.370
REMARK INTRA:                  -5.753
REMARK UNBOUND:                -5.409
REMARK SMILES CCCCCCCCCCCCCCCCCCCCCCCCCCCCCC(=O)[O-]
REMARK SMILES IDX 16 1 17 2 18 3 19 4 20 5 21 6 22 7 23 8 24 9 25 10 26 11
REMARK SMILES IDX 27 12 28 13 29 14 30 15 31 16 32 17 15 18 14 19 13 20 12 21
REMARK SMILES IDX 11 22 10 23 9 24 8 25 7 26 6 27 5 28 4 29 3 30 2 31 1 32
REMARK H PARENT
REMARK Flexibility Score: inf
ROOT
ATOM      1  C   UNL     1      21.222  -7.422  47.796  1.00  0.00     0.000 C 
ENDROOT
BRANCH   1   2
ATOM      2  C   UNL     1      22.179  -6.260  47.501  1.00  0.00     0.000 C 
BRANCH   2   3
ATOM      3  C   UNL     1      23.338  -6.717  46.604  1.00  0.00     0.000 C 
BRANCH   3   4
ATOM      4  C   UNL     1      23.654  -5.695  45.492  1.00  0.00     0.000 C 
BRANCH   4   5
ATOM      5  C   UNL     1      24.407  -4.442  45.989  1.00  0.00     0.000 C 
BRANCH   5   6
ATOM      6  C   UNL     1      23.787  -3.095  45.574  1.00  0.00     0.000 C 
BRANCH   6   7
ATOM      7  C   UNL     1      22.642  -3.200  44.548  1.00  0.00     0.000 C 
BRANCH   7   8
ATOM      8  C   UNL     1      21.258  -2.846  45.135  1.00  0.00     0.000 C 
BRANCH   8   9
ATOM      9  C   UNL     1      20.318  -4.063  45.171  1.00  0.00     0.000 C 
BRANCH   9  10
ATOM     10  C   UNL     1      19.482  -4.217  43.882  1.00  0.00     0.000 C 
BRANCH  10  11
ATOM     11  C   UNL     1      19.712  -5.547  43.137  1.00  0.00     0.000 C 
BRANCH  11  12
ATOM     12  C   UNL     1      20.612  -6.522  43.915  1.00  0.00     0.000 C 
BRANCH  12  13
ATOM     13  C   UNL     1      19.849  -7.768  44.403  1.00  0.00     0.006 C 
BRANCH  13  14
ATOM     14  C   UNL     1      20.202  -9.055  43.641  1.00  0.00     0.053 C 
BRANCH  14  15
ATOM     15  C   UNL     1      21.581  -9.539  43.974  1.00  0.00     0.041 C 
ATOM     16  O   UNL     1      21.964  -9.586  45.173  1.00  0.00    -0.550 OA
ATOM     17  O   UNL     1      22.467  -9.870  42.956  1.00  0.00    -0.550 OA
ENDBRANCH  14  15
ENDBRANCH  13  14
ENDBRANCH  12  13
ENDBRANCH  11  12
ENDBRANCH  10  11
ENDBRANCH   9  10
ENDBRANCH   8   9
ENDBRANCH   7   8
ENDBRANCH   6   7
ENDBRANCH   5   6
ENDBRANCH   4   5
ENDBRANCH   3   4
ENDBRANCH   2   3
ENDBRANCH   1   2
BRANCH   1  18
ATOM     18  C   UNL     1      20.226  -7.098  48.923  1.00  0.00     0.000 C 
BRANCH  18  19
ATOM     19  C   UNL     1      20.683  -7.517  50.336  1.00  0.00     0.000 C 
BRANCH  19  20
ATOM     20  C   UNL     1      21.586  -6.482  51.041  1.00  0.00     0.000 C 
BRANCH  20  21
ATOM     21  C   UNL     1      22.995  -7.029  51.334  1.00  0.00     0.000 C 
BRANCH  21  22
ATOM     22  C   UNL     1      23.206  -8.451  50.792  1.00  0.00     0.000 C 
BRANCH  22  23
ATOM     23  C   UNL     1      24.284  -8.518  49.695  1.00  0.00     0.000 C 
BRANCH  23  24
ATOM     24  C   UNL     1      25.603  -7.852  50.118  1.00  0.00    -0.000 C 
BRANCH  24  25
ATOM     25  C   UNL     1      25.991  -6.674  49.207  1.00  0.00    -0.000 C 
BRANCH  25  26
ATOM     26  C   UNL     1      26.298  -5.390  50.007  1.00  0.00    -0.000 C 
BRANCH  26  27
ATOM     27  C   UNL     1      25.591  -4.142  49.447  1.00  0.00    -0.000 C 
BRANCH  27  28
ATOM     28  C   UNL     1      24.903  -3.308  50.541  1.00  0.00    -0.000 C 
BRANCH  28  29
ATOM     29  C   UNL     1      23.370  -3.419  50.499  1.00  0.00    -0.000 C 
BRANCH  29  30
ATOM     30  C   UNL     1      22.798  -3.132  49.099  1.00  0.00    -0.000 C 
BRANCH  30  31
ATOM     31  C   UNL     1      22.503  -1.641  48.875  1.00  0.00    -0.003 C 
ATOM     32  C   UNL     1      21.977  -0.949  50.132  1.00  0.00     0.004 C 
ENDBRANCH  30  31
ENDBRANCH  29  30
ENDBRANCH  28  29
ENDBRANCH  27  28
ENDBRANCH  26  27
ENDBRANCH  25  26
ENDBRANCH  24  25
ENDBRANCH  23  24
ENDBRANCH  22  23
ENDBRANCH  21  22
ENDBRANCH  20  21
ENDBRANCH  19  20
ENDBRANCH  18  19
ENDBRANCH   1  18
TORSDOF 28
ENDMDL
MODEL 7
REMARK VINA RESULT:    -4.427      1.595      4.192
REMARK INTER + INTRA:         -17.081
REMARK INTER:                 -11.221
REMARK INTRA:                  -5.861
REMARK UNBOUND:                -5.409
REMARK SMILES CCCCCCCCCCCCCCCCCCCCCCCCCCCCCC(=O)[O-]
REMARK SMILES IDX 16 1 17 2 18 3 19 4 20 5 21 6 22 7 23 8 24 9 25 10 26 11
REMARK SMILES IDX 27 12 28 13 29 14 30 15 31 16 32 17 15 18 14 19 13 20 12 21
REMARK SMILES IDX 11 22 10 23 9 24 8 25 7 26 6 27 5 28 4 29 3 30 2 31 1 32
REMARK H PARENT
REMARK Flexibility Score: inf
ROOT
ATOM      1  C   UNL     1      20.301  -7.539  48.842  1.00  0.00     0.000 C 
ENDROOT
BRANCH   1   2
ATOM      2  C   UNL     1      20.281  -7.096  50.311  1.00  0.00     0.000 C 
BRANCH   2   3
ATOM      3  C   UNL     1      21.382  -7.803  51.114  1.00  0.00     0.000 C 
BRANCH   3   4
ATOM      4  C   UNL     1      22.698  -6.998  51.137  1.00  0.00     0.000 C 
BRANCH   4   5
ATOM      5  C   UNL     1      23.950  -7.835  50.800  1.00  0.00     0.000 C 
BRANCH   5   6
ATOM      6  C   UNL     1      24.379  -7.809  49.321  1.00  0.00     0.000 C 
BRANCH   6   7
ATOM      7  C   UNL     1      23.982  -9.058  48.512  1.00  0.00     0.000 C 
BRANCH   7   8
ATOM      8  C   UNL     1      23.790  -8.778  47.005  1.00  0.00     0.000 C 
BRANCH   8   9
ATOM      9  C   UNL     1      22.826  -9.782  46.350  1.00  0.00     0.000 C 
BRANCH   9  10
ATOM     10  C   UNL     1      21.625  -9.101  45.658  1.00  0.00     0.000 C 
BRANCH  10  11
ATOM     11  C   UNL     1      21.762  -8.985  44.128  1.00  0.00     0.000 C 
BRANCH  11  12
ATOM     12  C   UNL     1      21.683  -7.533  43.628  1.00  0.00     0.000 C 
BRANCH  12  13
ATOM     13  C   UNL     1      20.242  -7.099  43.299  1.00  0.00     0.006 C 
BRANCH  13  14
ATOM     14  C   UNL     1      20.082  -5.590  43.060  1.00  0.00     0.053 C 
BRANCH  14  15
ATOM     15  C   UNL     1      18.663  -5.144  43.244  1.00  0.00     0.041 C 
ATOM     16  O   UNL     1      17.738  -5.993  43.335  1.00  0.00    -0.550 OA
ATOM     17  O   UNL     1      18.354  -3.789  43.245  1.00  0.00    -0.550 OA
ENDBRANCH  14  15
ENDBRANCH  13  14
ENDBRANCH  12  13
ENDBRANCH  11  12
ENDBRANCH  10  11
ENDBRANCH   9  10
ENDBRANCH   8   9
ENDBRANCH   7   8
ENDBRANCH   6   7
ENDBRANCH   5   6
ENDBRANCH   4   5
ENDBRANCH   3   4
ENDBRANCH   2   3
ENDBRANCH   1   2
BRANCH   1  18
ATOM     18  C   UNL     1      20.394  -6.355  47.866  1.00  0.00     0.000 C 
BRANCH  18  19
ATOM     19  C   UNL     1      21.772  -5.665  47.807  1.00  0.00     0.000 C 
BRANCH  19  20
ATOM     20  C   UNL     1      22.072  -4.965  46.465  1.00  0.00     0.000 C 
BRANCH  20  21
ATOM     21  C   UNL     1      23.407  -5.417  45.846  1.00  0.00     0.000 C 
BRANCH  21  22
ATOM     22  C   UNL     1      23.888  -4.483  44.723  1.00  0.00     0.000 C 
BRANCH  22  23
ATOM     23  C   UNL     1      23.131  -3.144  44.696  1.00  0.00     0.000 C 
BRANCH  23  24
ATOM     24  C   UNL     1      24.019  -1.952  45.089  1.00  0.00    -0.000 C 
BRANCH  24  25
ATOM     25  C   UNL     1      23.822  -1.524  46.554  1.00  0.00    -0.000 C 
BRANCH  25  26
ATOM     26  C   UNL     1      25.164  -1.278  47.278  1.00  0.00    -0.000 C 
BRANCH  26  27
ATOM     27  C   UNL     1      26.291  -2.213  46.801  1.00  0.00    -0.000 C 
BRANCH  27  28
ATOM     28  C   UNL     1      26.183  -3.626  47.399  1.00  0.00    -0.000 C 
BRANCH  28  29
ATOM     29  C   UNL     1      26.153  -3.621  48.936  1.00  0.00    -0.000 C 
BRANCH  29  30
ATOM     30  C   UNL     1      24.872  -4.260  49.501  1.00  0.00    -0.000 C 
BRANCH  30  31
ATOM     31  C   UNL     1      24.176  -3.368  50.541  1.00  0.00    -0.003 C 
ATOM     32  C   UNL     1      22.937  -2.669  49.983  1.00  0.00     0.004 C 
ENDBRANCH  30  31
ENDBRANCH  29  30
ENDBRANCH  28  29
ENDBRANCH  27  28
ENDBRANCH  26  27
ENDBRANCH  25  26
ENDBRANCH  24  25
ENDBRANCH  23  24
ENDBRANCH  22  23
ENDBRANCH  21  22
ENDBRANCH  20  21
ENDBRANCH  19  20
ENDBRANCH  18  19
ENDBRANCH   1  18
TORSDOF 28
ENDMDL
MODEL 8
REMARK VINA RESULT:    -4.414      2.203      6.371
REMARK INTER + INTRA:         -17.047
REMARK INTER:                 -10.458
REMARK INTRA:                  -6.589
REMARK UNBOUND:                -5.409
REMARK SMILES CCCCCCCCCCCCCCCCCCCCCCCCCCCCCC(=O)[O-]
REMARK SMILES IDX 16 1 17 2 18 3 19 4 20 5 21 6 22 7 23 8 24 9 25 10 26 11
REMARK SMILES IDX 27 12 28 13 29 14 30 15 31 16 32 17 15 18 14 19 13 20 12 21
REMARK SMILES IDX 11 22 10 23 9 24 8 25 7 26 6 27 5 28 4 29 3 30 2 31 1 32
REMARK H PARENT
REMARK Flexibility Score: inf
ROOT
ATOM      1  C   UNL     1      22.488  -3.688  48.180  1.00  0.00     0.000 C 
ENDROOT
BRANCH   1   2
ATOM      2  C   UNL     1      23.097  -2.314  48.489  1.00  0.00     0.000 C 
BRANCH   2   3
ATOM      3  C   UNL     1      23.222  -2.096  50.003  1.00  0.00     0.000 C 
BRANCH   3   4
ATOM      4  C   UNL     1      23.693  -3.368  50.740  1.00  0.00     0.000 C 
BRANCH   4   5
ATOM      5  C   UNL     1      25.214  -3.617  50.649  1.00  0.00     0.000 C 
BRANCH   5   6
ATOM      6  C   UNL     1      25.622  -5.019  50.158  1.00  0.00     0.000 C 
BRANCH   6   7
ATOM      7  C   UNL     1      26.487  -5.029  48.883  1.00  0.00     0.000 C 
BRANCH   7   8
ATOM      8  C   UNL     1      26.579  -3.649  48.194  1.00  0.00     0.000 C 
BRANCH   8   9
ATOM      9  C   UNL     1      27.322  -3.726  46.849  1.00  0.00     0.000 C 
BRANCH   9  10
ATOM     10  C   UNL     1      26.615  -4.636  45.821  1.00  0.00     0.000 C 
BRANCH  10  11
ATOM     11  C   UNL     1      25.885  -3.871  44.700  1.00  0.00     0.000 C 
BRANCH  11  12
ATOM     12  C   UNL     1      26.201  -2.366  44.697  1.00  0.00     0.000 C 
BRANCH  12  13
ATOM     13  C   UNL     1      24.983  -1.506  45.083  1.00  0.00     0.006 C 
BRANCH  13  14
ATOM     14  C   UNL     1      23.668  -1.955  44.429  1.00  0.00     0.053 C 
BRANCH  14  15
ATOM     15  C   UNL     1      22.554  -0.988  44.697  1.00  0.00     0.041 C 
ATOM     16  O   UNL     1      21.661  -1.267  45.540  1.00  0.00    -0.550 OA
ATOM     17  O   UNL     1      22.464   0.189  43.965  1.00  0.00    -0.550 OA
ENDBRANCH  14  15
ENDBRANCH  13  14
ENDBRANCH  12  13
ENDBRANCH  11  12
ENDBRANCH  10  11
ENDBRANCH   9  10
ENDBRANCH   8   9
ENDBRANCH   7   8
ENDBRANCH   6   7
ENDBRANCH   5   6
ENDBRANCH   4   5
ENDBRANCH   3   4
ENDBRANCH   2   3
ENDBRANCH   1   2
BRANCH   1  18
ATOM     18  C   UNL     1      23.149  -4.371  46.971  1.00  0.00     0.000 C 
BRANCH  18  19
ATOM     19  C   UNL     1      23.412  -5.882  47.140  1.00  0.00     0.000 C 
BRANCH  19  20
ATOM     20  C   UNL     1      22.807  -6.758  46.023  1.00  0.00     0.000 C 
BRANCH  20  21
ATOM     21  C   UNL     1      21.566  -7.541  46.490  1.00  0.00     0.000 C 
BRANCH  21  22
ATOM     22  C   UNL     1      20.313  -6.658  46.600  1.00  0.00     0.000 C 
BRANCH  22  23
ATOM     23  C   UNL     1      19.881  -6.413  48.057  1.00  0.00     0.000 C 
BRANCH  23  24
ATOM     24  C   UNL     1      20.268  -7.570  48.992  1.00  0.00    -0.000 C 
BRANCH  24  25
ATOM     25  C   UNL     1      20.645  -7.090  50.405  1.00  0.00    -0.000 C 
BRANCH  25  26
ATOM     26  C   UNL     1      22.099  -6.576  50.481  1.00  0.00    -0.000 C 
BRANCH  26  27
ATOM     27  C   UNL     1      22.944  -7.298  51.547  1.00  0.00    -0.000 C 
BRANCH  27  28
ATOM     28  C   UNL     1      23.649  -8.549  50.998  1.00  0.00    -0.000 C 
BRANCH  28  29
ATOM     29  C   UNL     1      24.241  -8.331  49.596  1.00  0.00    -0.000 C 
BRANCH  29  30
ATOM     30  C   UNL     1      24.357  -9.642  48.796  1.00  0.00    -0.000 C 
BRANCH  30  31
ATOM     31  C   UNL     1      25.033  -9.443  47.431  1.00  0.00    -0.003 C 
ATOM     32  C   UNL     1      26.134  -8.384  47.467  1.00  0.00     0.004 C 
ENDBRANCH  30  31
ENDBRANCH  29  30
ENDBRANCH  28  29
ENDBRANCH  27  28
ENDBRANCH  26  27
ENDBRANCH  25  26
ENDBRANCH  24  25
ENDBRANCH  23  24
ENDBRANCH  22  23
ENDBRANCH  21  22
ENDBRANCH  20  21
ENDBRANCH  19  20
ENDBRANCH  18  19
ENDBRANCH   1  18
TORSDOF 28
ENDMDL
MODEL 9
REMARK VINA RESULT:    -4.412      1.946      3.917
REMARK INTER + INTRA:         -17.043
REMARK INTER:                 -10.148
REMARK INTRA:                  -6.895
REMARK UNBOUND:                -5.409
REMARK SMILES CCCCCCCCCCCCCCCCCCCCCCCCCCCCCC(=O)[O-]
REMARK SMILES IDX 16 1 17 2 18 3 19 4 20 5 21 6 22 7 23 8 24 9 25 10 26 11
REMARK SMILES IDX 27 12 28 13 29 14 30 15 31 16 32 17 15 18 14 19 13 20 12 21
REMARK SMILES IDX 11 22 10 23 9 24 8 25 7 26 6 27 5 28 4 29 3 30 2 31 1 32
REMARK H PARENT
REMARK Flexibility Score: inf
ROOT
ATOM      1  C   UNL     1      23.275  -8.081  47.427  1.00  0.00     0.000 C 
ENDROOT
BRANCH   1   2
ATOM      2  C   UNL     1      24.422  -9.086  47.593  1.00  0.00     0.000 C 
BRANCH   2   3
ATOM      3  C   UNL     1      24.571  -9.512  49.061  1.00  0.00     0.000 C 
BRANCH   3   4
ATOM      4  C   UNL     1      24.822  -8.310  49.995  1.00  0.00     0.000 C 
BRANCH   4   5
ATOM      5  C   UNL     1      23.664  -8.026  50.976  1.00  0.00     0.000 C 
BRANCH   5   6
ATOM      6  C   UNL     1      23.273  -6.544  51.121  1.00  0.00     0.000 C 
BRANCH   6   7
ATOM      7  C   UNL     1      21.824  -6.216  50.714  1.00  0.00     0.000 C 
BRANCH   7   8
ATOM      8  C   UNL     1      20.919  -7.464  50.611  1.00  0.00     0.000 C 
BRANCH   8   9
ATOM      9  C   UNL     1      20.119  -7.488  49.297  1.00  0.00     0.000 C 
BRANCH   9  10
ATOM     10  C   UNL     1      20.303  -6.208  48.455  1.00  0.00     0.000 C 
BRANCH  10  11
ATOM     11  C   UNL     1      19.869  -6.354  46.983  1.00  0.00     0.000 C 
BRANCH  11  12
ATOM     12  C   UNL     1      20.402  -5.223  46.087  1.00  0.00     0.000 C 
BRANCH  12  13
ATOM     13  C   UNL     1      19.902  -5.336  44.634  1.00  0.00     0.006 C 
BRANCH  13  14
ATOM     14  C   UNL     1      20.928  -5.941  43.665  1.00  0.00     0.053 C 
BRANCH  14  15
ATOM     15  C   UNL     1      20.903  -7.440  43.691  1.00  0.00     0.041 C 
ATOM     16  O   UNL     1      19.807  -8.057  43.624  1.00  0.00    -0.550 OA
ATOM     17  O   UNL     1      22.083  -8.152  43.862  1.00  0.00    -0.550 OA
ENDBRANCH  14  15
ENDBRANCH  13  14
ENDBRANCH  12  13
ENDBRANCH  11  12
ENDBRANCH  10  11
ENDBRANCH   9  10
ENDBRANCH   8   9
ENDBRANCH   7   8
ENDBRANCH   6   7
ENDBRANCH   5   6
ENDBRANCH   4   5
ENDBRANCH   3   4
ENDBRANCH   2   3
ENDBRANCH   1   2
BRANCH   1  18
ATOM     18  C   UNL     1      23.713  -6.795  46.707  1.00  0.00     0.000 C 
BRANCH  18  19
ATOM     19  C   UNL     1      23.801  -5.543  47.604  1.00  0.00     0.000 C 
BRANCH  19  20
ATOM     20  C   UNL     1      25.237  -5.168  48.027  1.00  0.00     0.000 C 
BRANCH  20  21
ATOM     21  C   UNL     1      26.309  -5.880  47.182  1.00  0.00     0.000 C 
BRANCH  21  22
ATOM     22  C   UNL     1      26.934  -4.962  46.119  1.00  0.00     0.000 C 
BRANCH  22  23
ATOM     23  C   UNL     1      26.824  -3.470  46.479  1.00  0.00     0.000 C 
BRANCH  23  24
ATOM     24  C   UNL     1      26.196  -2.633  45.353  1.00  0.00    -0.000 C 
BRANCH  24  25
ATOM     25  C   UNL     1      25.267  -3.460  44.446  1.00  0.00    -0.000 C 
BRANCH  25  26
ATOM     26  C   UNL     1      23.775  -3.223  44.763  1.00  0.00    -0.000 C 
BRANCH  26  27
ATOM     27  C   UNL     1      23.529  -1.973  45.629  1.00  0.00    -0.000 C 
BRANCH  27  28
ATOM     28  C   UNL     1      22.248  -2.079  46.473  1.00  0.00    -0.000 C 
BRANCH  28  29
ATOM     29  C   UNL     1      22.533  -2.123  47.983  1.00  0.00    -0.000 C 
BRANCH  29  30
ATOM     30  C   UNL     1      23.929  -1.577  48.334  1.00  0.00    -0.000 C 
BRANCH  30  31
ATOM     31  C   UNL     1      24.418  -2.048  49.713  1.00  0.00    -0.003 C 
ATOM     32  C   UNL     1      23.314  -2.711  50.535  1.00  0.00     0.004 C 
ENDBRANCH  30  31
ENDBRANCH  29  30
ENDBRANCH  28  29
ENDBRANCH  27  28
ENDBRANCH  26  27
ENDBRANCH  25  26
ENDBRANCH  24  25
ENDBRANCH  23  24
ENDBRANCH  22  23
ENDBRANCH  21  22
ENDBRANCH  20  21
ENDBRANCH  19  20
ENDBRANCH  18  19
ENDBRANCH   1  18
TORSDOF 28
ENDMDL
