MODEL 1
REMARK VINA RESULT:    -4.848      0.000      0.000
REMARK INTER + INTRA:         -10.754
REMARK INTER:                  -8.817
REMARK INTRA:                  -1.937
REMARK UNBOUND:                -1.937
REMARK SMILES CCCCCCCCCCCCCCCC(=O)[O-]
REMARK SMILES IDX 9 1 10 2 11 3 12 4 13 5 14 6 15 7 16 8 17 9 18 10 8 11 7 12
REMARK SMILES IDX 6 13 5 14 4 15 3 16 2 17 1 18
REMARK H PARENT
REMARK Flexibility Score: inf
ROOT
ATOM      1  C   UNL     1      27.303  10.508  30.447  1.00  0.00     0.000 C 
ENDROOT
BRANCH   1   2
ATOM      2  C   UNL     1      26.130   9.600  30.871  1.00  0.00     0.000 C 
BRANCH   2   3
ATOM      3  C   UNL     1      24.950   9.630  29.881  1.00  0.00     0.000 C 
BRANCH   3   4
ATOM      4  C   UNL     1      23.597   9.805  30.592  1.00  0.00     0.000 C 
BRANCH   4   5
ATOM      5  C   UNL     1      23.545  11.063  31.476  1.00  0.00     0.000 C 
BRANCH   5   6
ATOM      6  C   UNL     1      22.149  11.410  32.030  1.00  0.00     0.006 C 
BRANCH   6   7
ATOM      7  C   UNL     1      22.168  12.215  33.338  1.00  0.00     0.053 C 
BRANCH   7   8
ATOM      8  C   UNL     1      21.012  11.869  34.226  1.00  0.00     0.041 C 
ATOM      9  O   UNL     1      19.999  11.290  33.749  1.00  0.00    -0.550 OA
ATOM     10  O   UNL     1      21.037  12.217  35.569  1.00  0.00    -0.550 OA
ENDBRANCH   7   8
ENDBRANCH   6   7
ENDBRANCH   5   6
ENDBRANCH   4   5
ENDBRANCH   3   4
ENDBRANCH   2   3
ENDBRANCH   1   2
BRANCH   1  11
ATOM     11  C   UNL     1      26.853  11.918  30.021  1.00  0.00     0.000 C 
BRANCH  11  12
ATOM     12  C   UNL     1      26.864  12.909  31.200  1.00  0.00    -0.000 C 
BRANCH  12  13
ATOM     13  C   UNL     1      28.155  12.830  32.028  1.00  0.00    -0.000 C 
BRANCH  13  14
ATOM     14  C   UNL     1      27.898  12.913  33.541  1.00  0.00    -0.000 C 
BRANCH  14  15
ATOM     15  C   UNL     1      27.868  11.509  34.164  1.00  0.00    -0.000 C 
BRANCH  15  16
ATOM     16  C   UNL     1      26.443  11.016  34.449  1.00  0.00    -0.000 C 
BRANCH  16  17
ATOM     17  C   UNL     1      25.424  12.162  34.511  1.00  0.00    -0.003 C 
ATOM     18  C   UNL     1      25.033  12.472  35.952  1.00  0.00     0.004 C 
ENDBRANCH  16  17
ENDBRANCH  15  16
ENDBRANCH  14  15
ENDBRANCH  13  14
ENDBRANCH  12  13
ENDBRANCH  11  12
ENDBRANCH   1  11
TORSDOF 14
ENDMDL
MODEL 2
REMARK VINA RESULT:    -4.791      1.120      1.848
REMARK INTER + INTRA:         -10.648
REMARK INTER:                  -8.882
REMARK INTRA:                  -1.766
REMARK UNBOUND:                -1.937
REMARK SMILES CCCCCCCCCCCCCCCC(=O)[O-]
REMARK SMILES IDX 9 1 10 2 11 3 12 4 13 5 14 6 15 7 16 8 17 9 18 10 8 11 7 12
REMARK SMILES IDX 6 13 5 14 4 15 3 16 2 17 1 18
REMARK H PARENT
REMARK Flexibility Score: inf
ROOT
ATOM      1  C   UNL     1      25.857   9.956  31.100  1.00  0.00     0.000 C 
ENDROOT
BRANCH   1   2
ATOM      2  C   UNL     1      24.976  11.121  30.604  1.00  0.00     0.000 C 
BRANCH   2   3
ATOM      3  C   UNL     1      23.535  11.066  31.148  1.00  0.00     0.000 C 
BRANCH   3   4
ATOM      4  C   UNL     1      23.406  11.731  32.528  1.00  0.00     0.000 C 
BRANCH   4   5
ATOM      5  C   UNL     1      21.944  11.951  32.952  1.00  0.00     0.000 C 
BRANCH   5   6
ATOM      6  C   UNL     1      21.743  12.989  34.074  1.00  0.00     0.006 C 
BRANCH   6   7
ATOM      7  C   UNL     1      21.744  12.399  35.492  1.00  0.00     0.053 C 
BRANCH   7   8
ATOM      8  C   UNL     1      20.432  11.761  35.834  1.00  0.00     0.041 C 
ATOM      9  O   UNL     1      20.305  10.508  35.786  1.00  0.00    -0.550 OA
ATOM     10  O   UNL     1      19.341  12.550  36.171  1.00  0.00    -0.550 OA
ENDBRANCH   7   8
ENDBRANCH   6   7
ENDBRANCH   5   6
ENDBRANCH   4   5
ENDBRANCH   3   4
ENDBRANCH   2   3
ENDBRANCH   1   2
BRANCH   1  11
ATOM     11  C   UNL     1      27.354  10.311  31.156  1.00  0.00     0.000 C 
BRANCH  11  12
ATOM     12  C   UNL     1      27.630  11.739  30.648  1.00  0.00    -0.000 C 
BRANCH  12  13
ATOM     13  C   UNL     1      28.325  12.618  31.699  1.00  0.00    -0.000 C 
BRANCH  13  14
ATOM     14  C   UNL     1      27.347  13.187  32.738  1.00  0.00    -0.000 C 
BRANCH  14  15
ATOM     15  C   UNL     1      27.861  12.932  34.164  1.00  0.00    -0.000 C 
BRANCH  15  16
ATOM     16  C   UNL     1      27.653  11.481  34.618  1.00  0.00    -0.000 C 
BRANCH  16  17
ATOM     17  C   UNL     1      26.176  11.146  34.867  1.00  0.00    -0.003 C 
ATOM     18  C   UNL     1      25.462  12.299  35.566  1.00  0.00     0.004 C 
ENDBRANCH  16  17
ENDBRANCH  15  16
ENDBRANCH  14  15
ENDBRANCH  13  14
ENDBRANCH  12  13
ENDBRANCH  11  12
ENDBRANCH   1  11
TORSDOF 14
ENDMDL
MODEL 3
REMARK VINA RESULT:    -4.771      2.456      4.872
REMARK INTER + INTRA:         -10.612
REMARK INTER:                  -9.176
REMARK INTRA:                  -1.436
REMARK UNBOUND:                -1.937
REMARK SMILES CCCCCCCCCCCCCCCC(=O)[O-]
REMARK SMILES IDX 9 1 10 2 11 3 12 4 13 5 14 6 15 7 16 8 17 9 18 10 8 11 7 12
REMARK SMILES IDX 6 13 5 14 4 15 3 16 2 17 1 18
REMARK H PARENT
REMARK Flexibility Score: inf
ROOT
ATOM      1  C   UNL     1      25.284   9.468  30.765  1.00  0.00     0.000 C 
ENDROOT
BRANCH   1   2
ATOM      2  C   UNL     1      26.178   9.675  29.525  1.00  0.00     0.000 C 
BRANCH   2   3
ATOM      3  C   UNL     1      26.951  11.008  29.551  1.00  0.00     0.000 C 
BRANCH   3   4
ATOM      4  C   UNL     1      27.933  11.089  30.733  1.00  0.00     0.000 C 
BRANCH   4   5
ATOM      5  C   UNL     1      28.268  12.536  31.134  1.00  0.00     0.000 C 
BRANCH   5   6
ATOM      6  C   UNL     1      27.869  12.919  32.573  1.00  0.00     0.006 C 
BRANCH   6   7
ATOM      7  C   UNL     1      28.418  11.976  33.654  1.00  0.00     0.053 C 
BRANCH   7   8
ATOM      8  C   UNL     1      27.453  11.802  34.787  1.00  0.00     0.041 C 
ATOM      9  O   UNL     1      26.859  10.702  34.949  1.00  0.00    -0.550 OA
ATOM     10  O   UNL     1      27.182  12.862  35.641  1.00  0.00    -0.550 OA
ENDBRANCH   7   8
ENDBRANCH   6   7
ENDBRANCH   5   6
ENDBRANCH   4   5
ENDBRANCH   3   4
ENDBRANCH   2   3
ENDBRANCH   1   2
BRANCH   1  11
ATOM     11  C   UNL     1      23.805   9.811  30.509  1.00  0.00     0.000 C 
BRANCH  11  12
ATOM     12  C   UNL     1      23.286  10.891  31.477  1.00  0.00    -0.000 C 
BRANCH  12  13
ATOM     13  C   UNL     1      24.420  11.640  32.193  1.00  0.00    -0.000 C 
BRANCH  13  14
ATOM     14  C   UNL     1      24.007  12.162  33.578  1.00  0.00    -0.000 C 
BRANCH  14  15
ATOM     15  C   UNL     1      22.478  12.273  33.682  1.00  0.00    -0.000 C 
BRANCH  15  16
ATOM     16  C   UNL     1      22.003  12.627  35.098  1.00  0.00    -0.000 C 
BRANCH  16  17
ATOM     17  C   UNL     1      20.860  11.723  35.581  1.00  0.00    -0.003 C 
ATOM     18  C   UNL     1      19.642  12.546  35.984  1.00  0.00     0.004 C 
ENDBRANCH  16  17
ENDBRANCH  15  16
ENDBRANCH  14  15
ENDBRANCH  13  14
ENDBRANCH  12  13
ENDBRANCH  11  12
ENDBRANCH   1  11
TORSDOF 14
ENDMDL
MODEL 4
REMARK VINA RESULT:    -4.700      1.915      4.800
REMARK INTER + INTRA:         -10.484
REMARK INTER:                  -9.226
REMARK INTRA:                  -1.257
REMARK UNBOUND:                -1.937
REMARK SMILES CCCCCCCCCCCCCCCC(=O)[O-]
REMARK SMILES IDX 9 1 10 2 11 3 12 4 13 5 14 6 15 7 16 8 17 9 18 10 8 11 7 12
REMARK SMILES IDX 6 13 5 14 4 15 3 16 2 17 1 18
REMARK H PARENT
REMARK Flexibility Score: inf
ROOT
ATOM      1  C   UNL     1      26.464   9.992  31.421  1.00  0.00     0.000 C 
ENDROOT
BRANCH   1   2
ATOM      2  C   UNL     1      27.591  10.915  30.917  1.00  0.00     0.000 C 
BRANCH   2   3
ATOM      3  C   UNL     1      27.290  12.412  31.126  1.00  0.00     0.000 C 
BRANCH   3   4
ATOM      4  C   UNL     1      27.810  12.928  32.478  1.00  0.00     0.000 C 
BRANCH   4   5
ATOM      5  C   UNL     1      28.425  11.816  33.345  1.00  0.00     0.000 C 
BRANCH   5   6
ATOM      6  C   UNL     1      27.637  11.481  34.626  1.00  0.00     0.006 C 
BRANCH   6   7
ATOM      7  C   UNL     1      26.163  11.910  34.593  1.00  0.00     0.053 C 
BRANCH   7   8
ATOM      8  C   UNL     1      25.865  12.969  35.611  1.00  0.00     0.041 C 
ATOM      9  O   UNL     1      24.828  12.888  36.323  1.00  0.00    -0.550 OA
ATOM     10  O   UNL     1      26.710  14.060  35.749  1.00  0.00    -0.550 OA
ENDBRANCH   7   8
ENDBRANCH   6   7
ENDBRANCH   5   6
ENDBRANCH   4   5
ENDBRANCH   3   4
ENDBRANCH   2   3
ENDBRANCH   1   2
BRANCH   1  11
ATOM     11  C   UNL     1      25.473   9.586  30.315  1.00  0.00     0.000 C 
BRANCH  11  12
ATOM     12  C   UNL     1      24.017   9.915  30.692  1.00  0.00    -0.000 C 
BRANCH  12  13
ATOM     13  C   UNL     1      23.883  11.262  31.419  1.00  0.00    -0.000 C 
BRANCH  13  14
ATOM     14  C   UNL     1      22.513  11.441  32.092  1.00  0.00    -0.000 C 
BRANCH  14  15
ATOM     15  C   UNL     1      22.661  12.164  33.440  1.00  0.00    -0.000 C 
BRANCH  15  16
ATOM     16  C   UNL     1      21.374  12.876  33.876  1.00  0.00    -0.000 C 
BRANCH  16  17
ATOM     17  C   UNL     1      21.067  12.680  35.367  1.00  0.00    -0.003 C 
ATOM     18  C   UNL     1      19.674  13.196  35.713  1.00  0.00     0.004 C 
ENDBRANCH  16  17
ENDBRANCH  15  16
ENDBRANCH  14  15
ENDBRANCH  13  14
ENDBRANCH  12  13
ENDBRANCH  11  12
ENDBRANCH   1  11
TORSDOF 14
ENDMDL
MODEL 5
REMARK VINA RESULT:    -4.698      1.368      2.244
REMARK INTER + INTRA:         -10.480
REMARK INTER:                  -8.885
REMARK INTRA:                  -1.595
REMARK UNBOUND:                -1.937
REMARK SMILES CCCCCCCCCCCCCCCC(=O)[O-]
REMARK SMILES IDX 9 1 10 2 11 3 12 4 13 5 14 6 15 7 16 8 17 9 18 10 8 11 7 12
REMARK SMILES IDX 6 13 5 14 4 15 3 16 2 17 1 18
REMARK H PARENT
REMARK Flexibility Score: inf
ROOT
ATOM      1  C   UNL     1      25.638   9.621  30.817  1.00  0.00     0.000 C 
ENDROOT
BRANCH   1   2
ATOM      2  C   UNL     1      24.110   9.746  30.645  1.00  0.00     0.000 C 
BRANCH   2   3
ATOM      3  C   UNL     1      23.516  10.970  31.369  1.00  0.00     0.000 C 
BRANCH   3   4
ATOM      4  C   UNL     1      24.522  11.624  32.331  1.00  0.00     0.000 C 
BRANCH   4   5
ATOM      5  C   UNL     1      23.847  12.279  33.548  1.00  0.00     0.000 C 
BRANCH   5   6
ATOM      6  C   UNL     1      22.306  12.310  33.496  1.00  0.00     0.006 C 
BRANCH   6   7
ATOM      7  C   UNL     1      21.631  12.499  34.862  1.00  0.00     0.053 C 
BRANCH   7   8
ATOM      8  C   UNL     1      20.529  13.514  34.807  1.00  0.00     0.041 C 
ATOM      9  O   UNL     1      20.533  14.404  33.915  1.00  0.00    -0.550 OA
ATOM     10  O   UNL     1      19.520  13.499  35.760  1.00  0.00    -0.550 OA
ENDBRANCH   7   8
ENDBRANCH   6   7
ENDBRANCH   5   6
ENDBRANCH   4   5
ENDBRANCH   3   4
ENDBRANCH   2   3
ENDBRANCH   1   2
BRANCH   1  11
ATOM     11  C   UNL     1      26.428  10.149  29.606  1.00  0.00     0.000 C 
BRANCH  11  12
ATOM     12  C   UNL     1      27.760  10.801  30.023  1.00  0.00    -0.000 C 
BRANCH  12  13
ATOM     13  C   UNL     1      27.570  12.194  30.642  1.00  0.00    -0.000 C 
BRANCH  13  14
ATOM     14  C   UNL     1      28.291  12.349  31.990  1.00  0.00    -0.000 C 
BRANCH  14  15
ATOM     15  C   UNL     1      27.593  13.405  32.860  1.00  0.00    -0.000 C 
BRANCH  15  16
ATOM     16  C   UNL     1      27.623  13.058  34.355  1.00  0.00    -0.000 C 
BRANCH  16  17
ATOM     17  C   UNL     1      28.018  11.597  34.613  1.00  0.00    -0.003 C 
ATOM     18  C   UNL     1      26.796  10.750  34.952  1.00  0.00     0.004 C 
ENDBRANCH  16  17
ENDBRANCH  15  16
ENDBRANCH  14  15
ENDBRANCH  13  14
ENDBRANCH  12  13
ENDBRANCH  11  12
ENDBRANCH   1  11
TORSDOF 14
ENDMDL
MODEL 6
REMARK VINA RESULT:    -4.586      2.035      5.008
REMARK INTER + INTRA:         -10.277
REMARK INTER:                  -8.918
REMARK INTRA:                  -1.358
REMARK UNBOUND:                -1.937
REMARK SMILES CCCCCCCCCCCCCCCC(=O)[O-]
REMARK SMILES IDX 9 1 10 2 11 3 12 4 13 5 14 6 15 7 16 8 17 9 18 10 8 11 7 12
REMARK SMILES IDX 6 13 5 14 4 15 3 16 2 17 1 18
REMARK H PARENT
REMARK Flexibility Score: inf
ROOT
ATOM      1  C   UNL     1      27.905  11.499  34.191  1.00  0.00     0.000 C 
ENDROOT
BRANCH   1   2
ATOM      2  C   UNL     1      27.904  12.816  33.387  1.00  0.00     0.000 C 
BRANCH   2   3
ATOM      3  C   UNL     1      28.294  12.625  31.908  1.00  0.00     0.000 C 
BRANCH   3   4
ATOM      4  C   UNL     1      27.081  12.731  30.968  1.00  0.00     0.000 C 
BRANCH   4   5
ATOM      5  C   UNL     1      26.900  11.484  30.085  1.00  0.00     0.000 C 
BRANCH   5   6
ATOM      6  C   UNL     1      27.012  10.139  30.830  1.00  0.00     0.006 C 
BRANCH   6   7
ATOM      7  C   UNL     1      25.851   9.169  30.564  1.00  0.00     0.053 C 
BRANCH   7   8
ATOM      8  C   UNL     1      24.529   9.873  30.534  1.00  0.00     0.041 C 
ATOM      9  O   UNL     1      23.828   9.858  29.486  1.00  0.00    -0.550 OA
ATOM     10  O   UNL     1      24.087  10.574  31.647  1.00  0.00    -0.550 OA
ENDBRANCH   7   8
ENDBRANCH   6   7
ENDBRANCH   5   6
ENDBRANCH   4   5
ENDBRANCH   3   4
ENDBRANCH   2   3
ENDBRANCH   1   2
BRANCH   1  11
ATOM     11  C   UNL     1      26.516  11.123  34.737  1.00  0.00     0.000 C 
BRANCH  11  12
ATOM     12  C   UNL     1      25.477  12.234  34.494  1.00  0.00    -0.000 C 
BRANCH  12  13
ATOM     13  C   UNL     1      24.704  12.610  35.767  1.00  0.00    -0.000 C 
BRANCH  13  14
ATOM     14  C   UNL     1      23.210  12.258  35.681  1.00  0.00    -0.000 C 
BRANCH  14  15
ATOM     15  C   UNL     1      22.634  12.664  34.316  1.00  0.00    -0.000 C 
BRANCH  15  16
ATOM     16  C   UNL     1      21.107  12.528  34.252  1.00  0.00    -0.000 C 
BRANCH  16  17
ATOM     17  C   UNL     1      20.390  13.443  35.254  1.00  0.00    -0.003 C 
ATOM     18  C   UNL     1      19.374  12.663  36.081  1.00  0.00     0.004 C 
ENDBRANCH  16  17
ENDBRANCH  15  16
ENDBRANCH  14  15
ENDBRANCH  13  14
ENDBRANCH  12  13
ENDBRANCH  11  12
ENDBRANCH   1  11
TORSDOF 14
ENDMDL
MODEL 7
REMARK VINA RESULT:    -4.539      1.405      3.966
REMARK INTER + INTRA:         -10.191
REMARK INTER:                  -8.861
REMARK INTRA:                  -1.330
REMARK UNBOUND:                -1.937
REMARK SMILES CCCCCCCCCCCCCCCC(=O)[O-]
REMARK SMILES IDX 9 1 10 2 11 3 12 4 13 5 14 6 15 7 16 8 17 9 18 10 8 11 7 12
REMARK SMILES IDX 6 13 5 14 4 15 3 16 2 17 1 18
REMARK H PARENT
REMARK Flexibility Score: inf
ROOT
ATOM      1  C   UNL     1      27.275  11.606  34.534  1.00  0.00     0.000 C 
ENDROOT
BRANCH   1   2
ATOM      2  C   UNL     1      26.687  12.934  35.053  1.00  0.00     0.000 C 
BRANCH   2   3
ATOM      3  C   UNL     1      25.448  12.741  35.949  1.00  0.00     0.000 C 
BRANCH   3   4
ATOM      4  C   UNL     1      24.260  12.140  35.178  1.00  0.00     0.000 C 
BRANCH   4   5
ATOM      5  C   UNL     1      22.899  12.615  35.713  1.00  0.00     0.000 C 
BRANCH   5   6
ATOM      6  C   UNL     1      21.693  12.265  34.819  1.00  0.00     0.006 C 
BRANCH   6   7
ATOM      7  C   UNL     1      20.565  11.515  35.543  1.00  0.00     0.053 C 
BRANCH   7   8
ATOM      8  C   UNL     1      19.422  12.420  35.889  1.00  0.00     0.041 C 
ATOM      9  O   UNL     1      19.173  13.427  35.174  1.00  0.00    -0.550 OA
ATOM     10  O   UNL     1      18.655  12.171  37.019  1.00  0.00    -0.550 OA
ENDBRANCH   7   8
ENDBRANCH   6   7
ENDBRANCH   5   6
ENDBRANCH   4   5
ENDBRANCH   3   4
ENDBRANCH   2   3
ENDBRANCH   1   2
BRANCH   1  11
ATOM     11  C   UNL     1      28.329  11.801  33.429  1.00  0.00     0.000 C 
BRANCH  11  12
ATOM     12  C   UNL     1      27.981  12.978  32.499  1.00  0.00    -0.000 C 
BRANCH  12  13
ATOM     13  C   UNL     1      27.534  12.518  31.103  1.00  0.00    -0.000 C 
BRANCH  13  14
ATOM     14  C   UNL     1      28.018  11.100  30.761  1.00  0.00    -0.000 C 
BRANCH  14  15
ATOM     15  C   UNL     1      26.966  10.354  29.927  1.00  0.00    -0.000 C 
BRANCH  15  16
ATOM     16  C   UNL     1      26.029   9.494  30.785  1.00  0.00    -0.000 C 
BRANCH  16  17
ATOM     17  C   UNL     1      24.574   9.983  30.741  1.00  0.00    -0.003 C 
ATOM     18  C   UNL     1      24.318  11.040  31.809  1.00  0.00     0.004 C 
ENDBRANCH  16  17
ENDBRANCH  15  16
ENDBRANCH  14  15
ENDBRANCH  13  14
ENDBRANCH  12  13
ENDBRANCH  11  12
ENDBRANCH   1  11
TORSDOF 14
ENDMDL
MODEL 8
REMARK VINA RESULT:    -4.531      1.637      4.196
REMARK INTER + INTRA:         -10.176
REMARK INTER:                  -8.774
REMARK INTRA:                  -1.402
REMARK UNBOUND:                -1.937
REMARK SMILES CCCCCCCCCCCCCCCC(=O)[O-]
REMARK SMILES IDX 9 1 10 2 11 3 12 4 13 5 14 6 15 7 16 8 17 9 18 10 8 11 7 12
REMARK SMILES IDX 6 13 5 14 4 15 3 16 2 17 1 18
REMARK H PARENT
REMARK Flexibility Score: inf
ROOT
ATOM      1  C   UNL     1      25.748  12.026  34.185  1.00  0.00     0.000 C 
ENDROOT
BRANCH   1   2
ATOM      2  C   UNL     1      25.224  12.712  35.464  1.00  0.00     0.000 C 
BRANCH   2   3
ATOM      3  C   UNL     1      23.887  12.129  35.961  1.00  0.00     0.000 C 
BRANCH   3   4
ATOM      4  C   UNL     1      22.703  12.549  35.073  1.00  0.00     0.000 C 
BRANCH   4   5
ATOM      5  C   UNL     1      21.343  12.113  35.645  1.00  0.00     0.000 C 
BRANCH   5   6
ATOM      6  C   UNL     1      20.170  13.060  35.323  1.00  0.00     0.006 C 
BRANCH   6   7
ATOM      7  C   UNL     1      20.497  14.142  34.283  1.00  0.00     0.053 C 
BRANCH   7   8
ATOM      8  C   UNL     1      19.723  13.952  33.014  1.00  0.00     0.041 C 
ATOM      9  O   UNL     1      19.015  14.889  32.558  1.00  0.00    -0.550 OA
ATOM     10  O   UNL     1      19.754  12.730  32.356  1.00  0.00    -0.550 OA
ENDBRANCH   7   8
ENDBRANCH   6   7
ENDBRANCH   5   6
ENDBRANCH   4   5
ENDBRANCH   3   4
ENDBRANCH   2   3
ENDBRANCH   1   2
BRANCH   1  11
ATOM     11  C   UNL     1      26.969  11.123  34.440  1.00  0.00     0.000 C 
BRANCH  11  12
ATOM     12  C   UNL     1      28.217  11.609  33.679  1.00  0.00    -0.000 C 
BRANCH  12  13
ATOM     13  C   UNL     1      27.945  12.864  32.836  1.00  0.00    -0.000 C 
BRANCH  13  14
ATOM     14  C   UNL     1      28.302  12.674  31.354  1.00  0.00    -0.000 C 
BRANCH  14  15
ATOM     15  C   UNL     1      28.052  11.223  30.917  1.00  0.00    -0.000 C 
BRANCH  15  16
ATOM     16  C   UNL     1      26.666  11.021  30.291  1.00  0.00    -0.000 C 
BRANCH  16  17
ATOM     17  C   UNL     1      25.913   9.828  30.897  1.00  0.00    -0.003 C 
ATOM     18  C   UNL     1      24.459  10.185  31.184  1.00  0.00     0.004 C 
ENDBRANCH  16  17
ENDBRANCH  15  16
ENDBRANCH  14  15
ENDBRANCH  13  14
ENDBRANCH  12  13
ENDBRANCH  11  12
ENDBRANCH   1  11
TORSDOF 14
ENDMDL
MODEL 9
REMARK VINA RESULT:    -4.516      2.580      6.049
REMARK INTER + INTRA:         -10.149
REMARK INTER:                  -8.903
REMARK INTRA:                  -1.246
REMARK UNBOUND:                -1.937
REMARK SMILES CCCCCCCCCCCCCCCC(=O)[O-]
REMARK SMILES IDX 9 1 10 2 11 3 12 4 13 5 14 6 15 7 16 8 17 9 18 10 8 11 7 12
REMARK SMILES IDX 6 13 5 14 4 15 3 16 2 17 1 18
REMARK H PARENT
REMARK Flexibility Score: inf
ROOT
ATOM      1  C   UNL     1      25.592  11.809  34.405  1.00  0.00     0.000 C 
ENDROOT
BRANCH   1   2
ATOM      2  C   UNL     1      26.890  10.985  34.530  1.00  0.00     0.000 C 
BRANCH   2   3
ATOM      3  C   UNL     1      28.141  11.748  34.054  1.00  0.00     0.000 C 
BRANCH   3   4
ATOM      4  C   UNL     1      27.787  12.946  33.157  1.00  0.00     0.000 C 
BRANCH   4   5
ATOM      5  C   UNL     1      28.347  12.811  31.730  1.00  0.00     0.000 C 
BRANCH   5   6
ATOM      6  C   UNL     1      27.365  12.219  30.701  1.00  0.00     0.006 C 
BRANCH   6   7
ATOM      7  C   UNL     1      27.447  10.692  30.552  1.00  0.00     0.053 C 
BRANCH   7   8
ATOM      8  C   UNL     1      26.132  10.030  30.832  1.00  0.00     0.041 C 
ATOM      9  O   UNL     1      26.014   8.781  30.711  1.00  0.00    -0.550 OA
ATOM     10  O   UNL     1      25.030  10.793  31.190  1.00  0.00    -0.550 OA
ENDBRANCH   7   8
ENDBRANCH   6   7
ENDBRANCH   5   6
ENDBRANCH   4   5
ENDBRANCH   3   4
ENDBRANCH   2   3
ENDBRANCH   1   2
BRANCH   1  11
ATOM     11  C   UNL     1      24.952  12.141  35.765  1.00  0.00     0.000 C 
BRANCH  11  12
ATOM     12  C   UNL     1      23.481  12.576  35.622  1.00  0.00    -0.000 C 
BRANCH  12  13
ATOM     13  C   UNL     1      22.985  12.517  34.170  1.00  0.00    -0.000 C 
BRANCH  13  14
ATOM     14  C   UNL     1      21.486  12.194  34.067  1.00  0.00    -0.000 C 
BRANCH  14  15
ATOM     15  C   UNL     1      20.793  12.392  35.424  1.00  0.00    -0.000 C 
BRANCH  15  16
ATOM     16  C   UNL     1      19.993  11.161  35.868  1.00  0.00    -0.000 C 
BRANCH  16  17
ATOM     17  C   UNL     1      18.623  11.528  36.456  1.00  0.00    -0.003 C 
ATOM     18  C   UNL     1      18.363  13.027  36.348  1.00  0.00     0.004 C 
ENDBRANCH  16  17
ENDBRANCH  15  16
ENDBRANCH  14  15
ENDBRANCH  13  14
ENDBRANCH  12  13
ENDBRANCH  11  12
ENDBRANCH   1  11
TORSDOF 14
ENDMDL
