MODEL 1
REMARK VINA RESULT:    -3.899      0.000      0.000
REMARK INTER + INTRA:         -10.496
REMARK INTER:                  -7.546
REMARK INTRA:                  -2.949
REMARK UNBOUND:                -2.949
REMARK SMILES CCCCCCCCCCCCCCCCCC(=O)[O-]
REMARK SMILES IDX 10 1 11 2 12 3 13 4 14 5 15 6 16 7 17 8 18 9 19 10 20 11
REMARK SMILES IDX 9 12 8 13 7 14 6 15 5 16 4 17 3 18 2 19 1 20
REMARK H PARENT
REMARK Flexibility Score: inf
ROOT
ATOM      1  C   UNL     1       8.177 -15.885  22.075  1.00  0.00     0.000 C 
ENDROOT
BRANCH   1   2
ATOM      2  C   UNL     1       7.353 -17.036  21.469  1.00  0.00     0.000 C 
BRANCH   2   3
ATOM      3  C   UNL     1       8.045 -17.688  20.259  1.00  0.00     0.000 C 
BRANCH   3   4
ATOM      4  C   UNL     1       8.223 -19.209  20.435  1.00  0.00     0.000 C 
BRANCH   4   5
ATOM      5  C   UNL     1       7.026 -19.911  21.107  1.00  0.00     0.000 C 
BRANCH   5   6
ATOM      6  C   UNL     1       7.368 -20.603  22.442  1.00  0.00     0.000 C 
BRANCH   6   7
ATOM      7  C   UNL     1       6.675 -19.935  23.643  1.00  0.00     0.006 C 
BRANCH   7   8
ATOM      8  C   UNL     1       7.658 -19.136  24.509  1.00  0.00     0.053 C 
BRANCH   8   9
ATOM      9  C   UNL     1       7.017 -18.644  25.771  1.00  0.00     0.041 C 
ATOM     10  O   UNL     1       6.884 -17.409  25.973  1.00  0.00    -0.550 OA
ATOM     11  O   UNL     1       6.601 -19.549  26.737  1.00  0.00    -0.550 OA
ENDBRANCH   8   9
ENDBRANCH   7   8
ENDBRANCH   6   7
ENDBRANCH   5   6
ENDBRANCH   4   5
ENDBRANCH   3   4
ENDBRANCH   2   3
ENDBRANCH   1   2
BRANCH   1  12
ATOM     12  C   UNL     1       7.516 -15.179  23.276  1.00  0.00     0.000 C 
BRANCH  12  13
ATOM     13  C   UNL     1       8.491 -14.686  24.363  1.00  0.00    -0.000 C 
BRANCH  13  14
ATOM     14  C   UNL     1       9.951 -15.139  24.183  1.00  0.00    -0.000 C 
BRANCH  14  15
ATOM     15  C   UNL     1      10.379 -16.196  25.211  1.00  0.00    -0.000 C 
BRANCH  15  16
ATOM     16  C   UNL     1      11.351 -17.205  24.589  1.00  0.00    -0.000 C 
BRANCH  16  17
ATOM     17  C   UNL     1      11.595 -16.894  23.105  1.00  0.00    -0.000 C 
BRANCH  17  18
ATOM     18  C   UNL     1      11.271 -18.084  22.188  1.00  0.00    -0.000 C 
BRANCH  18  19
ATOM     19  C   UNL     1      10.882 -19.345  22.973  1.00  0.00    -0.003 C 
ATOM     20  C   UNL     1      11.258 -20.609  22.204  1.00  0.00     0.004 C 
ENDBRANCH  18  19
ENDBRANCH  17  18
ENDBRANCH  16  17
ENDBRANCH  15  16
ENDBRANCH  14  15
ENDBRANCH  13  14
ENDBRANCH  12  13
ENDBRANCH   1  12
TORSDOF 16
ENDMDL
MODEL 2
REMARK VINA RESULT:    -3.831      2.622      4.730
REMARK INTER + INTRA:         -10.364
REMARK INTER:                  -7.217
REMARK INTRA:                  -3.147
REMARK UNBOUND:                -2.949
REMARK SMILES CCCCCCCCCCCCCCCCCC(=O)[O-]
REMARK SMILES IDX 10 1 11 2 12 3 13 4 14 5 15 6 16 7 17 8 18 9 19 10 20 11
REMARK SMILES IDX 9 12 8 13 7 14 6 15 5 16 4 17 3 18 2 19 1 20
REMARK H PARENT
REMARK Flexibility Score: inf
ROOT
ATOM      1  C   UNL     1       9.956 -14.836  23.994  1.00  0.00     0.000 C 
ENDROOT
BRANCH   1   2
ATOM      2  C   UNL     1      11.293 -15.377  23.456  1.00  0.00     0.000 C 
BRANCH   2   3
ATOM      3  C   UNL     1      11.106 -16.414  22.334  1.00  0.00     0.000 C 
BRANCH   3   4
ATOM      4  C   UNL     1      11.999 -17.656  22.529  1.00  0.00     0.000 C 
BRANCH   4   5
ATOM      5  C   UNL     1      11.838 -18.726  21.431  1.00  0.00     0.000 C 
BRANCH   5   6
ATOM      6  C   UNL     1      10.688 -18.448  20.441  1.00  0.00     0.000 C 
BRANCH   6   7
ATOM      7  C   UNL     1      10.150 -19.734  19.790  1.00  0.00     0.006 C 
BRANCH   7   8
ATOM      8  C   UNL     1       9.745 -20.786  20.833  1.00  0.00     0.053 C 
BRANCH   8   9
ATOM      9  C   UNL     1       8.421 -21.408  20.511  1.00  0.00     0.041 C 
ATOM     10  O   UNL     1       8.184 -21.827  19.347  1.00  0.00    -0.550 OA
ATOM     11  O   UNL     1       7.437 -21.493  21.487  1.00  0.00    -0.550 OA
ENDBRANCH   8   9
ENDBRANCH   7   8
ENDBRANCH   6   7
ENDBRANCH   5   6
ENDBRANCH   4   5
ENDBRANCH   3   4
ENDBRANCH   2   3
ENDBRANCH   1   2
BRANCH   1  12
ATOM     12  C   UNL     1       9.449 -15.523  25.277  1.00  0.00     0.000 C 
BRANCH  12  13
ATOM     13  C   UNL     1      10.428 -16.531  25.912  1.00  0.00    -0.000 C 
BRANCH  13  14
ATOM     14  C   UNL     1       9.932 -17.987  25.946  1.00  0.00    -0.000 C 
BRANCH  14  15
ATOM     15  C   UNL     1       8.576 -18.173  25.249  1.00  0.00    -0.000 C 
BRANCH  15  16
ATOM     16  C   UNL     1       8.747 -18.843  23.881  1.00  0.00    -0.000 C 
BRANCH  16  17
ATOM     17  C   UNL     1       7.838 -18.189  22.830  1.00  0.00    -0.000 C 
BRANCH  17  18
ATOM     18  C   UNL     1       6.692 -17.381  23.457  1.00  0.00    -0.000 C 
BRANCH  18  19
ATOM     19  C   UNL     1       6.636 -15.935  22.941  1.00  0.00    -0.003 C 
ATOM     20  C   UNL     1       7.112 -15.849  21.494  1.00  0.00     0.004 C 
ENDBRANCH  18  19
ENDBRANCH  17  18
ENDBRANCH  16  17
ENDBRANCH  15  16
ENDBRANCH  14  15
ENDBRANCH  13  14
ENDBRANCH  12  13
ENDBRANCH   1  12
TORSDOF 16
ENDMDL
MODEL 3
REMARK VINA RESULT:    -3.826      2.953      3.955
REMARK INTER + INTRA:         -10.353
REMARK INTER:                  -7.421
REMARK INTRA:                  -2.932
REMARK UNBOUND:                -2.949
REMARK SMILES CCCCCCCCCCCCCCCCCC(=O)[O-]
REMARK SMILES IDX 10 1 11 2 12 3 13 4 14 5 15 6 16 7 17 8 18 9 19 10 20 11
REMARK SMILES IDX 9 12 8 13 7 14 6 15 5 16 4 17 3 18 2 19 1 20
REMARK H PARENT
REMARK Flexibility Score: inf
ROOT
ATOM      1  C   UNL     1       6.857 -16.294  23.638  1.00  0.00     0.000 C 
ENDROOT
BRANCH   1   2
ATOM      2  C   UNL     1       6.869 -17.556  22.757  1.00  0.00     0.000 C 
BRANCH   2   3
ATOM      3  C   UNL     1       6.360 -18.804  23.500  1.00  0.00     0.000 C 
BRANCH   3   4
ATOM      4  C   UNL     1       6.980 -20.105  22.954  1.00  0.00     0.000 C 
BRANCH   4   5
ATOM      5  C   UNL     1       7.194 -20.109  21.427  1.00  0.00     0.000 C 
BRANCH   5   6
ATOM      6  C   UNL     1       8.668 -20.249  20.996  1.00  0.00     0.000 C 
BRANCH   6   7
ATOM      7  C   UNL     1       9.077 -21.716  20.774  1.00  0.00     0.006 C 
BRANCH   7   8
ATOM      8  C   UNL     1      10.439 -22.039  21.403  1.00  0.00     0.053 C 
BRANCH   8   9
ATOM      9  C   UNL     1      11.541 -21.225  20.796  1.00  0.00     0.041 C 
ATOM     10  O   UNL     1      11.684 -21.186  19.546  1.00  0.00    -0.550 OA
ATOM     11  O   UNL     1      12.430 -20.539  21.613  1.00  0.00    -0.550 OA
ENDBRANCH   8   9
ENDBRANCH   7   8
ENDBRANCH   6   7
ENDBRANCH   5   6
ENDBRANCH   4   5
ENDBRANCH   3   4
ENDBRANCH   2   3
ENDBRANCH   1   2
BRANCH   1  12
ATOM     12  C   UNL     1       7.907 -15.231  23.261  1.00  0.00     0.000 C 
BRANCH  12  13
ATOM     13  C   UNL     1       8.800 -14.750  24.422  1.00  0.00    -0.000 C 
BRANCH  13  14
ATOM     14  C   UNL     1       8.746 -15.623  25.689  1.00  0.00    -0.000 C 
BRANCH  14  15
ATOM     15  C   UNL     1      10.002 -16.489  25.870  1.00  0.00    -0.000 C 
BRANCH  15  16
ATOM     16  C   UNL     1       9.658 -17.981  25.786  1.00  0.00    -0.000 C 
BRANCH  16  17
ATOM     17  C   UNL     1       9.979 -18.542  24.392  1.00  0.00    -0.000 C 
BRANCH  17  18
ATOM     18  C   UNL     1      11.064 -17.734  23.663  1.00  0.00    -0.000 C 
BRANCH  18  19
ATOM     19  C   UNL     1      10.690 -17.420  22.208  1.00  0.00    -0.003 C 
ATOM     20  C   UNL     1      11.238 -16.061  21.780  1.00  0.00     0.004 C 
ENDBRANCH  18  19
ENDBRANCH  17  18
ENDBRANCH  16  17
ENDBRANCH  15  16
ENDBRANCH  14  15
ENDBRANCH  13  14
ENDBRANCH  12  13
ENDBRANCH   1  12
TORSDOF 16
ENDMDL
MODEL 4
REMARK VINA RESULT:    -3.819      2.363      4.939
REMARK INTER + INTRA:         -10.340
REMARK INTER:                  -7.603
REMARK INTRA:                  -2.738
REMARK UNBOUND:                -2.949
REMARK SMILES CCCCCCCCCCCCCCCCCC(=O)[O-]
REMARK SMILES IDX 10 1 11 2 12 3 13 4 14 5 15 6 16 7 17 8 18 9 19 10 20 11
REMARK SMILES IDX 9 12 8 13 7 14 6 15 5 16 4 17 3 18 2 19 1 20
REMARK H PARENT
REMARK Flexibility Score: inf
ROOT
ATOM      1  C   UNL     1       9.684 -17.123  22.132  1.00  0.00     0.000 C 
ENDROOT
BRANCH   1   2
ATOM      2  C   UNL     1      10.742 -16.007  22.061  1.00  0.00     0.000 C 
BRANCH   2   3
ATOM      3  C   UNL     1      10.990 -15.335  23.424  1.00  0.00     0.000 C 
BRANCH   3   4
ATOM      4  C   UNL     1       9.694 -14.779  24.047  1.00  0.00     0.000 C 
BRANCH   4   5
ATOM      5  C   UNL     1       9.225 -15.535  25.306  1.00  0.00     0.000 C 
BRANCH   5   6
ATOM      6  C   UNL     1      10.320 -16.394  25.972  1.00  0.00     0.000 C 
BRANCH   6   7
ATOM      7  C   UNL     1      10.004 -17.899  25.908  1.00  0.00     0.006 C 
BRANCH   7   8
ATOM      8  C   UNL     1      11.272 -18.761  25.983  1.00  0.00     0.053 C 
BRANCH   8   9
ATOM      9  C   UNL     1      12.018 -18.769  24.683  1.00  0.00     0.041 C 
ATOM     10  O   UNL     1      11.659 -19.537  23.753  1.00  0.00    -0.550 OA
ATOM     11  O   UNL     1      13.130 -17.955  24.515  1.00  0.00    -0.550 OA
ENDBRANCH   8   9
ENDBRANCH   7   8
ENDBRANCH   6   7
ENDBRANCH   5   6
ENDBRANCH   4   5
ENDBRANCH   3   4
ENDBRANCH   2   3
ENDBRANCH   1   2
BRANCH   1  12
ATOM     12  C   UNL     1       8.356 -16.801  21.420  1.00  0.00     0.000 C 
BRANCH  12  13
ATOM     13  C   UNL     1       7.120 -17.539  21.971  1.00  0.00    -0.000 C 
BRANCH  13  14
ATOM     14  C   UNL     1       7.305 -18.166  23.365  1.00  0.00    -0.000 C 
BRANCH  14  15
ATOM     15  C   UNL     1       6.931 -19.655  23.404  1.00  0.00    -0.000 C 
BRANCH  15  16
ATOM     16  C   UNL     1       6.548 -20.163  22.009  1.00  0.00    -0.000 C 
BRANCH  16  17
ATOM     17  C   UNL     1       7.514 -21.260  21.537  1.00  0.00    -0.000 C 
BRANCH  17  18
ATOM     18  C   UNL     1       8.957 -20.753  21.385  1.00  0.00    -0.000 C 
BRANCH  18  19
ATOM     19  C   UNL     1       9.438 -20.768  19.927  1.00  0.00    -0.003 C 
ATOM     20  C   UNL     1       8.573 -19.862  19.054  1.00  0.00     0.004 C 
ENDBRANCH  18  19
ENDBRANCH  17  18
ENDBRANCH  16  17
ENDBRANCH  15  16
ENDBRANCH  14  15
ENDBRANCH  13  14
ENDBRANCH  12  13
ENDBRANCH   1  12
TORSDOF 16
ENDMDL
MODEL 5
REMARK VINA RESULT:    -3.807      2.505      3.655
REMARK INTER + INTRA:         -10.317
REMARK INTER:                  -7.669
REMARK INTRA:                  -2.648
REMARK UNBOUND:                -2.949
REMARK SMILES CCCCCCCCCCCCCCCCCC(=O)[O-]
REMARK SMILES IDX 10 1 11 2 12 3 13 4 14 5 15 6 16 7 17 8 18 9 19 10 20 11
REMARK SMILES IDX 9 12 8 13 7 14 6 15 5 16 4 17 3 18 2 19 1 20
REMARK H PARENT
REMARK Flexibility Score: inf
ROOT
ATOM      1  C   UNL     1       7.146 -15.972  21.630  1.00  0.00     0.000 C 
ENDROOT
BRANCH   1   2
ATOM      2  C   UNL     1       7.920 -17.282  21.400  1.00  0.00     0.000 C 
BRANCH   2   3
ATOM      3  C   UNL     1       7.094 -18.531  21.759  1.00  0.00     0.000 C 
BRANCH   3   4
ATOM      4  C   UNL     1       7.452 -19.744  20.877  1.00  0.00     0.000 C 
BRANCH   4   5
ATOM      5  C   UNL     1       8.045 -20.935  21.655  1.00  0.00     0.000 C 
BRANCH   5   6
ATOM      6  C   UNL     1       9.480 -21.312  21.234  1.00  0.00     0.000 C 
BRANCH   6   7
ATOM      7  C   UNL     1      10.432 -20.103  21.247  1.00  0.00     0.006 C 
BRANCH   7   8
ATOM      8  C   UNL     1      10.768 -19.645  22.673  1.00  0.00     0.053 C 
BRANCH   8   9
ATOM      9  C   UNL     1      12.154 -20.045  23.076  1.00  0.00     0.041 C 
ATOM     10  O   UNL     1      12.803 -19.344  23.895  1.00  0.00    -0.550 OA
ATOM     11  O   UNL     1      12.742 -21.173  22.518  1.00  0.00    -0.550 OA
ENDBRANCH   8   9
ENDBRANCH   7   8
ENDBRANCH   6   7
ENDBRANCH   5   6
ENDBRANCH   4   5
ENDBRANCH   3   4
ENDBRANCH   2   3
ENDBRANCH   1   2
BRANCH   1  12
ATOM     12  C   UNL     1       6.970 -15.576  23.109  1.00  0.00     0.000 C 
BRANCH  12  13
ATOM     13  C   UNL     1       7.862 -14.415  23.588  1.00  0.00    -0.000 C 
BRANCH  13  14
ATOM     14  C   UNL     1       8.961 -14.809  24.591  1.00  0.00    -0.000 C 
BRANCH  14  15
ATOM     15  C   UNL     1      10.250 -15.287  23.907  1.00  0.00    -0.000 C 
BRANCH  15  16
ATOM     16  C   UNL     1      10.897 -16.433  24.693  1.00  0.00    -0.000 C 
BRANCH  16  17
ATOM     17  C   UNL     1      10.076 -16.775  25.946  1.00  0.00    -0.000 C 
BRANCH  17  18
ATOM     18  C   UNL     1       9.640 -18.248  25.985  1.00  0.00    -0.000 C 
BRANCH  18  19
ATOM     19  C   UNL     1       8.401 -18.521  25.120  1.00  0.00    -0.003 C 
ATOM     20  C   UNL     1       7.127 -18.064  25.824  1.00  0.00     0.004 C 
ENDBRANCH  18  19
ENDBRANCH  17  18
ENDBRANCH  16  17
ENDBRANCH  15  16
ENDBRANCH  14  15
ENDBRANCH  13  14
ENDBRANCH  12  13
ENDBRANCH   1  12
TORSDOF 16
ENDMDL
MODEL 6
REMARK VINA RESULT:    -3.804      2.661      3.483
REMARK INTER + INTRA:         -10.312
REMARK INTER:                  -7.563
REMARK INTRA:                  -2.749
REMARK UNBOUND:                -2.949
REMARK SMILES CCCCCCCCCCCCCCCCCC(=O)[O-]
REMARK SMILES IDX 10 1 11 2 12 3 13 4 14 5 15 6 16 7 17 8 18 9 19 10 20 11
REMARK SMILES IDX 9 12 8 13 7 14 6 15 5 16 4 17 3 18 2 19 1 20
REMARK H PARENT
REMARK Flexibility Score: inf
ROOT
ATOM      1  C   UNL     1       7.874 -14.616  23.714  1.00  0.00     0.000 C 
ENDROOT
BRANCH   1   2
ATOM      2  C   UNL     1       6.806 -15.588  23.181  1.00  0.00     0.000 C 
BRANCH   2   3
ATOM      3  C   UNL     1       7.197 -16.220  21.833  1.00  0.00     0.000 C 
BRANCH   3   4
ATOM      4  C   UNL     1       7.572 -17.709  21.969  1.00  0.00     0.000 C 
BRANCH   4   5
ATOM      5  C   UNL     1       7.052 -18.374  23.259  1.00  0.00     0.000 C 
BRANCH   5   6
ATOM      6  C   UNL     1       6.796 -19.889  23.129  1.00  0.00     0.000 C 
BRANCH   6   7
ATOM      7  C   UNL     1       6.688 -20.343  21.663  1.00  0.00     0.006 C 
BRANCH   7   8
ATOM      8  C   UNL     1       7.723 -21.421  21.312  1.00  0.00     0.053 C 
BRANCH   8   9
ATOM      9  C   UNL     1       8.600 -21.001  20.171  1.00  0.00     0.041 C 
ATOM     10  O   UNL     1       9.747 -21.503  20.038  1.00  0.00    -0.550 OA
ATOM     11  O   UNL     1       8.163 -20.031  19.279  1.00  0.00    -0.550 OA
ENDBRANCH   8   9
ENDBRANCH   7   8
ENDBRANCH   6   7
ENDBRANCH   5   6
ENDBRANCH   4   5
ENDBRANCH   3   4
ENDBRANCH   2   3
ENDBRANCH   1   2
BRANCH   1  12
ATOM     12  C   UNL     1       8.653 -15.121  24.944  1.00  0.00     0.000 C 
BRANCH  12  13
ATOM     13  C   UNL     1      10.115 -15.528  24.672  1.00  0.00    -0.000 C 
BRANCH  13  14
ATOM     14  C   UNL     1      10.646 -15.155  23.276  1.00  0.00    -0.000 C 
BRANCH  14  15
ATOM     15  C   UNL     1      12.130 -15.500  23.090  1.00  0.00    -0.000 C 
BRANCH  15  16
ATOM     16  C   UNL     1      12.347 -16.331  21.821  1.00  0.00    -0.000 C 
BRANCH  16  17
ATOM     17  C   UNL     1      11.178 -17.301  21.591  1.00  0.00    -0.000 C 
BRANCH  17  18
ATOM     18  C   UNL     1      11.580 -18.771  21.792  1.00  0.00    -0.000 C 
BRANCH  18  19
ATOM     19  C   UNL     1      10.686 -19.494  22.810  1.00  0.00    -0.003 C 
ATOM     20  C   UNL     1      10.850 -18.898  24.206  1.00  0.00     0.004 C 
ENDBRANCH  18  19
ENDBRANCH  17  18
ENDBRANCH  16  17
ENDBRANCH  15  16
ENDBRANCH  14  15
ENDBRANCH  13  14
ENDBRANCH  12  13
ENDBRANCH   1  12
TORSDOF 16
ENDMDL
MODEL 7
REMARK VINA RESULT:    -3.803      2.113      5.088
REMARK INTER + INTRA:         -10.310
REMARK INTER:                  -7.579
REMARK INTRA:                  -2.730
REMARK UNBOUND:                -2.949
REMARK SMILES CCCCCCCCCCCCCCCCCC(=O)[O-]
REMARK SMILES IDX 10 1 11 2 12 3 13 4 14 5 15 6 16 7 17 8 18 9 19 10 20 11
REMARK SMILES IDX 9 12 8 13 7 14 6 15 5 16 4 17 3 18 2 19 1 20
REMARK H PARENT
REMARK Flexibility Score: inf
ROOT
ATOM      1  C   UNL     1       7.248 -18.736  23.195  1.00  0.00     0.000 C 
ENDROOT
BRANCH   1   2
ATOM      2  C   UNL     1       8.704 -19.053  23.580  1.00  0.00     0.000 C 
BRANCH   2   3
ATOM      3  C   UNL     1       9.701 -18.718  22.456  1.00  0.00     0.000 C 
BRANCH   3   4
ATOM      4  C   UNL     1       9.174 -17.620  21.511  1.00  0.00     0.000 C 
BRANCH   4   5
ATOM      5  C   UNL     1      10.128 -16.420  21.346  1.00  0.00     0.000 C 
BRANCH   5   6
ATOM      6  C   UNL     1      11.149 -16.262  22.491  1.00  0.00     0.000 C 
BRANCH   6   7
ATOM      7  C   UNL     1      10.717 -15.202  23.520  1.00  0.00     0.006 C 
BRANCH   7   8
ATOM      8  C   UNL     1      10.185 -15.833  24.814  1.00  0.00     0.053 C 
BRANCH   8   9
ATOM      9  C   UNL     1       8.734 -15.527  25.027  1.00  0.00     0.041 C 
ATOM     10  O   UNL     1       8.253 -15.521  26.191  1.00  0.00    -0.550 OA
ATOM     11  O   UNL     1       7.907 -15.285  23.939  1.00  0.00    -0.550 OA
ENDBRANCH   8   9
ENDBRANCH   7   8
ENDBRANCH   6   7
ENDBRANCH   5   6
ENDBRANCH   4   5
ENDBRANCH   3   4
ENDBRANCH   2   3
ENDBRANCH   1   2
BRANCH   1  12
ATOM     12  C   UNL     1       6.415 -19.955  22.752  1.00  0.00     0.000 C 
BRANCH  12  13
ATOM     13  C   UNL     1       6.734 -20.488  21.342  1.00  0.00    -0.000 C 
BRANCH  13  14
ATOM     14  C   UNL     1       7.614 -21.751  21.306  1.00  0.00    -0.000 C 
BRANCH  14  15
ATOM     15  C   UNL     1       8.551 -21.791  20.091  1.00  0.00    -0.000 C 
BRANCH  15  16
ATOM     16  C   UNL     1       8.429 -20.509  19.259  1.00  0.00    -0.000 C 
BRANCH  16  17
ATOM     17  C   UNL     1       9.613 -20.365  18.291  1.00  0.00    -0.000 C 
BRANCH  17  18
ATOM     18  C   UNL     1      10.143 -18.925  18.212  1.00  0.00    -0.000 C 
BRANCH  18  19
ATOM     19  C   UNL     1      11.656 -18.838  18.456  1.00  0.00    -0.003 C 
ATOM     20  C   UNL     1      12.216 -20.179  18.922  1.00  0.00     0.004 C 
ENDBRANCH  18  19
ENDBRANCH  17  18
ENDBRANCH  16  17
ENDBRANCH  15  16
ENDBRANCH  14  15
ENDBRANCH  13  14
ENDBRANCH  12  13
ENDBRANCH   1  12
TORSDOF 16
ENDMDL
MODEL 8
REMARK VINA RESULT:    -3.794      2.079      5.280
REMARK INTER + INTRA:         -10.293
REMARK INTER:                  -7.649
REMARK INTRA:                  -2.644
REMARK UNBOUND:                -2.949
REMARK SMILES CCCCCCCCCCCCCCCCCC(=O)[O-]
REMARK SMILES IDX 10 1 11 2 12 3 13 4 14 5 15 6 16 7 17 8 18 9 19 10 20 11
REMARK SMILES IDX 9 12 8 13 7 14 6 15 5 16 4 17 3 18 2 19 1 20
REMARK H PARENT
REMARK Flexibility Score: inf
ROOT
ATOM      1  C   UNL     1       7.472 -16.552  24.310  1.00  0.00     0.000 C 
ENDROOT
BRANCH   1   2
ATOM      2  C   UNL     1       8.267 -16.414  25.620  1.00  0.00     0.000 C 
BRANCH   2   3
ATOM      3  C   UNL     1       9.488 -15.487  25.479  1.00  0.00     0.000 C 
BRANCH   3   4
ATOM      4  C   UNL     1       9.529 -14.774  24.113  1.00  0.00     0.000 C 
BRANCH   4   5
ATOM      5  C   UNL     1      10.796 -15.068  23.286  1.00  0.00     0.000 C 
BRANCH   5   6
ATOM      6  C   UNL     1      10.645 -16.237  22.292  1.00  0.00     0.000 C 
BRANCH   6   7
ATOM      7  C   UNL     1      10.890 -17.605  22.953  1.00  0.00     0.006 C 
BRANCH   7   8
ATOM      8  C   UNL     1      12.204 -17.639  23.747  1.00  0.00     0.053 C 
BRANCH   8   9
ATOM      9  C   UNL     1      12.048 -18.356  25.053  1.00  0.00     0.041 C 
ATOM     10  O   UNL     1      10.914 -18.761  25.421  1.00  0.00    -0.550 OA
ATOM     11  O   UNL     1      13.148 -18.544  25.878  1.00  0.00    -0.550 OA
ENDBRANCH   8   9
ENDBRANCH   7   8
ENDBRANCH   6   7
ENDBRANCH   5   6
ENDBRANCH   4   5
ENDBRANCH   3   4
ENDBRANCH   2   3
ENDBRANCH   1   2
BRANCH   1  12
ATOM     12  C   UNL     1       6.508 -17.754  24.261  1.00  0.00     0.000 C 
BRANCH  12  13
ATOM     13  C   UNL     1       7.092 -19.083  24.780  1.00  0.00    -0.000 C 
BRANCH  13  14
ATOM     14  C   UNL     1       6.705 -20.328  23.962  1.00  0.00    -0.000 C 
BRANCH  14  15
ATOM     15  C   UNL     1       6.311 -19.993  22.516  1.00  0.00    -0.000 C 
BRANCH  15  16
ATOM     16  C   UNL     1       7.250 -20.677  21.517  1.00  0.00    -0.000 C 
BRANCH  16  17
ATOM     17  C   UNL     1       7.678 -19.705  20.407  1.00  0.00    -0.000 C 
BRANCH  17  18
ATOM     18  C   UNL     1       7.890 -18.273  20.922  1.00  0.00    -0.000 C 
BRANCH  18  19
ATOM     19  C   UNL     1       7.162 -17.224  20.069  1.00  0.00    -0.003 C 
ATOM     20  C   UNL     1       7.176 -15.857  20.749  1.00  0.00     0.004 C 
ENDBRANCH  18  19
ENDBRANCH  17  18
ENDBRANCH  16  17
ENDBRANCH  15  16
ENDBRANCH  14  15
ENDBRANCH  13  14
ENDBRANCH  12  13
ENDBRANCH   1  12
TORSDOF 16
ENDMDL
MODEL 9
REMARK VINA RESULT:    -3.782      2.023      5.132
REMARK INTER + INTRA:         -10.269
REMARK INTER:                  -7.285
REMARK INTRA:                  -2.984
REMARK UNBOUND:                -2.949
REMARK SMILES CCCCCCCCCCCCCCCCCC(=O)[O-]
REMARK SMILES IDX 10 1 11 2 12 3 13 4 14 5 15 6 16 7 17 8 18 9 19 10 20 11
REMARK SMILES IDX 9 12 8 13 7 14 6 15 5 16 4 17 3 18 2 19 1 20
REMARK H PARENT
REMARK Flexibility Score: inf
ROOT
ATOM      1  C   UNL     1       8.634 -20.744  18.912  1.00  0.00     0.000 C 
ENDROOT
BRANCH   1   2
ATOM      2  C   UNL     1       9.378 -19.406  19.075  1.00  0.00     0.000 C 
BRANCH   2   3
ATOM      3  C   UNL     1      10.901 -19.547  18.897  1.00  0.00     0.000 C 
BRANCH   3   4
ATOM      4  C   UNL     1      11.674 -19.244  20.195  1.00  0.00     0.000 C 
BRANCH   4   5
ATOM      5  C   UNL     1      10.794 -18.708  21.342  1.00  0.00     0.000 C 
BRANCH   5   6
ATOM      6  C   UNL     1      10.842 -19.561  22.626  1.00  0.00     0.000 C 
BRANCH   6   7
ATOM      7  C   UNL     1      10.786 -18.703  23.903  1.00  0.00     0.006 C 
BRANCH   7   8
ATOM      8  C   UNL     1      11.207 -17.250  23.644  1.00  0.00     0.053 C 
BRANCH   8   9
ATOM      9  C   UNL     1      10.604 -16.310  24.643  1.00  0.00     0.041 C 
ATOM     10  O   UNL     1      10.659 -16.572  25.873  1.00  0.00    -0.550 OA
ATOM     11  O   UNL     1       9.951 -15.163  24.211  1.00  0.00    -0.550 OA
ENDBRANCH   8   9
ENDBRANCH   7   8
ENDBRANCH   6   7
ENDBRANCH   5   6
ENDBRANCH   4   5
ENDBRANCH   3   4
ENDBRANCH   2   3
ENDBRANCH   1   2
BRANCH   1  12
ATOM     12  C   UNL     1       8.733 -21.691  20.124  1.00  0.00     0.000 C 
BRANCH  12  13
ATOM     13  C   UNL     1       7.498 -21.706  21.046  1.00  0.00    -0.000 C 
BRANCH  13  14
ATOM     14  C   UNL     1       7.599 -20.800  22.286  1.00  0.00    -0.000 C 
BRANCH  14  15
ATOM     15  C   UNL     1       6.539 -19.689  22.302  1.00  0.00    -0.000 C 
BRANCH  15  16
ATOM     16  C   UNL     1       7.110 -18.376  21.757  1.00  0.00    -0.000 C 
BRANCH  16  17
ATOM     17  C   UNL     1       7.520 -17.436  22.901  1.00  0.00    -0.000 C 
BRANCH  17  18
ATOM     18  C   UNL     1       6.469 -17.369  24.019  1.00  0.00    -0.000 C 
BRANCH  18  19
ATOM     19  C   UNL     1       7.095 -17.378  25.421  1.00  0.00    -0.003 C 
ATOM     20  C   UNL     1       7.629 -18.763  25.776  1.00  0.00     0.004 C 
ENDBRANCH  18  19
ENDBRANCH  17  18
ENDBRANCH  16  17
ENDBRANCH  15  16
ENDBRANCH  14  15
ENDBRANCH  13  14
ENDBRANCH  12  13
ENDBRANCH   1  12
TORSDOF 16
ENDMDL
