MODEL 1
REMARK VINA RESULT:    -2.030      0.000      0.000
REMARK INTER + INTRA:          -2.812
REMARK INTER:                  -2.445
REMARK INTRA:                  -0.367
REMARK UNBOUND:                -0.367
REMARK SMILES O=c1c(O)c(-c2ccc(O)cc2O)oc2cc(O)cc(O)c12
REMARK SMILES IDX 5 1 3 2 2 3 1 4 22 5 20 6 19 7 17 8 16 9 15 10 14 11 6 12
REMARK SMILES IDX 8 13 7 14 9 15 11 16 12 17 10 18 13 20 4 22 21 24 18 26
REMARK H PARENT 10 19 13 21 4 23 21 25 18 27
REMARK Flexibility Score: inf
ROOT
ATOM      1  C   UNL     1      76.068  34.871  52.413  1.00  0.00     0.184 A 
ATOM      2  C   UNL     1      75.986  35.538  51.181  1.00  0.00     0.208 A 
ATOM      3  C   UNL     1      77.116  35.572  50.349  1.00  0.00     0.238 A 
ATOM      4  O   UNL     1      77.022  36.125  49.223  1.00  0.00    -0.285 OA
ATOM      5  C   UNL     1      78.318  34.953  50.770  1.00  0.00     0.111 A 
ATOM      6  C   UNL     1      79.537  34.960  50.028  1.00  0.00     0.134 A 
ATOM      7  C   UNL     1      80.625  34.205  50.480  1.00  0.00     0.093 A 
ATOM      8  C   UNL     1      80.561  33.496  51.682  1.00  0.00     0.123 A 
ATOM      9  C   UNL     1      79.397  33.530  52.444  1.00  0.00     0.094 A 
ATOM     10  C   UNL     1      78.281  34.246  52.001  1.00  0.00     0.146 A 
ATOM     11  O   UNL     1      77.186  34.243  52.753  1.00  0.00    -0.451 OA
ENDROOT
BRANCH   1  12
ATOM     12  C   UNL     1      74.919  34.812  53.342  1.00  0.00     0.063 A 
ATOM     13  C   UNL     1      73.332  35.987  54.760  1.00  0.00     0.047 A 
ATOM     14  C   UNL     1      74.420  36.006  53.883  1.00  0.00     0.020 A 
ATOM     15  C   UNL     1      72.722  34.772  55.096  1.00  0.00     0.119 A 
ATOM     16  C   UNL     1      73.198  33.580  54.543  1.00  0.00     0.093 A 
ATOM     17  C   UNL     1      74.285  33.592  53.657  1.00  0.00     0.130 A 
BRANCH  15  18
ATOM     18  O   UNL     1      71.638  34.741  55.972  1.00  0.00    -0.508 OA
ATOM     19  H   UNL     1      71.522  35.440  56.695  1.00  0.00     0.293 HD
ENDBRANCH  15  18
BRANCH  17  20
ATOM     20  O   UNL     1      74.719  32.400  53.075  1.00  0.00    -0.507 OA
ATOM     21  H   UNL     1      75.528  32.370  52.466  1.00  0.00     0.293 HD
ENDBRANCH  17  20
ENDBRANCH   1  12
BRANCH   2  22
ATOM     22  O   UNL     1      74.782  36.125  50.783  1.00  0.00    -0.502 OA
ATOM     23  H   UNL     1      74.159  35.687  50.114  1.00  0.00     0.293 HD
ENDBRANCH   2  22
BRANCH   6  24
ATOM     24  O   UNL     1      79.737  35.708  48.863  1.00  0.00    -0.507 OA
ATOM     25  H   UNL     1      80.496  35.567  48.214  1.00  0.00     0.293 HD
ENDBRANCH   6  24
BRANCH   8  26
ATOM     26  O   UNL     1      81.656  32.760  52.132  1.00  0.00    -0.508 OA
ATOM     27  H   UNL     1      82.407  33.192  52.657  1.00  0.00     0.293 HD
ENDBRANCH   8  26
TORSDOF 6
ENDMDL
MODEL 2
REMARK VINA RESULT:     0.234      1.556      3.274
REMARK INTER + INTRA:          -0.086
REMARK INTER:                  -0.667
REMARK INTRA:                   0.581
REMARK UNBOUND:                -0.367
REMARK SMILES O=c1c(O)c(-c2ccc(O)cc2O)oc2cc(O)cc(O)c12
REMARK SMILES IDX 5 1 3 2 2 3 1 4 22 5 20 6 19 7 17 8 16 9 15 10 14 11 6 12
REMARK SMILES IDX 8 13 7 14 9 15 11 16 12 17 10 18 13 20 4 22 21 24 18 26
REMARK H PARENT 10 19 13 21 4 23 21 25 18 27
REMARK Flexibility Score: inf
ROOT
ATOM      1  C   UNL     1      76.507  33.379  52.298  1.00  0.00     0.184 A 
ATOM      2  C   UNL     1      77.324  32.331  52.750  1.00  0.00     0.208 A 
ATOM      3  C   UNL     1      78.616  32.196  52.218  1.00  0.00     0.238 A 
ATOM      4  O   UNL     1      79.362  31.287  52.666  1.00  0.00    -0.285 OA
ATOM      5  C   UNL     1      79.067  33.103  51.229  1.00  0.00     0.111 A 
ATOM      6  C   UNL     1      80.342  33.037  50.591  1.00  0.00     0.134 A 
ATOM      7  C   UNL     1      80.733  34.063  49.722  1.00  0.00     0.093 A 
ATOM      8  C   UNL     1      79.868  35.117  49.416  1.00  0.00     0.123 A 
ATOM      9  C   UNL     1      78.599  35.159  49.988  1.00  0.00     0.094 A 
ATOM     10  C   UNL     1      78.194  34.169  50.888  1.00  0.00     0.146 A 
ATOM     11  O   UNL     1      76.980  34.254  51.419  1.00  0.00    -0.451 OA
ENDROOT
BRANCH   1  12
ATOM     12  C   UNL     1      75.131  33.567  52.805  1.00  0.00     0.063 A 
ATOM     13  C   UNL     1      73.282  32.741  54.150  1.00  0.00     0.047 A 
ATOM     14  C   UNL     1      74.578  32.592  53.649  1.00  0.00     0.020 A 
ATOM     15  C   UNL     1      72.529  33.875  53.825  1.00  0.00     0.119 A 
ATOM     16  C   UNL     1      73.082  34.863  53.004  1.00  0.00     0.093 A 
ATOM     17  C   UNL     1      74.384  34.724  52.502  1.00  0.00     0.130 A 
BRANCH  15  18
ATOM     18  O   UNL     1      71.235  34.033  54.317  1.00  0.00    -0.508 OA
ATOM     19  H   UNL     1      70.609  34.737  53.945  1.00  0.00     0.293 HD
ENDBRANCH  15  18
BRANCH  17  20
ATOM     20  O   UNL     1      74.940  35.740  51.724  1.00  0.00    -0.507 OA
ATOM     21  H   UNL     1      75.854  35.644  51.299  1.00  0.00     0.293 HD
ENDBRANCH  17  20
ENDBRANCH   1  12
BRANCH   2  22
ATOM     22  O   UNL     1      76.859  31.461  53.741  1.00  0.00    -0.502 OA
ATOM     23  H   UNL     1      76.018  31.647  54.276  1.00  0.00     0.293 HD
ENDBRANCH   2  22
BRANCH   6  24
ATOM     24  O   UNL     1      81.243  31.981  50.755  1.00  0.00    -0.507 OA
ATOM     25  H   UNL     1      81.862  31.637  50.036  1.00  0.00     0.293 HD
ENDBRANCH   6  24
BRANCH   8  26
ATOM     26  O   UNL     1      80.260  36.125  48.537  1.00  0.00    -0.508 OA
ATOM     27  H   UNL     1      81.017  35.989  47.877  1.00  0.00     0.293 HD
ENDBRANCH   8  26
TORSDOF 6
ENDMDL
MODEL 3
REMARK VINA RESULT:     0.338     14.603     17.173
REMARK INTER + INTRA:           0.040
REMARK INTER:                   0.410
REMARK INTRA:                  -0.370
REMARK UNBOUND:                -0.367
REMARK SMILES O=c1c(O)c(-c2ccc(O)cc2O)oc2cc(O)cc(O)c12
REMARK SMILES IDX 5 1 3 2 2 3 1 4 22 5 20 6 19 7 17 8 16 9 15 10 14 11 6 12
REMARK SMILES IDX 8 13 7 14 9 15 11 16 12 17 10 18 13 20 4 22 21 24 18 26
REMARK H PARENT 10 19 13 21 4 23 21 25 18 27
REMARK Flexibility Score: inf
ROOT
ATOM      1  C   UNL     1      86.898  31.099  64.899  1.00  0.00     0.184 A 
ATOM      2  C   UNL     1      87.551  31.716  65.977  1.00  0.00     0.208 A 
ATOM      3  C   UNL     1      87.585  33.118  66.041  1.00  0.00     0.238 A 
ATOM      4  O   UNL     1      88.125  33.665  67.037  1.00  0.00    -0.285 OA
ATOM      5  C   UNL     1      86.979  33.883  65.015  1.00  0.00     0.111 A 
ATOM      6  C   UNL     1      86.987  35.309  64.955  1.00  0.00     0.134 A 
ATOM      7  C   UNL     1      86.245  35.963  63.965  1.00  0.00     0.093 A 
ATOM      8  C   UNL     1      85.549  35.241  62.991  1.00  0.00     0.123 A 
ATOM      9  C   UNL     1      85.583  33.850  63.006  1.00  0.00     0.094 A 
ATOM     10  C   UNL     1      86.285  33.168  64.004  1.00  0.00     0.146 A 
ATOM     11  O   UNL     1      86.282  31.840  63.987  1.00  0.00    -0.451 OA
ENDROOT
BRANCH   1  12
ATOM     12  C   UNL     1      86.840  29.628  64.764  1.00  0.00     0.063 A 
ATOM     13  C   UNL     1      88.018  27.521  64.473  1.00  0.00     0.047 A 
ATOM     14  C   UNL     1      88.036  28.912  64.599  1.00  0.00     0.020 A 
ATOM     15  C   UNL     1      86.803  26.826  64.526  1.00  0.00     0.119 A 
ATOM     16  C   UNL     1      85.610  27.529  64.715  1.00  0.00     0.093 A 
ATOM     17  C   UNL     1      85.620  28.925  64.847  1.00  0.00     0.130 A 
BRANCH  15  18
ATOM     18  O   UNL     1      86.773  25.439  64.399  1.00  0.00    -0.508 OA
ATOM     19  H   UNL     1      86.189  24.983  63.709  1.00  0.00     0.293 HD
ENDBRANCH  15  18
BRANCH  17  20
ATOM     20  O   UNL     1      84.427  29.609  65.083  1.00  0.00    -0.507 OA
ATOM     21  H   UNL     1      84.151  30.406  64.523  1.00  0.00     0.293 HD
ENDBRANCH  17  20
ENDBRANCH   1  12
BRANCH   2  22
ATOM     22  O   UNL     1      88.124  30.936  66.985  1.00  0.00    -0.502 OA
ATOM     23  H   UNL     1      88.685  31.336  67.729  1.00  0.00     0.293 HD
ENDBRANCH   2  22
BRANCH   6  24
ATOM     24  O   UNL     1      87.724  36.122  65.822  1.00  0.00    -0.507 OA
ATOM     25  H   UNL     1      88.317  35.782  66.564  1.00  0.00     0.293 HD
ENDBRANCH   6  24
BRANCH   8  26
ATOM     26  O   UNL     1      84.826  35.902  62.000  1.00  0.00    -0.508 OA
ATOM     27  H   UNL     1      84.018  35.477  61.560  1.00  0.00     0.293 HD
ENDBRANCH   8  26
TORSDOF 6
ENDMDL
MODEL 4
REMARK VINA RESULT:     0.754     13.546     15.759
REMARK INTER + INTRA:           0.541
REMARK INTER:                   0.675
REMARK INTRA:                  -0.134
REMARK UNBOUND:                -0.367
REMARK SMILES O=c1c(O)c(-c2ccc(O)cc2O)oc2cc(O)cc(O)c12
REMARK SMILES IDX 5 1 3 2 2 3 1 4 22 5 20 6 19 7 17 8 16 9 15 10 14 11 6 12
REMARK SMILES IDX 8 13 7 14 9 15 11 16 12 17 10 18 13 20 4 22 21 24 18 26
REMARK H PARENT 10 19 13 21 4 23 21 25 18 27
REMARK Flexibility Score: inf
ROOT
ATOM      1  C   UNL     1      85.277  31.598  64.517  1.00  0.00     0.184 A 
ATOM      2  C   UNL     1      86.187  32.163  65.424  1.00  0.00     0.208 A 
ATOM      3  C   UNL     1      86.683  33.453  65.177  1.00  0.00     0.238 A 
ATOM      4  O   UNL     1      87.456  33.975  66.021  1.00  0.00    -0.285 OA
ATOM      5  C   UNL     1      86.274  34.153  64.017  1.00  0.00     0.111 A 
ATOM      6  C   UNL     1      86.742  35.448  63.644  1.00  0.00     0.134 A 
ATOM      7  C   UNL     1      86.171  36.100  62.544  1.00  0.00     0.093 A 
ATOM      8  C   UNL     1      85.196  35.475  61.763  1.00  0.00     0.123 A 
ATOM      9  C   UNL     1      84.774  34.187  62.083  1.00  0.00     0.094 A 
ATOM     10  C   UNL     1      85.299  33.526  63.196  1.00  0.00     0.146 A 
ATOM     11  O   UNL     1      84.861  32.303  63.472  1.00  0.00    -0.451 OA
ENDROOT
BRANCH   1  12
ATOM     12  C   UNL     1      84.730  30.238  64.709  1.00  0.00     0.063 A 
ATOM     13  C   UNL     1      82.788  28.789  64.911  1.00  0.00     0.047 A 
ATOM     14  C   UNL     1      83.338  30.062  64.736  1.00  0.00     0.020 A 
ATOM     15  C   UNL     1      83.625  27.675  65.047  1.00  0.00     0.119 A 
ATOM     16  C   UNL     1      85.012  27.838  64.998  1.00  0.00     0.093 A 
ATOM     17  C   UNL     1      85.572  29.112  64.817  1.00  0.00     0.130 A 
BRANCH  15  18
ATOM     18  O   UNL     1      83.087  26.402  65.225  1.00  0.00    -0.508 OA
ATOM     19  H   UNL     1      82.292  26.243  65.833  1.00  0.00     0.293 HD
ENDBRANCH  15  18
BRANCH  17  20
ATOM     20  O   UNL     1      86.957  29.253  64.721  1.00  0.00    -0.507 OA
ATOM     21  H   UNL     1      87.386  30.143  64.498  1.00  0.00     0.293 HD
ENDBRANCH  17  20
ENDBRANCH   1  12
BRANCH   2  22
ATOM     22  O   UNL     1      86.560  31.456  66.571  1.00  0.00    -0.502 OA
ATOM     23  H   UNL     1      86.236  30.514  66.757  1.00  0.00     0.293 HD
ENDBRANCH   2  22
BRANCH   6  24
ATOM     24  O   UNL     1      87.776  36.123  64.300  1.00  0.00    -0.507 OA
ATOM     25  H   UNL     1      87.997  36.022  65.280  1.00  0.00     0.293 HD
ENDBRANCH   6  24
BRANCH   8  26
ATOM     26  O   UNL     1      84.645  36.125  60.660  1.00  0.00    -0.508 OA
ATOM     27  H   UNL     1      84.766  35.769  59.719  1.00  0.00     0.293 HD
ENDBRANCH   8  26
TORSDOF 6
ENDMDL
MODEL 5
REMARK VINA RESULT:     0.881      2.093      7.168
REMARK INTER + INTRA:           0.694
REMARK INTER:                   1.001
REMARK INTRA:                  -0.307
REMARK UNBOUND:                -0.367
REMARK SMILES O=c1c(O)c(-c2ccc(O)cc2O)oc2cc(O)cc(O)c12
REMARK SMILES IDX 5 1 3 2 2 3 1 4 22 5 20 6 19 7 17 8 16 9 15 10 14 11 6 12
REMARK SMILES IDX 8 13 7 14 9 15 11 16 12 17 10 18 13 20 4 22 21 24 18 26
REMARK H PARENT 10 19 13 21 4 23 21 25 18 27
REMARK Flexibility Score: inf
ROOT
ATOM      1  C   UNL     1      74.179  34.038  53.492  1.00  0.00     0.184 A 
ATOM      2  C   UNL     1      72.954  34.404  52.912  1.00  0.00     0.208 A 
ATOM      3  C   UNL     1      71.779  34.288  53.671  1.00  0.00     0.238 A 
ATOM      4  O   UNL     1      70.692  34.667  53.165  1.00  0.00    -0.285 OA
ATOM      5  C   UNL     1      71.844  33.791  54.996  1.00  0.00     0.111 A 
ATOM      6  C   UNL     1      70.714  33.592  55.843  1.00  0.00     0.134 A 
ATOM      7  C   UNL     1      70.908  33.220  57.179  1.00  0.00     0.093 A 
ATOM      8  C   UNL     1      72.189  32.973  57.679  1.00  0.00     0.123 A 
ATOM      9  C   UNL     1      73.295  33.107  56.844  1.00  0.00     0.094 A 
ATOM     10  C   UNL     1      73.136  33.513  55.516  1.00  0.00     0.146 A 
ATOM     11  O   UNL     1      74.218  33.639  54.757  1.00  0.00    -0.451 OA
ENDROOT
BRANCH   1  12
ATOM     12  C   UNL     1      75.450  34.121  52.742  1.00  0.00     0.063 A 
ATOM     13  C   UNL     1      77.067  35.481  51.538  1.00  0.00     0.047 A 
ATOM     14  C   UNL     1      75.868  35.366  52.247  1.00  0.00     0.020 A 
ATOM     15  C   UNL     1      77.869  34.353  51.328  1.00  0.00     0.119 A 
ATOM     16  C   UNL     1      77.472  33.114  51.838  1.00  0.00     0.093 A 
ATOM     17  C   UNL     1      76.273  32.991  52.556  1.00  0.00     0.130 A 
BRANCH  15  18
ATOM     18  O   UNL     1      79.065  34.455  50.620  1.00  0.00    -0.508 OA
ATOM     19  H   UNL     1      79.944  34.639  51.089  1.00  0.00     0.293 HD
ENDBRANCH  15  18
BRANCH  17  20
ATOM     20  O   UNL     1      75.913  31.758  53.101  1.00  0.00    -0.507 OA
ATOM     21  H   UNL     1      75.532  31.015  52.528  1.00  0.00     0.293 HD
ENDBRANCH  17  20
ENDBRANCH   1  12
BRANCH   2  22
ATOM     22  O   UNL     1      72.922  34.908  51.609  1.00  0.00    -0.502 OA
ATOM     23  H   UNL     1      72.185  35.522  51.283  1.00  0.00     0.293 HD
ENDBRANCH   2  22
BRANCH   6  24
ATOM     24  O   UNL     1      69.388  33.722  55.419  1.00  0.00    -0.507 OA
ATOM     25  H   UNL     1      68.606  33.225  55.818  1.00  0.00     0.293 HD
ENDBRANCH   6  24
BRANCH   8  26
ATOM     26  O   UNL     1      72.372  32.587  59.005  1.00  0.00    -0.508 OA
ATOM     27  H   UNL     1      71.637  32.128  59.530  1.00  0.00     0.293 HD
ENDBRANCH   8  26
TORSDOF 6
ENDMDL
MODEL 6
REMARK VINA RESULT:     0.917      1.623      6.389
REMARK INTER + INTRA:           0.737
REMARK INTER:                   0.794
REMARK INTRA:                  -0.057
REMARK UNBOUND:                -0.367
REMARK SMILES O=c1c(O)c(-c2ccc(O)cc2O)oc2cc(O)cc(O)c12
REMARK SMILES IDX 5 1 3 2 2 3 1 4 22 5 20 6 19 7 17 8 16 9 15 10 14 11 6 12
REMARK SMILES IDX 8 13 7 14 9 15 11 16 12 17 10 18 13 20 4 22 21 24 18 26
REMARK H PARENT 10 19 13 21 4 23 21 25 18 27
REMARK Flexibility Score: inf
ROOT
ATOM      1  C   UNL     1      76.519  33.964  52.258  1.00  0.00     0.184 A 
ATOM      2  C   UNL     1      75.902  34.948  51.471  1.00  0.00     0.208 A 
ATOM      3  C   UNL     1      74.533  35.204  51.650  1.00  0.00     0.238 A 
ATOM      4  O   UNL     1      73.997  36.125  50.980  1.00  0.00    -0.285 OA
ATOM      5  C   UNL     1      73.798  34.460  52.603  1.00  0.00     0.111 A 
ATOM      6  C   UNL     1      72.399  34.605  52.841  1.00  0.00     0.134 A 
ATOM      7  C   UNL     1      71.801  33.908  53.899  1.00  0.00     0.093 A 
ATOM      8  C   UNL     1      72.540  33.019  54.684  1.00  0.00     0.123 A 
ATOM      9  C   UNL     1      73.893  32.825  54.422  1.00  0.00     0.094 A 
ATOM     10  C   UNL     1      74.526  33.534  53.398  1.00  0.00     0.146 A 
ATOM     11  O   UNL     1      75.821  33.327  53.189  1.00  0.00    -0.451 OA
ENDROOT
BRANCH   1  12
ATOM     12  C   UNL     1      77.953  33.634  52.107  1.00  0.00     0.063 A 
ATOM     13  C   UNL     1      80.244  34.403  51.837  1.00  0.00     0.047 A 
ATOM     14  C   UNL     1      78.881  34.679  51.976  1.00  0.00     0.020 A 
ATOM     15  C   UNL     1      80.696  33.078  51.842  1.00  0.00     0.119 A 
ATOM     16  C   UNL     1      79.781  32.033  51.996  1.00  0.00     0.093 A 
ATOM     17  C   UNL     1      78.412  32.302  52.142  1.00  0.00     0.130 A 
BRANCH  15  18
ATOM     18  O   UNL     1      82.052  32.791  51.701  1.00  0.00    -0.508 OA
ATOM     19  H   UNL     1      82.644  32.619  52.506  1.00  0.00     0.293 HD
ENDBRANCH  15  18
BRANCH  17  20
ATOM     20  O   UNL     1      77.516  31.251  52.343  1.00  0.00    -0.507 OA
ATOM     21  H   UNL     1      76.608  31.401  52.766  1.00  0.00     0.293 HD
ENDBRANCH  17  20
ENDBRANCH   1  12
BRANCH   2  22
ATOM     22  O   UNL     1      76.656  35.681  50.550  1.00  0.00    -0.502 OA
ATOM     23  H   UNL     1      76.294  35.951  49.643  1.00  0.00     0.293 HD
ENDBRANCH   2  22
BRANCH   6  24
ATOM     24  O   UNL     1      71.552  35.395  52.058  1.00  0.00    -0.507 OA
ATOM     25  H   UNL     1      70.613  35.141  51.791  1.00  0.00     0.293 HD
ENDBRANCH   6  24
BRANCH   8  26
ATOM     26  O   UNL     1      71.933  32.318  55.724  1.00  0.00    -0.508 OA
ATOM     27  H   UNL     1      71.193  32.729  56.281  1.00  0.00     0.293 HD
ENDBRANCH   8  26
TORSDOF 6
ENDMDL
