MODEL 1
REMARK VINA RESULT:    -5.457      0.000      0.000
REMARK INTER + INTRA:         -14.430
REMARK INTER:                 -11.836
REMARK INTRA:                  -2.593
REMARK UNBOUND:                -2.593
REMARK SMILES CCCCCCCCCCCCCCCCCCCCCC(=O)[O-]
REMARK SMILES IDX 12 1 11 2 10 3 9 4 8 5 7 6 6 7 5 8 4 9 3 10 2 11 1 12 13 13
REMARK SMILES IDX 14 14 15 15 16 16 17 17 18 18 19 19 20 20 21 21 22 22 23 23
REMARK SMILES IDX 24 24
REMARK H PARENT
REMARK Flexibility Score: inf
ROOT
ATOM      1  C   UNL     1     160.346 159.040 153.590  1.00  0.00     0.000 C 
ENDROOT
BRANCH   1   2
ATOM      2  C   UNL     1     160.813 158.734 152.155  1.00  0.00     0.000 C 
BRANCH   2   3
ATOM      3  C   UNL     1     160.759 157.242 151.777  1.00  0.00     0.000 C 
BRANCH   3   4
ATOM      4  C   UNL     1     160.972 157.006 150.274  1.00  0.00    -0.000 C 
BRANCH   4   5
ATOM      5  C   UNL     1     160.647 158.268 149.465  1.00  0.00    -0.000 C 
BRANCH   5   6
ATOM      6  C   UNL     1     159.522 157.996 148.453  1.00  0.00    -0.000 C 
BRANCH   6   7
ATOM      7  C   UNL     1     158.440 157.056 149.010  1.00  0.00    -0.000 C 
BRANCH   7   8
ATOM      8  C   UNL     1     157.471 157.769 149.968  1.00  0.00    -0.000 C 
BRANCH   8   9
ATOM      9  C   UNL     1     156.232 156.903 150.292  1.00  0.00    -0.000 C 
BRANCH   9  10
ATOM     10  C   UNL     1     156.249 155.519 149.615  1.00  0.00    -0.000 C 
BRANCH  10  11
ATOM     11  C   UNL     1     155.501 154.418 150.384  1.00  0.00    -0.003 C 
ATOM     12  C   UNL     1     153.994 154.663 150.461  1.00  0.00     0.004 C 
ENDBRANCH  10  11
ENDBRANCH   9  10
ENDBRANCH   8   9
ENDBRANCH   7   8
ENDBRANCH   6   7
ENDBRANCH   5   6
ENDBRANCH   4   5
ENDBRANCH   3   4
ENDBRANCH   2   3
ENDBRANCH   1   2
BRANCH   1  13
ATOM     13  C   UNL     1     159.437 160.279 153.665  1.00  0.00     0.000 C 
BRANCH  13  14
ATOM     14  C   UNL     1     158.862 160.667 152.286  1.00  0.00     0.000 C 
BRANCH  14  15
ATOM     15  C   UNL     1     158.522 162.163 152.153  1.00  0.00     0.000 C 
BRANCH  15  16
ATOM     16  C   UNL     1     158.468 162.634 150.691  1.00  0.00     0.000 C 
BRANCH  16  17
ATOM     17  C   UNL     1     158.963 161.571 149.692  1.00  0.00     0.000 C 
BRANCH  17  18
ATOM     18  C   UNL     1     160.295 161.895 148.992  1.00  0.00     0.000 C 
BRANCH  18  19
ATOM     19  C   UNL     1     161.497 161.902 149.954  1.00  0.00     0.000 C 
BRANCH  19  20
ATOM     20  C   UNL     1     162.570 162.932 149.559  1.00  0.00     0.006 C 
BRANCH  20  21
ATOM     21  C   UNL     1     163.947 162.685 150.200  1.00  0.00     0.053 C 
BRANCH  21  22
ATOM     22  C   UNL     1     164.749 163.946 150.315  1.00  0.00     0.041 C 
ATOM     23  O   UNL     1     164.737 164.611 151.386  1.00  0.00    -0.550 OA
ATOM     24  O   UNL     1     165.477 164.411 149.226  1.00  0.00    -0.550 OA
ENDBRANCH  21  22
ENDBRANCH  20  21
ENDBRANCH  19  20
ENDBRANCH  18  19
ENDBRANCH  17  18
ENDBRANCH  16  17
ENDBRANCH  15  16
ENDBRANCH  14  15
ENDBRANCH  13  14
ENDBRANCH   1  13
TORSDOF 20
ENDMDL
MODEL 2
REMARK VINA RESULT:    -5.406      4.231      8.424
REMARK INTER + INTRA:         -14.320
REMARK INTER:                 -11.858
REMARK INTRA:                  -2.463
REMARK UNBOUND:                -2.593
REMARK SMILES CCCCCCCCCCCCCCCCCCCCCC(=O)[O-]
REMARK SMILES IDX 12 1 11 2 10 3 9 4 8 5 7 6 6 7 5 8 4 9 3 10 2 11 1 12 13 13
REMARK SMILES IDX 14 14 15 15 16 16 17 17 18 18 19 19 20 20 21 21 22 22 23 23
REMARK SMILES IDX 24 24
REMARK H PARENT
REMARK Flexibility Score: inf
ROOT
ATOM      1  C   UNL     1     160.051 159.300 153.896  1.00  0.00     0.000 C 
ENDROOT
BRANCH   1   2
ATOM      2  C   UNL     1     158.853 160.150 153.433  1.00  0.00     0.000 C 
BRANCH   2   3
ATOM      3  C   UNL     1     158.873 160.509 151.936  1.00  0.00     0.000 C 
BRANCH   3   4
ATOM      4  C   UNL     1     158.901 162.025 151.694  1.00  0.00    -0.000 C 
BRANCH   4   5
ATOM      5  C   UNL     1     158.510 162.362 150.249  1.00  0.00    -0.000 C 
BRANCH   5   6
ATOM      6  C   UNL     1     159.068 161.315 149.272  1.00  0.00    -0.000 C 
BRANCH   6   7
ATOM      7  C   UNL     1     160.300 161.821 148.503  1.00  0.00    -0.000 C 
BRANCH   7   8
ATOM      8  C   UNL     1     161.616 161.562 149.256  1.00  0.00    -0.000 C 
BRANCH   8   9
ATOM      9  C   UNL     1     162.385 162.870 149.549  1.00  0.00    -0.000 C 
BRANCH   9  10
ATOM     10  C   UNL     1     163.713 162.654 150.300  1.00  0.00    -0.000 C 
BRANCH  10  11
ATOM     11  C   UNL     1     164.520 163.936 150.563  1.00  0.00    -0.003 C 
ATOM     12  C   UNL     1     165.364 164.365 149.363  1.00  0.00     0.004 C 
ENDBRANCH  10  11
ENDBRANCH   9  10
ENDBRANCH   8   9
ENDBRANCH   7   8
ENDBRANCH   6   7
ENDBRANCH   5   6
ENDBRANCH   4   5
ENDBRANCH   3   4
ENDBRANCH   2   3
ENDBRANCH   1   2
BRANCH   1  13
ATOM     13  C   UNL     1     160.969 158.887 152.733  1.00  0.00     0.000 C 
BRANCH  13  14
ATOM     14  C   UNL     1     161.087 157.354 152.596  1.00  0.00     0.000 C 
BRANCH  14  15
ATOM     15  C   UNL     1     160.828 156.834 151.170  1.00  0.00     0.000 C 
BRANCH  15  16
ATOM     16  C   UNL     1     160.746 157.963 150.131  1.00  0.00     0.000 C 
BRANCH  16  17
ATOM     17  C   UNL     1     159.787 157.649 148.967  1.00  0.00     0.000 C 
BRANCH  17  18
ATOM     18  C   UNL     1     158.557 156.801 149.339  1.00  0.00     0.000 C 
BRANCH  18  19
ATOM     19  C   UNL     1     157.299 157.648 149.607  1.00  0.00     0.000 C 
BRANCH  19  20
ATOM     20  C   UNL     1     156.227 156.887 150.407  1.00  0.00     0.006 C 
BRANCH  20  21
ATOM     21  C   UNL     1     155.956 155.459 149.902  1.00  0.00     0.053 C 
BRANCH  21  22
ATOM     22  C   UNL     1     154.844 154.796 150.657  1.00  0.00     0.041 C 
ATOM     23  O   UNL     1     153.680 154.759 150.173  1.00  0.00    -0.550 OA
ATOM     24  O   UNL     1     155.082 154.256 151.916  1.00  0.00    -0.550 OA
ENDBRANCH  21  22
ENDBRANCH  20  21
ENDBRANCH  19  20
ENDBRANCH  18  19
ENDBRANCH  17  18
ENDBRANCH  16  17
ENDBRANCH  15  16
ENDBRANCH  14  15
ENDBRANCH  13  14
ENDBRANCH   1  13
TORSDOF 20
ENDMDL
MODEL 3
REMARK VINA RESULT:    -5.358      0.946      2.356
REMARK INTER + INTRA:         -14.216
REMARK INTER:                 -11.579
REMARK INTRA:                  -2.637
REMARK UNBOUND:                -2.593
REMARK SMILES CCCCCCCCCCCCCCCCCCCCCC(=O)[O-]
REMARK SMILES IDX 12 1 11 2 10 3 9 4 8 5 7 6 6 7 5 8 4 9 3 10 2 11 1 12 13 13
REMARK SMILES IDX 14 14 15 15 16 16 17 17 18 18 19 19 20 20 21 21 22 22 23 23
REMARK SMILES IDX 24 24
REMARK H PARENT
REMARK Flexibility Score: inf
ROOT
ATOM      1  C   UNL     1     158.536 160.891 152.546  1.00  0.00     0.000 C 
ENDROOT
BRANCH   1   2
ATOM      2  C   UNL     1     159.487 160.569 153.713  1.00  0.00     0.000 C 
BRANCH   2   3
ATOM      3  C   UNL     1     160.282 159.261 153.539  1.00  0.00     0.000 C 
BRANCH   3   4
ATOM      4  C   UNL     1     160.098 158.640 152.147  1.00  0.00    -0.000 C 
BRANCH   4   5
ATOM      5  C   UNL     1     160.941 157.368 151.994  1.00  0.00    -0.000 C 
BRANCH   5   6
ATOM      6  C   UNL     1     160.793 156.779 150.581  1.00  0.00    -0.000 C 
BRANCH   6   7
ATOM      7  C   UNL     1     160.319 157.819 149.553  1.00  0.00    -0.000 C 
BRANCH   7   8
ATOM      8  C   UNL     1     159.357 157.227 148.510  1.00  0.00    -0.000 C 
BRANCH   8   9
ATOM      9  C   UNL     1     158.179 156.474 149.167  1.00  0.00    -0.000 C 
BRANCH   9  10
ATOM     10  C   UNL     1     157.271 157.374 150.027  1.00  0.00    -0.000 C 
BRANCH  10  11
ATOM     11  C   UNL     1     155.824 156.874 150.175  1.00  0.00    -0.003 C 
ATOM     12  C   UNL     1     155.706 155.354 150.071  1.00  0.00     0.004 C 
ENDBRANCH  10  11
ENDBRANCH   9  10
ENDBRANCH   8   9
ENDBRANCH   7   8
ENDBRANCH   6   7
ENDBRANCH   5   6
ENDBRANCH   4   5
ENDBRANCH   3   4
ENDBRANCH   2   3
ENDBRANCH   1   2
BRANCH   1  13
ATOM     13  C   UNL     1     158.800 162.277 151.932  1.00  0.00     0.000 C 
BRANCH  13  14
ATOM     14  C   UNL     1     158.391 162.346 150.445  1.00  0.00     0.000 C 
BRANCH  14  15
ATOM     15  C   UNL     1     158.864 161.139 149.614  1.00  0.00     0.000 C 
BRANCH  15  16
ATOM     16  C   UNL     1     159.830 161.535 148.485  1.00  0.00     0.000 C 
BRANCH  16  17
ATOM     17  C   UNL     1     161.295 161.162 148.781  1.00  0.00     0.000 C 
BRANCH  17  18
ATOM     18  C   UNL     1     161.718 161.277 150.257  1.00  0.00     0.000 C 
BRANCH  18  19
ATOM     19  C   UNL     1     163.011 162.089 150.452  1.00  0.00     0.000 C 
BRANCH  19  20
ATOM     20  C   UNL     1     162.980 163.444 149.723  1.00  0.00     0.006 C 
BRANCH  20  21
ATOM     21  C   UNL     1     164.095 164.415 150.148  1.00  0.00     0.053 C 
BRANCH  21  22
ATOM     22  C   UNL     1     165.341 164.234 149.333  1.00  0.00     0.041 C 
ATOM     23  O   UNL     1     165.774 165.177 148.618  1.00  0.00    -0.550 OA
ATOM     24  O   UNL     1     165.999 163.010 149.331  1.00  0.00    -0.550 OA
ENDBRANCH  21  22
ENDBRANCH  20  21
ENDBRANCH  19  20
ENDBRANCH  18  19
ENDBRANCH  17  18
ENDBRANCH  16  17
ENDBRANCH  15  16
ENDBRANCH  14  15
ENDBRANCH  13  14
ENDBRANCH   1  13
TORSDOF 20
ENDMDL
MODEL 4
REMARK VINA RESULT:    -5.324      0.760      1.179
REMARK INTER + INTRA:         -14.142
REMARK INTER:                 -11.848
REMARK INTRA:                  -2.294
REMARK UNBOUND:                -2.593
REMARK SMILES CCCCCCCCCCCCCCCCCCCCCC(=O)[O-]
REMARK SMILES IDX 12 1 11 2 10 3 9 4 8 5 7 6 6 7 5 8 4 9 3 10 2 11 1 12 13 13
REMARK SMILES IDX 14 14 15 15 16 16 17 17 18 18 19 19 20 20 21 21 22 22 23 23
REMARK SMILES IDX 24 24
REMARK H PARENT
REMARK Flexibility Score: inf
ROOT
ATOM      1  C   UNL     1     160.855 158.865 152.352  1.00  0.00     0.000 C 
ENDROOT
BRANCH   1   2
ATOM      2  C   UNL     1     160.749 157.370 151.997  1.00  0.00     0.000 C 
BRANCH   2   3
ATOM      3  C   UNL     1     160.970 157.056 150.506  1.00  0.00     0.000 C 
BRANCH   3   4
ATOM      4  C   UNL     1     160.765 158.285 149.608  1.00  0.00    -0.000 C 
BRANCH   4   5
ATOM      5  C   UNL     1     159.381 158.262 148.947  1.00  0.00    -0.000 C 
BRANCH   5   6
ATOM      6  C   UNL     1     159.025 156.844 148.470  1.00  0.00    -0.000 C 
BRANCH   6   7
ATOM      7  C   UNL     1     157.853 156.233 149.256  1.00  0.00    -0.000 C 
BRANCH   7   8
ATOM      8  C   UNL     1     156.924 157.299 149.861  1.00  0.00    -0.000 C 
BRANCH   8   9
ATOM      9  C   UNL     1     155.525 156.731 150.191  1.00  0.00    -0.000 C 
BRANCH   9  10
ATOM     10  C   UNL     1     155.500 155.199 150.353  1.00  0.00    -0.000 C 
BRANCH  10  11
ATOM     11  C   UNL     1     154.983 154.704 151.714  1.00  0.00    -0.003 C 
ATOM     12  C   UNL     1     154.916 153.180 151.806  1.00  0.00     0.004 C 
ENDBRANCH  10  11
ENDBRANCH   9  10
ENDBRANCH   8   9
ENDBRANCH   7   8
ENDBRANCH   6   7
ENDBRANCH   5   6
ENDBRANCH   4   5
ENDBRANCH   3   4
ENDBRANCH   2   3
ENDBRANCH   1   2
BRANCH   1  13
ATOM     13  C   UNL     1     160.227 159.195 153.717  1.00  0.00     0.000 C 
BRANCH  13  14
ATOM     14  C   UNL     1     159.022 160.152 153.591  1.00  0.00     0.000 C 
BRANCH  14  15
ATOM     15  C   UNL     1     158.632 160.473 152.136  1.00  0.00     0.000 C 
BRANCH  15  16
ATOM     16  C   UNL     1     159.019 161.900 151.718  1.00  0.00     0.000 C 
BRANCH  16  17
ATOM     17  C   UNL     1     158.630 162.234 150.265  1.00  0.00     0.000 C 
BRANCH  17  18
ATOM     18  C   UNL     1     159.796 162.257 149.261  1.00  0.00     0.000 C 
BRANCH  18  19
ATOM     19  C   UNL     1     161.152 161.909 149.902  1.00  0.00     0.000 C 
BRANCH  19  20
ATOM     20  C   UNL     1     162.272 162.882 149.493  1.00  0.00     0.006 C 
BRANCH  20  21
ATOM     21  C   UNL     1     163.626 162.605 150.168  1.00  0.00     0.053 C 
BRANCH  21  22
ATOM     22  C   UNL     1     164.561 163.772 150.057  1.00  0.00     0.041 C 
ATOM     23  O   UNL     1     164.246 164.888 150.553  1.00  0.00    -0.550 OA
ATOM     24  O   UNL     1     165.761 163.640 149.367  1.00  0.00    -0.550 OA
ENDBRANCH  21  22
ENDBRANCH  20  21
ENDBRANCH  19  20
ENDBRANCH  18  19
ENDBRANCH  17  18
ENDBRANCH  16  17
ENDBRANCH  15  16
ENDBRANCH  14  15
ENDBRANCH  13  14
ENDBRANCH   1  13
TORSDOF 20
ENDMDL
MODEL 5
REMARK VINA RESULT:    -5.260      2.991      4.764
REMARK INTER + INTRA:         -14.004
REMARK INTER:                 -11.333
REMARK INTRA:                  -2.672
REMARK UNBOUND:                -2.593
REMARK SMILES CCCCCCCCCCCCCCCCCCCCCC(=O)[O-]
REMARK SMILES IDX 12 1 11 2 10 3 9 4 8 5 7 6 6 7 5 8 4 9 3 10 2 11 1 12 13 13
REMARK SMILES IDX 14 14 15 15 16 16 17 17 18 18 19 19 20 20 21 21 22 22 23 23
REMARK SMILES IDX 24 24
REMARK H PARENT
REMARK Flexibility Score: inf
ROOT
ATOM      1  C   UNL     1     160.721 158.486 148.528  1.00  0.00     0.000 C 
ENDROOT
BRANCH   1   2
ATOM      2  C   UNL     1     160.045 157.297 149.235  1.00  0.00     0.000 C 
BRANCH   2   3
ATOM      3  C   UNL     1     158.868 156.682 148.455  1.00  0.00     0.000 C 
BRANCH   3   4
ATOM      4  C   UNL     1     157.751 156.173 149.378  1.00  0.00    -0.000 C 
BRANCH   4   5
ATOM      5  C   UNL     1     156.928 157.336 149.944  1.00  0.00    -0.000 C 
BRANCH   5   6
ATOM      6  C   UNL     1     155.540 156.856 150.398  1.00  0.00    -0.000 C 
BRANCH   6   7
ATOM      7  C   UNL     1     155.054 155.625 149.614  1.00  0.00    -0.000 C 
BRANCH   7   8
ATOM      8  C   UNL     1     154.272 154.634 150.491  1.00  0.00    -0.000 C 
BRANCH   8   9
ATOM      9  C   UNL     1     155.169 153.967 151.558  1.00  0.00    -0.000 C 
BRANCH   9  10
ATOM     10  C   UNL     1     155.628 152.545 151.182  1.00  0.00    -0.000 C 
BRANCH  10  11
ATOM     11  C   UNL     1     156.734 152.487 150.115  1.00  0.00    -0.003 C 
ATOM     12  C   UNL     1     156.468 151.435 149.039  1.00  0.00     0.004 C 
ENDBRANCH  10  11
ENDBRANCH   9  10
ENDBRANCH   8   9
ENDBRANCH   7   8
ENDBRANCH   6   7
ENDBRANCH   5   6
ENDBRANCH   4   5
ENDBRANCH   3   4
ENDBRANCH   2   3
ENDBRANCH   1   2
BRANCH   1  13
ATOM     13  C   UNL     1     159.880 159.039 147.364  1.00  0.00     0.000 C 
BRANCH  13  14
ATOM     14  C   UNL     1     159.838 160.582 147.355  1.00  0.00     0.000 C 
BRANCH  14  15
ATOM     15  C   UNL     1     160.845 161.238 148.318  1.00  0.00     0.000 C 
BRANCH  15  16
ATOM     16  C   UNL     1     160.253 162.441 149.070  1.00  0.00     0.000 C 
BRANCH  16  17
ATOM     17  C   UNL     1     160.084 162.189 150.580  1.00  0.00     0.000 C 
BRANCH  17  18
ATOM     18  C   UNL     1     158.836 161.379 150.976  1.00  0.00     0.000 C 
BRANCH  18  19
ATOM     19  C   UNL     1     159.175 159.985 151.536  1.00  0.00     0.000 C 
BRANCH  19  20
ATOM     20  C   UNL     1     160.637 159.869 152.001  1.00  0.00     0.006 C 
BRANCH  20  21
ATOM     21  C   UNL     1     160.801 159.391 153.455  1.00  0.00     0.053 C 
BRANCH  21  22
ATOM     22  C   UNL     1     161.490 158.062 153.536  1.00  0.00     0.041 C 
ATOM     23  O   UNL     1     162.297 157.821 154.475  1.00  0.00    -0.550 OA
ATOM     24  O   UNL     1     161.274 157.104 152.552  1.00  0.00    -0.550 OA
ENDBRANCH  21  22
ENDBRANCH  20  21
ENDBRANCH  19  20
ENDBRANCH  18  19
ENDBRANCH  17  18
ENDBRANCH  16  17
ENDBRANCH  15  16
ENDBRANCH  14  15
ENDBRANCH  13  14
ENDBRANCH   1  13
TORSDOF 20
ENDMDL
MODEL 6
REMARK VINA RESULT:    -5.206      2.079      4.854
REMARK INTER + INTRA:         -13.886
REMARK INTER:                 -11.466
REMARK INTRA:                  -2.420
REMARK UNBOUND:                -2.593
REMARK SMILES CCCCCCCCCCCCCCCCCCCCCC(=O)[O-]
REMARK SMILES IDX 12 1 11 2 10 3 9 4 8 5 7 6 6 7 5 8 4 9 3 10 2 11 1 12 13 13
REMARK SMILES IDX 14 14 15 15 16 16 17 17 18 18 19 19 20 20 21 21 22 22 23 23
REMARK SMILES IDX 24 24
REMARK H PARENT
REMARK Flexibility Score: inf
ROOT
ATOM      1  C   UNL     1     158.120 158.493 148.967  1.00  0.00     0.000 C 
ENDROOT
BRANCH   1   2
ATOM      2  C   UNL     1     158.428 157.951 150.375  1.00  0.00     0.000 C 
BRANCH   2   3
ATOM      3  C   UNL     1     159.930 157.806 150.683  1.00  0.00     0.000 C 
BRANCH   3   4
ATOM      4  C   UNL     1     160.487 158.997 151.476  1.00  0.00    -0.000 C 
BRANCH   4   5
ATOM      5  C   UNL     1     160.758 158.611 152.935  1.00  0.00    -0.000 C 
BRANCH   5   6
ATOM      6  C   UNL     1     160.051 159.578 153.899  1.00  0.00    -0.000 C 
BRANCH   6   7
ATOM      7  C   UNL     1     158.595 159.859 153.491  1.00  0.00    -0.000 C 
BRANCH   7   8
ATOM      8  C   UNL     1     157.971 161.021 154.283  1.00  0.00    -0.000 C 
BRANCH   8   9
ATOM      9  C   UNL     1     157.649 162.233 153.380  1.00  0.00    -0.000 C 
BRANCH   9  10
ATOM     10  C   UNL     1     158.503 162.297 152.100  1.00  0.00    -0.000 C 
BRANCH  10  11
ATOM     11  C   UNL     1     158.011 163.304 151.047  1.00  0.00    -0.003 C 
ATOM     12  C   UNL     1     156.768 164.073 151.495  1.00  0.00     0.004 C 
ENDBRANCH  10  11
ENDBRANCH   9  10
ENDBRANCH   8   9
ENDBRANCH   7   8
ENDBRANCH   6   7
ENDBRANCH   5   6
ENDBRANCH   4   5
ENDBRANCH   3   4
ENDBRANCH   2   3
ENDBRANCH   1   2
BRANCH   1  13
ATOM     13  C   UNL     1     159.024 157.879 147.885  1.00  0.00     0.000 C 
BRANCH  13  14
ATOM     14  C   UNL     1     160.036 158.900 147.319  1.00  0.00     0.000 C 
BRANCH  14  15
ATOM     15  C   UNL     1     159.704 160.362 147.668  1.00  0.00     0.000 C 
BRANCH  15  16
ATOM     16  C   UNL     1     160.775 161.022 148.551  1.00  0.00     0.000 C 
BRANCH  16  17
ATOM     17  C   UNL     1     160.723 162.560 148.522  1.00  0.00     0.000 C 
BRANCH  17  18
ATOM     18  C   UNL     1     161.664 163.269 149.513  1.00  0.00     0.000 C 
BRANCH  18  19
ATOM     19  C   UNL     1     162.852 162.393 149.950  1.00  0.00     0.000 C 
BRANCH  19  20
ATOM     20  C   UNL     1     164.026 163.216 150.510  1.00  0.00     0.006 C 
BRANCH  20  21
ATOM     21  C   UNL     1     164.373 164.465 149.682  1.00  0.00     0.053 C 
BRANCH  21  22
ATOM     22  C   UNL     1     164.137 165.732 150.448  1.00  0.00     0.041 C 
ATOM     23  O   UNL     1     164.523 165.832 151.644  1.00  0.00    -0.550 OA
ATOM     24  O   UNL     1     163.453 166.788 149.855  1.00  0.00    -0.550 OA
ENDBRANCH  21  22
ENDBRANCH  20  21
ENDBRANCH  19  20
ENDBRANCH  18  19
ENDBRANCH  17  18
ENDBRANCH  16  17
ENDBRANCH  15  16
ENDBRANCH  14  15
ENDBRANCH  13  14
ENDBRANCH   1  13
TORSDOF 20
ENDMDL
MODEL 7
REMARK VINA RESULT:    -5.130      1.455      3.286
REMARK INTER + INTRA:         -13.722
REMARK INTER:                 -11.200
REMARK INTRA:                  -2.521
REMARK UNBOUND:                -2.593
REMARK SMILES CCCCCCCCCCCCCCCCCCCCCC(=O)[O-]
REMARK SMILES IDX 12 1 11 2 10 3 9 4 8 5 7 6 6 7 5 8 4 9 3 10 2 11 1 12 13 13
REMARK SMILES IDX 14 14 15 15 16 16 17 17 18 18 19 19 20 20 21 21 22 22 23 23
REMARK SMILES IDX 24 24
REMARK H PARENT
REMARK Flexibility Score: inf
ROOT
ATOM      1  C   UNL     1     160.881 157.003 150.898  1.00  0.00     0.000 C 
ENDROOT
BRANCH   1   2
ATOM      2  C   UNL     1     160.531 158.008 149.785  1.00  0.00     0.000 C 
BRANCH   2   3
ATOM      3  C   UNL     1     159.288 157.629 148.959  1.00  0.00     0.000 C 
BRANCH   3   4
ATOM      4  C   UNL     1     157.986 157.745 149.765  1.00  0.00    -0.000 C 
BRANCH   4   5
ATOM      5  C   UNL     1     157.161 156.456 149.670  1.00  0.00    -0.000 C 
BRANCH   5   6
ATOM      6  C   UNL     1     155.847 156.587 150.457  1.00  0.00    -0.000 C 
BRANCH   6   7
ATOM      7  C   UNL     1     154.651 155.961 149.721  1.00  0.00    -0.000 C 
BRANCH   7   8
ATOM      8  C   UNL     1     154.054 154.759 150.472  1.00  0.00    -0.000 C 
BRANCH   8   9
ATOM      9  C   UNL     1     154.999 154.236 151.577  1.00  0.00    -0.000 C 
BRANCH   9  10
ATOM     10  C   UNL     1     155.576 152.837 151.288  1.00  0.00    -0.000 C 
BRANCH  10  11
ATOM     11  C   UNL     1     156.445 152.747 150.023  1.00  0.00    -0.003 C 
ATOM     12  C   UNL     1     157.368 151.529 150.020  1.00  0.00     0.004 C 
ENDBRANCH  10  11
ENDBRANCH   9  10
ENDBRANCH   8   9
ENDBRANCH   7   8
ENDBRANCH   6   7
ENDBRANCH   5   6
ENDBRANCH   4   5
ENDBRANCH   3   4
ENDBRANCH   2   3
ENDBRANCH   1   2
BRANCH   1  13
ATOM     13  C   UNL     1     160.796 157.622 152.304  1.00  0.00     0.000 C 
BRANCH  13  14
ATOM     14  C   UNL     1     160.820 159.166 152.266  1.00  0.00     0.000 C 
BRANCH  14  15
ATOM     15  C   UNL     1     159.849 159.828 153.260  1.00  0.00     0.000 C 
BRANCH  15  16
ATOM     16  C   UNL     1     158.546 160.300 152.595  1.00  0.00     0.000 C 
BRANCH  16  17
ATOM     17  C   UNL     1     158.421 161.833 152.525  1.00  0.00     0.000 C 
BRANCH  17  18
ATOM     18  C   UNL     1     159.045 162.489 151.280  1.00  0.00     0.000 C 
BRANCH  18  19
ATOM     19  C   UNL     1     158.855 161.655 150.000  1.00  0.00     0.000 C 
BRANCH  19  20
ATOM     20  C   UNL     1     160.121 161.607 149.126  1.00  0.00     0.006 C 
BRANCH  20  21
ATOM     21  C   UNL     1     160.908 162.929 149.082  1.00  0.00     0.053 C 
BRANCH  21  22
ATOM     22  C   UNL     1     162.279 162.787 149.672  1.00  0.00     0.041 C 
ATOM     23  O   UNL     1     162.619 161.715 150.241  1.00  0.00    -0.550 OA
ATOM     24  O   UNL     1     163.168 163.856 149.632  1.00  0.00    -0.550 OA
ENDBRANCH  21  22
ENDBRANCH  20  21
ENDBRANCH  19  20
ENDBRANCH  18  19
ENDBRANCH  17  18
ENDBRANCH  16  17
ENDBRANCH  15  16
ENDBRANCH  14  15
ENDBRANCH  13  14
ENDBRANCH   1  13
TORSDOF 20
ENDMDL
MODEL 8
REMARK VINA RESULT:    -5.093      2.026      4.553
REMARK INTER + INTRA:         -13.641
REMARK INTER:                 -10.856
REMARK INTRA:                  -2.785
REMARK UNBOUND:                -2.593
REMARK SMILES CCCCCCCCCCCCCCCCCCCCCC(=O)[O-]
REMARK SMILES IDX 12 1 11 2 10 3 9 4 8 5 7 6 6 7 5 8 4 9 3 10 2 11 1 12 13 13
REMARK SMILES IDX 14 14 15 15 16 16 17 17 18 18 19 19 20 20 21 21 22 22 23 23
REMARK SMILES IDX 24 24
REMARK H PARENT
REMARK Flexibility Score: inf
ROOT
ATOM      1  C   UNL     1     158.844 161.164 149.285  1.00  0.00     0.000 C 
ENDROOT
BRANCH   1   2
ATOM      2  C   UNL     1     158.488 162.208 150.359  1.00  0.00     0.000 C 
BRANCH   2   3
ATOM      3  C   UNL     1     159.117 161.936 151.738  1.00  0.00     0.000 C 
BRANCH   3   4
ATOM      4  C   UNL     1     158.648 160.608 152.350  1.00  0.00    -0.000 C 
BRANCH   4   5
ATOM      5  C   UNL     1     159.722 160.012 153.268  1.00  0.00    -0.000 C 
BRANCH   5   6
ATOM      6  C   UNL     1     160.858 159.381 152.446  1.00  0.00    -0.000 C 
BRANCH   6   7
ATOM      7  C   UNL     1     161.040 157.883 152.743  1.00  0.00    -0.000 C 
BRANCH   7   8
ATOM      8  C   UNL     1     160.767 156.997 151.516  1.00  0.00    -0.000 C 
BRANCH   8   9
ATOM      9  C   UNL     1     160.357 157.827 150.279  1.00  0.00    -0.000 C 
BRANCH   9  10
ATOM     10  C   UNL     1     159.153 157.246 149.513  1.00  0.00    -0.000 C 
BRANCH  10  11
ATOM     11  C   UNL     1     157.782 157.766 149.978  1.00  0.00    -0.003 C 
ATOM     12  C   UNL     1     156.693 156.695 149.935  1.00  0.00     0.004 C 
ENDBRANCH  10  11
ENDBRANCH   9  10
ENDBRANCH   8   9
ENDBRANCH   7   8
ENDBRANCH   6   7
ENDBRANCH   5   6
ENDBRANCH   4   5
ENDBRANCH   3   4
ENDBRANCH   2   3
ENDBRANCH   1   2
BRANCH   1  13
ATOM     13  C   UNL     1     160.308 161.263 148.825  1.00  0.00     0.000 C 
BRANCH  13  14
ATOM     14  C   UNL     1     160.701 162.703 148.428  1.00  0.00     0.000 C 
BRANCH  14  15
ATOM     15  C   UNL     1     161.836 163.296 149.282  1.00  0.00     0.000 C 
BRANCH  15  16
ATOM     16  C   UNL     1     162.694 162.218 149.965  1.00  0.00     0.000 C 
BRANCH  16  17
ATOM     17  C   UNL     1     164.111 162.704 150.319  1.00  0.00     0.000 C 
BRANCH  17  18
ATOM     18  C   UNL     1     164.422 164.162 149.935  1.00  0.00     0.000 C 
BRANCH  18  19
ATOM     19  C   UNL     1     164.871 165.019 151.132  1.00  0.00     0.000 C 
BRANCH  19  20
ATOM     20  C   UNL     1     164.186 166.397 151.169  1.00  0.00     0.006 C 
BRANCH  20  21
ATOM     21  C   UNL     1     163.244 166.666 149.983  1.00  0.00     0.053 C 
BRANCH  21  22
ATOM     22  C   UNL     1     162.645 168.040 150.039  1.00  0.00     0.041 C 
ATOM     23  O   UNL     1     163.276 169.027 149.573  1.00  0.00    -0.550 OA
ATOM     24  O   UNL     1     161.409 168.236 150.644  1.00  0.00    -0.550 OA
ENDBRANCH  21  22
ENDBRANCH  20  21
ENDBRANCH  19  20
ENDBRANCH  18  19
ENDBRANCH  17  18
ENDBRANCH  16  17
ENDBRANCH  15  16
ENDBRANCH  14  15
ENDBRANCH  13  14
ENDBRANCH   1  13
TORSDOF 20
ENDMDL
MODEL 9
REMARK VINA RESULT:    -5.073      2.974      8.210
REMARK INTER + INTRA:         -13.597
REMARK INTER:                 -11.197
REMARK INTRA:                  -2.400
REMARK UNBOUND:                -2.593
REMARK SMILES CCCCCCCCCCCCCCCCCCCCCC(=O)[O-]
REMARK SMILES IDX 12 1 11 2 10 3 9 4 8 5 7 6 6 7 5 8 4 9 3 10 2 11 1 12 13 13
REMARK SMILES IDX 14 14 15 15 16 16 17 17 18 18 19 19 20 20 21 21 22 22 23 23
REMARK SMILES IDX 24 24
REMARK H PARENT
REMARK Flexibility Score: inf
ROOT
ATOM      1  C   UNL     1     160.533 159.635 148.033  1.00  0.00     0.000 C 
ENDROOT
BRANCH   1   2
ATOM      2  C   UNL     1     159.861 161.019 148.098  1.00  0.00     0.000 C 
BRANCH   2   3
ATOM      3  C   UNL     1     160.288 161.874 149.306  1.00  0.00     0.000 C 
BRANCH   3   4
ATOM      4  C   UNL     1     161.761 161.664 149.685  1.00  0.00    -0.000 C 
BRANCH   4   5
ATOM      5  C   UNL     1     162.529 162.992 149.672  1.00  0.00    -0.000 C 
BRANCH   5   6
ATOM      6  C   UNL     1     163.955 162.806 150.216  1.00  0.00    -0.000 C 
BRANCH   6   7
ATOM      7  C   UNL     1     164.908 163.929 149.773  1.00  0.00    -0.000 C 
BRANCH   7   8
ATOM      8  C   UNL     1     165.195 164.941 150.896  1.00  0.00    -0.000 C 
BRANCH   8   9
ATOM      9  C   UNL     1     164.095 166.021 151.001  1.00  0.00    -0.000 C 
BRANCH   9  10
ATOM     10  C   UNL     1     163.560 166.495 149.636  1.00  0.00    -0.000 C 
BRANCH  10  11
ATOM     11  C   UNL     1     162.630 167.718 149.699  1.00  0.00    -0.003 C 
ATOM     12  C   UNL     1     162.501 168.296 151.108  1.00  0.00     0.004 C 
ENDBRANCH  10  11
ENDBRANCH   9  10
ENDBRANCH   8   9
ENDBRANCH   7   8
ENDBRANCH   6   7
ENDBRANCH   5   6
ENDBRANCH   4   5
ENDBRANCH   3   4
ENDBRANCH   2   3
ENDBRANCH   1   2
BRANCH   1  13
ATOM     13  C   UNL     1     159.521 158.494 147.835  1.00  0.00     0.000 C 
BRANCH  13  14
ATOM     14  C   UNL     1     158.273 158.657 148.729  1.00  0.00     0.000 C 
BRANCH  14  15
ATOM     15  C   UNL     1     158.496 158.233 150.192  1.00  0.00     0.000 C 
BRANCH  15  16
ATOM     16  C   UNL     1     159.517 157.092 150.333  1.00  0.00     0.000 C 
BRANCH  16  17
ATOM     17  C   UNL     1     160.620 157.387 151.366  1.00  0.00     0.000 C 
BRANCH  17  18
ATOM     18  C   UNL     1     160.670 158.838 151.878  1.00  0.00     0.000 C 
BRANCH  18  19
ATOM     19  C   UNL     1     160.406 158.954 153.390  1.00  0.00     0.000 C 
BRANCH  19  20
ATOM     20  C   UNL     1     159.422 160.085 153.739  1.00  0.00     0.006 C 
BRANCH  20  21
ATOM     21  C   UNL     1     159.173 161.081 152.593  1.00  0.00     0.053 C 
BRANCH  21  22
ATOM     22  C   UNL     1     158.119 162.089 152.941  1.00  0.00     0.041 C 
ATOM     23  O   UNL     1     157.923 163.087 152.196  1.00  0.00    -0.550 OA
ATOM     24  O   UNL     1     157.382 161.949 154.112  1.00  0.00    -0.550 OA
ENDBRANCH  21  22
ENDBRANCH  20  21
ENDBRANCH  19  20
ENDBRANCH  18  19
ENDBRANCH  17  18
ENDBRANCH  16  17
ENDBRANCH  15  16
ENDBRANCH  14  15
ENDBRANCH  13  14
ENDBRANCH   1  13
TORSDOF 20
ENDMDL
