MODEL 1
REMARK VINA RESULT:     9.514      0.000      0.000
REMARK INTER + INTRA:          23.379
REMARK INTER:                  25.086
REMARK INTRA:                  -1.707
REMARK UNBOUND:                -1.707
REMARK SMILES CCCCCCCCCCCCCCCCCCCCCCCCCCCCCC(=O)[O-]
REMARK SMILES IDX 16 1 17 2 18 3 19 4 20 5 21 6 22 7 23 8 24 9 25 10 26 11
REMARK SMILES IDX 27 12 28 13 29 14 30 15 31 16 32 17 15 18 14 19 13 20 12 21
REMARK SMILES IDX 11 22 10 23 9 24 8 25 7 26 6 27 5 28 4 29 3 30 2 31 1 32
REMARK H PARENT
REMARK Flexibility Score: inf
ROOT
ATOM      1  C   UNL     1       0.869   0.470   0.875  1.00  0.00     0.000 C 
ENDROOT
BRANCH   1   2
ATOM      2  C   UNL     1      -0.559   0.683   1.412  1.00  0.00     0.000 C 
BRANCH   2   3
ATOM      3  C   UNL     1      -0.788   2.128   1.903  1.00  0.00     0.000 C 
BRANCH   3   4
ATOM      4  C   UNL     1      -2.271   2.479   2.115  1.00  0.00     0.000 C 
BRANCH   4   5
ATOM      5  C   UNL     1      -2.665   2.535   3.598  1.00  0.00     0.000 C 
BRANCH   5   6
ATOM      6  C   UNL     1      -2.617   3.975   4.129  1.00  0.00     0.000 C 
BRANCH   6   7
ATOM      7  C   UNL     1      -2.957   4.075   5.628  1.00  0.00     0.000 C 
BRANCH   7   8
ATOM      8  C   UNL     1      -3.690   2.854   6.211  1.00  0.00     0.000 C 
BRANCH   8   9
ATOM      9  C   UNL     1      -3.760   2.875   7.745  1.00  0.00     0.000 C 
BRANCH   9  10
ATOM     10  C   UNL     1      -5.198   3.129   8.224  1.00  0.00     0.000 C 
BRANCH  10  11
ATOM     11  C   UNL     1      -5.271   3.457   9.724  1.00  0.00     0.000 C 
BRANCH  11  12
ATOM     12  C   UNL     1      -5.852   4.855   9.992  1.00  0.00     0.000 C 
BRANCH  12  13
ATOM     13  C   UNL     1      -4.873   5.985   9.627  1.00  0.00     0.006 C 
BRANCH  13  14
ATOM     14  C   UNL     1      -3.400   5.662   9.925  1.00  0.00     0.053 C 
BRANCH  14  15
ATOM     15  C   UNL     1      -2.465   6.464   9.072  1.00  0.00     0.041 C 
ATOM     16  O   UNL     1      -1.556   7.155   9.603  1.00  0.00    -0.550 OA
ATOM     17  O   UNL     1      -2.622   6.478   7.691  1.00  0.00    -0.550 OA
ENDBRANCH  14  15
ENDBRANCH  13  14
ENDBRANCH  12  13
ENDBRANCH  11  12
ENDBRANCH  10  11
ENDBRANCH   9  10
ENDBRANCH   8   9
ENDBRANCH   7   8
ENDBRANCH   6   7
ENDBRANCH   5   6
ENDBRANCH   4   5
ENDBRANCH   3   4
ENDBRANCH   2   3
ENDBRANCH   1   2
BRANCH   1  18
ATOM     18  C   UNL     1       1.371   1.671   0.046  1.00  0.00     0.000 C 
BRANCH  18  19
ATOM     19  C   UNL     1       2.674   1.392  -0.723  1.00  0.00     0.000 C 
BRANCH  19  20
ATOM     20  C   UNL     1       3.473   2.669  -1.031  1.00  0.00     0.000 C 
BRANCH  20  21
ATOM     21  C   UNL     1       2.944   3.893  -0.269  1.00  0.00     0.000 C 
BRANCH  21  22
ATOM     22  C   UNL     1       2.966   5.175  -1.121  1.00  0.00     0.000 C 
BRANCH  22  23
ATOM     23  C   UNL     1       1.740   6.075  -0.879  1.00  0.00     0.000 C 
BRANCH  23  24
ATOM     24  C   UNL     1       1.822   7.470  -1.529  1.00  0.00    -0.000 C 
BRANCH  24  25
ATOM     25  C   UNL     1       0.573   8.327  -1.263  1.00  0.00    -0.000 C 
BRANCH  25  26
ATOM     26  C   UNL     1      -0.658   7.827  -2.037  1.00  0.00    -0.000 C 
BRANCH  26  27
ATOM     27  C   UNL     1      -1.942   7.865  -1.188  1.00  0.00    -0.000 C 
BRANCH  27  28
ATOM     28  C   UNL     1      -1.842   8.850  -0.013  1.00  0.00    -0.000 C 
BRANCH  28  29
ATOM     29  C   UNL     1      -3.219   9.234   0.555  1.00  0.00    -0.000 C 
BRANCH  29  30
ATOM     30  C   UNL     1      -4.386   8.697  -0.293  1.00  0.00    -0.000 C 
BRANCH  30  31
ATOM     31  C   UNL     1      -4.958   9.699  -1.312  1.00  0.00    -0.003 C 
ATOM     32  C   UNL     1      -4.731   9.274  -2.763  1.00  0.00     0.004 C 
ENDBRANCH  30  31
ENDBRANCH  29  30
ENDBRANCH  28  29
ENDBRANCH  27  28
ENDBRANCH  26  27
ENDBRANCH  25  26
ENDBRANCH  24  25
ENDBRANCH  23  24
ENDBRANCH  22  23
ENDBRANCH  21  22
ENDBRANCH  20  21
ENDBRANCH  19  20
ENDBRANCH  18  19
ENDBRANCH   1  18
TORSDOF 28
ENDMDL
MODEL 2
REMARK VINA RESULT:     9.856      1.530      2.258
REMARK INTER + INTRA:          24.283
REMARK INTER:                  26.172
REMARK INTRA:                  -1.889
REMARK UNBOUND:                -1.707
REMARK SMILES CCCCCCCCCCCCCCCCCCCCCCCCCCCCCC(=O)[O-]
REMARK SMILES IDX 16 1 17 2 18 3 19 4 20 5 21 6 22 7 23 8 24 9 25 10 26 11
REMARK SMILES IDX 27 12 28 13 29 14 30 15 31 16 32 17 15 18 14 19 13 20 12 21
REMARK SMILES IDX 11 22 10 23 9 24 8 25 7 26 6 27 5 28 4 29 3 30 2 31 1 32
REMARK H PARENT
REMARK Flexibility Score: inf
ROOT
ATOM      1  C   UNL     1       1.471   0.517   0.026  1.00  0.00     0.000 C 
ENDROOT
BRANCH   1   2
ATOM      2  C   UNL     1       0.482   0.482   1.206  1.00  0.00     0.000 C 
BRANCH   2   3
ATOM      3  C   UNL     1      -0.555   1.622   1.133  1.00  0.00     0.000 C 
BRANCH   3   4
ATOM      4  C   UNL     1      -1.654   1.525   2.205  1.00  0.00     0.000 C 
BRANCH   4   5
ATOM      5  C   UNL     1      -2.511   2.795   2.298  1.00  0.00     0.000 C 
BRANCH   5   6
ATOM      6  C   UNL     1      -3.083   2.974   3.712  1.00  0.00     0.000 C 
BRANCH   6   7
ATOM      7  C   UNL     1      -2.385   4.093   4.507  1.00  0.00     0.000 C 
BRANCH   7   8
ATOM      8  C   UNL     1      -3.035   4.432   5.859  1.00  0.00     0.000 C 
BRANCH   8   9
ATOM      9  C   UNL     1      -3.496   5.895   5.951  1.00  0.00     0.000 C 
BRANCH   9  10
ATOM     10  C   UNL     1      -2.997   6.546   7.251  1.00  0.00     0.000 C 
BRANCH  10  11
ATOM     11  C   UNL     1      -2.926   5.549   8.419  1.00  0.00     0.000 C 
BRANCH  11  12
ATOM     12  C   UNL     1      -3.805   5.974   9.608  1.00  0.00     0.000 C 
BRANCH  12  13
ATOM     13  C   UNL     1      -4.697   4.831  10.125  1.00  0.00     0.006 C 
BRANCH  13  14
ATOM     14  C   UNL     1      -5.624   4.225   9.059  1.00  0.00     0.053 C 
BRANCH  14  15
ATOM     15  C   UNL     1      -5.158   2.874   8.609  1.00  0.00     0.041 C 
ATOM     16  O   UNL     1      -4.001   2.472   8.905  1.00  0.00    -0.550 OA
ATOM     17  O   UNL     1      -5.986   2.076   7.830  1.00  0.00    -0.550 OA
ENDBRANCH  14  15
ENDBRANCH  13  14
ENDBRANCH  12  13
ENDBRANCH  11  12
ENDBRANCH  10  11
ENDBRANCH   9  10
ENDBRANCH   8   9
ENDBRANCH   7   8
ENDBRANCH   6   7
ENDBRANCH   5   6
ENDBRANCH   4   5
ENDBRANCH   3   4
ENDBRANCH   2   3
ENDBRANCH   1   2
BRANCH   1  18
ATOM     18  C   UNL     1       1.832   1.957  -0.397  1.00  0.00     0.000 C 
BRANCH  18  19
ATOM     19  C   UNL     1       3.322   2.151  -0.728  1.00  0.00     0.000 C 
BRANCH  19  20
ATOM     20  C   UNL     1       3.665   3.599  -1.117  1.00  0.00     0.000 C 
BRANCH  20  21
ATOM     21  C   UNL     1       2.751   4.625  -0.433  1.00  0.00     0.000 C 
BRANCH  21  22
ATOM     22  C   UNL     1       2.653   5.946  -1.217  1.00  0.00     0.000 C 
BRANCH  22  23
ATOM     23  C   UNL     1       1.254   6.586  -1.140  1.00  0.00     0.000 C 
BRANCH  23  24
ATOM     24  C   UNL     1       1.116   7.929  -1.881  1.00  0.00    -0.000 C 
BRANCH  24  25
ATOM     25  C   UNL     1      -0.344   8.273  -2.225  1.00  0.00    -0.000 C 
BRANCH  25  26
ATOM     26  C   UNL     1      -1.327   7.824  -1.132  1.00  0.00    -0.000 C 
BRANCH  26  27
ATOM     27  C   UNL     1      -1.195   8.658   0.156  1.00  0.00    -0.000 C 
BRANCH  27  28
ATOM     28  C   UNL     1      -2.489   9.405   0.509  1.00  0.00    -0.000 C 
BRANCH  28  29
ATOM     29  C   UNL     1      -3.751   8.654   0.048  1.00  0.00    -0.000 C 
BRANCH  29  30
ATOM     30  C   UNL     1      -4.825   9.591  -0.532  1.00  0.00    -0.000 C 
BRANCH  30  31
ATOM     31  C   UNL     1      -5.362   9.178  -1.915  1.00  0.00    -0.003 C 
ATOM     32  C   UNL     1      -4.306   9.258  -3.017  1.00  0.00     0.004 C 
ENDBRANCH  30  31
ENDBRANCH  29  30
ENDBRANCH  28  29
ENDBRANCH  27  28
ENDBRANCH  26  27
ENDBRANCH  25  26
ENDBRANCH  24  25
ENDBRANCH  23  24
ENDBRANCH  22  23
ENDBRANCH  21  22
ENDBRANCH  20  21
ENDBRANCH  19  20
ENDBRANCH  18  19
ENDBRANCH   1  18
TORSDOF 28
ENDMDL
MODEL 3
REMARK VINA RESULT:    10.065      1.467      2.514
REMARK INTER + INTRA:          24.833
REMARK INTER:                  26.183
REMARK INTRA:                  -1.350
REMARK UNBOUND:                -1.707
REMARK SMILES CCCCCCCCCCCCCCCCCCCCCCCCCCCCCC(=O)[O-]
REMARK SMILES IDX 16 1 17 2 18 3 19 4 20 5 21 6 22 7 23 8 24 9 25 10 26 11
REMARK SMILES IDX 27 12 28 13 29 14 30 15 31 16 32 17 15 18 14 19 13 20 12 21
REMARK SMILES IDX 11 22 10 23 9 24 8 25 7 26 6 27 5 28 4 29 3 30 2 31 1 32
REMARK H PARENT
REMARK Flexibility Score: inf
ROOT
ATOM      1  C   UNL     1      -0.090   1.975   1.129  1.00  0.00     0.000 C 
ENDROOT
BRANCH   1   2
ATOM      2  C   UNL     1      -1.439   1.495   1.696  1.00  0.00     0.000 C 
BRANCH   2   3
ATOM      3  C   UNL     1      -2.356   2.670   2.094  1.00  0.00     0.000 C 
BRANCH   3   4
ATOM      4  C   UNL     1      -2.669   2.725   3.599  1.00  0.00     0.000 C 
BRANCH   4   5
ATOM      5  C   UNL     1      -2.352   4.091   4.225  1.00  0.00     0.000 C 
BRANCH   5   6
ATOM      6  C   UNL     1      -2.967   4.213   5.627  1.00  0.00     0.000 C 
BRANCH   6   7
ATOM      7  C   UNL     1      -3.599   5.592   5.889  1.00  0.00     0.000 C 
BRANCH   7   8
ATOM      8  C   UNL     1      -3.026   6.350   7.099  1.00  0.00     0.000 C 
BRANCH   8   9
ATOM      9  C   UNL     1      -2.627   5.420   8.254  1.00  0.00     0.000 C 
BRANCH   9  10
ATOM     10  C   UNL     1      -2.638   6.173   9.593  1.00  0.00     0.000 C 
BRANCH  10  11
ATOM     11  C   UNL     1      -4.062   6.501  10.073  1.00  0.00     0.000 C 
BRANCH  11  12
ATOM     12  C   UNL     1      -5.139   5.751   9.271  1.00  0.00     0.000 C 
BRANCH  12  13
ATOM     13  C   UNL     1      -5.839   4.658  10.098  1.00  0.00     0.006 C 
BRANCH  13  14
ATOM     14  C   UNL     1      -5.093   3.314  10.125  1.00  0.00     0.053 C 
BRANCH  14  15
ATOM     15  C   UNL     1      -4.881   2.761   8.749  1.00  0.00     0.041 C 
ATOM     16  O   UNL     1      -3.714   2.562   8.317  1.00  0.00    -0.550 OA
ATOM     17  O   UNL     1      -5.972   2.503   7.927  1.00  0.00    -0.550 OA
ENDBRANCH  14  15
ENDBRANCH  13  14
ENDBRANCH  12  13
ENDBRANCH  11  12
ENDBRANCH  10  11
ENDBRANCH   9  10
ENDBRANCH   8   9
ENDBRANCH   7   8
ENDBRANCH   6   7
ENDBRANCH   5   6
ENDBRANCH   4   5
ENDBRANCH   3   4
ENDBRANCH   2   3
ENDBRANCH   1   2
BRANCH   1  18
ATOM     18  C   UNL     1       0.902   0.814   0.907  1.00  0.00     0.000 C 
BRANCH  18  19
ATOM     19  C   UNL     1       1.357   0.656  -0.554  1.00  0.00     0.000 C 
BRANCH  19  20
ATOM     20  C   UNL     1       2.876   0.822  -0.730  1.00  0.00     0.000 C 
BRANCH  20  21
ATOM     21  C   UNL     1       3.387   2.168  -0.195  1.00  0.00     0.000 C 
BRANCH  21  22
ATOM     22  C   UNL     1       2.959   3.356  -1.075  1.00  0.00     0.000 C 
BRANCH  22  23
ATOM     23  C   UNL     1       3.192   4.718  -0.396  1.00  0.00     0.000 C 
BRANCH  23  24
ATOM     24  C   UNL     1       2.059   5.743  -0.596  1.00  0.00    -0.000 C 
BRANCH  24  25
ATOM     25  C   UNL     1       2.429   6.854  -1.594  1.00  0.00    -0.000 C 
BRANCH  25  26
ATOM     26  C   UNL     1       1.262   7.820  -1.857  1.00  0.00    -0.000 C 
BRANCH  26  27
ATOM     27  C   UNL     1      -0.096   7.228  -1.440  1.00  0.00    -0.000 C 
BRANCH  27  28
ATOM     28  C   UNL     1      -1.248   8.233  -1.591  1.00  0.00    -0.000 C 
BRANCH  28  29
ATOM     29  C   UNL     1      -2.032   8.435  -0.282  1.00  0.00    -0.000 C 
BRANCH  29  30
ATOM     30  C   UNL     1      -3.341   9.219  -0.485  1.00  0.00    -0.000 C 
BRANCH  30  31
ATOM     31  C   UNL     1      -4.170   8.786  -1.708  1.00  0.00    -0.003 C 
ATOM     32  C   UNL     1      -5.627   9.242  -1.636  1.00  0.00     0.004 C 
ENDBRANCH  30  31
ENDBRANCH  29  30
ENDBRANCH  28  29
ENDBRANCH  27  28
ENDBRANCH  26  27
ENDBRANCH  25  26
ENDBRANCH  24  25
ENDBRANCH  23  24
ENDBRANCH  22  23
ENDBRANCH  21  22
ENDBRANCH  20  21
ENDBRANCH  19  20
ENDBRANCH  18  19
ENDBRANCH   1  18
TORSDOF 28
ENDMDL
MODEL 4
REMARK VINA RESULT:    10.127      2.981      9.842
REMARK INTER + INTRA:          24.996
REMARK INTER:                  26.692
REMARK INTRA:                  -1.696
REMARK UNBOUND:                -1.707
REMARK SMILES CCCCCCCCCCCCCCCCCCCCCCCCCCCCCC(=O)[O-]
REMARK SMILES IDX 16 1 17 2 18 3 19 4 20 5 21 6 22 7 23 8 24 9 25 10 26 11
REMARK SMILES IDX 27 12 28 13 29 14 30 15 31 16 32 17 15 18 14 19 13 20 12 21
REMARK SMILES IDX 11 22 10 23 9 24 8 25 7 26 6 27 5 28 4 29 3 30 2 31 1 32
REMARK H PARENT
REMARK Flexibility Score: inf
ROOT
ATOM      1  C   UNL     1      -0.745   2.008   1.477  1.00  0.00     0.000 C 
ENDROOT
BRANCH   1   2
ATOM      2  C   UNL     1       0.486   2.680   0.840  1.00  0.00     0.000 C 
BRANCH   2   3
ATOM      3  C   UNL     1       1.339   1.685   0.026  1.00  0.00     0.000 C 
BRANCH   3   4
ATOM      4  C   UNL     1       2.483   2.352  -0.758  1.00  0.00     0.000 C 
BRANCH   4   5
ATOM      5  C   UNL     1       2.994   3.637  -0.092  1.00  0.00     0.000 C 
BRANCH   5   6
ATOM      6  C   UNL     1       3.074   4.790  -1.102  1.00  0.00     0.000 C 
BRANCH   6   7
ATOM      7  C   UNL     1       1.948   5.826  -0.924  1.00  0.00     0.000 C 
BRANCH   7   8
ATOM      8  C   UNL     1       2.337   7.273  -1.271  1.00  0.00     0.000 C 
BRANCH   8   9
ATOM      9  C   UNL     1       1.185   8.068  -1.904  1.00  0.00     0.000 C 
BRANCH   9  10
ATOM     10  C   UNL     1      -0.129   7.275  -1.835  1.00  0.00     0.000 C 
BRANCH  10  11
ATOM     11  C   UNL     1      -1.361   8.186  -1.708  1.00  0.00     0.000 C 
BRANCH  11  12
ATOM     12  C   UNL     1      -1.740   8.460  -0.243  1.00  0.00     0.000 C 
BRANCH  12  13
ATOM     13  C   UNL     1      -3.252   8.327   0.014  1.00  0.00     0.006 C 
BRANCH  13  14
ATOM     14  C   UNL     1      -4.073   9.556  -0.408  1.00  0.00     0.053 C 
BRANCH  14  15
ATOM     15  C   UNL     1      -4.862   9.304  -1.656  1.00  0.00     0.041 C 
ATOM     16  O   UNL     1      -4.271   9.096  -2.749  1.00  0.00    -0.550 OA
ATOM     17  O   UNL     1      -6.251   9.339  -1.620  1.00  0.00    -0.550 OA
ENDBRANCH  14  15
ENDBRANCH  13  14
ENDBRANCH  12  13
ENDBRANCH  11  12
ENDBRANCH  10  11
ENDBRANCH   9  10
ENDBRANCH   8   9
ENDBRANCH   7   8
ENDBRANCH   6   7
ENDBRANCH   5   6
ENDBRANCH   4   5
ENDBRANCH   3   4
ENDBRANCH   2   3
ENDBRANCH   1   2
BRANCH   1  18
ATOM     18  C   UNL     1      -1.315   2.821   2.658  1.00  0.00     0.000 C 
BRANCH  18  19
ATOM     19  C   UNL     1      -2.852   2.852   2.705  1.00  0.00     0.000 C 
BRANCH  19  20
ATOM     20  C   UNL     1      -3.405   3.011   4.132  1.00  0.00     0.000 C 
BRANCH  20  21
ATOM     21  C   UNL     1      -2.521   3.910   5.009  1.00  0.00     0.000 C 
BRANCH  21  22
ATOM     22  C   UNL     1      -3.199   5.246   5.360  1.00  0.00     0.000 C 
BRANCH  22  23
ATOM     23  C   UNL     1      -3.559   5.360   6.853  1.00  0.00     0.000 C 
BRANCH  23  24
ATOM     24  C   UNL     1      -2.719   6.380   7.645  1.00  0.00    -0.000 C 
BRANCH  24  25
ATOM     25  C   UNL     1      -2.493   5.959   9.107  1.00  0.00    -0.000 C 
BRANCH  25  26
ATOM     26  C   UNL     1      -3.572   6.512  10.052  1.00  0.00    -0.000 C 
BRANCH  26  27
ATOM     27  C   UNL     1      -4.982   6.008   9.693  1.00  0.00    -0.000 C 
BRANCH  27  28
ATOM     28  C   UNL     1      -5.214   4.553  10.124  1.00  0.00    -0.000 C 
BRANCH  28  29
ATOM     29  C   UNL     1      -6.133   3.788   9.155  1.00  0.00    -0.000 C 
BRANCH  29  30
ATOM     30  C   UNL     1      -5.354   2.887   8.179  1.00  0.00    -0.000 C 
BRANCH  30  31
ATOM     31  C   UNL     1      -3.843   2.789   8.458  1.00  0.00    -0.003 C 
ATOM     32  C   UNL     1      -3.198   1.550   7.838  1.00  0.00     0.004 C 
ENDBRANCH  30  31
ENDBRANCH  29  30
ENDBRANCH  28  29
ENDBRANCH  27  28
ENDBRANCH  26  27
ENDBRANCH  25  26
ENDBRANCH  24  25
ENDBRANCH  23  24
ENDBRANCH  22  23
ENDBRANCH  21  22
ENDBRANCH  20  21
ENDBRANCH  19  20
ENDBRANCH  18  19
ENDBRANCH   1  18
TORSDOF 28
ENDMDL
MODEL 5
REMARK VINA RESULT:    11.065      2.922      9.805
REMARK INTER + INTRA:          27.470
REMARK INTER:                  28.469
REMARK INTRA:                  -0.999
REMARK UNBOUND:                -1.707
REMARK SMILES CCCCCCCCCCCCCCCCCCCCCCCCCCCCCC(=O)[O-]
REMARK SMILES IDX 16 1 17 2 18 3 19 4 20 5 21 6 22 7 23 8 24 9 25 10 26 11
REMARK SMILES IDX 27 12 28 13 29 14 30 15 31 16 32 17 15 18 14 19 13 20 12 21
REMARK SMILES IDX 11 22 10 23 9 24 8 25 7 26 6 27 5 28 4 29 3 30 2 31 1 32
REMARK H PARENT
REMARK Flexibility Score: inf
ROOT
ATOM      1  C   UNL     1       0.556   2.076   0.895  1.00  0.00     0.000 C 
ENDROOT
BRANCH   1   2
ATOM      2  C   UNL     1       1.136   0.731   0.421  1.00  0.00     0.000 C 
BRANCH   2   3
ATOM      3  C   UNL     1       2.232   0.913  -0.650  1.00  0.00     0.000 C 
BRANCH   3   4
ATOM      4  C   UNL     1       3.220   2.050  -0.334  1.00  0.00     0.000 C 
BRANCH   4   5
ATOM      5  C   UNL     1       2.998   3.294  -1.206  1.00  0.00     0.000 C 
BRANCH   5   6
ATOM      6  C   UNL     1       3.007   4.573  -0.358  1.00  0.00     0.000 C 
BRANCH   6   7
ATOM      7  C   UNL     1       1.885   5.556  -0.741  1.00  0.00     0.000 C 
BRANCH   7   8
ATOM      8  C   UNL     1       2.350   6.805  -1.510  1.00  0.00     0.000 C 
BRANCH   8   9
ATOM      9  C   UNL     1       1.328   7.951  -1.466  1.00  0.00     0.000 C 
BRANCH   9  10
ATOM     10  C   UNL     1      -0.108   7.406  -1.500  1.00  0.00     0.000 C 
BRANCH  10  11
ATOM     11  C   UNL     1      -1.157   8.492  -1.213  1.00  0.00     0.000 C 
BRANCH  11  12
ATOM     12  C   UNL     1      -2.520   7.901  -0.815  1.00  0.00     0.000 C 
BRANCH  12  13
ATOM     13  C   UNL     1      -3.234   8.734   0.265  1.00  0.00     0.006 C 
BRANCH  13  14
ATOM     14  C   UNL     1      -4.298   9.699  -0.285  1.00  0.00     0.053 C 
BRANCH  14  15
ATOM     15  C   UNL     1      -4.895   9.205  -1.567  1.00  0.00     0.041 C 
ATOM     16  O   UNL     1      -5.772   8.301  -1.553  1.00  0.00    -0.550 OA
ATOM     17  O   UNL     1      -4.453   9.716  -2.782  1.00  0.00    -0.550 OA
ENDBRANCH  14  15
ENDBRANCH  13  14
ENDBRANCH  12  13
ENDBRANCH  11  12
ENDBRANCH  10  11
ENDBRANCH   9  10
ENDBRANCH   8   9
ENDBRANCH   7   8
ENDBRANCH   6   7
ENDBRANCH   5   6
ENDBRANCH   4   5
ENDBRANCH   3   4
ENDBRANCH   2   3
ENDBRANCH   1   2
BRANCH   1  18
ATOM     18  C   UNL     1      -0.861   1.929   1.489  1.00  0.00     0.000 C 
BRANCH  18  19
ATOM     19  C   UNL     1      -1.152   2.895   2.650  1.00  0.00     0.000 C 
BRANCH  19  20
ATOM     20  C   UNL     1      -2.652   3.030   2.957  1.00  0.00     0.000 C 
BRANCH  20  21
ATOM     21  C   UNL     1      -2.937   3.164   4.460  1.00  0.00     0.000 C 
BRANCH  21  22
ATOM     22  C   UNL     1      -2.640   4.576   4.994  1.00  0.00     0.000 C 
BRANCH  22  23
ATOM     23  C   UNL     1      -3.071   4.764   6.461  1.00  0.00     0.000 C 
BRANCH  23  24
ATOM     24  C   UNL     1      -3.415   6.213   6.854  1.00  0.00    -0.000 C 
BRANCH  24  25
ATOM     25  C   UNL     1      -4.520   6.296   7.921  1.00  0.00    -0.000 C 
BRANCH  25  26
ATOM     26  C   UNL     1      -4.029   5.857   9.310  1.00  0.00    -0.000 C 
BRANCH  26  27
ATOM     27  C   UNL     1      -4.765   4.608   9.827  1.00  0.00    -0.000 C 
BRANCH  27  28
ATOM     28  C   UNL     1      -4.950   3.540   8.738  1.00  0.00    -0.000 C 
BRANCH  28  29
ATOM     29  C   UNL     1      -6.318   2.842   8.821  1.00  0.00    -0.000 C 
BRANCH  29  30
ATOM     30  C   UNL     1      -7.073   3.158  10.125  1.00  0.00    -0.000 C 
BRANCH  30  31
ATOM     31  C   UNL     1      -7.885   4.465  10.100  1.00  0.00    -0.003 C 
ATOM     32  C   UNL     1      -9.375   4.240   9.842  1.00  0.00     0.004 C 
ENDBRANCH  30  31
ENDBRANCH  29  30
ENDBRANCH  28  29
ENDBRANCH  27  28
ENDBRANCH  26  27
ENDBRANCH  25  26
ENDBRANCH  24  25
ENDBRANCH  23  24
ENDBRANCH  22  23
ENDBRANCH  21  22
ENDBRANCH  20  21
ENDBRANCH  19  20
ENDBRANCH  18  19
ENDBRANCH   1  18
TORSDOF 28
ENDMDL
MODEL 6
REMARK VINA RESULT:    11.387      2.356     10.092
REMARK INTER + INTRA:          28.320
REMARK INTER:                  30.185
REMARK INTRA:                  -1.865
REMARK UNBOUND:                -1.707
REMARK SMILES CCCCCCCCCCCCCCCCCCCCCCCCCCCCCC(=O)[O-]
REMARK SMILES IDX 16 1 17 2 18 3 19 4 20 5 21 6 22 7 23 8 24 9 25 10 26 11
REMARK SMILES IDX 27 12 28 13 29 14 30 15 31 16 32 17 15 18 14 19 13 20 12 21
REMARK SMILES IDX 11 22 10 23 9 24 8 25 7 26 6 27 5 28 4 29 3 30 2 31 1 32
REMARK H PARENT
REMARK Flexibility Score: inf
ROOT
ATOM      1  C   UNL     1      -0.949   3.059   3.028  1.00  0.00     0.000 C 
ENDROOT
BRANCH   1   2
ATOM      2  C   UNL     1      -1.125   2.038   1.888  1.00  0.00     0.000 C 
BRANCH   2   3
ATOM      3  C   UNL     1      -0.051   2.197   0.791  1.00  0.00     0.000 C 
BRANCH   3   4
ATOM      4  C   UNL     1       0.813   0.940   0.589  1.00  0.00     0.000 C 
BRANCH   4   5
ATOM      5  C   UNL     1       2.209   1.257   0.034  1.00  0.00     0.000 C 
BRANCH   5   6
ATOM      6  C   UNL     1       2.165   2.460  -0.919  1.00  0.00     0.000 C 
BRANCH   6   7
ATOM      7  C   UNL     1       2.787   3.732  -0.313  1.00  0.00     0.000 C 
BRANCH   7   8
ATOM      8  C   UNL     1       1.909   4.992  -0.405  1.00  0.00     0.000 C 
BRANCH   8   9
ATOM      9  C   UNL     1       2.407   5.993  -1.458  1.00  0.00     0.000 C 
BRANCH   9  10
ATOM     10  C   UNL     1       2.066   7.434  -1.049  1.00  0.00     0.000 C 
BRANCH  10  11
ATOM     11  C   UNL     1       0.963   8.050  -1.925  1.00  0.00     0.000 C 
BRANCH  11  12
ATOM     12  C   UNL     1      -0.430   7.486  -1.599  1.00  0.00     0.000 C 
BRANCH  12  13
ATOM     13  C   UNL     1      -1.414   8.572  -1.127  1.00  0.00     0.006 C 
BRANCH  13  14
ATOM     14  C   UNL     1      -2.726   8.023  -0.544  1.00  0.00     0.053 C 
BRANCH  14  15
ATOM     15  C   UNL     1      -3.662   9.120  -0.137  1.00  0.00     0.041 C 
ATOM     16  O   UNL     1      -3.536   9.678   0.986  1.00  0.00    -0.550 OA
ATOM     17  O   UNL     1      -4.699   9.499  -0.981  1.00  0.00    -0.550 OA
ENDBRANCH  14  15
ENDBRANCH  13  14
ENDBRANCH  12  13
ENDBRANCH  11  12
ENDBRANCH  10  11
ENDBRANCH   9  10
ENDBRANCH   8   9
ENDBRANCH   7   8
ENDBRANCH   6   7
ENDBRANCH   5   6
ENDBRANCH   4   5
ENDBRANCH   3   4
ENDBRANCH   2   3
ENDBRANCH   1   2
BRANCH   1  18
ATOM     18  C   UNL     1      -2.299   3.583   3.562  1.00  0.00     0.000 C 
BRANCH  18  19
ATOM     19  C   UNL     1      -2.274   3.953   5.055  1.00  0.00     0.000 C 
BRANCH  19  20
ATOM     20  C   UNL     1      -3.314   5.024   5.424  1.00  0.00     0.000 C 
BRANCH  20  21
ATOM     21  C   UNL     1      -3.439   5.225   6.942  1.00  0.00     0.000 C 
BRANCH  21  22
ATOM     22  C   UNL     1      -2.604   6.413   7.451  1.00  0.00     0.000 C 
BRANCH  22  23
ATOM     23  C   UNL     1      -2.156   6.245   8.916  1.00  0.00     0.000 C 
BRANCH  23  24
ATOM     24  C   UNL     1      -3.003   7.019   9.944  1.00  0.00    -0.000 C 
BRANCH  24  25
ATOM     25  C   UNL     1      -4.511   6.748   9.800  1.00  0.00    -0.000 C 
BRANCH  25  26
ATOM     26  C   UNL     1      -4.879   5.290  10.117  1.00  0.00    -0.000 C 
BRANCH  26  27
ATOM     27  C   UNL     1      -6.401   5.055  10.125  1.00  0.00    -0.000 C 
BRANCH  27  28
ATOM     28  C   UNL     1      -6.780   3.630   9.695  1.00  0.00    -0.000 C 
BRANCH  28  29
ATOM     29  C   UNL     1      -5.564   2.808   9.235  1.00  0.00    -0.000 C 
BRANCH  29  30
ATOM     30  C   UNL     1      -5.525   2.603   7.710  1.00  0.00    -0.000 C 
BRANCH  30  31
ATOM     31  C   UNL     1      -4.239   1.942   7.181  1.00  0.00    -0.003 C 
ATOM     32  C   UNL     1      -3.184   1.729   8.266  1.00  0.00     0.004 C 
ENDBRANCH  30  31
ENDBRANCH  29  30
ENDBRANCH  28  29
ENDBRANCH  27  28
ENDBRANCH  26  27
ENDBRANCH  25  26
ENDBRANCH  24  25
ENDBRANCH  23  24
ENDBRANCH  22  23
ENDBRANCH  21  22
ENDBRANCH  20  21
ENDBRANCH  19  20
ENDBRANCH  18  19
ENDBRANCH   1  18
TORSDOF 28
ENDMDL
MODEL 7
REMARK VINA RESULT:    12.437      2.897      5.218
REMARK INTER + INTRA:          31.087
REMARK INTER:                  32.811
REMARK INTRA:                  -1.724
REMARK UNBOUND:                -1.707
REMARK SMILES CCCCCCCCCCCCCCCCCCCCCCCCCCCCCC(=O)[O-]
REMARK SMILES IDX 16 1 17 2 18 3 19 4 20 5 21 6 22 7 23 8 24 9 25 10 26 11
REMARK SMILES IDX 27 12 28 13 29 14 30 15 31 16 32 17 15 18 14 19 13 20 12 21
REMARK SMILES IDX 11 22 10 23 9 24 8 25 7 26 6 27 5 28 4 29 3 30 2 31 1 32
REMARK H PARENT
REMARK Flexibility Score: inf
ROOT
ATOM      1  C   UNL     1      -2.400   4.221   4.853  1.00  0.00     0.000 C 
ENDROOT
BRANCH   1   2
ATOM      2  C   UNL     1      -3.308   4.606   6.036  1.00  0.00     0.000 C 
BRANCH   2   3
ATOM      3  C   UNL     1      -3.266   6.120   6.335  1.00  0.00     0.000 C 
BRANCH   3   4
ATOM      4  C   UNL     1      -2.657   6.460   7.706  1.00  0.00     0.000 C 
BRANCH   4   5
ATOM      5  C   UNL     1      -2.844   5.339   8.738  1.00  0.00     0.000 C 
BRANCH   5   6
ATOM      6  C   UNL     1      -3.777   5.782   9.873  1.00  0.00     0.000 C 
BRANCH   6   7
ATOM      7  C   UNL     1      -5.268   5.689   9.498  1.00  0.00     0.000 C 
BRANCH   7   8
ATOM      8  C   UNL     1      -5.890   4.290   9.653  1.00  0.00     0.000 C 
BRANCH   8   9
ATOM      9  C   UNL     1      -4.864   3.158   9.499  1.00  0.00     0.000 C 
BRANCH   9  10
ATOM     10  C   UNL     1      -5.030   2.449   8.146  1.00  0.00     0.000 C 
BRANCH  10  11
ATOM     11  C   UNL     1      -3.687   2.001   7.546  1.00  0.00     0.000 C 
BRANCH  11  12
ATOM     12  C   UNL     1      -2.667   1.599   8.625  1.00  0.00     0.000 C 
BRANCH  12  13
ATOM     13  C   UNL     1      -1.818   0.382   8.214  1.00  0.00     0.006 C 
BRANCH  13  14
ATOM     14  C   UNL     1      -1.633  -0.662   9.328  1.00  0.00     0.053 C 
BRANCH  14  15
ATOM     15  C   UNL     1      -1.470  -2.046   8.780  1.00  0.00     0.041 C 
ATOM     16  O   UNL     1      -1.419  -2.234   7.536  1.00  0.00    -0.550 OA
ATOM     17  O   UNL     1      -1.412  -3.134   9.644  1.00  0.00    -0.550 OA
ENDBRANCH  14  15
ENDBRANCH  13  14
ENDBRANCH  12  13
ENDBRANCH  11  12
ENDBRANCH  10  11
ENDBRANCH   9  10
ENDBRANCH   8   9
ENDBRANCH   7   8
ENDBRANCH   6   7
ENDBRANCH   5   6
ENDBRANCH   4   5
ENDBRANCH   3   4
ENDBRANCH   2   3
ENDBRANCH   1   2
BRANCH   1  18
ATOM     18  C   UNL     1      -3.180   3.536   3.711  1.00  0.00     0.000 C 
BRANCH  18  19
ATOM     19  C   UNL     1      -2.483   2.286   3.146  1.00  0.00     0.000 C 
BRANCH  19  20
ATOM     20  C   UNL     1      -1.831   2.532   1.775  1.00  0.00     0.000 C 
BRANCH  20  21
ATOM     21  C   UNL     1      -0.397   3.067   1.893  1.00  0.00     0.000 C 
BRANCH  21  22
ATOM     22  C   UNL     1       0.456   2.750   0.652  1.00  0.00     0.000 C 
BRANCH  22  23
ATOM     23  C   UNL     1       0.553   3.936  -0.327  1.00  0.00     0.000 C 
BRANCH  23  24
ATOM     24  C   UNL     1       1.982   4.456  -0.574  1.00  0.00    -0.000 C 
BRANCH  24  25
ATOM     25  C   UNL     1       2.019   5.952  -0.928  1.00  0.00    -0.000 C 
BRANCH  25  26
ATOM     26  C   UNL     1       0.664   6.470  -1.437  1.00  0.00    -0.000 C 
BRANCH  26  27
ATOM     27  C   UNL     1       0.673   7.988  -1.694  1.00  0.00    -0.000 C 
BRANCH  27  28
ATOM     28  C   UNL     1      -0.498   8.708  -1.011  1.00  0.00    -0.000 C 
BRANCH  28  29
ATOM     29  C   UNL     1      -1.848   8.013  -1.261  1.00  0.00    -0.000 C 
BRANCH  29  30
ATOM     30  C   UNL     1      -2.882   8.303  -0.158  1.00  0.00    -0.000 C 
BRANCH  30  31
ATOM     31  C   UNL     1      -4.013   9.263  -0.571  1.00  0.00    -0.003 C 
ATOM     32  C   UNL     1      -4.412   9.122  -2.040  1.00  0.00     0.004 C 
ENDBRANCH  30  31
ENDBRANCH  29  30
ENDBRANCH  28  29
ENDBRANCH  27  28
ENDBRANCH  26  27
ENDBRANCH  25  26
ENDBRANCH  24  25
ENDBRANCH  23  24
ENDBRANCH  22  23
ENDBRANCH  21  22
ENDBRANCH  20  21
ENDBRANCH  19  20
ENDBRANCH  18  19
ENDBRANCH   1  18
TORSDOF 28
ENDMDL
