MODEL 1
REMARK VINA RESULT:    -3.219      0.000      0.000
REMARK INTER + INTRA:         -12.400
REMARK INTER:                  -8.111
REMARK INTRA:                  -4.288
REMARK UNBOUND:                -4.288
REMARK SMILES CCCCCCCCCCCCCCCCCCCCCCCCCCCC(=O)[O-]
REMARK SMILES IDX 15 1 16 2 17 3 18 4 19 5 20 6 21 7 22 8 23 9 24 10 25 11
REMARK SMILES IDX 26 12 27 13 28 14 29 15 30 16 14 17 13 18 12 19 11 20 10 21
REMARK SMILES IDX 9 22 8 23 7 24 6 25 5 26 4 27 3 28 2 29 1 30
REMARK H PARENT
REMARK Flexibility Score: inf
ROOT
ATOM      1  C   UNL     1    -104.848  27.660  18.185  1.00  0.00     0.000 C 
ENDROOT
BRANCH   1   2
ATOM      2  C   UNL     1    -105.822  27.257  17.065  1.00  0.00     0.000 C 
BRANCH   2   3
ATOM      3  C   UNL     1    -107.108  26.550  17.540  1.00  0.00     0.000 C 
BRANCH   3   4
ATOM      4  C   UNL     1    -108.006  27.382  18.477  1.00  0.00     0.000 C 
BRANCH   4   5
ATOM      5  C   UNL     1    -108.092  26.869  19.925  1.00  0.00     0.000 C 
BRANCH   5   6
ATOM      6  C   UNL     1    -107.502  27.860  20.944  1.00  0.00     0.000 C 
BRANCH   6   7
ATOM      7  C   UNL     1    -108.316  27.924  22.246  1.00  0.00     0.000 C 
BRANCH   7   8
ATOM      8  C   UNL     1    -109.403  26.840  22.320  1.00  0.00     0.000 C 
BRANCH   8   9
ATOM      9  C   UNL     1    -110.772  27.455  22.637  1.00  0.00     0.000 C 
BRANCH   9  10
ATOM     10  C   UNL     1    -111.252  28.349  21.488  1.00  0.00     0.000 C 
BRANCH  10  11
ATOM     11  C   UNL     1    -112.272  27.618  20.608  1.00  0.00     0.000 C 
BRANCH  11  12
ATOM     12  C   UNL     1    -111.767  26.218  20.229  1.00  0.00     0.006 C 
BRANCH  12  13
ATOM     13  C   UNL     1    -112.909  25.204  20.096  1.00  0.00     0.053 C 
BRANCH  13  14
ATOM     14  C   UNL     1    -113.258  24.942  18.662  1.00  0.00     0.041 C 
ATOM     15  O   UNL     1    -114.147  25.628  18.092  1.00  0.00    -0.550 OA
ATOM     16  O   UNL     1    -112.584  23.957  17.950  1.00  0.00    -0.550 OA
ENDBRANCH  13  14
ENDBRANCH  12  13
ENDBRANCH  11  12
ENDBRANCH  10  11
ENDBRANCH   9  10
ENDBRANCH   8   9
ENDBRANCH   7   8
ENDBRANCH   6   7
ENDBRANCH   5   6
ENDBRANCH   4   5
ENDBRANCH   3   4
ENDBRANCH   2   3
ENDBRANCH   1   2
BRANCH   1  17
ATOM     17  C   UNL     1    -104.487  26.491  19.114  1.00  0.00     0.000 C 
BRANCH  17  18
ATOM     18  C   UNL     1    -103.895  27.004  20.435  1.00  0.00     0.000 C 
BRANCH  18  19
ATOM     19  C   UNL     1    -103.234  28.384  20.293  1.00  0.00     0.000 C 
BRANCH  19  20
ATOM     20  C   UNL     1    -101.702  28.304  20.210  1.00  0.00     0.000 C 
BRANCH  20  21
ATOM     21  C   UNL     1    -101.216  28.556  18.774  1.00  0.00     0.000 C 
BRANCH  21  22
ATOM     22  C   UNL     1    -100.327  27.424  18.237  1.00  0.00    -0.000 C 
BRANCH  22  23
ATOM     23  C   UNL     1    -101.141  26.241  17.686  1.00  0.00    -0.000 C 
BRANCH  23  24
ATOM     24  C   UNL     1    -100.684  24.882  18.250  1.00  0.00    -0.000 C 
BRANCH  24  25
ATOM     25  C   UNL     1    -101.012  24.640  19.735  1.00  0.00    -0.000 C 
BRANCH  25  26
ATOM     26  C   UNL     1    -102.261  23.766  19.939  1.00  0.00    -0.000 C 
BRANCH  26  27
ATOM     27  C   UNL     1    -102.536  22.826  18.750  1.00  0.00    -0.000 C 
BRANCH  27  28
ATOM     28  C   UNL     1    -103.901  23.017  18.064  1.00  0.00    -0.000 C 
BRANCH  28  29
ATOM     29  C   UNL     1    -103.818  22.943  16.533  1.00  0.00    -0.003 C 
ATOM     30  C   UNL     1    -103.836  24.337  15.913  1.00  0.00     0.004 C 
ENDBRANCH  28  29
ENDBRANCH  27  28
ENDBRANCH  26  27
ENDBRANCH  25  26
ENDBRANCH  24  25
ENDBRANCH  23  24
ENDBRANCH  22  23
ENDBRANCH  21  22
ENDBRANCH  20  21
ENDBRANCH  19  20
ENDBRANCH  18  19
ENDBRANCH  17  18
ENDBRANCH   1  17
TORSDOF 26
ENDMDL
MODEL 2
REMARK VINA RESULT:    -3.218      1.462      5.507
REMARK INTER + INTRA:         -12.397
REMARK INTER:                  -7.838
REMARK INTRA:                  -4.559
REMARK UNBOUND:                -4.288
REMARK SMILES CCCCCCCCCCCCCCCCCCCCCCCCCCCC(=O)[O-]
REMARK SMILES IDX 15 1 16 2 17 3 18 4 19 5 20 6 21 7 22 8 23 9 24 10 25 11
REMARK SMILES IDX 26 12 27 13 28 14 29 15 30 16 14 17 13 18 12 19 11 20 10 21
REMARK SMILES IDX 9 22 8 23 7 24 6 25 5 26 4 27 3 28 2 29 1 30
REMARK H PARENT
REMARK Flexibility Score: inf
ROOT
ATOM      1  C   UNL     1    -103.107  22.368  18.710  1.00  0.00     0.000 C 
ENDROOT
BRANCH   1   2
ATOM      2  C   UNL     1    -102.789  22.619  17.226  1.00  0.00     0.000 C 
BRANCH   2   3
ATOM      3  C   UNL     1    -103.957  23.185  16.394  1.00  0.00     0.000 C 
BRANCH   3   4
ATOM      4  C   UNL     1    -103.777  24.639  15.914  1.00  0.00     0.000 C 
BRANCH   4   5
ATOM      5  C   UNL     1    -104.735  25.660  16.552  1.00  0.00     0.000 C 
BRANCH   5   6
ATOM      6  C   UNL     1    -105.612  25.045  17.656  1.00  0.00     0.000 C 
BRANCH   6   7
ATOM      7  C   UNL     1    -106.555  26.071  18.303  1.00  0.00     0.000 C 
BRANCH   7   8
ATOM      8  C   UNL     1    -106.357  27.491  17.750  1.00  0.00     0.000 C 
BRANCH   8   9
ATOM      9  C   UNL     1    -107.530  28.401  18.137  1.00  0.00     0.000 C 
BRANCH   9  10
ATOM     10  C   UNL     1    -108.487  28.596  16.955  1.00  0.00     0.000 C 
BRANCH  10  11
ATOM     11  C   UNL     1    -109.911  28.163  17.319  1.00  0.00     0.000 C 
BRANCH  11  12
ATOM     12  C   UNL     1    -109.955  27.555  18.729  1.00  0.00     0.006 C 
BRANCH  12  13
ATOM     13  C   UNL     1    -111.377  27.525  19.305  1.00  0.00     0.053 C 
BRANCH  13  14
ATOM     14  C   UNL     1    -111.965  26.147  19.265  1.00  0.00     0.041 C 
ATOM     15  O   UNL     1    -112.231  25.604  18.160  1.00  0.00    -0.550 OA
ATOM     16  O   UNL     1    -112.197  25.454  20.447  1.00  0.00    -0.550 OA
ENDBRANCH  13  14
ENDBRANCH  12  13
ENDBRANCH  11  12
ENDBRANCH  10  11
ENDBRANCH   9  10
ENDBRANCH   8   9
ENDBRANCH   7   8
ENDBRANCH   6   7
ENDBRANCH   5   6
ENDBRANCH   4   5
ENDBRANCH   3   4
ENDBRANCH   2   3
ENDBRANCH   1   2
BRANCH   1  17
ATOM     17  C   UNL     1    -102.483  23.418  19.641  1.00  0.00     0.000 C 
BRANCH  17  18
ATOM     18  C   UNL     1    -101.414  24.238  18.904  1.00  0.00     0.000 C 
BRANCH  18  19
ATOM     19  C   UNL     1    -101.287  25.671  19.445  1.00  0.00     0.000 C 
BRANCH  19  20
ATOM     20  C   UNL     1    -101.764  26.730  18.440  1.00  0.00     0.000 C 
BRANCH  20  21
ATOM     21  C   UNL     1    -102.845  27.629  19.060  1.00  0.00     0.000 C 
BRANCH  21  22
ATOM     22  C   UNL     1    -103.518  26.993  20.286  1.00  0.00    -0.000 C 
BRANCH  22  23
ATOM     23  C   UNL     1    -103.323  27.821  21.568  1.00  0.00    -0.000 C 
BRANCH  23  24
ATOM     24  C   UNL     1    -104.643  28.386  22.127  1.00  0.00    -0.000 C 
BRANCH  24  25
ATOM     25  C   UNL     1    -105.924  27.835  21.474  1.00  0.00    -0.000 C 
BRANCH  25  26
ATOM     26  C   UNL     1    -107.183  28.630  21.861  1.00  0.00    -0.000 C 
BRANCH  26  27
ATOM     27  C   UNL     1    -108.343  27.729  22.326  1.00  0.00    -0.000 C 
BRANCH  27  28
ATOM     28  C   UNL     1    -109.687  28.448  22.544  1.00  0.00    -0.000 C 
BRANCH  28  29
ATOM     29  C   UNL     1    -110.821  27.492  22.940  1.00  0.00    -0.003 C 
ATOM     30  C   UNL     1    -110.267  26.172  23.470  1.00  0.00     0.004 C 
ENDBRANCH  28  29
ENDBRANCH  27  28
ENDBRANCH  26  27
ENDBRANCH  25  26
ENDBRANCH  24  25
ENDBRANCH  23  24
ENDBRANCH  22  23
ENDBRANCH  21  22
ENDBRANCH  20  21
ENDBRANCH  19  20
ENDBRANCH  18  19
ENDBRANCH  17  18
ENDBRANCH   1  17
TORSDOF 26
ENDMDL
MODEL 3
REMARK VINA RESULT:    -3.043      2.304      3.852
REMARK INTER + INTRA:         -11.956
REMARK INTER:                  -7.029
REMARK INTRA:                  -4.927
REMARK UNBOUND:                -4.288
REMARK SMILES CCCCCCCCCCCCCCCCCCCCCCCCCCCC(=O)[O-]
REMARK SMILES IDX 15 1 16 2 17 3 18 4 19 5 20 6 21 7 22 8 23 9 24 10 25 11
REMARK SMILES IDX 26 12 27 13 28 14 29 15 30 16 14 17 13 18 12 19 11 20 10 21
REMARK SMILES IDX 9 22 8 23 7 24 6 25 5 26 4 27 3 28 2 29 1 30
REMARK H PARENT
REMARK Flexibility Score: inf
ROOT
ATOM      1  C   UNL     1    -106.286  27.876  21.997  1.00  0.00     0.000 C 
ENDROOT
BRANCH   1   2
ATOM      2  C   UNL     1    -107.147  27.817  20.723  1.00  0.00     0.000 C 
BRANCH   2   3
ATOM      3  C   UNL     1    -106.559  28.554  19.503  1.00  0.00     0.000 C 
BRANCH   3   4
ATOM      4  C   UNL     1    -106.002  27.642  18.392  1.00  0.00     0.000 C 
BRANCH   4   5
ATOM      5  C   UNL     1    -106.388  28.049  16.958  1.00  0.00     0.000 C 
BRANCH   5   6
ATOM      6  C   UNL     1    -107.226  26.977  16.240  1.00  0.00     0.000 C 
BRANCH   6   7
ATOM      7  C   UNL     1    -108.564  26.702  16.945  1.00  0.00     0.000 C 
BRANCH   7   8
ATOM      8  C   UNL     1    -109.473  27.940  16.997  1.00  0.00     0.000 C 
BRANCH   8   9
ATOM      9  C   UNL     1    -110.104  28.100  18.386  1.00  0.00     0.000 C 
BRANCH   9  10
ATOM     10  C   UNL     1    -110.861  26.831  18.795  1.00  0.00     0.000 C 
BRANCH  10  11
ATOM     11  C   UNL     1    -110.693  26.547  20.292  1.00  0.00     0.000 C 
BRANCH  11  12
ATOM     12  C   UNL     1    -111.466  27.572  21.135  1.00  0.00     0.006 C 
BRANCH  12  13
ATOM     13  C   UNL     1    -110.562  28.298  22.140  1.00  0.00     0.053 C 
BRANCH  13  14
ATOM     14  C   UNL     1    -110.717  27.749  23.525  1.00  0.00     0.041 C 
ATOM     15  O   UNL     1    -111.138  28.487  24.455  1.00  0.00    -0.550 OA
ATOM     16  O   UNL     1    -110.417  26.417  23.785  1.00  0.00    -0.550 OA
ENDBRANCH  13  14
ENDBRANCH  12  13
ENDBRANCH  11  12
ENDBRANCH  10  11
ENDBRANCH   9  10
ENDBRANCH   8   9
ENDBRANCH   7   8
ENDBRANCH   6   7
ENDBRANCH   5   6
ENDBRANCH   4   5
ENDBRANCH   3   4
ENDBRANCH   2   3
ENDBRANCH   1   2
BRANCH   1  17
ATOM     17  C   UNL     1    -104.960  28.623  21.789  1.00  0.00     0.000 C 
BRANCH  17  18
ATOM     18  C   UNL     1    -103.810  27.637  21.537  1.00  0.00     0.000 C 
BRANCH  18  19
ATOM     19  C   UNL     1    -102.576  28.312  20.917  1.00  0.00     0.000 C 
BRANCH  19  20
ATOM     20  C   UNL     1    -102.620  28.335  19.381  1.00  0.00     0.000 C 
BRANCH  20  21
ATOM     21  C   UNL     1    -101.235  28.035  18.787  1.00  0.00     0.000 C 
BRANCH  21  22
ATOM     22  C   UNL     1    -101.290  27.684  17.292  1.00  0.00    -0.000 C 
BRANCH  22  23
ATOM     23  C   UNL     1    -102.706  27.316  16.820  1.00  0.00    -0.000 C 
BRANCH  23  24
ATOM     24  C   UNL     1    -102.764  25.963  16.086  1.00  0.00    -0.000 C 
BRANCH  24  25
ATOM     25  C   UNL     1    -103.678  24.903  16.728  1.00  0.00    -0.000 C 
BRANCH  25  26
ATOM     26  C   UNL     1    -103.704  24.984  18.264  1.00  0.00    -0.000 C 
BRANCH  26  27
ATOM     27  C   UNL     1    -102.735  23.992  18.933  1.00  0.00    -0.000 C 
BRANCH  27  28
ATOM     28  C   UNL     1    -101.842  24.588  20.037  1.00  0.00    -0.000 C 
BRANCH  28  29
ATOM     29  C   UNL     1    -100.360  24.648  19.643  1.00  0.00    -0.003 C 
ATOM     30  C   UNL     1    -100.159  24.219  18.192  1.00  0.00     0.004 C 
ENDBRANCH  28  29
ENDBRANCH  27  28
ENDBRANCH  26  27
ENDBRANCH  25  26
ENDBRANCH  24  25
ENDBRANCH  23  24
ENDBRANCH  22  23
ENDBRANCH  21  22
ENDBRANCH  20  21
ENDBRANCH  19  20
ENDBRANCH  18  19
ENDBRANCH  17  18
ENDBRANCH   1  17
TORSDOF 26
ENDMDL
MODEL 4
REMARK VINA RESULT:    -2.941      1.927      3.873
REMARK INTER + INTRA:         -11.699
REMARK INTER:                  -7.711
REMARK INTRA:                  -3.989
REMARK UNBOUND:                -4.288
REMARK SMILES CCCCCCCCCCCCCCCCCCCCCCCCCCCC(=O)[O-]
REMARK SMILES IDX 15 1 16 2 17 3 18 4 19 5 20 6 21 7 22 8 23 9 24 10 25 11
REMARK SMILES IDX 26 12 27 13 28 14 29 15 30 16 14 17 13 18 12 19 11 20 10 21
REMARK SMILES IDX 9 22 8 23 7 24 6 25 5 26 4 27 3 28 2 29 1 30
REMARK H PARENT
REMARK Flexibility Score: inf
ROOT
ATOM      1  C   UNL     1    -106.951  27.999  22.093  1.00  0.00     0.000 C 
ENDROOT
BRANCH   1   2
ATOM      2  C   UNL     1    -107.959  27.711  20.966  1.00  0.00     0.000 C 
BRANCH   2   3
ATOM      3  C   UNL     1    -107.394  27.839  19.536  1.00  0.00     0.000 C 
BRANCH   3   4
ATOM      4  C   UNL     1    -107.565  26.589  18.650  1.00  0.00     0.000 C 
BRANCH   4   5
ATOM      5  C   UNL     1    -107.492  26.849  17.135  1.00  0.00     0.000 C 
BRANCH   5   6
ATOM      6  C   UNL     1    -108.292  25.821  16.316  1.00  0.00     0.000 C 
BRANCH   6   7
ATOM      7  C   UNL     1    -109.794  25.847  16.640  1.00  0.00     0.000 C 
BRANCH   7   8
ATOM      8  C   UNL     1    -110.460  27.178  16.259  1.00  0.00     0.000 C 
BRANCH   8   9
ATOM      9  C   UNL     1    -111.975  27.122  16.495  1.00  0.00     0.000 C 
BRANCH   9  10
ATOM     10  C   UNL     1    -112.472  25.672  16.537  1.00  0.00     0.000 C 
BRANCH  10  11
ATOM     11  C   UNL     1    -113.388  25.437  17.743  1.00  0.00     0.000 C 
BRANCH  11  12
ATOM     12  C   UNL     1    -112.606  24.824  18.915  1.00  0.00     0.006 C 
BRANCH  12  13
ATOM     13  C   UNL     1    -112.869  25.558  20.236  1.00  0.00     0.053 C 
BRANCH  13  14
ATOM     14  C   UNL     1    -111.708  26.415  20.638  1.00  0.00     0.041 C 
ATOM     15  O   UNL     1    -111.260  27.287  19.847  1.00  0.00    -0.550 OA
ATOM     16  O   UNL     1    -111.133  26.265  21.895  1.00  0.00    -0.550 OA
ENDBRANCH  13  14
ENDBRANCH  12  13
ENDBRANCH  11  12
ENDBRANCH  10  11
ENDBRANCH   9  10
ENDBRANCH   8   9
ENDBRANCH   7   8
ENDBRANCH   6   7
ENDBRANCH   5   6
ENDBRANCH   4   5
ENDBRANCH   3   4
ENDBRANCH   2   3
ENDBRANCH   1   2
BRANCH   1  17
ATOM     17  C   UNL     1    -105.710  28.762  21.606  1.00  0.00     0.000 C 
BRANCH  17  18
ATOM     18  C   UNL     1    -104.431  28.179  22.223  1.00  0.00     0.000 C 
BRANCH  18  19
ATOM     19  C   UNL     1    -103.341  27.899  21.175  1.00  0.00     0.000 C 
BRANCH  19  20
ATOM     20  C   UNL     1    -103.756  26.821  20.161  1.00  0.00     0.000 C 
BRANCH  20  21
ATOM     21  C   UNL     1    -103.684  27.362  18.725  1.00  0.00     0.000 C 
BRANCH  21  22
ATOM     22  C   UNL     1    -103.836  26.262  17.664  1.00  0.00    -0.000 C 
BRANCH  22  23
ATOM     23  C   UNL     1    -104.391  24.950  18.243  1.00  0.00    -0.000 C 
BRANCH  23  24
ATOM     24  C   UNL     1    -104.774  23.926  17.158  1.00  0.00    -0.000 C 
BRANCH  24  25
ATOM     25  C   UNL     1    -104.311  22.481  17.423  1.00  0.00    -0.000 C 
BRANCH  25  26
ATOM     26  C   UNL     1    -103.024  22.407  18.263  1.00  0.00    -0.000 C 
BRANCH  26  27
ATOM     27  C   UNL     1    -101.746  22.399  17.403  1.00  0.00    -0.000 C 
BRANCH  27  28
ATOM     28  C   UNL     1    -101.105  23.779  17.165  1.00  0.00    -0.000 C 
BRANCH  28  29
ATOM     29  C   UNL     1    -100.073  24.154  18.237  1.00  0.00    -0.003 C 
ATOM     30  C   UNL     1    -100.732  24.881  19.405  1.00  0.00     0.004 C 
ENDBRANCH  28  29
ENDBRANCH  27  28
ENDBRANCH  26  27
ENDBRANCH  25  26
ENDBRANCH  24  25
ENDBRANCH  23  24
ENDBRANCH  22  23
ENDBRANCH  21  22
ENDBRANCH  20  21
ENDBRANCH  19  20
ENDBRANCH  18  19
ENDBRANCH  17  18
ENDBRANCH   1  17
TORSDOF 26
ENDMDL
MODEL 5
REMARK VINA RESULT:    -2.844      1.861      3.997
REMARK INTER + INTRA:         -11.455
REMARK INTER:                  -8.269
REMARK INTRA:                  -3.186
REMARK UNBOUND:                -4.288
REMARK SMILES CCCCCCCCCCCCCCCCCCCCCCCCCCCC(=O)[O-]
REMARK SMILES IDX 15 1 16 2 17 3 18 4 19 5 20 6 21 7 22 8 23 9 24 10 25 11
REMARK SMILES IDX 26 12 27 13 28 14 29 15 30 16 14 17 13 18 12 19 11 20 10 21
REMARK SMILES IDX 9 22 8 23 7 24 6 25 5 26 4 27 3 28 2 29 1 30
REMARK H PARENT
REMARK Flexibility Score: inf
ROOT
ATOM      1  C   UNL     1    -108.852  27.273  22.085  1.00  0.00     0.000 C 
ENDROOT
BRANCH   1   2
ATOM      2  C   UNL     1    -110.015  27.555  23.052  1.00  0.00     0.000 C 
BRANCH   2   3
ATOM      3  C   UNL     1    -111.026  28.614  22.567  1.00  0.00     0.000 C 
BRANCH   3   4
ATOM      4  C   UNL     1    -111.884  28.195  21.356  1.00  0.00     0.000 C 
BRANCH   4   5
ATOM      5  C   UNL     1    -111.775  29.118  20.129  1.00  0.00     0.000 C 
BRANCH   5   6
ATOM      6  C   UNL     1    -110.503  28.861  19.302  1.00  0.00     0.000 C 
BRANCH   6   7
ATOM      7  C   UNL     1    -110.769  27.992  18.063  1.00  0.00     0.000 C 
BRANCH   7   8
ATOM      8  C   UNL     1    -110.775  26.489  18.382  1.00  0.00     0.000 C 
BRANCH   8   9
ATOM      9  C   UNL     1    -112.044  25.817  17.842  1.00  0.00     0.000 C 
BRANCH   9  10
ATOM     10  C   UNL     1    -112.723  24.971  18.926  1.00  0.00     0.000 C 
BRANCH  10  11
ATOM     11  C   UNL     1    -113.832  25.761  19.628  1.00  0.00     0.000 C 
BRANCH  11  12
ATOM     12  C   UNL     1    -114.380  26.868  18.716  1.00  0.00     0.006 C 
BRANCH  12  13
ATOM     13  C   UNL     1    -115.689  27.466  19.248  1.00  0.00     0.053 C 
BRANCH  13  14
ATOM     14  C   UNL     1    -116.885  26.903  18.543  1.00  0.00     0.041 C 
ATOM     15  O   UNL     1    -117.944  26.666  19.183  1.00  0.00    -0.550 OA
ATOM     16  O   UNL     1    -116.838  26.660  17.175  1.00  0.00    -0.550 OA
ENDBRANCH  13  14
ENDBRANCH  12  13
ENDBRANCH  11  12
ENDBRANCH  10  11
ENDBRANCH   9  10
ENDBRANCH   8   9
ENDBRANCH   7   8
ENDBRANCH   6   7
ENDBRANCH   5   6
ENDBRANCH   4   5
ENDBRANCH   3   4
ENDBRANCH   2   3
ENDBRANCH   1   2
BRANCH   1  17
ATOM     17  C   UNL     1    -107.891  28.463  21.941  1.00  0.00     0.000 C 
BRANCH  17  18
ATOM     18  C   UNL     1    -106.450  27.979  21.726  1.00  0.00     0.000 C 
BRANCH  18  19
ATOM     19  C   UNL     1    -106.266  27.235  20.394  1.00  0.00     0.000 C 
BRANCH  19  20
ATOM     20  C   UNL     1    -104.852  27.394  19.815  1.00  0.00     0.000 C 
BRANCH  20  21
ATOM     21  C   UNL     1    -103.796  27.385  20.931  1.00  0.00     0.000 C 
BRANCH  21  22
ATOM     22  C   UNL     1    -102.449  27.972  20.484  1.00  0.00    -0.000 C 
BRANCH  22  23
ATOM     23  C   UNL     1    -102.131  27.673  19.009  1.00  0.00    -0.000 C 
BRANCH  23  24
ATOM     24  C   UNL     1    -100.702  27.137  18.797  1.00  0.00    -0.000 C 
BRANCH  24  25
ATOM     25  C   UNL     1    -100.605  25.643  18.435  1.00  0.00    -0.000 C 
BRANCH  25  26
ATOM     26  C   UNL     1    -100.561  24.728  19.671  1.00  0.00    -0.000 C 
BRANCH  26  27
ATOM     27  C   UNL     1    -101.952  24.214  20.086  1.00  0.00    -0.000 C 
BRANCH  27  28
ATOM     28  C   UNL     1    -102.881  23.817  18.924  1.00  0.00    -0.000 C 
BRANCH  28  29
ATOM     29  C   UNL     1    -102.922  22.302  18.679  1.00  0.00    -0.003 C 
ATOM     30  C   UNL     1    -102.267  21.942  17.349  1.00  0.00     0.004 C 
ENDBRANCH  28  29
ENDBRANCH  27  28
ENDBRANCH  26  27
ENDBRANCH  25  26
ENDBRANCH  24  25
ENDBRANCH  23  24
ENDBRANCH  22  23
ENDBRANCH  21  22
ENDBRANCH  20  21
ENDBRANCH  19  20
ENDBRANCH  18  19
ENDBRANCH  17  18
ENDBRANCH   1  17
TORSDOF 26
ENDMDL
MODEL 6
REMARK VINA RESULT:    -2.818      2.422      4.103
REMARK INTER + INTRA:         -11.390
REMARK INTER:                  -8.354
REMARK INTRA:                  -3.036
REMARK UNBOUND:                -4.288
REMARK SMILES CCCCCCCCCCCCCCCCCCCCCCCCCCCC(=O)[O-]
REMARK SMILES IDX 15 1 16 2 17 3 18 4 19 5 20 6 21 7 22 8 23 9 24 10 25 11
REMARK SMILES IDX 26 12 27 13 28 14 29 15 30 16 14 17 13 18 12 19 11 20 10 21
REMARK SMILES IDX 9 22 8 23 7 24 6 25 5 26 4 27 3 28 2 29 1 30
REMARK H PARENT
REMARK Flexibility Score: inf
ROOT
ATOM      1  C   UNL     1    -108.594  27.028  19.120  1.00  0.00     0.000 C 
ENDROOT
BRANCH   1   2
ATOM      2  C   UNL     1    -109.150  28.038  18.100  1.00  0.00     0.000 C 
BRANCH   2   3
ATOM      3  C   UNL     1    -109.032  27.608  16.624  1.00  0.00     0.000 C 
BRANCH   3   4
ATOM      4  C   UNL     1    -110.282  26.921  16.039  1.00  0.00     0.000 C 
BRANCH   4   5
ATOM      5  C   UNL     1    -110.275  25.384  16.108  1.00  0.00     0.000 C 
BRANCH   5   6
ATOM      6  C   UNL     1    -111.691  24.781  16.091  1.00  0.00     0.000 C 
BRANCH   6   7
ATOM      7  C   UNL     1    -112.220  24.474  17.501  1.00  0.00     0.000 C 
BRANCH   7   8
ATOM      8  C   UNL     1    -113.662  24.958  17.712  1.00  0.00     0.000 C 
BRANCH   8   9
ATOM      9  C   UNL     1    -113.686  26.342  18.372  1.00  0.00     0.000 C 
BRANCH   9  10
ATOM     10  C   UNL     1    -112.385  26.610  19.137  1.00  0.00     0.000 C 
BRANCH  10  11
ATOM     11  C   UNL     1    -112.422  27.975  19.831  1.00  0.00     0.000 C 
BRANCH  11  12
ATOM     12  C   UNL     1    -111.989  27.856  21.300  1.00  0.00     0.006 C 
BRANCH  12  13
ATOM     13  C   UNL     1    -111.133  26.608  21.554  1.00  0.00     0.053 C 
BRANCH  13  14
ATOM     14  C   UNL     1    -110.336  26.728  22.817  1.00  0.00     0.041 C 
ATOM     15  O   UNL     1    -109.551  27.699  22.981  1.00  0.00    -0.550 OA
ATOM     16  O   UNL     1    -110.478  25.779  23.824  1.00  0.00    -0.550 OA
ENDBRANCH  13  14
ENDBRANCH  12  13
ENDBRANCH  11  12
ENDBRANCH  10  11
ENDBRANCH   9  10
ENDBRANCH   8   9
ENDBRANCH   7   8
ENDBRANCH   6   7
ENDBRANCH   5   6
ENDBRANCH   4   5
ENDBRANCH   3   4
ENDBRANCH   2   3
ENDBRANCH   1   2
BRANCH   1  17
ATOM     17  C   UNL     1    -107.210  26.487  18.731  1.00  0.00     0.000 C 
BRANCH  17  18
ATOM     18  C   UNL     1    -106.136  26.971  19.717  1.00  0.00     0.000 C 
BRANCH  18  19
ATOM     19  C   UNL     1    -106.735  27.600  20.985  1.00  0.00     0.000 C 
BRANCH  19  20
ATOM     20  C   UNL     1    -105.663  28.032  21.998  1.00  0.00     0.000 C 
BRANCH  20  21
ATOM     21  C   UNL     1    -104.416  28.572  21.281  1.00  0.00     0.000 C 
BRANCH  21  22
ATOM     22  C   UNL     1    -103.148  27.766  21.602  1.00  0.00    -0.000 C 
BRANCH  22  23
ATOM     23  C   UNL     1    -102.087  27.863  20.492  1.00  0.00    -0.000 C 
BRANCH  23  24
ATOM     24  C   UNL     1    -102.292  26.828  19.370  1.00  0.00    -0.000 C 
BRANCH  24  25
ATOM     25  C   UNL     1    -101.294  25.655  19.365  1.00  0.00    -0.000 C 
BRANCH  25  26
ATOM     26  C   UNL     1    -101.819  24.418  20.114  1.00  0.00    -0.000 C 
BRANCH  26  27
ATOM     27  C   UNL     1    -102.543  23.421  19.191  1.00  0.00    -0.000 C 
BRANCH  27  28
ATOM     28  C   UNL     1    -102.311  23.632  17.684  1.00  0.00    -0.000 C 
BRANCH  28  29
ATOM     29  C   UNL     1    -101.366  22.589  17.070  1.00  0.00    -0.003 C 
ATOM     30  C   UNL     1    -102.119  21.314  16.702  1.00  0.00     0.004 C 
ENDBRANCH  28  29
ENDBRANCH  27  28
ENDBRANCH  26  27
ENDBRANCH  25  26
ENDBRANCH  24  25
ENDBRANCH  23  24
ENDBRANCH  22  23
ENDBRANCH  21  22
ENDBRANCH  20  21
ENDBRANCH  19  20
ENDBRANCH  18  19
ENDBRANCH  17  18
ENDBRANCH   1  17
TORSDOF 26
ENDMDL
MODEL 7
REMARK VINA RESULT:    -2.739      2.074      4.860
REMARK INTER + INTRA:         -11.189
REMARK INTER:                  -7.665
REMARK INTRA:                  -3.525
REMARK UNBOUND:                -4.288
REMARK SMILES CCCCCCCCCCCCCCCCCCCCCCCCCCCC(=O)[O-]
REMARK SMILES IDX 15 1 16 2 17 3 18 4 19 5 20 6 21 7 22 8 23 9 24 10 25 11
REMARK SMILES IDX 26 12 27 13 28 14 29 15 30 16 14 17 13 18 12 19 11 20 10 21
REMARK SMILES IDX 9 22 8 23 7 24 6 25 5 26 4 27 3 28 2 29 1 30
REMARK H PARENT
REMARK Flexibility Score: inf
ROOT
ATOM      1  C   UNL     1    -109.814  26.859  21.716  1.00  0.00     0.000 C 
ENDROOT
BRANCH   1   2
ATOM      2  C   UNL     1    -111.119  27.675  21.721  1.00  0.00     0.000 C 
BRANCH   2   3
ATOM      3  C   UNL     1    -111.435  28.409  20.402  1.00  0.00     0.000 C 
BRANCH   3   4
ATOM      4  C   UNL     1    -112.856  29.000  20.305  1.00  0.00     0.000 C 
BRANCH   4   5
ATOM      5  C   UNL     1    -113.718  28.444  19.157  1.00  0.00     0.000 C 
BRANCH   5   6
ATOM      6  C   UNL     1    -114.947  27.666  19.658  1.00  0.00     0.000 C 
BRANCH   6   7
ATOM      7  C   UNL     1    -114.866  26.165  19.338  1.00  0.00     0.000 C 
BRANCH   7   8
ATOM      8  C   UNL     1    -113.707  25.465  20.063  1.00  0.00     0.000 C 
BRANCH   8   9
ATOM      9  C   UNL     1    -112.660  24.957  19.063  1.00  0.00     0.000 C 
BRANCH   9  10
ATOM     10  C   UNL     1    -113.218  24.957  17.635  1.00  0.00     0.000 C 
BRANCH  10  11
ATOM     11  C   UNL     1    -112.401  25.879  16.723  1.00  0.00     0.000 C 
BRANCH  11  12
ATOM     12  C   UNL     1    -110.943  25.970  17.198  1.00  0.00     0.006 C 
BRANCH  12  13
ATOM     13  C   UNL     1    -109.986  26.362  16.065  1.00  0.00     0.053 C 
BRANCH  13  14
ATOM     14  C   UNL     1    -108.570  25.983  16.377  1.00  0.00     0.041 C 
ATOM     15  O   UNL     1    -108.138  24.841  16.069  1.00  0.00    -0.550 OA
ATOM     16  O   UNL     1    -107.721  26.900  16.987  1.00  0.00    -0.550 OA
ENDBRANCH  13  14
ENDBRANCH  12  13
ENDBRANCH  11  12
ENDBRANCH  10  11
ENDBRANCH   9  10
ENDBRANCH   8   9
ENDBRANCH   7   8
ENDBRANCH   6   7
ENDBRANCH   5   6
ENDBRANCH   4   5
ENDBRANCH   3   4
ENDBRANCH   2   3
ENDBRANCH   1   2
BRANCH   1  17
ATOM     17  C   UNL     1    -109.143  26.813  20.335  1.00  0.00     0.000 C 
BRANCH  17  18
ATOM     18  C   UNL     1    -107.679  27.269  20.423  1.00  0.00     0.000 C 
BRANCH  18  19
ATOM     19  C   UNL     1    -107.409  28.165  21.642  1.00  0.00     0.000 C 
BRANCH  19  20
ATOM     20  C   UNL     1    -105.982  28.008  22.190  1.00  0.00     0.000 C 
BRANCH  20  21
ATOM     21  C   UNL     1    -105.003  27.617  21.072  1.00  0.00     0.000 C 
BRANCH  21  22
ATOM     22  C   UNL     1    -103.532  27.761  21.488  1.00  0.00    -0.000 C 
BRANCH  22  23
ATOM     23  C   UNL     1    -102.561  27.589  20.308  1.00  0.00    -0.000 C 
BRANCH  23  24
ATOM     24  C   UNL     1    -103.279  27.335  18.969  1.00  0.00    -0.000 C 
BRANCH  24  25
ATOM     25  C   UNL     1    -102.731  26.159  18.139  1.00  0.00    -0.000 C 
BRANCH  25  26
ATOM     26  C   UNL     1    -101.311  25.740  18.557  1.00  0.00    -0.000 C 
BRANCH  26  27
ATOM     27  C   UNL     1    -101.174  24.222  18.778  1.00  0.00    -0.000 C 
BRANCH  27  28
ATOM     28  C   UNL     1    -102.391  23.541  19.433  1.00  0.00    -0.000 C 
BRANCH  28  29
ATOM     29  C   UNL     1    -102.898  22.329  18.640  1.00  0.00    -0.003 C 
ATOM     30  C   UNL     1    -104.188  22.660  17.895  1.00  0.00     0.004 C 
ENDBRANCH  28  29
ENDBRANCH  27  28
ENDBRANCH  26  27
ENDBRANCH  25  26
ENDBRANCH  24  25
ENDBRANCH  23  24
ENDBRANCH  22  23
ENDBRANCH  21  22
ENDBRANCH  20  21
ENDBRANCH  19  20
ENDBRANCH  18  19
ENDBRANCH  17  18
ENDBRANCH   1  17
TORSDOF 26
ENDMDL
MODEL 8
REMARK VINA RESULT:    -2.532      3.523      8.811
REMARK INTER + INTRA:         -10.668
REMARK INTER:                  -6.483
REMARK INTRA:                  -4.185
REMARK UNBOUND:                -4.288
REMARK SMILES CCCCCCCCCCCCCCCCCCCCCCCCCCCC(=O)[O-]
REMARK SMILES IDX 15 1 16 2 17 3 18 4 19 5 20 6 21 7 22 8 23 9 24 10 25 11
REMARK SMILES IDX 26 12 27 13 28 14 29 15 30 16 14 17 13 18 12 19 11 20 10 21
REMARK SMILES IDX 9 22 8 23 7 24 6 25 5 26 4 27 3 28 2 29 1 30
REMARK H PARENT
REMARK Flexibility Score: inf
ROOT
ATOM      1  C   UNL     1    -111.694  23.816  23.643  1.00  0.00     0.000 C 
ENDROOT
BRANCH   1   2
ATOM      2  C   UNL     1    -111.406  25.321  23.790  1.00  0.00     0.000 C 
BRANCH   2   3
ATOM      3  C   UNL     1    -109.978  25.754  23.399  1.00  0.00     0.000 C 
BRANCH   3   4
ATOM      4  C   UNL     1    -109.890  27.044  22.559  1.00  0.00     0.000 C 
BRANCH   4   5
ATOM      5  C   UNL     1    -109.484  26.839  21.089  1.00  0.00     0.000 C 
BRANCH   5   6
ATOM      6  C   UNL     1    -108.045  27.300  20.799  1.00  0.00     0.000 C 
BRANCH   6   7
ATOM      7  C   UNL     1    -107.452  28.141  21.941  1.00  0.00     0.000 C 
BRANCH   7   8
ATOM      8  C   UNL     1    -105.916  28.133  21.948  1.00  0.00     0.000 C 
BRANCH   8   9
ATOM      9  C   UNL     1    -105.364  27.372  20.735  1.00  0.00     0.000 C 
BRANCH   9  10
ATOM     10  C   UNL     1    -104.625  28.319  19.782  1.00  0.00     0.000 C 
BRANCH  10  11
ATOM     11  C   UNL     1    -103.628  27.553  18.906  1.00  0.00     0.000 C 
BRANCH  11  12
ATOM     12  C   UNL     1    -103.168  26.261  19.599  1.00  0.00     0.006 C 
BRANCH  12  13
ATOM     13  C   UNL     1    -101.711  25.913  19.272  1.00  0.00     0.053 C 
BRANCH  13  14
ATOM     14  C   UNL     1    -101.265  24.667  19.974  1.00  0.00     0.041 C 
ATOM     15  O   UNL     1    -102.114  23.890  20.486  1.00  0.00    -0.550 OA
ATOM     16  O   UNL     1     -99.912  24.352  20.044  1.00  0.00    -0.550 OA
ENDBRANCH  13  14
ENDBRANCH  12  13
ENDBRANCH  11  12
ENDBRANCH  10  11
ENDBRANCH   9  10
ENDBRANCH   8   9
ENDBRANCH   7   8
ENDBRANCH   6   7
ENDBRANCH   5   6
ENDBRANCH   4   5
ENDBRANCH   3   4
ENDBRANCH   2   3
ENDBRANCH   1   2
BRANCH   1  17
ATOM     17  C   UNL     1    -112.804  23.516  22.625  1.00  0.00     0.000 C 
BRANCH  17  18
ATOM     18  C   UNL     1    -112.737  24.490  21.439  1.00  0.00     0.000 C 
BRANCH  18  19
ATOM     19  C   UNL     1    -114.091  24.658  20.732  1.00  0.00     0.000 C 
BRANCH  19  20
ATOM     20  C   UNL     1    -114.108  25.842  19.753  1.00  0.00     0.000 C 
BRANCH  20  21
ATOM     21  C   UNL     1    -112.951  26.810  20.043  1.00  0.00     0.000 C 
BRANCH  21  22
ATOM     22  C   UNL     1    -112.311  27.376  18.765  1.00  0.00    -0.000 C 
BRANCH  22  23
ATOM     23  C   UNL     1    -111.508  26.321  17.985  1.00  0.00    -0.000 C 
BRANCH  23  24
ATOM     24  C   UNL     1    -110.228  26.891  17.346  1.00  0.00    -0.000 C 
BRANCH  24  25
ATOM     25  C   UNL     1    -109.980  28.391  17.590  1.00  0.00    -0.000 C 
BRANCH  25  26
ATOM     26  C   UNL     1    -108.720  28.914  16.878  1.00  0.00    -0.000 C 
BRANCH  26  27
ATOM     27  C   UNL     1    -107.419  28.313  17.443  1.00  0.00    -0.000 C 
BRANCH  27  28
ATOM     28  C   UNL     1    -106.452  27.737  16.392  1.00  0.00    -0.000 C 
BRANCH  28  29
ATOM     29  C   UNL     1    -106.398  26.203  16.404  1.00  0.00    -0.003 C 
ATOM     30  C   UNL     1    -106.743  25.651  17.784  1.00  0.00     0.004 C 
ENDBRANCH  28  29
ENDBRANCH  27  28
ENDBRANCH  26  27
ENDBRANCH  25  26
ENDBRANCH  24  25
ENDBRANCH  23  24
ENDBRANCH  22  23
ENDBRANCH  21  22
ENDBRANCH  20  21
ENDBRANCH  19  20
ENDBRANCH  18  19
ENDBRANCH  17  18
ENDBRANCH   1  17
TORSDOF 26
ENDMDL
MODEL 9
REMARK VINA RESULT:    -2.414      1.730      4.877
REMARK INTER + INTRA:         -10.371
REMARK INTER:                  -6.557
REMARK INTRA:                  -3.814
REMARK UNBOUND:                -4.288
REMARK SMILES CCCCCCCCCCCCCCCCCCCCCCCCCCCC(=O)[O-]
REMARK SMILES IDX 15 1 16 2 17 3 18 4 19 5 20 6 21 7 22 8 23 9 24 10 25 11
REMARK SMILES IDX 26 12 27 13 28 14 29 15 30 16 14 17 13 18 12 19 11 20 10 21
REMARK SMILES IDX 9 22 8 23 7 24 6 25 5 26 4 27 3 28 2 29 1 30
REMARK H PARENT
REMARK Flexibility Score: inf
ROOT
ATOM      1  C   UNL     1    -110.855  27.972  23.120  1.00  0.00     0.000 C 
ENDROOT
BRANCH   1   2
ATOM      2  C   UNL     1    -111.648  28.508  21.915  1.00  0.00     0.000 C 
BRANCH   2   3
ATOM      3  C   UNL     1    -111.650  27.592  20.674  1.00  0.00     0.000 C 
BRANCH   3   4
ATOM      4  C   UNL     1    -110.719  28.039  19.528  1.00  0.00     0.000 C 
BRANCH   4   5
ATOM      5  C   UNL     1    -109.606  27.040  19.166  1.00  0.00     0.000 C 
BRANCH   5   6
ATOM      6  C   UNL     1    -108.676  27.563  18.056  1.00  0.00     0.000 C 
BRANCH   6   7
ATOM      7  C   UNL     1    -108.453  26.532  16.938  1.00  0.00     0.000 C 
BRANCH   7   8
ATOM      8  C   UNL     1    -109.615  26.485  15.933  1.00  0.00     0.000 C 
BRANCH   8   9
ATOM      9  C   UNL     1    -110.530  25.285  16.207  1.00  0.00     0.000 C 
BRANCH   9  10
ATOM     10  C   UNL     1    -111.920  25.747  16.661  1.00  0.00     0.000 C 
BRANCH  10  11
ATOM     11  C   UNL     1    -112.512  24.783  17.696  1.00  0.00     0.000 C 
BRANCH  11  12
ATOM     12  C   UNL     1    -113.713  25.417  18.413  1.00  0.00     0.006 C 
BRANCH  12  13
ATOM     13  C   UNL     1    -114.004  26.839  17.914  1.00  0.00     0.053 C 
BRANCH  13  14
ATOM     14  C   UNL     1    -115.361  26.942  17.288  1.00  0.00     0.041 C 
ATOM     15  O   UNL     1    -116.099  27.932  17.535  1.00  0.00    -0.550 OA
ATOM     16  O   UNL     1    -115.802  25.956  16.412  1.00  0.00    -0.550 OA
ENDBRANCH  13  14
ENDBRANCH  12  13
ENDBRANCH  11  12
ENDBRANCH  10  11
ENDBRANCH   9  10
ENDBRANCH   8   9
ENDBRANCH   7   8
ENDBRANCH   6   7
ENDBRANCH   5   6
ENDBRANCH   4   5
ENDBRANCH   3   4
ENDBRANCH   2   3
ENDBRANCH   1   2
BRANCH   1  17
ATOM     17  C   UNL     1    -109.942  26.792  22.758  1.00  0.00     0.000 C 
BRANCH  17  18
ATOM     18  C   UNL     1    -108.474  27.237  22.686  1.00  0.00     0.000 C 
BRANCH  18  19
ATOM     19  C   UNL     1    -108.320  28.705  22.258  1.00  0.00     0.000 C 
BRANCH  19  20
ATOM     20  C   UNL     1    -107.116  28.930  21.330  1.00  0.00     0.000 C 
BRANCH  20  21
ATOM     21  C   UNL     1    -106.393  27.607  21.038  1.00  0.00     0.000 C 
BRANCH  21  22
ATOM     22  C   UNL     1    -104.865  27.722  21.160  1.00  0.00    -0.000 C 
BRANCH  22  23
ATOM     23  C   UNL     1    -104.169  27.850  19.794  1.00  0.00    -0.000 C 
BRANCH  23  24
ATOM     24  C   UNL     1    -104.954  27.178  18.652  1.00  0.00    -0.000 C 
BRANCH  24  25
ATOM     25  C   UNL     1    -104.540  25.729  18.331  1.00  0.00    -0.000 C 
BRANCH  25  26
ATOM     26  C   UNL     1    -103.356  25.647  17.353  1.00  0.00    -0.000 C 
BRANCH  26  27
ATOM     27  C   UNL     1    -102.318  24.583  17.757  1.00  0.00    -0.000 C 
BRANCH  27  28
ATOM     28  C   UNL     1    -100.972  25.136  18.260  1.00  0.00    -0.000 C 
BRANCH  28  29
ATOM     29  C   UNL     1    -100.564  24.569  19.627  1.00  0.00    -0.003 C 
ATOM     30  C   UNL     1    -101.790  24.187  20.452  1.00  0.00     0.004 C 
ENDBRANCH  28  29
ENDBRANCH  27  28
ENDBRANCH  26  27
ENDBRANCH  25  26
ENDBRANCH  24  25
ENDBRANCH  23  24
ENDBRANCH  22  23
ENDBRANCH  21  22
ENDBRANCH  20  21
ENDBRANCH  19  20
ENDBRANCH  18  19
ENDBRANCH  17  18
ENDBRANCH   1  17
TORSDOF 26
ENDMDL
