MODEL 1
REMARK VINA RESULT:    -5.451      0.000      0.000
REMARK INTER + INTRA:          -8.124
REMARK INTER:                  -7.522
REMARK INTRA:                  -0.601
REMARK UNBOUND:                -0.601
REMARK SMILES CC[C@@H](CC[C@@H](C)[C@@H]1CC[C@@H]2[C@H]3CC=C4C[C@@H](O)CC[C@]4(C)[C@H]3CC[C@@]21C)C(C)C
REMARK SMILES IDX 5 1 4 2 3 3 2 4 1 5 28 6 29 7 30 8 6 9 7 10 8 11 9 12 26 13
REMARK SMILES IDX 10 14 11 15 25 16 27 17 12 18 24 19 23 20 13 21 21 22 14 23
REMARK SMILES IDX 15 24 20 25 22 26 16 27 19 28 17 29 18 30
REMARK H PARENT 18 31
REMARK Flexibility Score: inf
ROOT
ATOM      1  C   UNL     1      37.783 -44.489  25.782  1.00  0.00     0.004 C 
ENDROOT
BRANCH   1   2
ATOM      2  C   UNL     1      37.130 -45.054  24.493  1.00  0.00     0.004 C 
BRANCH   2   3
ATOM      3  C   UNL     1      36.887 -43.974  23.395  1.00  0.00    -0.009 C 
BRANCH   3   4
ATOM      4  C   UNL     1      37.031 -44.505  21.933  1.00  0.00     0.000 C 
ATOM      5  C   UNL     1      36.882 -46.019  21.749  1.00  0.00     0.004 C 
ENDBRANCH   3   4
BRANCH   3   6
ATOM      6  C   UNL     1      37.692 -42.651  23.625  1.00  0.00    -0.014 C 
ATOM      7  C   UNL     1      36.880 -41.534  24.298  1.00  0.00     0.007 C 
ATOM      8  C   UNL     1      38.342 -42.128  22.332  1.00  0.00     0.007 C 
ENDBRANCH   3   6
ENDBRANCH   2   3
ENDBRANCH   1   2
BRANCH   1   9
ATOM      9  C   UNL     1      36.962 -44.782  27.073  1.00  0.00    -0.011 C 
ATOM     10  C   UNL     1      36.932 -46.291  27.367  1.00  0.00     0.008 C 
BRANCH   9  11
ATOM     11  C   UNL     1      37.297 -43.922  28.351  1.00  0.00    -0.002 C 
ATOM     12  C   UNL     1      37.684 -42.475  28.011  1.00  0.00     0.005 C 
ATOM     13  C   UNL     1      38.294 -44.396  29.467  1.00  0.00    -0.026 C 
ATOM     14  C   UNL     1      38.493 -41.945  29.186  1.00  0.00     0.005 C 
ATOM     15  C   UNL     1      38.568 -43.064  30.235  1.00  0.00    -0.001 C 
ATOM     16  C   UNL     1      39.607 -44.986  28.889  1.00  0.00     0.007 C 
ATOM     17  C   UNL     1      37.607 -45.439  30.389  1.00  0.00     0.012 C 
ATOM     18  C   UNL     1      39.881 -42.967  31.077  1.00  0.00     0.000 C 
ATOM     19  C   UNL     1      40.778 -45.004  29.881  1.00  0.00     0.005 C 
ATOM     20  C   UNL     1      41.115 -43.572  30.364  1.00  0.00     0.003 C 
ATOM     21  C   UNL     1      39.716 -43.569  32.481  1.00  0.00     0.031 C 
ATOM     22  C   UNL     1      42.443 -43.405  31.230  1.00  0.00    -0.008 C 
ATOM     23  C   UNL     1      40.960 -43.401  33.290  1.00  0.00    -0.027 C 
ATOM     24  C   UNL     1      42.194 -43.401  32.749  1.00  0.00    -0.065 C 
ATOM     25  C   UNL     1      43.080 -42.020  30.882  1.00  0.00     0.014 C 
ATOM     26  C   UNL     1      43.468 -44.521  30.885  1.00  0.00     0.016 C 
ATOM     27  C   UNL     1      43.368 -43.070  33.649  1.00  0.00     0.063 C 
ATOM     28  C   UNL     1      44.272 -41.624  31.779  1.00  0.00     0.033 C 
ATOM     29  C   UNL     1      43.916 -41.685  33.272  1.00  0.00     0.118 C 
BRANCH  29  30
ATOM     30  O   UNL     1      45.063 -41.403  34.030  1.00  0.00    -0.393 OA
ATOM     31  H   UNL     1      45.708 -42.137  33.860  1.00  0.00     0.210 HD
ENDBRANCH  29  30
ENDBRANCH   9  11
ENDBRANCH   1   9
TORSDOF 7
ENDMDL
MODEL 2
REMARK VINA RESULT:    -5.305      3.917      5.366
REMARK INTER + INTRA:          -7.922
REMARK INTER:                  -6.395
REMARK INTRA:                  -1.527
REMARK UNBOUND:                -0.601
REMARK SMILES CC[C@@H](CC[C@@H](C)[C@@H]1CC[C@@H]2[C@H]3CC=C4C[C@@H](O)CC[C@]4(C)[C@H]3CC[C@@]21C)C(C)C
REMARK SMILES IDX 5 1 4 2 3 3 2 4 1 5 28 6 29 7 30 8 6 9 7 10 8 11 9 12 26 13
REMARK SMILES IDX 10 14 11 15 25 16 27 17 12 18 24 19 23 20 13 21 21 22 14 23
REMARK SMILES IDX 15 24 20 25 22 26 16 27 19 28 17 29 18 30
REMARK H PARENT 18 31
REMARK Flexibility Score: inf
ROOT
ATOM      1  C   UNL     1      38.514 -45.909  31.070  1.00  0.00     0.004 C 
ENDROOT
BRANCH   1   2
ATOM      2  C   UNL     1      40.013 -46.024  31.452  1.00  0.00     0.004 C 
BRANCH   2   3
ATOM      3  C   UNL     1      40.972 -45.989  30.223  1.00  0.00    -0.009 C 
BRANCH   3   4
ATOM      4  C   UNL     1      42.063 -47.106  30.231  1.00  0.00     0.000 C 
ATOM      5  C   UNL     1      42.119 -48.002  28.988  1.00  0.00     0.004 C 
ENDBRANCH   3   4
BRANCH   3   6
ATOM      6  C   UNL     1      41.578 -44.574  29.937  1.00  0.00    -0.014 C 
ATOM      7  C   UNL     1      41.379 -44.089  28.493  1.00  0.00     0.007 C 
ATOM      8  C   UNL     1      43.063 -44.483  30.327  1.00  0.00     0.007 C 
ENDBRANCH   3   6
ENDBRANCH   2   3
ENDBRANCH   1   2
BRANCH   1   9
ATOM      9  C   UNL     1      37.724 -44.900  31.956  1.00  0.00    -0.011 C 
ATOM     10  C   UNL     1      37.690 -45.372  33.419  1.00  0.00     0.008 C 
BRANCH   9  11
ATOM     11  C   UNL     1      38.099 -43.375  31.820  1.00  0.00    -0.002 C 
ATOM     12  C   UNL     1      38.427 -42.969  30.376  1.00  0.00     0.005 C 
ATOM     13  C   UNL     1      39.165 -42.669  32.731  1.00  0.00    -0.026 C 
ATOM     14  C   UNL     1      39.279 -41.710  30.451  1.00  0.00     0.005 C 
ATOM     15  C   UNL     1      39.439 -41.353  31.936  1.00  0.00    -0.001 C 
ATOM     16  C   UNL     1      40.463 -43.502  32.894  1.00  0.00     0.007 C 
ATOM     17  C   UNL     1      38.555 -42.361  34.125  1.00  0.00     0.012 C 
ATOM     18  C   UNL     1      40.790 -40.612  32.200  1.00  0.00     0.000 C 
ATOM     19  C   UNL     1      41.683 -42.684  33.339  1.00  0.00     0.005 C 
ATOM     20  C   UNL     1      42.003 -41.567  32.314  1.00  0.00     0.003 C 
ATOM     21  C   UNL     1      40.714 -39.684  33.422  1.00  0.00     0.031 C 
ATOM     22  C   UNL     1      43.368 -40.773  32.528  1.00  0.00    -0.008 C 
ATOM     23  C   UNL     1      41.992 -38.935  33.611  1.00  0.00    -0.027 C 
ATOM     24  C   UNL     1      43.197 -39.443  33.284  1.00  0.00    -0.065 C 
ATOM     25  C   UNL     1      43.947 -40.411  31.121  1.00  0.00     0.014 C 
ATOM     26  C   UNL     1      44.405 -41.654  33.277  1.00  0.00     0.016 C 
ATOM     27  C   UNL     1      44.405 -38.532  33.379  1.00  0.00     0.063 C 
ATOM     28  C   UNL     1      45.171 -39.472  31.158  1.00  0.00     0.033 C 
ATOM     29  C   UNL     1      44.893 -38.193  31.963  1.00  0.00     0.118 C 
BRANCH  29  30
ATOM     30  O   UNL     1      46.069 -37.430  32.032  1.00  0.00    -0.393 OA
ATOM     31  H   UNL     1      46.775 -38.023  32.398  1.00  0.00     0.210 HD
ENDBRANCH  29  30
ENDBRANCH   9  11
ENDBRANCH   1   9
TORSDOF 7
ENDMDL
MODEL 3
REMARK VINA RESULT:    -4.835      2.263      4.120
REMARK INTER + INTRA:          -7.274
REMARK INTER:                  -5.968
REMARK INTRA:                  -1.306
REMARK UNBOUND:                -0.601
REMARK SMILES CC[C@@H](CC[C@@H](C)[C@@H]1CC[C@@H]2[C@H]3CC=C4C[C@@H](O)CC[C@]4(C)[C@H]3CC[C@@]21C)C(C)C
REMARK SMILES IDX 5 1 4 2 3 3 2 4 1 5 28 6 29 7 30 8 6 9 7 10 8 11 9 12 26 13
REMARK SMILES IDX 10 14 11 15 25 16 27 17 12 18 24 19 23 20 13 21 21 22 14 23
REMARK SMILES IDX 15 24 20 25 22 26 16 27 19 28 17 29 18 30
REMARK H PARENT 18 31
REMARK Flexibility Score: inf
ROOT
ATOM      1  C   UNL     1      37.099 -45.475  30.010  1.00  0.00     0.004 C 
ENDROOT
BRANCH   1   2
ATOM      2  C   UNL     1      38.266 -46.249  29.342  1.00  0.00     0.004 C 
BRANCH   2   3
ATOM      3  C   UNL     1      38.820 -45.553  28.061  1.00  0.00    -0.009 C 
BRANCH   3   4
ATOM      4  C   UNL     1      40.128 -44.731  28.295  1.00  0.00     0.000 C 
ATOM      5  C   UNL     1      41.132 -45.331  29.287  1.00  0.00     0.004 C 
ENDBRANCH   3   4
BRANCH   3   6
ATOM      6  C   UNL     1      37.743 -44.735  27.273  1.00  0.00    -0.014 C 
ATOM      7  C   UNL     1      37.273 -45.409  25.975  1.00  0.00     0.007 C 
ATOM      8  C   UNL     1      38.196 -43.293  26.987  1.00  0.00     0.007 C 
ENDBRANCH   3   6
ENDBRANCH   2   3
ENDBRANCH   1   2
BRANCH   1   9
ATOM      9  C   UNL     1      37.407 -45.030  31.470  1.00  0.00    -0.011 C 
ATOM     10  C   UNL     1      38.388 -46.006  32.141  1.00  0.00     0.008 C 
BRANCH   9  11
ATOM     11  C   UNL     1      37.805 -43.520  31.695  1.00  0.00    -0.002 C 
ATOM     12  C   UNL     1      37.980 -42.749  30.379  1.00  0.00     0.005 C 
ATOM     13  C   UNL     1      38.985 -43.076  32.630  1.00  0.00    -0.026 C 
ATOM     14  C   UNL     1      38.870 -41.551  30.683  1.00  0.00     0.005 C 
ATOM     15  C   UNL     1      39.205 -41.596  32.181  1.00  0.00    -0.001 C 
ATOM     16  C   UNL     1      40.271 -43.918  32.419  1.00  0.00     0.007 C 
ATOM     17  C   UNL     1      38.544 -43.147  34.116  1.00  0.00     0.012 C 
ATOM     18  C   UNL     1      40.596 -40.946  32.472  1.00  0.00     0.000 C 
ATOM     19  C   UNL     1      41.555 -43.241  32.919  1.00  0.00     0.005 C 
ATOM     20  C   UNL     1      41.788 -41.894  32.191  1.00  0.00     0.003 C 
ATOM     21  C   UNL     1      40.682 -40.371  33.894  1.00  0.00     0.031 C 
ATOM     22  C   UNL     1      43.189 -41.179  32.447  1.00  0.00    -0.008 C 
ATOM     23  C   UNL     1      41.993 -39.694  34.124  1.00  0.00    -0.027 C 
ATOM     24  C   UNL     1      43.140 -40.094  33.539  1.00  0.00    -0.065 C 
ATOM     25  C   UNL     1      43.617 -40.459  31.126  1.00  0.00     0.014 C 
ATOM     26  C   UNL     1      44.280 -42.222  32.815  1.00  0.00     0.016 C 
ATOM     27  C   UNL     1      44.375 -39.237  33.729  1.00  0.00     0.063 C 
ATOM     28  C   UNL     1      44.862 -39.558  31.266  1.00  0.00     0.033 C 
ATOM     29  C   UNL     1      44.711 -38.536  32.404  1.00  0.00     0.118 C 
BRANCH  29  30
ATOM     30  O   UNL     1      45.907 -37.814  32.534  1.00  0.00    -0.393 OA
ATOM     31  H   UNL     1      46.169 -37.525  31.622  1.00  0.00     0.210 HD
ENDBRANCH  29  30
ENDBRANCH   9  11
ENDBRANCH   1   9
TORSDOF 7
ENDMDL
MODEL 4
REMARK VINA RESULT:    -4.557      3.285      8.329
REMARK INTER + INTRA:          -6.889
REMARK INTER:                  -6.102
REMARK INTRA:                  -0.787
REMARK UNBOUND:                -0.601
REMARK SMILES CC[C@@H](CC[C@@H](C)[C@@H]1CC[C@@H]2[C@H]3CC=C4C[C@@H](O)CC[C@]4(C)[C@H]3CC[C@@]21C)C(C)C
REMARK SMILES IDX 5 1 4 2 3 3 2 4 1 5 28 6 29 7 30 8 6 9 7 10 8 11 9 12 26 13
REMARK SMILES IDX 10 14 11 15 25 16 27 17 12 18 24 19 23 20 13 21 21 22 14 23
REMARK SMILES IDX 15 24 20 25 22 26 16 27 19 28 17 29 18 30
REMARK H PARENT 18 31
REMARK Flexibility Score: inf
ROOT
ATOM      1  C   UNL     1      44.687 -39.478  32.502  1.00  0.00     0.004 C 
ENDROOT
BRANCH   1   2
ATOM      2  C   UNL     1      43.947 -38.122  32.637  1.00  0.00     0.004 C 
BRANCH   2   3
ATOM      3  C   UNL     1      43.583 -37.473  31.266  1.00  0.00    -0.009 C 
BRANCH   3   4
ATOM      4  C   UNL     1      42.131 -37.779  30.780  1.00  0.00     0.000 C 
ATOM      5  C   UNL     1      41.099 -38.066  31.877  1.00  0.00     0.004 C 
ENDBRANCH   3   4
BRANCH   3   6
ATOM      6  C   UNL     1      44.647 -37.730  30.147  1.00  0.00    -0.014 C 
ATOM      7  C   UNL     1      45.947 -36.931  30.325  1.00  0.00     0.007 C 
ATOM      8  C   UNL     1      44.077 -37.505  28.735  1.00  0.00     0.007 C 
ENDBRANCH   3   6
ENDBRANCH   2   3
ENDBRANCH   1   2
BRANCH   1   9
ATOM      9  C   UNL     1      44.047 -40.621  33.345  1.00  0.00    -0.011 C 
ATOM     10  C   UNL     1      42.826 -40.102  34.123  1.00  0.00     0.008 C 
BRANCH   9  11
ATOM     11  C   UNL     1      43.761 -41.986  32.609  1.00  0.00    -0.002 C 
ATOM     12  C   UNL     1      44.298 -42.012  31.171  1.00  0.00     0.005 C 
ATOM     13  C   UNL     1      42.341 -42.654  32.564  1.00  0.00    -0.026 C 
ATOM     14  C   UNL     1      43.509 -43.076  30.422  1.00  0.00     0.005 C 
ATOM     15  C   UNL     1      42.520 -43.699  31.417  1.00  0.00    -0.001 C 
ATOM     16  C   UNL     1      41.212 -41.646  32.227  1.00  0.00     0.007 C 
ATOM     17  C   UNL     1      42.038 -43.355  33.915  1.00  0.00     0.012 C 
ATOM     18  C   UNL     1      41.233 -44.213  30.694  1.00  0.00     0.000 C 
ATOM     19  C   UNL     1      39.926 -42.295  31.696  1.00  0.00     0.005 C 
ATOM     20  C   UNL     1      40.206 -43.092  30.397  1.00  0.00     0.003 C 
ATOM     21  C   UNL     1      40.567 -45.374  31.448  1.00  0.00     0.031 C 
ATOM     22  C   UNL     1      38.934 -43.644  29.611  1.00  0.00    -0.008 C 
ATOM     23  C   UNL     1      39.382 -45.892  30.702  1.00  0.00    -0.027 C 
ATOM     24  C   UNL     1      38.596 -45.111  29.934  1.00  0.00    -0.065 C 
ATOM     25  C   UNL     1      39.245 -43.588  28.080  1.00  0.00     0.014 C 
ATOM     26  C   UNL     1      37.688 -42.761  29.894  1.00  0.00     0.016 C 
ATOM     27  C   UNL     1      37.517 -45.778  29.106  1.00  0.00     0.063 C 
ATOM     28  C   UNL     1      38.184 -44.268  27.188  1.00  0.00     0.033 C 
ATOM     29  C   UNL     1      37.908 -45.716  27.622  1.00  0.00     0.118 C 
BRANCH  29  30
ATOM     30  O   UNL     1      36.875 -46.243  26.832  1.00  0.00    -0.393 OA
ATOM     31  H   UNL     1      36.032 -45.826  27.147  1.00  0.00     0.210 HD
ENDBRANCH  29  30
ENDBRANCH   9  11
ENDBRANCH   1   9
TORSDOF 7
ENDMDL
MODEL 5
REMARK VINA RESULT:    -4.369      1.409      2.100
REMARK INTER + INTRA:          -6.631
REMARK INTER:                  -6.163
REMARK INTRA:                  -0.468
REMARK UNBOUND:                -0.601
REMARK SMILES CC[C@@H](CC[C@@H](C)[C@@H]1CC[C@@H]2[C@H]3CC=C4C[C@@H](O)CC[C@]4(C)[C@H]3CC[C@@]21C)C(C)C
REMARK SMILES IDX 5 1 4 2 3 3 2 4 1 5 28 6 29 7 30 8 6 9 7 10 8 11 9 12 26 13
REMARK SMILES IDX 10 14 11 15 25 16 27 17 12 18 24 19 23 20 13 21 21 22 14 23
REMARK SMILES IDX 15 24 20 25 22 26 16 27 19 28 17 29 18 30
REMARK H PARENT 18 31
REMARK Flexibility Score: inf
ROOT
ATOM      1  C   UNL     1      38.343 -44.694  27.637  1.00  0.00     0.004 C 
ENDROOT
BRANCH   1   2
ATOM      2  C   UNL     1      37.665 -45.206  26.339  1.00  0.00     0.004 C 
BRANCH   2   3
ATOM      3  C   UNL     1      37.072 -44.067  25.456  1.00  0.00    -0.009 C 
BRANCH   3   4
ATOM      4  C   UNL     1      36.936 -44.434  23.944  1.00  0.00     0.000 C 
ATOM      5  C   UNL     1      37.472 -45.811  23.534  1.00  0.00     0.004 C 
ENDBRANCH   3   4
BRANCH   3   6
ATOM      6  C   UNL     1      37.767 -42.681  25.666  1.00  0.00    -0.014 C 
ATOM      7  C   UNL     1      37.161 -41.844  26.803  1.00  0.00     0.007 C 
ATOM      8  C   UNL     1      37.826 -41.852  24.372  1.00  0.00     0.007 C 
ENDBRANCH   3   6
ENDBRANCH   2   3
ENDBRANCH   1   2
BRANCH   1   9
ATOM      9  C   UNL     1      37.644 -45.189  28.938  1.00  0.00    -0.011 C 
ATOM     10  C   UNL     1      37.730 -46.720  29.051  1.00  0.00     0.008 C 
BRANCH   9  11
ATOM     11  C   UNL     1      38.024 -44.460  30.283  1.00  0.00    -0.002 C 
ATOM     12  C   UNL     1      37.520 -43.010  30.338  1.00  0.00     0.005 C 
ATOM     13  C   UNL     1      39.480 -44.445  30.868  1.00  0.00    -0.026 C 
ATOM     14  C   UNL     1      38.385 -42.278  31.353  1.00  0.00     0.005 C 
ATOM     15  C   UNL     1      39.387 -43.294  31.920  1.00  0.00    -0.001 C 
ATOM     16  C   UNL     1      40.556 -44.133  29.796  1.00  0.00     0.007 C 
ATOM     17  C   UNL     1      39.794 -45.801  31.553  1.00  0.00     0.012 C 
ATOM     18  C   UNL     1      40.717 -42.598  32.357  1.00  0.00     0.000 C 
ATOM     19  C   UNL     1      41.888 -43.629  30.369  1.00  0.00     0.005 C 
ATOM     20  C   UNL     1      41.683 -42.324  31.179  1.00  0.00     0.003 C 
ATOM     21  C   UNL     1      41.432 -43.366  33.479  1.00  0.00     0.031 C 
ATOM     22  C   UNL     1      43.002 -41.566  31.655  1.00  0.00    -0.008 C 
ATOM     23  C   UNL     1      42.662 -42.645  33.927  1.00  0.00    -0.027 C 
ATOM     24  C   UNL     1      43.417 -41.896  33.100  1.00  0.00    -0.065 C 
ATOM     25  C   UNL     1      42.721 -40.029  31.614  1.00  0.00     0.014 C 
ATOM     26  C   UNL     1      44.189 -41.877  30.701  1.00  0.00     0.016 C 
ATOM     27  C   UNL     1      44.551 -41.091  33.702  1.00  0.00     0.063 C 
ATOM     28  C   UNL     1      43.838 -39.160  32.230  1.00  0.00     0.033 C 
ATOM     29  C   UNL     1      44.188 -39.599  33.660  1.00  0.00     0.118 C 
BRANCH  29  30
ATOM     30  O   UNL     1      45.267 -38.831  34.125  1.00  0.00    -0.393 OA
ATOM     31  H   UNL     1      45.087 -38.631  35.079  1.00  0.00     0.210 HD
ENDBRANCH  29  30
ENDBRANCH   9  11
ENDBRANCH   1   9
TORSDOF 7
ENDMDL
MODEL 6
REMARK VINA RESULT:    -4.116      3.837      8.400
REMARK INTER + INTRA:          -6.281
REMARK INTER:                  -5.239
REMARK INTRA:                  -1.042
REMARK UNBOUND:                -0.601
REMARK SMILES CC[C@@H](CC[C@@H](C)[C@@H]1CC[C@@H]2[C@H]3CC=C4C[C@@H](O)CC[C@]4(C)[C@H]3CC[C@@]21C)C(C)C
REMARK SMILES IDX 5 1 4 2 3 3 2 4 1 5 28 6 29 7 30 8 6 9 7 10 8 11 9 12 26 13
REMARK SMILES IDX 10 14 11 15 25 16 27 17 12 18 24 19 23 20 13 21 21 22 14 23
REMARK SMILES IDX 15 24 20 25 22 26 16 27 19 28 17 29 18 30
REMARK H PARENT 18 31
REMARK Flexibility Score: inf
ROOT
ATOM      1  C   UNL     1      41.705 -37.256  32.446  1.00  0.00     0.004 C 
ENDROOT
BRANCH   1   2
ATOM      2  C   UNL     1      43.226 -36.975  32.565  1.00  0.00     0.004 C 
BRANCH   2   3
ATOM      3  C   UNL     1      44.030 -37.351  31.283  1.00  0.00    -0.009 C 
BRANCH   3   4
ATOM      4  C   UNL     1      43.140 -37.628  30.029  1.00  0.00     0.000 C 
ATOM      5  C   UNL     1      43.706 -37.157  28.685  1.00  0.00     0.004 C 
ENDBRANCH   3   4
BRANCH   3   6
ATOM      6  C   UNL     1      45.092 -38.478  31.513  1.00  0.00    -0.014 C 
ATOM      7  C   UNL     1      46.514 -38.095  31.077  1.00  0.00     0.007 C 
ATOM      8  C   UNL     1      44.680 -39.812  30.867  1.00  0.00     0.007 C 
ENDBRANCH   3   6
ENDBRANCH   2   3
ENDBRANCH   1   2
BRANCH   1   9
ATOM      9  C   UNL     1      41.070 -37.796  33.762  1.00  0.00    -0.011 C 
ATOM     10  C   UNL     1      39.803 -37.001  34.120  1.00  0.00     0.008 C 
BRANCH   9  11
ATOM     11  C   UNL     1      40.859 -39.354  33.874  1.00  0.00    -0.002 C 
ATOM     12  C   UNL     1      42.121 -40.153  33.520  1.00  0.00     0.005 C 
ATOM     13  C   UNL     1      39.656 -40.107  33.203  1.00  0.00    -0.026 C 
ATOM     14  C   UNL     1      41.665 -41.551  33.124  1.00  0.00     0.005 C 
ATOM     15  C   UNL     1      40.137 -41.591  33.264  1.00  0.00    -0.001 C 
ATOM     16  C   UNL     1      39.409 -39.661  31.738  1.00  0.00     0.007 C 
ATOM     17  C   UNL     1      38.365 -39.905  34.041  1.00  0.00     0.012 C 
ATOM     18  C   UNL     1      39.501 -42.604  32.259  1.00  0.00     0.000 C 
ATOM     19  C   UNL     1      38.608 -40.669  30.901  1.00  0.00     0.005 C 
ATOM     20  C   UNL     1      39.340 -42.032  30.829  1.00  0.00     0.003 C 
ATOM     21  C   UNL     1      38.167 -43.171  32.770  1.00  0.00     0.031 C 
ATOM     22  C   UNL     1      38.740 -43.111  29.821  1.00  0.00    -0.008 C 
ATOM     23  C   UNL     1      37.615 -44.187  31.826  1.00  0.00    -0.027 C 
ATOM     24  C   UNL     1      37.801 -44.130  30.492  1.00  0.00    -0.065 C 
ATOM     25  C   UNL     1      39.928 -43.931  29.220  1.00  0.00     0.014 C 
ATOM     26  C   UNL     1      37.983 -42.413  28.656  1.00  0.00     0.016 C 
ATOM     27  C   UNL     1      37.324 -45.299  29.654  1.00  0.00     0.063 C 
ATOM     28  C   UNL     1      39.499 -45.145  28.369  1.00  0.00     0.033 C 
ATOM     29  C   UNL     1      38.542 -46.075  29.130  1.00  0.00     0.118 C 
BRANCH  29  30
ATOM     30  O   UNL     1      38.122 -47.103  28.273  1.00  0.00    -0.393 OA
ATOM     31  H   UNL     1      37.641 -47.765  28.833  1.00  0.00     0.210 HD
ENDBRANCH  29  30
ENDBRANCH   9  11
ENDBRANCH   1   9
TORSDOF 7
ENDMDL
MODEL 7
REMARK VINA RESULT:    -4.103      1.973      3.772
REMARK INTER + INTRA:          -6.263
REMARK INTER:                  -5.580
REMARK INTRA:                  -0.683
REMARK UNBOUND:                -0.601
REMARK SMILES CC[C@@H](CC[C@@H](C)[C@@H]1CC[C@@H]2[C@H]3CC=C4C[C@@H](O)CC[C@]4(C)[C@H]3CC[C@@]21C)C(C)C
REMARK SMILES IDX 5 1 4 2 3 3 2 4 1 5 28 6 29 7 30 8 6 9 7 10 8 11 9 12 26 13
REMARK SMILES IDX 10 14 11 15 25 16 27 17 12 18 24 19 23 20 13 21 21 22 14 23
REMARK SMILES IDX 15 24 20 25 22 26 16 27 19 28 17 29 18 30
REMARK H PARENT 18 31
REMARK Flexibility Score: inf
ROOT
ATOM      1  C   UNL     1      38.497 -42.551  23.014  1.00  0.00     0.004 C 
ENDROOT
BRANCH   1   2
ATOM      2  C   UNL     1      38.001 -41.450  22.040  1.00  0.00     0.004 C 
BRANCH   2   3
ATOM      3  C   UNL     1      38.658 -41.527  20.628  1.00  0.00    -0.009 C 
BRANCH   3   4
ATOM      4  C   UNL     1      39.450 -42.848  20.363  1.00  0.00     0.000 C 
ATOM      5  C   UNL     1      39.074 -43.614  19.090  1.00  0.00     0.004 C 
ENDBRANCH   3   4
BRANCH   3   6
ATOM      6  C   UNL     1      39.488 -40.255  20.249  1.00  0.00    -0.014 C 
ATOM      7  C   UNL     1      39.276 -39.066  21.198  1.00  0.00     0.007 C 
ATOM      8  C   UNL     1      39.259 -39.818  18.792  1.00  0.00     0.007 C 
ENDBRANCH   3   6
ENDBRANCH   2   3
ENDBRANCH   1   2
BRANCH   1   9
ATOM      9  C   UNL     1      37.378 -43.541  23.453  1.00  0.00    -0.011 C 
ATOM     10  C   UNL     1      37.701 -44.969  22.984  1.00  0.00     0.008 C 
BRANCH   9  11
ATOM     11  C   UNL     1      36.918 -43.487  24.960  1.00  0.00    -0.002 C 
ATOM     12  C   UNL     1      36.943 -42.066  25.540  1.00  0.00     0.005 C 
ATOM     13  C   UNL     1      37.507 -44.429  26.069  1.00  0.00    -0.026 C 
ATOM     14  C   UNL     1      37.037 -42.206  27.053  1.00  0.00     0.005 C 
ATOM     15  C   UNL     1      37.045 -43.708  27.375  1.00  0.00    -0.001 C 
ATOM     16  C   UNL     1      39.053 -44.536  26.010  1.00  0.00     0.007 C 
ATOM     17  C   UNL     1      36.875 -45.842  25.961  1.00  0.00     0.012 C 
ATOM     18  C   UNL     1      37.838 -44.003  28.689  1.00  0.00     0.000 C 
ATOM     19  C   UNL     1      39.701 -45.017  27.315  1.00  0.00     0.005 C 
ATOM     20  C   UNL     1      39.372 -44.054  28.483  1.00  0.00     0.003 C 
ATOM     21  C   UNL     1      37.342 -45.275  29.393  1.00  0.00     0.031 C 
ATOM     22  C   UNL     1      40.148 -44.302  29.853  1.00  0.00    -0.008 C 
ATOM     23  C   UNL     1      38.067 -45.497  30.680  1.00  0.00    -0.027 C 
ATOM     24  C   UNL     1      39.350 -45.133  30.874  1.00  0.00    -0.065 C 
ATOM     25  C   UNL     1      40.413 -42.914  30.521  1.00  0.00     0.014 C 
ATOM     26  C   UNL     1      41.515 -44.994  29.592  1.00  0.00     0.016 C 
ATOM     27  C   UNL     1      39.928 -45.270  32.268  1.00  0.00     0.063 C 
ATOM     28  C   UNL     1      40.989 -42.994  31.951  1.00  0.00     0.033 C 
ATOM     29  C   UNL     1      40.126 -43.872  32.872  1.00  0.00     0.118 C 
BRANCH  29  30
ATOM     30  O   UNL     1      40.751 -43.976  34.124  1.00  0.00    -0.393 OA
ATOM     31  H   UNL     1      40.304 -43.323  34.722  1.00  0.00     0.210 HD
ENDBRANCH  29  30
ENDBRANCH   9  11
ENDBRANCH   1   9
TORSDOF 7
ENDMDL
MODEL 8
REMARK VINA RESULT:    -3.919      2.558      4.532
REMARK INTER + INTRA:          -6.009
REMARK INTER:                  -4.825
REMARK INTRA:                  -1.184
REMARK UNBOUND:                -0.601
REMARK SMILES CC[C@@H](CC[C@@H](C)[C@@H]1CC[C@@H]2[C@H]3CC=C4C[C@@H](O)CC[C@]4(C)[C@H]3CC[C@@]21C)C(C)C
REMARK SMILES IDX 5 1 4 2 3 3 2 4 1 5 28 6 29 7 30 8 6 9 7 10 8 11 9 12 26 13
REMARK SMILES IDX 10 14 11 15 25 16 27 17 12 18 24 19 23 20 13 21 21 22 14 23
REMARK SMILES IDX 15 24 20 25 22 26 16 27 19 28 17 29 18 30
REMARK H PARENT 18 31
REMARK Flexibility Score: inf
ROOT
ATOM      1  C   UNL     1      37.658 -41.111  22.646  1.00  0.00     0.004 C 
ENDROOT
BRANCH   1   2
ATOM      2  C   UNL     1      38.621 -41.298  21.444  1.00  0.00     0.004 C 
BRANCH   2   3
ATOM      3  C   UNL     1      38.423 -42.649  20.693  1.00  0.00    -0.009 C 
BRANCH   3   4
ATOM      4  C   UNL     1      38.788 -43.912  21.538  1.00  0.00     0.000 C 
ATOM      5  C   UNL     1      37.644 -44.897  21.805  1.00  0.00     0.004 C 
ENDBRANCH   3   4
BRANCH   3   6
ATOM      6  C   UNL     1      39.078 -42.681  19.271  1.00  0.00    -0.014 C 
ATOM      7  C   UNL     1      40.352 -43.536  19.190  1.00  0.00     0.007 C 
ATOM      8  C   UNL     1      39.349 -41.271  18.719  1.00  0.00     0.007 C 
ENDBRANCH   3   6
ENDBRANCH   2   3
ENDBRANCH   1   2
BRANCH   1   9
ATOM      9  C   UNL     1      38.382 -41.093  24.024  1.00  0.00    -0.011 C 
ATOM     10  C   UNL     1      39.068 -39.737  24.259  1.00  0.00     0.008 C 
BRANCH   9  11
ATOM     11  C   UNL     1      37.559 -41.581  25.278  1.00  0.00    -0.002 C 
ATOM     12  C   UNL     1      37.426 -40.500  26.360  1.00  0.00     0.005 C 
ATOM     13  C   UNL     1      37.861 -42.925  26.030  1.00  0.00    -0.026 C 
ATOM     14  C   UNL     1      37.140 -41.218  27.672  1.00  0.00     0.005 C 
ATOM     15  C   UNL     1      37.080 -42.722  27.367  1.00  0.00    -0.001 C 
ATOM     16  C   UNL     1      39.374 -43.141  26.296  1.00  0.00     0.007 C 
ATOM     17  C   UNL     1      37.289 -44.125  25.228  1.00  0.00     0.012 C 
ATOM     18  C   UNL     1      37.522 -43.570  28.604  1.00  0.00     0.000 C 
ATOM     19  C   UNL     1      39.679 -44.143  27.417  1.00  0.00     0.005 C 
ATOM     20  C   UNL     1      39.059 -43.677  28.758  1.00  0.00     0.003 C 
ATOM     21  C   UNL     1      36.877 -44.964  28.612  1.00  0.00     0.031 C 
ATOM     22  C   UNL     1      39.470 -44.501  30.059  1.00  0.00    -0.008 C 
ATOM     23  C   UNL     1      37.259 -45.728  29.837  1.00  0.00    -0.027 C 
ATOM     24  C   UNL     1      38.449 -45.584  30.452  1.00  0.00    -0.065 C 
ATOM     25  C   UNL     1      39.547 -43.506  31.262  1.00  0.00     0.014 C 
ATOM     26  C   UNL     1      40.865 -45.160  29.873  1.00  0.00     0.016 C 
ATOM     27  C   UNL     1      38.662 -46.298  31.772  1.00  0.00     0.063 C 
ATOM     28  C   UNL     1      39.747 -44.182  32.636  1.00  0.00     0.033 C 
ATOM     29  C   UNL     1      38.690 -45.263  32.907  1.00  0.00     0.118 C 
BRANCH  29  30
ATOM     30  O   UNL     1      38.982 -45.896  34.125  1.00  0.00    -0.393 OA
ATOM     31  H   UNL     1      38.159 -46.373  34.405  1.00  0.00     0.210 HD
ENDBRANCH  29  30
ENDBRANCH   9  11
ENDBRANCH   1   9
TORSDOF 7
ENDMDL
MODEL 9
REMARK VINA RESULT:    -3.803      4.643      8.023
REMARK INTER + INTRA:          -5.849
REMARK INTER:                  -4.583
REMARK INTRA:                  -1.266
REMARK UNBOUND:                -0.601
REMARK SMILES CC[C@@H](CC[C@@H](C)[C@@H]1CC[C@@H]2[C@H]3CC=C4C[C@@H](O)CC[C@]4(C)[C@H]3CC[C@@]21C)C(C)C
REMARK SMILES IDX 5 1 4 2 3 3 2 4 1 5 28 6 29 7 30 8 6 9 7 10 8 11 9 12 26 13
REMARK SMILES IDX 10 14 11 15 25 16 27 17 12 18 24 19 23 20 13 21 21 22 14 23
REMARK SMILES IDX 15 24 20 25 22 26 16 27 19 28 17 29 18 30
REMARK H PARENT 18 31
REMARK Flexibility Score: inf
ROOT
ATOM      1  C   UNL     1      41.809 -39.025  31.652  1.00  0.00     0.004 C 
ENDROOT
BRANCH   1   2
ATOM      2  C   UNL     1      42.670 -39.198  32.931  1.00  0.00     0.004 C 
BRANCH   2   3
ATOM      3  C   UNL     1      43.844 -40.209  32.758  1.00  0.00    -0.009 C 
BRANCH   3   4
ATOM      4  C   UNL     1      44.523 -40.167  31.352  1.00  0.00     0.000 C 
ATOM      5  C   UNL     1      44.456 -41.460  30.532  1.00  0.00     0.004 C 
ENDBRANCH   3   4
BRANCH   3   6
ATOM      6  C   UNL     1      43.487 -41.669  33.197  1.00  0.00    -0.014 C 
ATOM      7  C   UNL     1      42.233 -41.767  34.079  1.00  0.00     0.007 C 
ATOM      8  C   UNL     1      44.669 -42.383  33.875  1.00  0.00     0.007 C 
ENDBRANCH   3   6
ENDBRANCH   2   3
ENDBRANCH   1   2
BRANCH   1   9
ATOM      9  C   UNL     1      40.424 -38.366  31.921  1.00  0.00    -0.011 C 
ATOM     10  C   UNL     1      40.148 -37.247  30.904  1.00  0.00     0.008 C 
BRANCH   9  11
ATOM     11  C   UNL     1      39.191 -39.331  32.110  1.00  0.00    -0.002 C 
ATOM     12  C   UNL     1      38.892 -39.634  33.585  1.00  0.00     0.005 C 
ATOM     13  C   UNL     1      39.041 -40.690  31.340  1.00  0.00    -0.026 C 
ATOM     14  C   UNL     1      38.111 -40.940  33.621  1.00  0.00     0.005 C 
ATOM     15  C   UNL     1      37.925 -41.402  32.168  1.00  0.00    -0.001 C 
ATOM     16  C   UNL     1      40.348 -41.526  31.333  1.00  0.00     0.007 C 
ATOM     17  C   UNL     1      38.572 -40.430  29.883  1.00  0.00     0.012 C 
ATOM     18  C   UNL     1      37.831 -42.960  32.076  1.00  0.00     0.000 C 
ATOM     19  C   UNL     1      40.138 -43.019  31.045  1.00  0.00     0.005 C 
ATOM     20  C   UNL     1      39.211 -43.661  32.107  1.00  0.00     0.003 C 
ATOM     21  C   UNL     1      37.015 -43.421  30.859  1.00  0.00     0.031 C 
ATOM     22  C   UNL     1      39.072 -45.249  32.065  1.00  0.00    -0.008 C 
ATOM     23  C   UNL     1      36.880 -44.908  30.831  1.00  0.00    -0.027 C 
ATOM     24  C   UNL     1      37.830 -45.741  31.300  1.00  0.00    -0.065 C 
ATOM     25  C   UNL     1      38.921 -45.763  33.534  1.00  0.00     0.014 C 
ATOM     26  C   UNL     1      40.341 -45.895  31.444  1.00  0.00     0.016 C 
ATOM     27  C   UNL     1      37.515 -47.222  31.358  1.00  0.00     0.063 C 
ATOM     28  C   UNL     1      38.583 -47.265  33.652  1.00  0.00     0.033 C 
ATOM     29  C   UNL     1      37.345 -47.645  32.825  1.00  0.00     0.118 C 
BRANCH  29  30
ATOM     30  O   UNL     1      37.149 -49.032  32.904  1.00  0.00    -0.393 OA
ATOM     31  H   UNL     1      37.670 -49.352  33.685  1.00  0.00     0.210 HD
ENDBRANCH  29  30
ENDBRANCH   9  11
ENDBRANCH   1   9
TORSDOF 7
ENDMDL
