MODEL 1
REMARK VINA RESULT:     0.125      0.000      0.000
REMARK INTER + INTRA:          -0.733
REMARK INTER:                   0.286
REMARK INTRA:                  -1.018
REMARK UNBOUND:                -1.018
REMARK SMILES CCCCCCCCCCCCCCCCCCCCCCCC(=O)[O-]
REMARK SMILES IDX 13 1 14 2 15 3 16 4 17 5 18 6 19 7 20 8 21 9 22 10 23 11
REMARK SMILES IDX 24 12 25 13 26 14 12 15 11 16 10 17 9 18 8 19 7 20 6 21 5 22
REMARK SMILES IDX 4 23 3 24 2 25 1 26
REMARK H PARENT
REMARK Flexibility Score: inf
ROOT
ATOM      1  C   UNL     1       1.379  21.267  15.827  1.00  0.00     0.000 C 
ENDROOT
BRANCH   1   2
ATOM      2  C   UNL     1       0.784  19.875  16.106  1.00  0.00     0.000 C 
BRANCH   2   3
ATOM      3  C   UNL     1      -0.568  19.947  16.832  1.00  0.00     0.000 C 
BRANCH   3   4
ATOM      4  C   UNL     1      -1.590  20.835  16.100  1.00  0.00     0.000 C 
BRANCH   4   5
ATOM      5  C   UNL     1      -2.915  20.105  15.825  1.00  0.00     0.000 C 
BRANCH   5   6
ATOM      6  C   UNL     1      -4.110  21.069  15.731  1.00  0.00     0.000 C 
BRANCH   6   7
ATOM      7  C   UNL     1      -5.038  20.748  14.548  1.00  0.00     0.000 C 
BRANCH   7   8
ATOM      8  C   UNL     1      -6.446  20.264  14.944  1.00  0.00     0.000 C 
BRANCH   8   9
ATOM      9  C   UNL     1      -7.330  21.365  15.570  1.00  0.00     0.000 C 
BRANCH   9  10
ATOM     10  C   UNL     1      -8.388  20.791  16.528  1.00  0.00     0.006 C 
BRANCH  10  11
ATOM     11  C   UNL     1      -7.774  20.297  17.845  1.00  0.00     0.053 C 
BRANCH  11  12
ATOM     12  C   UNL     1      -7.902  21.316  18.935  1.00  0.00     0.041 C 
ATOM     13  O   UNL     1      -8.941  22.021  19.023  1.00  0.00    -0.550 OA
ATOM     14  O   UNL     1      -6.856  21.517  19.828  1.00  0.00    -0.550 OA
ENDBRANCH  11  12
ENDBRANCH  10  11
ENDBRANCH   9  10
ENDBRANCH   8   9
ENDBRANCH   7   8
ENDBRANCH   6   7
ENDBRANCH   5   6
ENDBRANCH   4   5
ENDBRANCH   3   4
ENDBRANCH   2   3
ENDBRANCH   1   2
BRANCH   1  15
ATOM     15  C   UNL     1       2.909  21.293  15.966  1.00  0.00     0.000 C 
BRANCH  15  16
ATOM     16  C   UNL     1       3.563  19.966  15.543  1.00  0.00     0.000 C 
BRANCH  16  17
ATOM     17  C   UNL     1       5.079  19.952  15.797  1.00  0.00     0.000 C 
BRANCH  17  18
ATOM     18  C   UNL     1       5.847  20.875  14.833  1.00  0.00    -0.000 C 
BRANCH  18  19
ATOM     19  C   UNL     1       6.657  20.089  13.791  1.00  0.00    -0.000 C 
BRANCH  19  20
ATOM     20  C   UNL     1       8.118  19.875  14.222  1.00  0.00    -0.000 C 
BRANCH  20  21
ATOM     21  C   UNL     1       9.093  20.835  13.518  1.00  0.00    -0.000 C 
BRANCH  21  22
ATOM     22  C   UNL     1      10.498  20.255  13.249  1.00  0.00    -0.000 C 
BRANCH  22  23
ATOM     23  C   UNL     1      10.916  20.216  11.768  1.00  0.00    -0.000 C 
BRANCH  23  24
ATOM     24  C   UNL     1       9.733  20.400  10.809  1.00  0.00    -0.000 C 
BRANCH  24  25
ATOM     25  C   UNL     1      10.209  20.880   9.433  1.00  0.00    -0.003 C 
ATOM     26  C   UNL     1       9.212  20.503   8.342  1.00  0.00     0.004 C 
ENDBRANCH  24  25
ENDBRANCH  23  24
ENDBRANCH  22  23
ENDBRANCH  21  22
ENDBRANCH  20  21
ENDBRANCH  19  20
ENDBRANCH  18  19
ENDBRANCH  17  18
ENDBRANCH  16  17
ENDBRANCH  15  16
ENDBRANCH   1  15
TORSDOF 22
ENDMDL
MODEL 2
REMARK VINA RESULT:     0.148      1.621      1.936
REMARK INTER + INTRA:          -0.679
REMARK INTER:                   0.147
REMARK INTRA:                  -0.826
REMARK UNBOUND:                -1.018
REMARK SMILES CCCCCCCCCCCCCCCCCCCCCCCC(=O)[O-]
REMARK SMILES IDX 13 1 14 2 15 3 16 4 17 5 18 6 19 7 20 8 21 9 22 10 23 11
REMARK SMILES IDX 24 12 25 13 26 14 12 15 11 16 10 17 9 18 8 19 7 20 6 21 5 22
REMARK SMILES IDX 4 23 3 24 2 25 1 26
REMARK H PARENT
REMARK Flexibility Score: inf
ROOT
ATOM      1  C   UNL     1       1.079  21.445  15.808  1.00  0.00     0.000 C 
ENDROOT
BRANCH   1   2
ATOM      2  C   UNL     1      -0.101  20.484  15.581  1.00  0.00     0.000 C 
BRANCH   2   3
ATOM      3  C   UNL     1      -1.409  20.999  16.205  1.00  0.00     0.000 C 
BRANCH   3   4
ATOM      4  C   UNL     1      -2.472  19.896  16.351  1.00  0.00     0.000 C 
BRANCH   4   5
ATOM      5  C   UNL     1      -3.876  20.464  16.615  1.00  0.00     0.000 C 
BRANCH   5   6
ATOM      6  C   UNL     1      -4.832  20.245  15.430  1.00  0.00     0.000 C 
BRANCH   6   7
ATOM      7  C   UNL     1      -6.071  21.155  15.492  1.00  0.00     0.000 C 
BRANCH   7   8
ATOM      8  C   UNL     1      -7.329  20.579  14.816  1.00  0.00     0.000 C 
BRANCH   8   9
ATOM      9  C   UNL     1      -8.586  20.605  15.712  1.00  0.00     0.000 C 
BRANCH   9  10
ATOM     10  C   UNL     1      -8.242  20.837  17.194  1.00  0.00     0.006 C 
BRANCH  10  11
ATOM     11  C   UNL     1      -8.750  22.193  17.704  1.00  0.00     0.053 C 
BRANCH  11  12
ATOM     12  C   UNL     1      -8.535  22.348  19.179  1.00  0.00     0.041 C 
ATOM     13  O   UNL     1      -8.728  23.463  19.732  1.00  0.00    -0.550 OA
ATOM     14  O   UNL     1      -8.080  21.274  19.934  1.00  0.00    -0.550 OA
ENDBRANCH  11  12
ENDBRANCH  10  11
ENDBRANCH   9  10
ENDBRANCH   8   9
ENDBRANCH   7   8
ENDBRANCH   6   7
ENDBRANCH   5   6
ENDBRANCH   4   5
ENDBRANCH   3   4
ENDBRANCH   2   3
ENDBRANCH   1   2
BRANCH   1  15
ATOM     15  C   UNL     1       2.436  20.724  15.799  1.00  0.00     0.000 C 
BRANCH  15  16
ATOM     16  C   UNL     1       3.623  21.695  15.918  1.00  0.00     0.000 C 
BRANCH  16  17
ATOM     17  C   UNL     1       4.910  20.995  16.380  1.00  0.00     0.000 C 
BRANCH  17  18
ATOM     18  C   UNL     1       5.691  20.365  15.212  1.00  0.00    -0.000 C 
BRANCH  18  19
ATOM     19  C   UNL     1       7.210  20.397  15.440  1.00  0.00    -0.000 C 
BRANCH  19  20
ATOM     20  C   UNL     1       7.997  19.875  14.225  1.00  0.00    -0.000 C 
BRANCH  20  21
ATOM     21  C   UNL     1       8.334  20.984  13.214  1.00  0.00    -0.000 C 
BRANCH  21  22
ATOM     22  C   UNL     1       9.359  20.588  12.130  1.00  0.00    -0.000 C 
BRANCH  22  23
ATOM     23  C   UNL     1      10.734  21.269  12.252  1.00  0.00    -0.000 C 
BRANCH  23  24
ATOM     24  C   UNL     1      10.637  22.733  12.701  1.00  0.00    -0.000 C 
BRANCH  24  25
ATOM     25  C   UNL     1      11.089  23.682  11.585  1.00  0.00    -0.003 C 
ATOM     26  C   UNL     1      10.742  25.130  11.917  1.00  0.00     0.004 C 
ENDBRANCH  24  25
ENDBRANCH  23  24
ENDBRANCH  22  23
ENDBRANCH  21  22
ENDBRANCH  20  21
ENDBRANCH  19  20
ENDBRANCH  18  19
ENDBRANCH  17  18
ENDBRANCH  16  17
ENDBRANCH  15  16
ENDBRANCH   1  15
TORSDOF 22
ENDMDL
MODEL 3
REMARK VINA RESULT:     0.288      5.554     14.365
REMARK INTER + INTRA:          -0.360
REMARK INTER:                   0.726
REMARK INTRA:                  -1.086
REMARK UNBOUND:                -1.018
REMARK SMILES CCCCCCCCCCCCCCCCCCCCCCCC(=O)[O-]
REMARK SMILES IDX 13 1 14 2 15 3 16 4 17 5 18 6 19 7 20 8 21 9 22 10 23 11
REMARK SMILES IDX 24 12 25 13 26 14 12 15 11 16 10 17 9 18 8 19 7 20 6 21 5 22
REMARK SMILES IDX 4 23 3 24 2 25 1 26
REMARK H PARENT
REMARK Flexibility Score: inf
ROOT
ATOM      1  C   UNL     1      -0.039  21.739  15.456  1.00  0.00     0.000 C 
ENDROOT
BRANCH   1   2
ATOM      2  C   UNL     1       1.169  20.789  15.370  1.00  0.00     0.000 C 
BRANCH   2   3
ATOM      3  C   UNL     1       2.412  21.351  16.077  1.00  0.00     0.000 C 
BRANCH   3   4
ATOM      4  C   UNL     1       3.496  20.284  16.314  1.00  0.00     0.000 C 
BRANCH   4   5
ATOM      5  C   UNL     1       4.370  20.048  15.071  1.00  0.00     0.000 C 
BRANCH   5   6
ATOM      6  C   UNL     1       5.525  21.059  14.963  1.00  0.00     0.000 C 
BRANCH   6   7
ATOM      7  C   UNL     1       6.641  20.795  15.987  1.00  0.00     0.000 C 
BRANCH   7   8
ATOM      8  C   UNL     1       7.772  19.876  15.487  1.00  0.00     0.000 C 
BRANCH   8   9
ATOM      9  C   UNL     1       8.126  20.078  13.997  1.00  0.00     0.000 C 
BRANCH   9  10
ATOM     10  C   UNL     1       9.643  20.037  13.746  1.00  0.00     0.006 C 
BRANCH  10  11
ATOM     11  C   UNL     1      10.086  21.064  12.695  1.00  0.00     0.053 C 
BRANCH  11  12
ATOM     12  C   UNL     1      10.600  22.321  13.327  1.00  0.00     0.041 C 
ATOM     13  O   UNL     1      10.794  22.371  14.570  1.00  0.00    -0.550 OA
ATOM     14  O   UNL     1      10.823  23.451  12.550  1.00  0.00    -0.550 OA
ENDBRANCH  11  12
ENDBRANCH  10  11
ENDBRANCH   9  10
ENDBRANCH   8   9
ENDBRANCH   7   8
ENDBRANCH   6   7
ENDBRANCH   5   6
ENDBRANCH   4   5
ENDBRANCH   3   4
ENDBRANCH   2   3
ENDBRANCH   1   2
BRANCH   1  15
ATOM     15  C   UNL     1      -1.371  20.987  15.601  1.00  0.00     0.000 C 
BRANCH  15  16
ATOM     16  C   UNL     1      -1.642  20.541  17.048  1.00  0.00     0.000 C 
BRANCH  16  17
ATOM     17  C   UNL     1      -3.026  19.892  17.213  1.00  0.00     0.000 C 
BRANCH  17  18
ATOM     18  C   UNL     1      -3.837  19.894  15.904  1.00  0.00    -0.000 C 
BRANCH  18  19
ATOM     19  C   UNL     1      -4.978  20.922  15.924  1.00  0.00    -0.000 C 
BRANCH  19  20
ATOM     20  C   UNL     1      -5.822  20.888  14.639  1.00  0.00    -0.000 C 
BRANCH  20  21
ATOM     21  C   UNL     1      -7.306  20.589  14.910  1.00  0.00    -0.000 C 
BRANCH  21  22
ATOM     22  C   UNL     1      -7.813  21.014  16.304  1.00  0.00    -0.000 C 
BRANCH  22  23
ATOM     23  C   UNL     1      -7.920  19.875  17.335  1.00  0.00    -0.000 C 
BRANCH  23  24
ATOM     24  C   UNL     1      -7.056  20.115  18.580  1.00  0.00    -0.000 C 
BRANCH  24  25
ATOM     25  C   UNL     1      -7.508  21.373  19.330  1.00  0.00    -0.003 C 
ATOM     26  C   UNL     1      -9.029  21.472  19.376  1.00  0.00     0.004 C 
ENDBRANCH  24  25
ENDBRANCH  23  24
ENDBRANCH  22  23
ENDBRANCH  21  22
ENDBRANCH  20  21
ENDBRANCH  19  20
ENDBRANCH  18  19
ENDBRANCH  17  18
ENDBRANCH  16  17
ENDBRANCH  15  16
ENDBRANCH   1  15
TORSDOF 22
ENDMDL
MODEL 4
REMARK VINA RESULT:     0.421      5.618     14.788
REMARK INTER + INTRA:          -0.056
REMARK INTER:                   0.925
REMARK INTRA:                  -0.980
REMARK UNBOUND:                -1.018
REMARK SMILES CCCCCCCCCCCCCCCCCCCCCCCC(=O)[O-]
REMARK SMILES IDX 13 1 14 2 15 3 16 4 17 5 18 6 19 7 20 8 21 9 22 10 23 11
REMARK SMILES IDX 24 12 25 13 26 14 12 15 11 16 10 17 9 18 8 19 7 20 6 21 5 22
REMARK SMILES IDX 4 23 3 24 2 25 1 26
REMARK H PARENT
REMARK Flexibility Score: inf
ROOT
ATOM      1  C   UNL     1      -1.834  21.218  16.496  1.00  0.00     0.000 C 
ENDROOT
BRANCH   1   2
ATOM      2  C   UNL     1      -1.083  19.952  16.047  1.00  0.00     0.000 C 
BRANCH   2   3
ATOM      3  C   UNL     1       0.339  19.875  16.626  1.00  0.00     0.000 C 
BRANCH   3   4
ATOM      4  C   UNL     1       1.426  20.160  15.574  1.00  0.00     0.000 C 
BRANCH   4   5
ATOM      5  C   UNL     1       2.842  19.875  16.099  1.00  0.00     0.000 C 
BRANCH   5   6
ATOM      6  C   UNL     1       3.936  20.303  15.104  1.00  0.00     0.000 C 
BRANCH   6   7
ATOM      7  C   UNL     1       5.161  20.918  15.801  1.00  0.00     0.000 C 
BRANCH   7   8
ATOM      8  C   UNL     1       6.428  20.041  15.772  1.00  0.00     0.000 C 
BRANCH   8   9
ATOM      9  C   UNL     1       7.730  20.835  15.531  1.00  0.00     0.000 C 
BRANCH   9  10
ATOM     10  C   UNL     1       8.865  19.947  14.992  1.00  0.00     0.006 C 
BRANCH  10  11
ATOM     11  C   UNL     1       9.373  20.418  13.623  1.00  0.00     0.053 C 
BRANCH  11  12
ATOM     12  C   UNL     1      10.175  21.679  13.732  1.00  0.00     0.041 C 
ATOM     13  O   UNL     1      10.913  21.876  14.733  1.00  0.00    -0.550 OA
ATOM     14  O   UNL     1      10.074  22.656  12.749  1.00  0.00    -0.550 OA
ENDBRANCH  11  12
ENDBRANCH  10  11
ENDBRANCH   9  10
ENDBRANCH   8   9
ENDBRANCH   7   8
ENDBRANCH   6   7
ENDBRANCH   5   6
ENDBRANCH   4   5
ENDBRANCH   3   4
ENDBRANCH   2   3
ENDBRANCH   1   2
BRANCH   1  15
ATOM     15  C   UNL     1      -3.361  21.054  16.422  1.00  0.00     0.000 C 
BRANCH  15  16
ATOM     16  C   UNL     1      -3.818  20.357  15.129  1.00  0.00     0.000 C 
BRANCH  16  17
ATOM     17  C   UNL     1      -5.074  21.004  14.526  1.00  0.00     0.000 C 
BRANCH  17  18
ATOM     18  C   UNL     1      -6.272  20.981  15.493  1.00  0.00    -0.000 C 
BRANCH  18  19
ATOM     19  C   UNL     1      -7.613  20.823  14.761  1.00  0.00    -0.000 C 
BRANCH  19  20
ATOM     20  C   UNL     1      -8.694  20.183  15.648  1.00  0.00    -0.000 C 
BRANCH  20  21
ATOM     21  C   UNL     1      -8.256  20.046  17.116  1.00  0.00    -0.000 C 
BRANCH  21  22
ATOM     22  C   UNL     1      -9.089  20.865  18.125  1.00  0.00    -0.000 C 
BRANCH  22  23
ATOM     23  C   UNL     1      -8.285  21.491  19.279  1.00  0.00    -0.000 C 
BRANCH  23  24
ATOM     24  C   UNL     1      -9.027  21.433  20.621  1.00  0.00    -0.000 C 
BRANCH  24  25
ATOM     25  C   UNL     1      -8.181  20.726  21.687  1.00  0.00    -0.003 C 
ATOM     26  C   UNL     1      -6.876  20.201  21.098  1.00  0.00     0.004 C 
ENDBRANCH  24  25
ENDBRANCH  23  24
ENDBRANCH  22  23
ENDBRANCH  21  22
ENDBRANCH  20  21
ENDBRANCH  19  20
ENDBRANCH  18  19
ENDBRANCH  17  18
ENDBRANCH  16  17
ENDBRANCH  15  16
ENDBRANCH   1  15
TORSDOF 22
ENDMDL
MODEL 5
REMARK VINA RESULT:     0.805      2.109      3.205
REMARK INTER + INTRA:           0.821
REMARK INTER:                   1.710
REMARK INTRA:                  -0.889
REMARK UNBOUND:                -1.018
REMARK SMILES CCCCCCCCCCCCCCCCCCCCCCCC(=O)[O-]
REMARK SMILES IDX 13 1 14 2 15 3 16 4 17 5 18 6 19 7 20 8 21 9 22 10 23 11
REMARK SMILES IDX 24 12 25 13 26 14 12 15 11 16 10 17 9 18 8 19 7 20 6 21 5 22
REMARK SMILES IDX 4 23 3 24 2 25 1 26
REMARK H PARENT
REMARK Flexibility Score: inf
ROOT
ATOM      1  C   UNL     1      -0.102  21.285  15.793  1.00  0.00     0.000 C 
ENDROOT
BRANCH   1   2
ATOM      2  C   UNL     1      -1.512  20.733  16.069  1.00  0.00     0.000 C 
BRANCH   2   3
ATOM      3  C   UNL     1      -1.942  20.920  17.532  1.00  0.00     0.000 C 
BRANCH   3   4
ATOM      4  C   UNL     1      -3.097  19.986  17.937  1.00  0.00     0.000 C 
BRANCH   4   5
ATOM      5  C   UNL     1      -4.229  20.731  18.663  1.00  0.00     0.000 C 
BRANCH   5   6
ATOM      6  C   UNL     1      -5.605  20.083  18.428  1.00  0.00     0.000 C 
BRANCH   6   7
ATOM      7  C   UNL     1      -6.588  20.347  19.581  1.00  0.00     0.000 C 
BRANCH   7   8
ATOM      8  C   UNL     1      -8.061  20.034  19.256  1.00  0.00     0.000 C 
BRANCH   8   9
ATOM      9  C   UNL     1      -8.348  19.880  17.747  1.00  0.00     0.000 C 
BRANCH   9  10
ATOM     10  C   UNL     1      -8.747  21.211  17.088  1.00  0.00     0.006 C 
BRANCH  10  11
ATOM     11  C   UNL     1      -7.541  21.954  16.498  1.00  0.00     0.053 C 
BRANCH  11  12
ATOM     12  C   UNL     1      -7.089  21.344  15.206  1.00  0.00     0.041 C 
ATOM     13  O   UNL     1      -7.920  21.126  14.285  1.00  0.00    -0.550 OA
ATOM     14  O   UNL     1      -5.760  20.976  15.036  1.00  0.00    -0.550 OA
ENDBRANCH  11  12
ENDBRANCH  10  11
ENDBRANCH   9  10
ENDBRANCH   8   9
ENDBRANCH   7   8
ENDBRANCH   6   7
ENDBRANCH   5   6
ENDBRANCH   4   5
ENDBRANCH   3   4
ENDBRANCH   2   3
ENDBRANCH   1   2
BRANCH   1  15
ATOM     15  C   UNL     1       0.914  20.175  15.481  1.00  0.00     0.000 C 
BRANCH  15  16
ATOM     16  C   UNL     1       2.111  20.180  16.446  1.00  0.00     0.000 C 
BRANCH  16  17
ATOM     17  C   UNL     1       3.442  19.897  15.733  1.00  0.00     0.000 C 
BRANCH  17  18
ATOM     18  C   UNL     1       4.180  21.186  15.328  1.00  0.00    -0.000 C 
BRANCH  18  19
ATOM     19  C   UNL     1       5.586  21.273  15.942  1.00  0.00    -0.000 C 
BRANCH  19  20
ATOM     20  C   UNL     1       6.560  20.256  15.324  1.00  0.00    -0.000 C 
BRANCH  20  21
ATOM     21  C   UNL     1       6.231  19.932  13.856  1.00  0.00    -0.000 C 
BRANCH  21  22
ATOM     22  C   UNL     1       7.357  20.249  12.850  1.00  0.00    -0.000 C 
BRANCH  22  23
ATOM     23  C   UNL     1       8.720  20.591  13.480  1.00  0.00    -0.000 C 
BRANCH  23  24
ATOM     24  C   UNL     1       9.687  21.249  12.488  1.00  0.00    -0.000 C 
BRANCH  24  25
ATOM     25  C   UNL     1      10.865  21.904  13.219  1.00  0.00    -0.003 C 
ATOM     26  C   UNL     1      11.046  23.355  12.787  1.00  0.00     0.004 C 
ENDBRANCH  24  25
ENDBRANCH  23  24
ENDBRANCH  22  23
ENDBRANCH  21  22
ENDBRANCH  20  21
ENDBRANCH  19  20
ENDBRANCH  18  19
ENDBRANCH  17  18
ENDBRANCH  16  17
ENDBRANCH  15  16
ENDBRANCH   1  15
TORSDOF 22
ENDMDL
MODEL 6
REMARK VINA RESULT:     0.867      5.730     14.424
REMARK INTER + INTRA:           0.963
REMARK INTER:                   1.830
REMARK INTRA:                  -0.868
REMARK UNBOUND:                -1.018
REMARK SMILES CCCCCCCCCCCCCCCCCCCCCCCC(=O)[O-]
REMARK SMILES IDX 13 1 14 2 15 3 16 4 17 5 18 6 19 7 20 8 21 9 22 10 23 11
REMARK SMILES IDX 24 12 25 13 26 14 12 15 11 16 10 17 9 18 8 19 7 20 6 21 5 22
REMARK SMILES IDX 4 23 3 24 2 25 1 26
REMARK H PARENT
REMARK Flexibility Score: inf
ROOT
ATOM      1  C   UNL     1       5.885  21.313  15.852  1.00  0.00     0.000 C 
ENDROOT
BRANCH   1   2
ATOM      2  C   UNL     1       7.086  20.784  16.657  1.00  0.00     0.000 C 
BRANCH   2   3
ATOM      3  C   UNL     1       8.250  21.787  16.705  1.00  0.00     0.000 C 
BRANCH   3   4
ATOM      4  C   UNL     1       9.109  21.762  15.428  1.00  0.00     0.000 C 
BRANCH   4   5
ATOM      5  C   UNL     1       9.413  20.333  14.950  1.00  0.00     0.000 C 
BRANCH   5   6
ATOM      6  C   UNL     1      10.854  20.178  14.436  1.00  0.00     0.000 C 
BRANCH   6   7
ATOM      7  C   UNL     1      11.083  20.890  13.092  1.00  0.00     0.000 C 
BRANCH   7   8
ATOM      8  C   UNL     1      10.089  20.505  11.980  1.00  0.00     0.000 C 
BRANCH   8   9
ATOM      9  C   UNL     1      10.335  21.236  10.643  1.00  0.00     0.000 C 
BRANCH   9  10
ATOM     10  C   UNL     1      11.124  22.544  10.829  1.00  0.00     0.006 C 
BRANCH  10  11
ATOM     11  C   UNL     1      11.023  23.463   9.604  1.00  0.00     0.053 C 
BRANCH  11  12
ATOM     12  C   UNL     1      10.157  24.656   9.873  1.00  0.00     0.041 C 
ATOM     13  O   UNL     1       9.580  25.246   8.922  1.00  0.00    -0.550 OA
ATOM     14  O   UNL     1      10.023  25.142  11.168  1.00  0.00    -0.550 OA
ENDBRANCH  11  12
ENDBRANCH  10  11
ENDBRANCH   9  10
ENDBRANCH   8   9
ENDBRANCH   7   8
ENDBRANCH   6   7
ENDBRANCH   5   6
ENDBRANCH   4   5
ENDBRANCH   3   4
ENDBRANCH   2   3
ENDBRANCH   1   2
BRANCH   1  15
ATOM     15  C   UNL     1       4.540  20.820  16.410  1.00  0.00     0.000 C 
BRANCH  15  16
ATOM     16  C   UNL     1       3.385  20.996  15.409  1.00  0.00     0.000 C 
BRANCH  16  17
ATOM     17  C   UNL     1       2.248  19.988  15.642  1.00  0.00     0.000 C 
BRANCH  17  18
ATOM     18  C   UNL     1       1.082  20.590  16.447  1.00  0.00    -0.000 C 
BRANCH  18  19
ATOM     19  C   UNL     1      -0.249  19.875  16.173  1.00  0.00    -0.000 C 
BRANCH  19  20
ATOM     20  C   UNL     1      -1.467  20.759  16.489  1.00  0.00    -0.000 C 
BRANCH  20  21
ATOM     21  C   UNL     1      -2.750  19.943  16.725  1.00  0.00    -0.000 C 
BRANCH  21  22
ATOM     22  C   UNL     1      -3.747  19.941  15.547  1.00  0.00    -0.000 C 
BRANCH  22  23
ATOM     23  C   UNL     1      -5.220  20.157  15.937  1.00  0.00    -0.000 C 
BRANCH  23  24
ATOM     24  C   UNL     1      -6.099  20.562  14.747  1.00  0.00    -0.000 C 
BRANCH  24  25
ATOM     25  C   UNL     1      -7.236  21.488  15.193  1.00  0.00    -0.003 C 
ATOM     26  C   UNL     1      -8.416  20.691  15.742  1.00  0.00     0.004 C 
ENDBRANCH  24  25
ENDBRANCH  23  24
ENDBRANCH  22  23
ENDBRANCH  21  22
ENDBRANCH  20  21
ENDBRANCH  19  20
ENDBRANCH  18  19
ENDBRANCH  17  18
ENDBRANCH  16  17
ENDBRANCH  15  16
ENDBRANCH   1  15
TORSDOF 22
ENDMDL
