MODEL 1
REMARK VINA RESULT:     8.846      0.000      0.000
REMARK INTER + INTRA:          10.126
REMARK INTER:                  10.397
REMARK INTRA:                  -0.270
REMARK UNBOUND:                -0.270
REMARK SMILES O=c1cc(-c2ccc(O)c(O)c2)oc2cc(O)cc(O)c12
REMARK SMILES IDX 4 1 3 2 2 3 1 4 21 5 19 6 18 7 16 8 15 9 14 10 13 11 5 12
REMARK SMILES IDX 6 13 7 14 8 15 12 16 10 17 9 18 11 20 20 22 17 24
REMARK H PARENT 9 19 11 21 20 23 17 25
REMARK Flexibility Score: inf
ROOT
ATOM      1  C   UNL     1     141.964 173.992 174.140  1.00  0.00     0.138 A 
ATOM      2  C   UNL     1     141.982 174.810 175.278  1.00  0.00     0.100 A 
ATOM      3  C   UNL     1     141.816 174.238 176.541  1.00  0.00     0.197 A 
ATOM      4  O   UNL     1     141.898 174.988 177.547  1.00  0.00    -0.289 OA
ATOM      5  C   UNL     1     141.600 172.845 176.659  1.00  0.00     0.107 A 
ATOM      6  C   UNL     1     141.377 172.159 177.890  1.00  0.00     0.134 A 
ATOM      7  C   UNL     1     141.292 170.761 177.896  1.00  0.00     0.093 A 
ATOM      8  C   UNL     1     141.360 170.030 176.707  1.00  0.00     0.123 A 
ATOM      9  C   UNL     1     141.522 170.695 175.494  1.00  0.00     0.094 A 
ATOM     10  C   UNL     1     141.645 172.086 175.459  1.00  0.00     0.146 A 
ATOM     11  O   UNL     1     141.814 172.680 174.283  1.00  0.00    -0.456 OA
ENDROOT
BRANCH   1  12
ATOM     12  C   UNL     1     142.135 174.548 172.773  1.00  0.00     0.021 A 
ATOM     13  C   UNL     1     143.376 175.090 172.398  1.00  0.00     0.016 A 
ATOM     14  C   UNL     1     143.565 175.612 171.116  1.00  0.00     0.051 A 
ATOM     15  C   UNL     1     142.524 175.594 170.184  1.00  0.00     0.157 A 
ATOM     16  C   UNL     1     141.093 174.520 171.826  1.00  0.00     0.062 A 
ATOM     17  C   UNL     1     141.283 175.042 170.538  1.00  0.00     0.158 A 
BRANCH  15  18
ATOM     18  O   UNL     1     142.742 176.125 168.913  1.00  0.00    -0.504 OA
ATOM     19  H   UNL     1     142.500 177.080 168.680  1.00  0.00     0.293 HD
ENDBRANCH  15  18
BRANCH  17  20
ATOM     20  O   UNL     1     140.243 175.010 169.609  1.00  0.00    -0.504 OA
ATOM     21  H   UNL     1     139.409 174.455 169.763  1.00  0.00     0.293 HD
ENDBRANCH  17  20
ENDBRANCH   1  12
BRANCH   6  22
ATOM     22  O   UNL     1     141.210 172.799 179.122  1.00  0.00    -0.507 OA
ATOM     23  H   UNL     1     140.889 172.349 179.966  1.00  0.00     0.293 HD
ENDBRANCH   6  22
BRANCH   8  24
ATOM     24  O   UNL     1     141.257 168.641 176.721  1.00  0.00    -0.508 OA
ATOM     25  H   UNL     1     141.950 168.053 176.273  1.00  0.00     0.293 HD
ENDBRANCH   8  24
TORSDOF 5
ENDMDL
MODEL 2
REMARK VINA RESULT:    10.259      0.675      1.529
REMARK INTER + INTRA:          11.788
REMARK INTER:                  12.051
REMARK INTRA:                  -0.264
REMARK UNBOUND:                -0.270
REMARK SMILES O=c1cc(-c2ccc(O)c(O)c2)oc2cc(O)cc(O)c12
REMARK SMILES IDX 4 1 3 2 2 3 1 4 21 5 19 6 18 7 16 8 15 9 14 10 13 11 5 12
REMARK SMILES IDX 6 13 7 14 8 15 12 16 10 17 9 18 11 20 20 22 17 24
REMARK H PARENT 9 19 11 21 20 23 17 25
REMARK Flexibility Score: inf
ROOT
ATOM      1  C   UNL     1     141.980 173.911 174.218  1.00  0.00     0.138 A 
ATOM      2  C   UNL     1     141.821 174.725 175.348  1.00  0.00     0.100 A 
ATOM      3  C   UNL     1     141.588 174.138 176.593  1.00  0.00     0.197 A 
ATOM      4  O   UNL     1     141.512 174.889 177.599  1.00  0.00    -0.289 OA
ATOM      5  C   UNL     1     141.484 172.731 176.699  1.00  0.00     0.107 A 
ATOM      6  C   UNL     1     141.208 172.025 177.908  1.00  0.00     0.134 A 
ATOM      7  C   UNL     1     141.243 170.625 177.913  1.00  0.00     0.093 A 
ATOM      8  C   UNL     1     141.484 169.905 176.740  1.00  0.00     0.123 A 
ATOM      9  C   UNL     1     141.700 170.585 175.543  1.00  0.00     0.094 A 
ATOM     10  C   UNL     1     141.706 171.982 175.512  1.00  0.00     0.146 A 
ATOM     11  O   UNL     1     141.931 172.590 174.354  1.00  0.00    -0.456 OA
ENDROOT
BRANCH   1  12
ATOM     12  C   UNL     1     142.228 174.483 172.870  1.00  0.00     0.021 A 
ATOM     13  C   UNL     1     141.185 174.507 171.927  1.00  0.00     0.016 A 
ATOM     14  C   UNL     1     141.391 175.047 170.655  1.00  0.00     0.051 A 
ATOM     15  C   UNL     1     142.633 175.581 170.304  1.00  0.00     0.157 A 
ATOM     16  C   UNL     1     143.475 175.034 172.516  1.00  0.00     0.062 A 
ATOM     17  C   UNL     1     143.681 175.578 171.240  1.00  0.00     0.158 A 
BRANCH  15  18
ATOM     18  O   UNL     1     142.809 176.110 169.026  1.00  0.00    -0.504 OA
ATOM     19  H   UNL     1     142.236 175.825 168.242  1.00  0.00     0.293 HD
ENDBRANCH  15  18
BRANCH  17  20
ATOM     20  O   UNL     1     144.921 176.120 170.901  1.00  0.00    -0.504 OA
ATOM     21  H   UNL     1     145.786 175.723 171.248  1.00  0.00     0.293 HD
ENDBRANCH  17  20
ENDBRANCH   1  12
BRANCH   6  22
ATOM     22  O   UNL     1     140.872 172.645 179.115  1.00  0.00    -0.507 OA
ATOM     23  H   UNL     1     141.412 173.372 179.560  1.00  0.00     0.293 HD
ENDBRANCH   6  22
BRANCH   8  24
ATOM     24  O   UNL     1     141.500 168.512 176.752  1.00  0.00    -0.508 OA
ATOM     25  H   UNL     1     141.591 167.976 175.897  1.00  0.00     0.293 HD
ENDBRANCH   8  24
TORSDOF 5
ENDMDL
MODEL 3
REMARK VINA RESULT:    10.626      1.461      7.102
REMARK INTER + INTRA:          12.219
REMARK INTER:                  12.486
REMARK INTRA:                  -0.267
REMARK UNBOUND:                -0.270
REMARK SMILES O=c1cc(-c2ccc(O)c(O)c2)oc2cc(O)cc(O)c12
REMARK SMILES IDX 4 1 3 2 2 3 1 4 21 5 19 6 18 7 16 8 15 9 14 10 13 11 5 12
REMARK SMILES IDX 6 13 7 14 8 15 12 16 10 17 9 18 11 20 20 22 17 24
REMARK H PARENT 9 19 11 21 20 23 17 25
REMARK Flexibility Score: inf
ROOT
ATOM      1  C   UNL     1     142.438 174.065 174.131  1.00  0.00     0.138 A 
ATOM      2  C   UNL     1     143.757 174.420 173.819  1.00  0.00     0.100 A 
ATOM      3  C   UNL     1     144.035 175.031 172.594  1.00  0.00     0.197 A 
ATOM      4  O   UNL     1     145.218 175.395 172.368  1.00  0.00    -0.289 OA
ATOM      5  C   UNL     1     142.990 175.255 171.667  1.00  0.00     0.107 A 
ATOM      6  C   UNL     1     143.163 175.831 170.373  1.00  0.00     0.134 A 
ATOM      7  C   UNL     1     142.038 176.112 169.588  1.00  0.00     0.093 A 
ATOM      8  C   UNL     1     140.752 175.782 170.024  1.00  0.00     0.123 A 
ATOM      9  C   UNL     1     140.579 175.170 171.263  1.00  0.00     0.094 A 
ATOM     10  C   UNL     1     141.678 174.908 172.085  1.00  0.00     0.146 A 
ATOM     11  O   UNL     1     141.467 174.336 173.265  1.00  0.00    -0.456 OA
ENDROOT
BRANCH   1  12
ATOM     12  C   UNL     1     142.086 173.412 175.419  1.00  0.00     0.021 A 
ATOM     13  C   UNL     1     141.972 174.195 176.580  1.00  0.00     0.016 A 
ATOM     14  C   UNL     1     141.634 173.608 177.802  1.00  0.00     0.051 A 
ATOM     15  C   UNL     1     141.396 172.233 177.885  1.00  0.00     0.157 A 
ATOM     16  C   UNL     1     141.832 172.030 175.504  1.00  0.00     0.062 A 
ATOM     17  C   UNL     1     141.492 171.440 176.730  1.00  0.00     0.158 A 
BRANCH  15  18
ATOM     18  O   UNL     1     141.064 171.675 179.119  1.00  0.00    -0.504 OA
ATOM     19  H   UNL     1     140.458 172.147 179.778  1.00  0.00     0.293 HD
ENDBRANCH  15  18
BRANCH  17  20
ATOM     20  O   UNL     1     141.245 170.069 176.803  1.00  0.00    -0.504 OA
ATOM     21  H   UNL     1     141.071 169.515 175.972  1.00  0.00     0.293 HD
ENDBRANCH  17  20
ENDBRANCH   1  12
BRANCH   6  22
ATOM     22  O   UNL     1     144.407 176.121 169.806  1.00  0.00    -0.507 OA
ATOM     23  H   UNL     1     145.008 176.880 170.091  1.00  0.00     0.293 HD
ENDBRANCH   6  22
BRANCH   8  24
ATOM     24  O   UNL     1     139.641 176.051 169.229  1.00  0.00    -0.508 OA
ATOM     25  H   UNL     1     139.345 175.414 168.498  1.00  0.00     0.293 HD
ENDBRANCH   8  24
TORSDOF 5
ENDMDL
MODEL 4
REMARK VINA RESULT:    10.879      1.816      7.010
REMARK INTER + INTRA:          12.516
REMARK INTER:                  12.785
REMARK INTRA:                  -0.269
REMARK UNBOUND:                -0.270
REMARK SMILES O=c1cc(-c2ccc(O)c(O)c2)oc2cc(O)cc(O)c12
REMARK SMILES IDX 4 1 3 2 2 3 1 4 21 5 19 6 18 7 16 8 15 9 14 10 13 11 5 12
REMARK SMILES IDX 6 13 7 14 8 15 12 16 10 17 9 18 11 20 20 22 17 24
REMARK H PARENT 9 19 11 21 20 23 17 25
REMARK Flexibility Score: inf
ROOT
ATOM      1  C   UNL     1     142.839 173.877 174.779  1.00  0.00     0.138 A 
ATOM      2  C   UNL     1     144.188 174.247 174.876  1.00  0.00     0.100 A 
ATOM      3  C   UNL     1     144.798 174.911 173.810  1.00  0.00     0.197 A 
ATOM      4  O   UNL     1     145.991 175.285 173.949  1.00  0.00    -0.289 OA
ATOM      5  C   UNL     1     144.061 175.177 172.631  1.00  0.00     0.107 A 
ATOM      6  C   UNL     1     144.591 175.810 171.467  1.00  0.00     0.134 A 
ATOM      7  C   UNL     1     143.736 176.125 170.404  1.00  0.00     0.093 A 
ATOM      8  C   UNL     1     142.384 175.776 170.438  1.00  0.00     0.123 A 
ATOM      9  C   UNL     1     141.869 175.109 171.547  1.00  0.00     0.094 A 
ATOM     10  C   UNL     1     142.689 174.811 172.639  1.00  0.00     0.146 A 
ATOM     11  O   UNL     1     142.155 174.187 173.683  1.00  0.00    -0.456 OA
ENDROOT
BRANCH   1  12
ATOM     12  C   UNL     1     142.141 173.169 175.882  1.00  0.00     0.021 A 
ATOM     13  C   UNL     1     141.842 173.862 177.068  1.00  0.00     0.016 A 
ATOM     14  C   UNL     1     141.178 173.220 178.117  1.00  0.00     0.051 A 
ATOM     15  C   UNL     1     140.794 171.882 177.999  1.00  0.00     0.157 A 
ATOM     16  C   UNL     1     141.740 171.824 175.763  1.00  0.00     0.062 A 
ATOM     17  C   UNL     1     141.073 171.180 176.815  1.00  0.00     0.158 A 
BRANCH  15  18
ATOM     18  O   UNL     1     140.136 171.268 179.064  1.00  0.00    -0.504 OA
ATOM     19  H   UNL     1     140.608 170.628 179.691  1.00  0.00     0.293 HD
ENDBRANCH  15  18
BRANCH  17  20
ATOM     20  O   UNL     1     140.682 169.848 176.685  1.00  0.00    -0.504 OA
ATOM     21  H   UNL     1     140.267 169.338 177.457  1.00  0.00     0.293 HD
ENDBRANCH  17  20
ENDBRANCH   1  12
BRANCH   6  22
ATOM     22  O   UNL     1     145.942 176.125 171.295  1.00  0.00    -0.507 OA
ATOM     23  H   UNL     1     146.628 175.514 170.877  1.00  0.00     0.293 HD
ENDBRANCH   6  22
BRANCH   8  24
ATOM     24  O   UNL     1     141.544 176.079 169.368  1.00  0.00    -0.508 OA
ATOM     25  H   UNL     1     141.159 177.008 169.243  1.00  0.00     0.293 HD
ENDBRANCH   8  24
TORSDOF 5
ENDMDL
