MODEL 1
REMARK VINA RESULT:    -5.717      0.000      0.000
REMARK INTER + INTRA:         -12.077
REMARK INTER:                 -10.062
REMARK INTRA:                  -2.015
REMARK UNBOUND:                -2.015
REMARK SMILES COc1cc(-c2[o+]c3cc(O)cc(O[C@@H]4O[C@@H](CO)[C@@H](O)[C@H](O)[C@@H]4O)c3cc2O[C@H]2O[C@@H](CO)[C@H](O)[C@H](O)[C@H]2O)ccc1O
REMARK SMILES IDX 6 1 28 2 27 3 26 4 13 5 12 6 10 7 9 8 8 9 7 10 5 11 3 12
REMARK SMILES IDX 43 13 4 14 42 15 41 16 2 17 1 18 44 19 29 21 30 22 39 23
REMARK SMILES IDX 31 24 37 25 32 26 35 27 40 28 38 30 33 32 34 33 36 35 14 37
REMARK SMILES IDX 15 38 24 39 16 40 22 41 17 42 20 43 25 44 23 46 18 48 19 49
REMARK SMILES IDX 21 51 11 53
REMARK H PARENT 44 20 40 29 38 31 34 34 36 36 25 45 23 47 19 50 21 52 11 54
REMARK Flexibility Score: inf
ROOT
ATOM      1  C   UNL     1      -4.062   5.453  14.362  1.00  0.00     0.402 A 
ATOM      2  C   UNL     1      -3.459   6.675  14.736  1.00  0.00     0.229 A 
ATOM      3  C   UNL     1      -2.401   6.641  15.649  1.00  0.00     0.079 A 
ATOM      4  C   UNL     1      -1.953   5.416  16.160  1.00  0.00     0.126 A 
ATOM      5  C   UNL     1      -0.883   5.333  17.074  1.00  0.00     0.143 A 
ATOM      6  C   UNL     1      -0.523   4.068  17.584  1.00  0.00     0.094 A 
ATOM      7  C   UNL     1      -1.215   2.916  17.205  1.00  0.00     0.128 A 
ATOM      8  C   UNL     1      -2.264   3.003  16.285  1.00  0.00     0.162 A 
ATOM      9  C   UNL     1      -2.631   4.244  15.757  1.00  0.00     0.368 A 
ATOM     10  O   UNL     1      -3.628   4.310  14.883  1.00  0.00    -0.202 OA
ENDROOT
BRANCH   1  11
ATOM     11  C   UNL     1      -5.200   5.385  13.437  1.00  0.00     0.087 A 
ATOM     12  C   UNL     1      -6.238   6.018  11.320  1.00  0.00     0.161 A 
ATOM     13  C   UNL     1      -7.417   5.366  11.716  1.00  0.00     0.157 A 
ATOM     14  C   UNL     1      -5.124   6.016  12.187  1.00  0.00     0.068 A 
ATOM     15  C   UNL     1      -7.493   4.754  12.974  1.00  0.00     0.051 A 
ATOM     16  C   UNL     1      -6.398   4.782  13.840  1.00  0.00     0.022 A 
BRANCH  12  17
ATOM     17  O   UNL     1      -6.211   6.663  10.071  1.00  0.00    -0.493 OA
ATOM     18  C   UNL     1      -6.493   8.045   9.875  1.00  0.00     0.278 C 
ENDBRANCH  12  17
BRANCH  13  19
ATOM     19  O   UNL     1      -8.514   5.341  10.854  1.00  0.00    -0.504 OA
ATOM     20  H   UNL     1      -9.415   4.976  11.147  1.00  0.00     0.293 HD
ENDBRANCH  13  19
ENDBRANCH   1  11
BRANCH   2  21
ATOM     21  O   UNL     1      -3.898   7.926  14.276  1.00  0.00    -0.452 OA
BRANCH  21  22
ATOM     22  C   UNL     1      -4.551   8.930  15.062  1.00  0.00     0.339 C 
ATOM     23  C   UNL     1      -6.059   8.651  15.263  1.00  0.00     0.214 C 
ATOM     24  O   UNL     1      -4.332  10.214  14.496  1.00  0.00    -0.332 OA
ATOM     25  C   UNL     1      -6.779   8.747  13.908  1.00  0.00     0.180 C 
ATOM     26  C   UNL     1      -4.979  10.421  13.240  1.00  0.00     0.179 C 
ATOM     27  C   UNL     1      -6.501  10.119  13.268  1.00  0.00     0.177 C 
BRANCH  23  28
ATOM     28  O   UNL     1      -6.249   7.384  15.839  1.00  0.00    -0.384 OA
ATOM     29  H   UNL     1      -5.994   7.459  16.794  1.00  0.00     0.211 HD
ENDBRANCH  23  28
BRANCH  25  30
ATOM     30  O   UNL     1      -8.160   8.516  14.033  1.00  0.00    -0.387 OA
ATOM     31  H   UNL     1      -8.545   9.241  14.592  1.00  0.00     0.211 HD
ENDBRANCH  25  30
BRANCH  26  32
ATOM     32  C   UNL     1      -4.237   9.730  12.074  1.00  0.00     0.191 C 
BRANCH  32  33
ATOM     33  O   UNL     1      -2.851   9.880  12.225  1.00  0.00    -0.394 OA
ATOM     34  H   UNL     1      -2.439   9.738  11.332  1.00  0.00     0.210 HD
ENDBRANCH  32  33
ENDBRANCH  26  32
BRANCH  27  35
ATOM     35  O   UNL     1      -7.157  11.125  14.002  1.00  0.00    -0.387 OA
ATOM     36  H   UNL     1      -8.015  10.742  14.323  1.00  0.00     0.211 HD
ENDBRANCH  27  35
ENDBRANCH  21  22
ENDBRANCH   2  21
BRANCH   5  37
ATOM     37  O   UNL     1      -0.176   6.503  17.414  1.00  0.00    -0.461 OA
BRANCH  37  38
ATOM     38  C   UNL     1       0.575   6.719  18.614  1.00  0.00     0.339 C 
ATOM     39  C   UNL     1       1.199   8.137  18.618  1.00  0.00     0.214 C 
ATOM     40  O   UNL     1      -0.188   6.356  19.764  1.00  0.00    -0.332 OA
ATOM     41  C   UNL     1       1.996   8.358  19.924  1.00  0.00     0.180 C 
ATOM     42  C   UNL     1      -0.161   7.307  20.816  1.00  0.00     0.179 C 
ATOM     43  C   UNL     1       1.287   7.736  21.159  1.00  0.00     0.177 C 
BRANCH  39  44
ATOM     44  O   UNL     1       0.200   9.121  18.484  1.00  0.00    -0.384 OA
ATOM     45  H   UNL     1      -0.393   8.847  17.736  1.00  0.00     0.211 HD
ENDBRANCH  39  44
BRANCH  41  46
ATOM     46  O   UNL     1       2.204   9.731  20.137  1.00  0.00    -0.387 OA
ATOM     47  H   UNL     1       1.619  10.213  19.494  1.00  0.00     0.211 HD
ENDBRANCH  41  46
BRANCH  42  48
ATOM     48  C   UNL     1      -0.883   6.702  22.033  1.00  0.00     0.191 C 
BRANCH  48  49
ATOM     49  O   UNL     1      -0.293   7.118  23.240  1.00  0.00    -0.394 OA
ATOM     50  H   UNL     1       0.676   6.943  23.160  1.00  0.00     0.210 HD
ENDBRANCH  48  49
ENDBRANCH  42  48
BRANCH  43  51
ATOM     51  O   UNL     1       2.007   6.620  21.612  1.00  0.00    -0.387 OA
ATOM     52  H   UNL     1       1.336   5.936  21.876  1.00  0.00     0.211 HD
ENDBRANCH  43  51
ENDBRANCH  37  38
ENDBRANCH   5  37
BRANCH   7  53
ATOM     53  O   UNL     1      -0.849   1.685  17.746  1.00  0.00    -0.507 OA
ATOM     54  H   UNL     1      -1.420   0.859  17.610  1.00  0.00     0.293 HD
ENDBRANCH   7  53
TORSDOF 18
ENDMDL
MODEL 2
REMARK VINA RESULT:    -5.064      1.483      2.528
REMARK INTER + INTRA:         -10.928
REMARK INTER:                  -8.139
REMARK INTRA:                  -2.789
REMARK UNBOUND:                -2.015
REMARK SMILES COc1cc(-c2[o+]c3cc(O)cc(O[C@@H]4O[C@@H](CO)[C@@H](O)[C@H](O)[C@@H]4O)c3cc2O[C@H]2O[C@@H](CO)[C@H](O)[C@H](O)[C@H]2O)ccc1O
REMARK SMILES IDX 6 1 28 2 27 3 26 4 13 5 12 6 10 7 9 8 8 9 7 10 5 11 3 12
REMARK SMILES IDX 43 13 4 14 42 15 41 16 2 17 1 18 44 19 29 21 30 22 39 23
REMARK SMILES IDX 31 24 37 25 32 26 35 27 40 28 38 30 33 32 34 33 36 35 14 37
REMARK SMILES IDX 15 38 24 39 16 40 22 41 17 42 20 43 25 44 23 46 18 48 19 49
REMARK SMILES IDX 21 51 11 53
REMARK H PARENT 44 20 40 29 38 31 34 34 36 36 25 45 23 47 19 50 21 52 11 54
REMARK Flexibility Score: inf
ROOT
ATOM      1  C   UNL     1      -4.761   5.189  15.055  1.00  0.00     0.402 A 
ATOM      2  C   UNL     1      -3.784   6.187  14.844  1.00  0.00     0.229 A 
ATOM      3  C   UNL     1      -2.504   5.984  15.367  1.00  0.00     0.079 A 
ATOM      4  C   UNL     1      -2.210   4.808  16.070  1.00  0.00     0.126 A 
ATOM      5  C   UNL     1      -0.931   4.556  16.605  1.00  0.00     0.143 A 
ATOM      6  C   UNL     1      -0.726   3.373  17.346  1.00  0.00     0.094 A 
ATOM      7  C   UNL     1      -1.769   2.468  17.558  1.00  0.00     0.128 A 
ATOM      8  C   UNL     1      -3.030   2.715  17.009  1.00  0.00     0.162 A 
ATOM      9  C   UNL     1      -3.254   3.876  16.262  1.00  0.00     0.368 A 
ATOM     10  O   UNL     1      -4.456   4.096  15.747  1.00  0.00    -0.202 OA
ENDROOT
BRANCH   1  11
ATOM     11  C   UNL     1      -6.143   5.322  14.576  1.00  0.00     0.087 A 
ATOM     12  C   UNL     1      -7.725   5.498  12.725  1.00  0.00     0.161 A 
ATOM     13  C   UNL     1      -8.764   5.703  13.647  1.00  0.00     0.157 A 
ATOM     14  C   UNL     1      -6.410   5.298  13.199  1.00  0.00     0.068 A 
ATOM     15  C   UNL     1      -8.485   5.746  15.020  1.00  0.00     0.051 A 
ATOM     16  C   UNL     1      -7.179   5.579  15.482  1.00  0.00     0.022 A 
BRANCH  12  17
ATOM     17  O   UNL     1      -8.030   5.508  11.353  1.00  0.00    -0.493 OA
ATOM     18  C   UNL     1      -7.886   6.645  10.508  1.00  0.00     0.278 C 
ENDBRANCH  12  17
BRANCH  13  19
ATOM     19  O   UNL     1     -10.070   5.876  13.188  1.00  0.00    -0.504 OA
ATOM     20  H   UNL     1     -10.683   6.585  13.578  1.00  0.00     0.293 HD
ENDBRANCH  13  19
ENDBRANCH   1  11
BRANCH   2  21
ATOM     21  O   UNL     1      -4.043   7.394  14.177  1.00  0.00    -0.452 OA
BRANCH  21  22
ATOM     22  C   UNL     1      -3.718   7.689  12.813  1.00  0.00     0.339 C 
ATOM     23  C   UNL     1      -2.613   8.763  12.677  1.00  0.00     0.214 C 
ATOM     24  O   UNL     1      -4.890   8.057  12.100  1.00  0.00    -0.332 OA
ATOM     25  C   UNL     1      -3.139  10.105  13.208  1.00  0.00     0.180 C 
ATOM     26  C   UNL     1      -5.452   9.309  12.498  1.00  0.00     0.179 C 
ATOM     27  C   UNL     1      -4.437  10.483  12.472  1.00  0.00     0.177 C 
BRANCH  23  28
ATOM     28  O   UNL     1      -1.461   8.368  13.376  1.00  0.00    -0.384 OA
ATOM     29  H   UNL     1      -1.175   7.498  12.996  1.00  0.00     0.211 HD
ENDBRANCH  23  28
BRANCH  25  30
ATOM     30  O   UNL     1      -2.177  11.124  13.095  1.00  0.00    -0.387 OA
ATOM     31  H   UNL     1      -1.379  10.746  12.639  1.00  0.00     0.211 HD
ENDBRANCH  25  30
BRANCH  26  32
ATOM     32  C   UNL     1      -6.238   9.205  13.825  1.00  0.00     0.191 C 
BRANCH  32  33
ATOM     33  O   UNL     1      -7.597   8.971  13.566  1.00  0.00    -0.394 OA
ATOM     34  H   UNL     1      -8.119   9.508  14.219  1.00  0.00     0.210 HD
ENDBRANCH  32  33
ENDBRANCH  26  32
BRANCH  27  35
ATOM     35  O   UNL     1      -4.145  10.809  11.135  1.00  0.00    -0.387 OA
ATOM     36  H   UNL     1      -3.650  10.042  10.746  1.00  0.00     0.211 HD
ENDBRANCH  27  35
ENDBRANCH  21  22
ENDBRANCH   2  21
BRANCH   5  37
ATOM     37  O   UNL     1       0.115   5.464  16.348  1.00  0.00    -0.461 OA
BRANCH  37  38
ATOM     38  C   UNL     1       0.794   6.270  17.317  1.00  0.00     0.339 C 
ATOM     39  C   UNL     1       1.142   7.658  16.724  1.00  0.00     0.214 C 
ATOM     40  O   UNL     1       0.096   6.267  18.561  1.00  0.00    -0.332 OA
ATOM     41  C   UNL     1       1.864   8.518  17.785  1.00  0.00     0.180 C 
ATOM     42  C   UNL     1      -0.072   7.546  19.150  1.00  0.00     0.179 C 
ATOM     43  C   UNL     1       1.265   8.326  19.206  1.00  0.00     0.177 C 
BRANCH  39  44
ATOM     44  O   UNL     1      -0.021   8.314  16.274  1.00  0.00    -0.384 OA
ATOM     45  H   UNL     1      -0.086   9.177  16.761  1.00  0.00     0.211 HD
ENDBRANCH  39  44
BRANCH  41  46
ATOM     46  O   UNL     1       1.808   9.876  17.426  1.00  0.00    -0.387 OA
ATOM     47  H   UNL     1       1.304  10.343  18.144  1.00  0.00     0.211 HD
ENDBRANCH  41  46
BRANCH  42  48
ATOM     48  C   UNL     1      -0.686   7.359  20.548  1.00  0.00     0.191 C 
BRANCH  48  49
ATOM     49  O   UNL     1      -0.077   6.296  21.239  1.00  0.00    -0.394 OA
ATOM     50  H   UNL     1       0.656   5.965  20.665  1.00  0.00     0.210 HD
ENDBRANCH  48  49
ENDBRANCH  42  48
BRANCH  43  51
ATOM     51  O   UNL     1       2.174   7.629  20.018  1.00  0.00    -0.387 OA
ATOM     52  H   UNL     1       2.881   7.276  19.416  1.00  0.00     0.211 HD
ENDBRANCH  43  51
ENDBRANCH  37  38
ENDBRANCH   5  37
BRANCH   7  53
ATOM     53  O   UNL     1      -1.538   1.320  18.315  1.00  0.00    -0.507 OA
ATOM     54  H   UNL     1      -1.248   0.452  17.880  1.00  0.00     0.293 HD
ENDBRANCH   7  53
TORSDOF 18
ENDMDL
MODEL 3
REMARK VINA RESULT:    -4.786     13.287     16.663
REMARK INTER + INTRA:         -10.439
REMARK INTER:                  -7.871
REMARK INTRA:                  -2.568
REMARK UNBOUND:                -2.015
REMARK SMILES COc1cc(-c2[o+]c3cc(O)cc(O[C@@H]4O[C@@H](CO)[C@@H](O)[C@H](O)[C@@H]4O)c3cc2O[C@H]2O[C@@H](CO)[C@H](O)[C@H](O)[C@H]2O)ccc1O
REMARK SMILES IDX 6 1 28 2 27 3 26 4 13 5 12 6 10 7 9 8 8 9 7 10 5 11 3 12
REMARK SMILES IDX 43 13 4 14 42 15 41 16 2 17 1 18 44 19 29 21 30 22 39 23
REMARK SMILES IDX 31 24 37 25 32 26 35 27 40 28 38 30 33 32 34 33 36 35 14 37
REMARK SMILES IDX 15 38 24 39 16 40 22 41 17 42 20 43 25 44 23 46 18 48 19 49
REMARK SMILES IDX 21 51 11 53
REMARK H PARENT 44 20 40 29 38 31 34 34 36 36 25 45 23 47 19 50 21 52 11 54
REMARK Flexibility Score: inf
ROOT
ATOM      1  C   UNL     1      -7.889  -6.378  24.090  1.00  0.00     0.402 A 
ATOM      2  C   UNL     1      -6.579  -6.898  24.002  1.00  0.00     0.229 A 
ATOM      3  C   UNL     1      -6.068  -7.600  25.097  1.00  0.00     0.079 A 
ATOM      4  C   UNL     1      -6.854  -7.786  26.241  1.00  0.00     0.126 A 
ATOM      5  C   UNL     1      -6.385  -8.496  27.365  1.00  0.00     0.143 A 
ATOM      6  C   UNL     1      -7.216  -8.597  28.500  1.00  0.00     0.094 A 
ATOM      7  C   UNL     1      -8.478  -7.998  28.523  1.00  0.00     0.128 A 
ATOM      8  C   UNL     1      -8.944  -7.311  27.399  1.00  0.00     0.162 A 
ATOM      9  C   UNL     1      -8.143  -7.207  26.258  1.00  0.00     0.368 A 
ATOM     10  O   UNL     1      -8.600  -6.552  25.199  1.00  0.00    -0.202 OA
ENDROOT
BRANCH   1  11
ATOM     11  C   UNL     1      -8.504  -5.598  23.008  1.00  0.00     0.087 A 
ATOM     12  C   UNL     1      -8.790  -5.162  20.623  1.00  0.00     0.161 A 
ATOM     13  C   UNL     1      -9.572  -4.037  20.934  1.00  0.00     0.157 A 
ATOM     14  C   UNL     1      -8.263  -5.948  21.671  1.00  0.00     0.068 A 
ATOM     15  C   UNL     1      -9.791  -3.683  22.273  1.00  0.00     0.051 A 
ATOM     16  C   UNL     1      -9.242  -4.447  23.304  1.00  0.00     0.022 A 
BRANCH  12  17
ATOM     17  O   UNL     1      -8.549  -5.462  19.271  1.00  0.00    -0.493 OA
ATOM     18  C   UNL     1      -7.769  -6.565  18.821  1.00  0.00     0.278 C 
ENDBRANCH  12  17
BRANCH  13  19
ATOM     19  O   UNL     1     -10.117  -3.270  19.905  1.00  0.00    -0.504 OA
ATOM     20  H   UNL     1      -9.564  -2.981  19.105  1.00  0.00     0.293 HD
ENDBRANCH  13  19
ENDBRANCH   1  11
BRANCH   2  21
ATOM     21  O   UNL     1      -5.744  -6.705  22.890  1.00  0.00    -0.452 OA
BRANCH  21  22
ATOM     22  C   UNL     1      -4.526  -5.951  22.872  1.00  0.00     0.339 C 
ATOM     23  C   UNL     1      -4.639  -4.645  22.052  1.00  0.00     0.214 C 
ATOM     24  O   UNL     1      -3.455  -6.762  22.411  1.00  0.00    -0.332 OA
ATOM     25  C   UNL     1      -4.856  -4.991  20.571  1.00  0.00     0.180 C 
ATOM     26  C   UNL     1      -3.544  -7.124  21.032  1.00  0.00     0.179 C 
ATOM     27  C   UNL     1      -3.724  -5.911  20.081  1.00  0.00     0.177 C 
BRANCH  23  28
ATOM     28  O   UNL     1      -5.693  -3.854  22.539  1.00  0.00    -0.384 OA
ATOM     29  H   UNL     1      -6.494  -4.436  22.589  1.00  0.00     0.211 HD
ENDBRANCH  23  28
BRANCH  25  30
ATOM     30  O   UNL     1      -4.952  -3.836  19.774  1.00  0.00    -0.387 OA
ATOM     31  H   UNL     1      -4.266  -3.189  20.085  1.00  0.00     0.211 HD
ENDBRANCH  25  30
BRANCH  26  32
ATOM     32  C   UNL     1      -4.567  -8.256  20.785  1.00  0.00     0.191 C 
BRANCH  32  33
ATOM     33  O   UNL     1      -4.646  -9.091  21.909  1.00  0.00    -0.394 OA
ATOM     34  H   UNL     1      -5.437  -9.680  21.785  1.00  0.00     0.210 HD
ENDBRANCH  32  33
ENDBRANCH  26  32
BRANCH  27  35
ATOM     35  O   UNL     1      -2.518  -5.188  20.023  1.00  0.00    -0.387 OA
ATOM     36  H   UNL     1      -1.819  -5.807  19.688  1.00  0.00     0.211 HD
ENDBRANCH  27  35
ENDBRANCH  21  22
ENDBRANCH   2  21
BRANCH   5  37
ATOM     37  O   UNL     1      -5.124  -9.122  27.306  1.00  0.00    -0.461 OA
BRANCH  37  38
ATOM     38  C   UNL     1      -3.862  -8.513  27.598  1.00  0.00     0.339 C 
ATOM     39  C   UNL     1      -2.745  -9.123  26.714  1.00  0.00     0.214 C 
ATOM     40  O   UNL     1      -3.970  -7.091  27.596  1.00  0.00    -0.332 OA
ATOM     41  C   UNL     1      -1.393  -8.447  27.033  1.00  0.00     0.180 C 
ATOM     42  C   UNL     1      -2.949  -6.420  26.875  1.00  0.00     0.179 C 
ATOM     43  C   UNL     1      -1.542  -6.921  27.284  1.00  0.00     0.177 C 
BRANCH  39  44
ATOM     44  O   UNL     1      -3.055  -8.973  25.347  1.00  0.00    -0.384 OA
ATOM     45  H   UNL     1      -4.030  -8.801  25.278  1.00  0.00     0.211 HD
ENDBRANCH  39  44
BRANCH  41  46
ATOM     46  O   UNL     1      -0.482  -8.669  25.985  1.00  0.00    -0.387 OA
ATOM     47  H   UNL     1       0.372  -8.955  26.402  1.00  0.00     0.211 HD
ENDBRANCH  41  46
BRANCH  42  48
ATOM     48  C   UNL     1      -3.108  -4.907  27.105  1.00  0.00     0.191 C 
BRANCH  48  49
ATOM     49  O   UNL     1      -3.012  -4.581  28.470  1.00  0.00    -0.394 OA
ATOM     50  H   UNL     1      -3.377  -3.669  28.572  1.00  0.00     0.210 HD
ENDBRANCH  48  49
ENDBRANCH  42  48
BRANCH  43  51
ATOM     51  O   UNL     1      -1.325  -6.637  28.642  1.00  0.00    -0.387 OA
ATOM     52  H   UNL     1      -0.386  -6.321  28.721  1.00  0.00     0.211 HD
ENDBRANCH  43  51
ENDBRANCH  37  38
ENDBRANCH   5  37
BRANCH   7  53
ATOM     53  O   UNL     1      -9.264  -8.097  29.669  1.00  0.00    -0.507 OA
ATOM     54  H   UNL     1     -10.250  -7.863  29.654  1.00  0.00     0.293 HD
ENDBRANCH   7  53
TORSDOF 18
ENDMDL
MODEL 4
REMARK VINA RESULT:    -4.709      4.038      7.504
REMARK INTER + INTRA:         -10.303
REMARK INTER:                  -8.037
REMARK INTRA:                  -2.266
REMARK UNBOUND:                -2.015
REMARK SMILES COc1cc(-c2[o+]c3cc(O)cc(O[C@@H]4O[C@@H](CO)[C@@H](O)[C@H](O)[C@@H]4O)c3cc2O[C@H]2O[C@@H](CO)[C@H](O)[C@H](O)[C@H]2O)ccc1O
REMARK SMILES IDX 6 1 28 2 27 3 26 4 13 5 12 6 10 7 9 8 8 9 7 10 5 11 3 12
REMARK SMILES IDX 43 13 4 14 42 15 41 16 2 17 1 18 44 19 29 21 30 22 39 23
REMARK SMILES IDX 31 24 37 25 32 26 35 27 40 28 38 30 33 32 34 33 36 35 14 37
REMARK SMILES IDX 15 38 24 39 16 40 22 41 17 42 20 43 25 44 23 46 18 48 19 49
REMARK SMILES IDX 21 51 11 53
REMARK H PARENT 44 20 40 29 38 31 34 34 36 36 25 45 23 47 19 50 21 52 11 54
REMARK Flexibility Score: inf
ROOT
ATOM      1  C   UNL     1      -4.795   5.573  15.578  1.00  0.00     0.402 A 
ATOM      2  C   UNL     1      -6.013   4.879  15.762  1.00  0.00     0.229 A 
ATOM      3  C   UNL     1      -5.983   3.651  16.428  1.00  0.00     0.079 A 
ATOM      4  C   UNL     1      -4.770   3.141  16.908  1.00  0.00     0.126 A 
ATOM      5  C   UNL     1      -4.694   1.912  17.594  1.00  0.00     0.143 A 
ATOM      6  C   UNL     1      -3.429   1.439  18.001  1.00  0.00     0.094 A 
ATOM      7  C   UNL     1      -2.267   2.163  17.724  1.00  0.00     0.128 A 
ATOM      8  C   UNL     1      -2.351   3.389  17.058  1.00  0.00     0.162 A 
ATOM      9  C   UNL     1      -3.595   3.883  16.655  1.00  0.00     0.368 A 
ATOM     10  O   UNL     1      -3.659   5.049  16.025  1.00  0.00    -0.202 OA
ENDROOT
BRANCH   1  11
ATOM     11  C   UNL     1      -4.716   6.852  14.863  1.00  0.00     0.087 A 
ATOM     12  C   UNL     1      -3.833   8.183  13.016  1.00  0.00     0.161 A 
ATOM     13  C   UNL     1      -4.454   9.322  13.555  1.00  0.00     0.157 A 
ATOM     14  C   UNL     1      -3.976   6.943  13.674  1.00  0.00     0.068 A 
ATOM     15  C   UNL     1      -5.175   9.227  14.754  1.00  0.00     0.051 A 
ATOM     16  C   UNL     1      -5.287   8.004  15.416  1.00  0.00     0.022 A 
BRANCH  12  17
ATOM     17  O   UNL     1      -3.079   8.321  11.838  1.00  0.00    -0.493 OA
ATOM     18  C   UNL     1      -3.581   8.071  10.529  1.00  0.00     0.278 C 
ENDBRANCH  12  17
BRANCH  13  19
ATOM     19  O   UNL     1      -4.340  10.547  12.897  1.00  0.00    -0.504 OA
ATOM     20  H   UNL     1      -4.066  11.392  13.388  1.00  0.00     0.293 HD
ENDBRANCH  13  19
ENDBRANCH   1  11
BRANCH   2  21
ATOM     21  O   UNL     1      -7.244   5.336  15.268  1.00  0.00    -0.452 OA
BRANCH  21  22
ATOM     22  C   UNL     1      -8.021   4.713  14.238  1.00  0.00     0.339 C 
ATOM     23  C   UNL     1      -7.341   4.773  12.851  1.00  0.00     0.214 C 
ATOM     24  O   UNL     1      -9.325   5.274  14.202  1.00  0.00    -0.332 OA
ATOM     25  C   UNL     1      -7.259   6.236  12.387  1.00  0.00     0.180 C 
ATOM     26  C   UNL     1      -9.368   6.632  13.759  1.00  0.00     0.179 C 
ATOM     27  C   UNL     1      -8.665   6.863  12.395  1.00  0.00     0.177 C 
BRANCH  23  28
ATOM     28  O   UNL     1      -6.062   4.196  12.909  1.00  0.00    -0.384 OA
ATOM     29  H   UNL     1      -5.407   4.940  12.875  1.00  0.00     0.211 HD
ENDBRANCH  23  28
BRANCH  25  30
ATOM     30  O   UNL     1      -6.660   6.349  11.120  1.00  0.00    -0.387 OA
ATOM     31  H   UNL     1      -6.884   5.533  10.599  1.00  0.00     0.211 HD
ENDBRANCH  25  30
BRANCH  26  32
ATOM     32  C   UNL     1      -8.922   7.624  14.857  1.00  0.00     0.191 C 
BRANCH  32  33
ATOM     33  O   UNL     1      -9.562   7.326  16.068  1.00  0.00    -0.394 OA
ATOM     34  H   UNL     1      -8.965   7.632  16.801  1.00  0.00     0.210 HD
ENDBRANCH  32  33
ENDBRANCH  26  32
BRANCH  27  35
ATOM     35  O   UNL     1      -9.443   6.292  11.372  1.00  0.00    -0.387 OA
ATOM     36  H   UNL     1      -8.830   5.773  10.789  1.00  0.00     0.211 HD
ENDBRANCH  27  35
ENDBRANCH  21  22
ENDBRANCH   2  21
BRANCH   5  37
ATOM     37  O   UNL     1      -5.882   1.217  17.895  1.00  0.00    -0.461 OA
BRANCH  37  38
ATOM     38  C   UNL     1      -5.996  -0.183  18.173  1.00  0.00     0.339 C 
ATOM     39  C   UNL     1      -7.039  -0.434  19.291  1.00  0.00     0.214 C 
ATOM     40  O   UNL     1      -6.162  -0.929  16.969  1.00  0.00    -0.332 OA
ATOM     41  C   UNL     1      -7.158  -1.949  19.570  1.00  0.00     0.180 C 
ATOM     42  C   UNL     1      -7.196  -1.899  17.011  1.00  0.00     0.179 C 
ATOM     43  C   UNL     1      -7.084  -2.795  18.269  1.00  0.00     0.177 C 
BRANCH  39  44
ATOM     44  O   UNL     1      -8.293   0.096  18.929  1.00  0.00    -0.384 OA
ATOM     45  H   UNL     1      -8.991  -0.503  19.305  1.00  0.00     0.211 HD
ENDBRANCH  39  44
BRANCH  41  46
ATOM     46  O   UNL     1      -8.358  -2.222  20.248  1.00  0.00    -0.387 OA
ATOM     47  H   UNL     1      -8.564  -3.181  20.093  1.00  0.00     0.211 HD
ENDBRANCH  41  46
BRANCH  42  48
ATOM     48  C   UNL     1      -7.140  -2.724  15.713  1.00  0.00     0.191 C 
BRANCH  48  49
ATOM     49  O   UNL     1      -5.830  -2.798  15.208  1.00  0.00    -0.394 OA
ATOM     50  H   UNL     1      -5.738  -2.072  14.544  1.00  0.00     0.210 HD
ENDBRANCH  48  49
ENDBRANCH  42  48
BRANCH  43  51
ATOM     51  O   UNL     1      -5.873  -3.504  18.228  1.00  0.00    -0.387 OA
ATOM     52  H   UNL     1      -5.424  -3.352  19.100  1.00  0.00     0.211 HD
ENDBRANCH  43  51
ENDBRANCH  37  38
ENDBRANCH   5  37
BRANCH   7  53
ATOM     53  O   UNL     1      -1.031   1.655  18.119  1.00  0.00    -0.507 OA
ATOM     54  H   UNL     1      -0.811   0.670  18.023  1.00  0.00     0.293 HD
ENDBRANCH   7  53
TORSDOF 18
ENDMDL
MODEL 5
REMARK VINA RESULT:    -3.993     13.265     18.083
REMARK INTER + INTRA:          -9.043
REMARK INTER:                  -8.225
REMARK INTRA:                  -0.818
REMARK UNBOUND:                -2.015
REMARK SMILES COc1cc(-c2[o+]c3cc(O)cc(O[C@@H]4O[C@@H](CO)[C@@H](O)[C@H](O)[C@@H]4O)c3cc2O[C@H]2O[C@@H](CO)[C@H](O)[C@H](O)[C@H]2O)ccc1O
REMARK SMILES IDX 6 1 28 2 27 3 26 4 13 5 12 6 10 7 9 8 8 9 7 10 5 11 3 12
REMARK SMILES IDX 43 13 4 14 42 15 41 16 2 17 1 18 44 19 29 21 30 22 39 23
REMARK SMILES IDX 31 24 37 25 32 26 35 27 40 28 38 30 33 32 34 33 36 35 14 37
REMARK SMILES IDX 15 38 24 39 16 40 22 41 17 42 20 43 25 44 23 46 18 48 19 49
REMARK SMILES IDX 21 51 11 53
REMARK H PARENT 44 20 40 29 38 31 34 34 36 36 25 45 23 47 19 50 21 52 11 54
REMARK Flexibility Score: inf
ROOT
ATOM      1  C   UNL     1      -5.087  -7.682  25.509  1.00  0.00     0.402 A 
ATOM      2  C   UNL     1      -5.659  -7.109  24.350  1.00  0.00     0.229 A 
ATOM      3  C   UNL     1      -7.052  -7.031  24.266  1.00  0.00     0.079 A 
ATOM      4  C   UNL     1      -7.847  -7.501  25.320  1.00  0.00     0.126 A 
ATOM      5  C   UNL     1      -9.254  -7.433  25.284  1.00  0.00     0.143 A 
ATOM      6  C   UNL     1      -9.988  -7.975  26.360  1.00  0.00     0.094 A 
ATOM      7  C   UNL     1      -9.340  -8.579  27.440  1.00  0.00     0.128 A 
ATOM      8  C   UNL     1      -7.944  -8.627  27.478  1.00  0.00     0.162 A 
ATOM      9  C   UNL     1      -7.196  -8.087  26.428  1.00  0.00     0.368 A 
ATOM     10  O   UNL     1      -5.871  -8.139  26.480  1.00  0.00    -0.202 OA
ENDROOT
BRANCH   1  11
ATOM     11  C   UNL     1      -3.638  -7.840  25.678  1.00  0.00     0.087 A 
ATOM     12  C   UNL     1      -1.553  -7.158  26.750  1.00  0.00     0.161 A 
ATOM     13  C   UNL     1      -0.849  -8.047  25.921  1.00  0.00     0.157 A 
ATOM     14  C   UNL     1      -2.956  -7.066  26.628  1.00  0.00     0.068 A 
ATOM     15  C   UNL     1      -1.535  -8.803  24.960  1.00  0.00     0.051 A 
ATOM     16  C   UNL     1      -2.919  -8.685  24.824  1.00  0.00     0.022 A 
BRANCH  12  17
ATOM     17  O   UNL     1      -0.830  -6.379  27.670  1.00  0.00    -0.493 OA
ATOM     18  C   UNL     1      -0.947  -6.495  29.084  1.00  0.00     0.278 C 
ENDBRANCH  12  17
BRANCH  13  19
ATOM     19  O   UNL     1       0.535  -8.163  26.052  1.00  0.00    -0.504 OA
ATOM     20  H   UNL     1       1.074  -8.800  25.473  1.00  0.00     0.293 HD
ENDBRANCH  13  19
ENDBRANCH   1  11
BRANCH   2  21
ATOM     21  O   UNL     1      -4.903  -6.658  23.257  1.00  0.00    -0.452 OA
BRANCH  21  22
ATOM     22  C   UNL     1      -4.528  -5.301  22.996  1.00  0.00     0.339 C 
ATOM     23  C   UNL     1      -5.687  -4.457  22.418  1.00  0.00     0.214 C 
ATOM     24  O   UNL     1      -3.387  -5.263  22.151  1.00  0.00    -0.332 OA
ATOM     25  C   UNL     1      -6.059  -4.989  21.025  1.00  0.00     0.180 C 
ATOM     26  C   UNL     1      -3.627  -5.716  20.818  1.00  0.00     0.179 C 
ATOM     27  C   UNL     1      -4.813  -4.997  20.122  1.00  0.00     0.177 C 
BRANCH  23  28
ATOM     28  O   UNL     1      -6.796  -4.496  23.279  1.00  0.00    -0.384 OA
ATOM     29  H   UNL     1      -6.542  -4.003  24.101  1.00  0.00     0.211 HD
ENDBRANCH  23  28
BRANCH  25  30
ATOM     30  O   UNL     1      -7.102  -4.247  20.444  1.00  0.00    -0.387 OA
ATOM     31  H   UNL     1      -6.823  -3.989  19.526  1.00  0.00     0.211 HD
ENDBRANCH  25  30
BRANCH  26  32
ATOM     32  C   UNL     1      -3.701  -7.257  20.724  1.00  0.00     0.191 C 
BRANCH  32  33
ATOM     33  O   UNL     1      -2.410  -7.803  20.700  1.00  0.00    -0.394 OA
ATOM     34  H   UNL     1      -1.986  -7.523  19.846  1.00  0.00     0.210 HD
ENDBRANCH  32  33
ENDBRANCH  26  32
BRANCH  27  35
ATOM     35  O   UNL     1      -4.438  -3.674  19.821  1.00  0.00    -0.387 OA
ATOM     36  H   UNL     1      -4.909  -3.082  20.463  1.00  0.00     0.211 HD
ENDBRANCH  27  35
ENDBRANCH  21  22
ENDBRANCH   2  21
BRANCH   5  37
ATOM     37  O   UNL     1      -9.885  -6.787  24.202  1.00  0.00    -0.461 OA
BRANCH  37  38
ATOM     38  C   UNL     1      -9.904  -7.237  22.842  1.00  0.00     0.339 C 
ATOM     39  C   UNL     1     -10.115  -6.044  21.877  1.00  0.00     0.214 C 
ATOM     40  O   UNL     1      -8.791  -8.086  22.571  1.00  0.00    -0.332 OA
ATOM     41  C   UNL     1     -10.123  -6.544  20.415  1.00  0.00     0.180 C 
ATOM     42  C   UNL     1      -8.100  -7.789  21.368  1.00  0.00     0.179 C 
ATOM     43  C   UNL     1      -9.072  -7.662  20.170  1.00  0.00     0.177 C 
BRANCH  39  44
ATOM     44  O   UNL     1      -9.109  -5.074  22.056  1.00  0.00    -0.384 OA
ATOM     45  H   UNL     1      -9.538  -4.181  21.992  1.00  0.00     0.211 HD
ENDBRANCH  39  44
BRANCH  41  46
ATOM     46  O   UNL     1      -9.890  -5.472  19.537  1.00  0.00    -0.387 OA
ATOM     47  H   UNL     1      -9.750  -5.864  18.635  1.00  0.00     0.211 HD
ENDBRANCH  41  46
BRANCH  42  48
ATOM     48  C   UNL     1      -7.043  -8.883  21.135  1.00  0.00     0.191 C 
BRANCH  48  49
ATOM     49  O   UNL     1      -6.841  -9.120  19.764  1.00  0.00    -0.394 OA
ATOM     50  H   UNL     1      -7.680  -9.506  19.414  1.00  0.00     0.210 HD
ENDBRANCH  48  49
ENDBRANCH  42  48
BRANCH  43  51
ATOM     51  O   UNL     1      -9.720  -8.890  19.965  1.00  0.00    -0.387 OA
ATOM     52  H   UNL     1     -10.374  -8.995  20.706  1.00  0.00     0.211 HD
ENDBRANCH  43  51
ENDBRANCH  37  38
ENDBRANCH   5  37
BRANCH   7  53
ATOM     53  O   UNL     1     -10.096  -9.125  28.475  1.00  0.00    -0.507 OA
ATOM     54  H   UNL     1      -9.659  -9.629  29.238  1.00  0.00     0.293 HD
ENDBRANCH   7  53
TORSDOF 18
ENDMDL
MODEL 6
REMARK VINA RESULT:    -3.964      3.413      8.393
REMARK INTER + INTRA:          -8.992
REMARK INTER:                 -11.374
REMARK INTRA:                   2.382
REMARK UNBOUND:                -2.015
REMARK SMILES COc1cc(-c2[o+]c3cc(O)cc(O[C@@H]4O[C@@H](CO)[C@@H](O)[C@H](O)[C@@H]4O)c3cc2O[C@H]2O[C@@H](CO)[C@H](O)[C@H](O)[C@H]2O)ccc1O
REMARK SMILES IDX 6 1 28 2 27 3 26 4 13 5 12 6 10 7 9 8 8 9 7 10 5 11 3 12
REMARK SMILES IDX 43 13 4 14 42 15 41 16 2 17 1 18 44 19 29 21 30 22 39 23
REMARK SMILES IDX 31 24 37 25 32 26 35 27 40 28 38 30 33 32 34 33 36 35 14 37
REMARK SMILES IDX 15 38 24 39 16 40 22 41 17 42 20 43 25 44 23 46 18 48 19 49
REMARK SMILES IDX 21 51 11 53
REMARK H PARENT 44 20 40 29 38 31 34 34 36 36 25 45 23 47 19 50 21 52 11 54
REMARK Flexibility Score: inf
ROOT
ATOM      1  C   UNL     1      -2.972   6.690  14.710  1.00  0.00     0.402 A 
ATOM      2  C   UNL     1      -4.287   7.188  14.846  1.00  0.00     0.229 A 
ATOM      3  C   UNL     1      -4.605   8.402  14.230  1.00  0.00     0.079 A 
ATOM      4  C   UNL     1      -3.635   9.089  13.489  1.00  0.00     0.126 A 
ATOM      5  C   UNL     1      -3.912  10.310  12.843  1.00  0.00     0.143 A 
ATOM      6  C   UNL     1      -2.869  10.969  12.159  1.00  0.00     0.094 A 
ATOM      7  C   UNL     1      -1.580  10.434  12.126  1.00  0.00     0.128 A 
ATOM      8  C   UNL     1      -1.315   9.213  12.755  1.00  0.00     0.162 A 
ATOM      9  C   UNL     1      -2.336   8.537  13.429  1.00  0.00     0.368 A 
ATOM     10  O   UNL     1      -2.069   7.379  14.020  1.00  0.00    -0.202 OA
ENDROOT
BRANCH   1  11
ATOM     11  C   UNL     1      -2.530   5.443  15.346  1.00  0.00     0.087 A 
ATOM     12  C   UNL     1      -3.069   3.330  16.442  1.00  0.00     0.161 A 
ATOM     13  C   UNL     1      -1.701   3.115  16.675  1.00  0.00     0.157 A 
ATOM     14  C   UNL     1      -3.478   4.498  15.766  1.00  0.00     0.068 A 
ATOM     15  C   UNL     1      -0.760   4.072  16.271  1.00  0.00     0.051 A 
ATOM     16  C   UNL     1      -1.174   5.241  15.629  1.00  0.00     0.022 A 
BRANCH  12  17
ATOM     17  O   UNL     1      -3.989   2.372  16.903  1.00  0.00    -0.493 OA
ATOM     18  C   UNL     1      -5.237   2.687  17.512  1.00  0.00     0.278 C 
ENDBRANCH  12  17
BRANCH  13  19
ATOM     19  O   UNL     1      -1.285   1.950  17.321  1.00  0.00    -0.504 OA
ATOM     20  H   UNL     1      -0.681   1.273  16.864  1.00  0.00     0.293 HD
ENDBRANCH  13  19
ENDBRANCH   1  11
BRANCH   2  21
ATOM     21  O   UNL     1      -5.280   6.551  15.607  1.00  0.00    -0.452 OA
BRANCH  21  22
ATOM     22  C   UNL     1      -5.903   5.299  15.299  1.00  0.00     0.339 C 
ATOM     23  C   UNL     1      -6.272   5.163  13.803  1.00  0.00     0.214 C 
ATOM     24  O   UNL     1      -7.035   5.098  16.133  1.00  0.00    -0.332 OA
ATOM     25  C   UNL     1      -7.360   6.190  13.452  1.00  0.00     0.180 C 
ATOM     26  C   UNL     1      -8.122   5.988  15.874  1.00  0.00     0.179 C 
ATOM     27  C   UNL     1      -8.569   6.008  14.387  1.00  0.00     0.177 C 
BRANCH  23  28
ATOM     28  O   UNL     1      -5.134   5.349  13.001  1.00  0.00    -0.384 OA
ATOM     29  H   UNL     1      -5.376   6.011  12.304  1.00  0.00     0.211 HD
ENDBRANCH  23  28
BRANCH  25  30
ATOM     30  O   UNL     1      -7.746   6.101  12.102  1.00  0.00    -0.387 OA
ATOM     31  H   UNL     1      -7.012   6.474  11.546  1.00  0.00     0.211 HD
ENDBRANCH  25  30
BRANCH  26  32
ATOM     32  C   UNL     1      -7.883   7.397  16.462  1.00  0.00     0.191 C 
BRANCH  32  33
ATOM     33  O   UNL     1      -7.219   7.301  17.694  1.00  0.00    -0.394 OA
ATOM     34  H   UNL     1      -6.316   6.927  17.515  1.00  0.00     0.210 HD
ENDBRANCH  32  33
ENDBRANCH  26  32
BRANCH  27  35
ATOM     35  O   UNL     1      -9.222   4.798  14.086  1.00  0.00    -0.387 OA
ATOM     36  H   UNL     1     -10.198   4.970  14.140  1.00  0.00     0.211 HD
ENDBRANCH  27  35
ENDBRANCH  21  22
ENDBRANCH   2  21
BRANCH   5  37
ATOM     37  O   UNL     1      -5.229  10.813  12.857  1.00  0.00    -0.461 OA
BRANCH  37  38
ATOM     38  C   UNL     1      -6.260  10.514  11.910  1.00  0.00     0.339 C 
ATOM     39  C   UNL     1      -5.980   9.162  11.208  1.00  0.00     0.214 C 
ATOM     40  O   UNL     1      -7.551  10.672  12.496  1.00  0.00    -0.332 OA
ATOM     41  C   UNL     1      -7.106   8.850  10.198  1.00  0.00     0.180 C 
ATOM     42  C   UNL     1      -8.451   9.605  12.241  1.00  0.00     0.179 C 
ATOM     43  C   UNL     1      -8.507   9.256  10.734  1.00  0.00     0.177 C 
BRANCH  39  44
ATOM     44  O   UNL     1      -5.870   8.123  12.153  1.00  0.00    -0.384 OA
ATOM     45  H   UNL     1      -5.965   7.263  11.666  1.00  0.00     0.211 HD
ENDBRANCH  39  44
BRANCH  41  46
ATOM     46  O   UNL     1      -7.100   7.482   9.875  1.00  0.00    -0.387 OA
ATOM     47  H   UNL     1      -6.151   7.222   9.742  1.00  0.00     0.211 HD
ENDBRANCH  41  46
BRANCH  42  48
ATOM     48  C   UNL     1      -9.833   9.997  12.792  1.00  0.00     0.191 C 
BRANCH  48  49
ATOM     49  O   UNL     1     -10.125   9.312  13.985  1.00  0.00    -0.394 OA
ATOM     50  H   UNL     1     -10.615   9.944  14.564  1.00  0.00     0.210 HD
ENDBRANCH  48  49
ENDBRANCH  42  48
BRANCH  43  51
ATOM     51  O   UNL     1      -8.989  10.365  10.019  1.00  0.00    -0.387 OA
ATOM     52  H   UNL     1      -9.968  10.233   9.916  1.00  0.00     0.211 HD
ENDBRANCH  43  51
ENDBRANCH  37  38
ENDBRANCH   5  37
BRANCH   7  53
ATOM     53  O   UNL     1      -0.567  11.122  11.462  1.00  0.00    -0.507 OA
ATOM     54  H   UNL     1      -0.624  12.122  11.306  1.00  0.00     0.293 HD
ENDBRANCH   7  53
TORSDOF 18
ENDMDL
MODEL 7
REMARK VINA RESULT:    -3.724     11.380     15.183
REMARK INTER + INTRA:          -8.570
REMARK INTER:                  -7.528
REMARK INTRA:                  -1.042
REMARK UNBOUND:                -2.015
REMARK SMILES COc1cc(-c2[o+]c3cc(O)cc(O[C@@H]4O[C@@H](CO)[C@@H](O)[C@H](O)[C@@H]4O)c3cc2O[C@H]2O[C@@H](CO)[C@H](O)[C@H](O)[C@H]2O)ccc1O
REMARK SMILES IDX 6 1 28 2 27 3 26 4 13 5 12 6 10 7 9 8 8 9 7 10 5 11 3 12
REMARK SMILES IDX 43 13 4 14 42 15 41 16 2 17 1 18 44 19 29 21 30 22 39 23
REMARK SMILES IDX 31 24 37 25 32 26 35 27 40 28 38 30 33 32 34 33 36 35 14 37
REMARK SMILES IDX 15 38 24 39 16 40 22 41 17 42 20 43 25 44 23 46 18 48 19 49
REMARK SMILES IDX 21 51 11 53
REMARK H PARENT 44 20 40 29 38 31 34 34 36 36 25 45 23 47 19 50 21 52 11 54
REMARK Flexibility Score: inf
ROOT
ATOM      1  C   UNL     1      -6.284  -4.133  20.223  1.00  0.00     0.402 A 
ATOM      2  C   UNL     1      -6.673  -5.324  20.878  1.00  0.00     0.229 A 
ATOM      3  C   UNL     1      -5.686  -6.259  21.198  1.00  0.00     0.079 A 
ATOM      4  C   UNL     1      -4.345  -6.002  20.882  1.00  0.00     0.126 A 
ATOM      5  C   UNL     1      -3.315  -6.911  21.194  1.00  0.00     0.143 A 
ATOM      6  C   UNL     1      -1.996  -6.604  20.798  1.00  0.00     0.094 A 
ATOM      7  C   UNL     1      -1.709  -5.430  20.098  1.00  0.00     0.128 A 
ATOM      8  C   UNL     1      -2.734  -4.524  19.807  1.00  0.00     0.162 A 
ATOM      9  C   UNL     1      -4.046  -4.801  20.200  1.00  0.00     0.368 A 
ATOM     10  O   UNL     1      -5.007  -3.931  19.917  1.00  0.00    -0.202 OA
ENDROOT
BRANCH   1  11
ATOM     11  C   UNL     1      -7.249  -3.105  19.815  1.00  0.00     0.087 A 
ATOM     12  C   UNL     1      -9.156  -1.675  20.343  1.00  0.00     0.161 A 
ATOM     13  C   UNL     1      -9.178  -1.232  19.010  1.00  0.00     0.157 A 
ATOM     14  C   UNL     1      -8.178  -2.611  20.743  1.00  0.00     0.068 A 
ATOM     15  C   UNL     1      -8.259  -1.744  18.084  1.00  0.00     0.051 A 
ATOM     16  C   UNL     1      -7.313  -2.693  18.479  1.00  0.00     0.022 A 
BRANCH  12  17
ATOM     17  O   UNL     1     -10.122  -1.177  21.235  1.00  0.00    -0.493 OA
ATOM     18  C   UNL     1      -9.959  -1.130  22.648  1.00  0.00     0.278 C 
ENDBRANCH  12  17
BRANCH  13  19
ATOM     19  O   UNL     1     -10.125  -0.288  18.613  1.00  0.00    -0.504 OA
ATOM     20  H   UNL     1     -10.947  -0.088  19.173  1.00  0.00     0.293 HD
ENDBRANCH  13  19
ENDBRANCH   1  11
BRANCH   2  21
ATOM     21  O   UNL     1      -8.007  -5.638  21.181  1.00  0.00    -0.452 OA
BRANCH  21  22
ATOM     22  C   UNL     1      -8.676  -5.365  22.418  1.00  0.00     0.339 C 
ATOM     23  C   UNL     1      -7.877  -5.842  23.653  1.00  0.00     0.214 C 
ATOM     24  O   UNL     1      -9.983  -5.920  22.400  1.00  0.00    -0.332 OA
ATOM     25  C   UNL     1      -7.785  -7.376  23.638  1.00  0.00     0.180 C 
ATOM     26  C   UNL     1     -10.016  -7.348  22.409  1.00  0.00     0.179 C 
ATOM     27  C   UNL     1      -9.198  -7.981  23.567  1.00  0.00     0.177 C 
BRANCH  23  28
ATOM     28  O   UNL     1      -6.595  -5.266  23.657  1.00  0.00    -0.384 OA
ATOM     29  H   UNL     1      -6.719  -4.283  23.635  1.00  0.00     0.211 HD
ENDBRANCH  23  28
BRANCH  25  30
ATOM     30  O   UNL     1      -7.078  -7.867  24.750  1.00  0.00    -0.387 OA
ATOM     31  H   UNL     1      -7.095  -7.171  25.459  1.00  0.00     0.211 HD
ENDBRANCH  25  30
BRANCH  26  32
ATOM     32  C   UNL     1      -9.691  -7.954  21.025  1.00  0.00     0.191 C 
BRANCH  32  33
ATOM     33  O   UNL     1     -10.118  -7.090  20.006  1.00  0.00    -0.394 OA
ATOM     34  H   UNL     1      -9.942  -6.161  20.314  1.00  0.00     0.210 HD
ENDBRANCH  32  33
ENDBRANCH  26  32
BRANCH  27  35
ATOM     35  O   UNL     1      -9.871  -7.755  24.783  1.00  0.00    -0.387 OA
ATOM     36  H   UNL     1     -10.214  -6.825  24.761  1.00  0.00     0.211 HD
ENDBRANCH  27  35
ENDBRANCH  21  22
ENDBRANCH   2  21
BRANCH   5  37
ATOM     37  O   UNL     1      -3.620  -8.072  21.932  1.00  0.00    -0.461 OA
BRANCH  37  38
ATOM     38  C   UNL     1      -3.865  -8.139  23.341  1.00  0.00     0.339 C 
ATOM     39  C   UNL     1      -2.687  -8.838  24.065  1.00  0.00     0.214 C 
ATOM     40  O   UNL     1      -4.261  -6.867  23.851  1.00  0.00    -0.332 OA
ATOM     41  C   UNL     1      -2.961  -8.893  25.585  1.00  0.00     0.180 C 
ATOM     42  C   UNL     1      -3.597  -6.474  25.041  1.00  0.00     0.179 C 
ATOM     43  C   UNL     1      -3.633  -7.594  26.110  1.00  0.00     0.177 C 
BRANCH  39  44
ATOM     44  O   UNL     1      -1.476  -8.163  23.813  1.00  0.00    -0.384 OA
ATOM     45  H   UNL     1      -1.136  -8.476  22.934  1.00  0.00     0.211 HD
ENDBRANCH  39  44
BRANCH  41  46
ATOM     46  O   UNL     1      -1.764  -9.124  26.284  1.00  0.00    -0.387 OA
ATOM     47  H   UNL     1      -1.029  -9.087  25.617  1.00  0.00     0.211 HD
ENDBRANCH  41  46
BRANCH  42  48
ATOM     48  C   UNL     1      -4.247  -5.175  25.550  1.00  0.00     0.191 C 
BRANCH  48  49
ATOM     49  O   UNL     1      -4.325  -4.206  24.533  1.00  0.00    -0.394 OA
ATOM     50  H   UNL     1      -3.674  -3.499  24.762  1.00  0.00     0.210 HD
ENDBRANCH  48  49
ENDBRANCH  42  48
BRANCH  43  51
ATOM     51  O   UNL     1      -4.966  -7.855  26.464  1.00  0.00    -0.387 OA
ATOM     52  H   UNL     1      -5.488  -7.872  25.618  1.00  0.00     0.211 HD
ENDBRANCH  43  51
ENDBRANCH  37  38
ENDBRANCH   5  37
BRANCH   7  53
ATOM     53  O   UNL     1      -0.399  -5.170  19.701  1.00  0.00    -0.507 OA
ATOM     54  H   UNL     1       0.154  -4.448  20.148  1.00  0.00     0.293 HD
ENDBRANCH   7  53
TORSDOF 18
ENDMDL
MODEL 8
REMARK VINA RESULT:    -3.297     13.974     18.596
REMARK INTER + INTRA:          -7.817
REMARK INTER:                  -7.828
REMARK INTRA:                   0.011
REMARK UNBOUND:                -2.015
REMARK SMILES COc1cc(-c2[o+]c3cc(O)cc(O[C@@H]4O[C@@H](CO)[C@@H](O)[C@H](O)[C@@H]4O)c3cc2O[C@H]2O[C@@H](CO)[C@H](O)[C@H](O)[C@H]2O)ccc1O
REMARK SMILES IDX 6 1 28 2 27 3 26 4 13 5 12 6 10 7 9 8 8 9 7 10 5 11 3 12
REMARK SMILES IDX 43 13 4 14 42 15 41 16 2 17 1 18 44 19 29 21 30 22 39 23
REMARK SMILES IDX 31 24 37 25 32 26 35 27 40 28 38 30 33 32 34 33 36 35 14 37
REMARK SMILES IDX 15 38 24 39 16 40 22 41 17 42 20 43 25 44 23 46 18 48 19 49
REMARK SMILES IDX 21 51 11 53
REMARK H PARENT 44 20 40 29 38 31 34 34 36 36 25 45 23 47 19 50 21 52 11 54
REMARK Flexibility Score: inf
ROOT
ATOM      1  C   UNL     1      -4.541  -8.193  26.130  1.00  0.00     0.402 A 
ATOM      2  C   UNL     1      -5.166  -7.878  24.903  1.00  0.00     0.229 A 
ATOM      3  C   UNL     1      -6.562  -7.805  24.868  1.00  0.00     0.079 A 
ATOM      4  C   UNL     1      -7.306  -8.026  26.034  1.00  0.00     0.126 A 
ATOM      5  C   UNL     1      -8.713  -7.952  26.049  1.00  0.00     0.143 A 
ATOM      6  C   UNL     1      -9.396  -8.240  27.250  1.00  0.00     0.094 A 
ATOM      7  C   UNL     1      -8.698  -8.602  28.404  1.00  0.00     0.128 A 
ATOM      8  C   UNL     1      -7.302  -8.657  28.387  1.00  0.00     0.162 A 
ATOM      9  C   UNL     1      -6.604  -8.365  27.212  1.00  0.00     0.368 A 
ATOM     10  O   UNL     1      -5.278  -8.420  27.212  1.00  0.00    -0.202 OA
ENDROOT
BRANCH   1  11
ATOM     11  C   UNL     1      -3.085  -8.327  26.263  1.00  0.00     0.087 A 
ATOM     12  C   UNL     1      -1.006  -7.724  27.392  1.00  0.00     0.161 A 
ATOM     13  C   UNL     1      -0.289  -8.477  26.448  1.00  0.00     0.157 A 
ATOM     14  C   UNL     1      -2.413  -7.660  27.298  1.00  0.00     0.068 A 
ATOM     15  C   UNL     1      -0.965  -9.125  25.406  1.00  0.00     0.051 A 
ATOM     16  C   UNL     1      -2.354  -9.032  25.300  1.00  0.00     0.022 A 
BRANCH  12  17
ATOM     17  O   UNL     1      -0.293  -7.048  28.397  1.00  0.00    -0.493 OA
ATOM     18  C   UNL     1      -0.872  -6.109  29.298  1.00  0.00     0.278 C 
ENDBRANCH  12  17
BRANCH  13  19
ATOM     19  O   UNL     1       1.100  -8.567  26.549  1.00  0.00    -0.504 OA
ATOM     20  H   UNL     1       1.583  -9.457  26.481  1.00  0.00     0.293 HD
ENDBRANCH  13  19
ENDBRANCH   1  11
BRANCH   2  21
ATOM     21  O   UNL     1      -4.462  -7.683  23.704  1.00  0.00    -0.452 OA
BRANCH  21  22
ATOM     22  C   UNL     1      -3.475  -6.674  23.463  1.00  0.00     0.339 C 
ATOM     23  C   UNL     1      -4.084  -5.261  23.312  1.00  0.00     0.214 C 
ATOM     24  O   UNL     1      -2.686  -7.022  22.334  1.00  0.00    -0.332 OA
ATOM     25  C   UNL     1      -4.950  -5.212  22.044  1.00  0.00     0.180 C 
ATOM     26  C   UNL     1      -3.390  -6.985  21.091  1.00  0.00     0.179 C 
ATOM     27  C   UNL     1      -4.111  -5.637  20.825  1.00  0.00     0.177 C 
BRANCH  23  28
ATOM     28  O   UNL     1      -4.844  -4.934  24.447  1.00  0.00    -0.384 OA
ATOM     29  H   UNL     1      -5.331  -4.096  24.238  1.00  0.00     0.211 HD
ENDBRANCH  23  28
BRANCH  25  30
ATOM     30  O   UNL     1      -5.519  -3.940  21.849  1.00  0.00    -0.387 OA
ATOM     31  H   UNL     1      -4.878  -3.260  22.187  1.00  0.00     0.211 HD
ENDBRANCH  25  30
BRANCH  26  32
ATOM     32  C   UNL     1      -4.299  -8.219  20.892  1.00  0.00     0.191 C 
BRANCH  32  33
ATOM     33  O   UNL     1      -5.301  -7.936  19.952  1.00  0.00    -0.394 OA
ATOM     34  H   UNL     1      -6.070  -7.548  20.447  1.00  0.00     0.210 HD
ENDBRANCH  32  33
ENDBRANCH  26  32
BRANCH  27  35
ATOM     35  O   UNL     1      -3.151  -4.648  20.543  1.00  0.00    -0.387 OA
ATOM     36  H   UNL     1      -3.625  -3.777  20.515  1.00  0.00     0.211 HD
ENDBRANCH  27  35
ENDBRANCH  21  22
ENDBRANCH   2  21
BRANCH   5  37
ATOM     37  O   UNL     1      -9.394  -7.549  24.883  1.00  0.00    -0.461 OA
BRANCH  37  38
ATOM     38  C   UNL     1      -8.799  -7.254  23.615  1.00  0.00     0.339 C 
ATOM     39  C   UNL     1      -8.810  -8.505  22.702  1.00  0.00     0.214 C 
ATOM     40  O   UNL     1      -9.347  -6.058  23.062  1.00  0.00    -0.332 OA
ATOM     41  C   UNL     1      -8.175  -8.166  21.335  1.00  0.00     0.180 C 
ATOM     42  C   UNL     1      -9.713  -6.152  21.695  1.00  0.00     0.179 C 
ATOM     43  C   UNL     1      -8.569  -6.748  20.838  1.00  0.00     0.177 C 
BRANCH  39  44
ATOM     44  O   UNL     1     -10.125  -8.981  22.525  1.00  0.00    -0.384 OA
ATOM     45  H   UNL     1     -10.064  -9.928  22.232  1.00  0.00     0.211 HD
ENDBRANCH  39  44
BRANCH  41  46
ATOM     46  O   UNL     1      -8.549  -9.125  20.377  1.00  0.00    -0.387 OA
ATOM     47  H   UNL     1      -8.582  -8.659  19.501  1.00  0.00     0.211 HD
ENDBRANCH  41  46
BRANCH  42  48
ATOM     48  C   UNL     1     -10.125  -4.751  21.207  1.00  0.00     0.191 C 
BRANCH  48  49
ATOM     49  O   UNL     1      -9.906  -3.777  22.198  1.00  0.00    -0.394 OA
ATOM     50  H   UNL     1     -10.791  -3.410  22.438  1.00  0.00     0.210 HD
ENDBRANCH  48  49
ENDBRANCH  42  48
BRANCH  43  51
ATOM     51  O   UNL     1      -7.455  -5.895  20.895  1.00  0.00    -0.387 OA
ATOM     52  H   UNL     1      -6.708  -6.427  21.277  1.00  0.00     0.211 HD
ENDBRANCH  43  51
ENDBRANCH  37  38
ENDBRANCH   5  37
BRANCH   7  53
ATOM     53  O   UNL     1      -9.405  -8.903  29.567  1.00  0.00    -0.507 OA
ATOM     54  H   UNL     1      -9.721  -9.846  29.762  1.00  0.00     0.293 HD
ENDBRANCH   7  53
TORSDOF 18
ENDMDL
