MODEL 1
REMARK VINA RESULT:    -0.113      0.000      0.000
REMARK INTER + INTRA:          -0.203
REMARK INTER:                  -0.136
REMARK INTRA:                  -0.067
REMARK UNBOUND:                -0.067
REMARK SMILES O=c1c(O)c(-c2ccc(O)c(O)c2)oc2cc(O)cc(O)c12
REMARK SMILES IDX 5 1 3 2 2 3 1 4 22 5 20 6 19 7 17 8 16 9 15 10 14 11 6 12
REMARK SMILES IDX 7 13 8 14 9 15 13 16 11 17 10 18 12 20 4 22 21 24 18 26
REMARK H PARENT 10 19 12 21 4 23 21 25 18 27
REMARK Flexibility Score: inf
ROOT
ATOM      1  C   UNL     1      25.277  -5.026 -18.245  1.00  0.00     0.180 A 
ATOM      2  C   UNL     1      26.149  -4.494 -19.214  1.00  0.00     0.208 A 
ATOM      3  C   UNL     1      26.338  -3.104 -19.267  1.00  0.00     0.238 A 
ATOM      4  O   UNL     1      27.125  -2.617 -20.123  1.00  0.00    -0.285 OA
ATOM      5  C   UNL     1      25.639  -2.271 -18.368  1.00  0.00     0.111 A 
ATOM      6  C   UNL     1      25.770  -0.862 -18.359  1.00  0.00     0.134 A 
ATOM      7  C   UNL     1      25.033  -0.101 -17.439  1.00  0.00     0.093 A 
ATOM      8  C   UNL     1      24.169  -0.721 -16.532  1.00  0.00     0.123 A 
ATOM      9  C   UNL     1      24.037  -2.113 -16.537  1.00  0.00     0.094 A 
ATOM     10  C   UNL     1      24.763  -2.889 -17.445  1.00  0.00     0.146 A 
ATOM     11  O   UNL     1      24.624  -4.209 -17.424  1.00  0.00    -0.452 OA
ENDROOT
BRANCH   1  12
ATOM     12  C   UNL     1      25.041  -6.481 -18.114  1.00  0.00     0.025 A 
ATOM     13  C   UNL     1      23.725  -6.968 -18.086  1.00  0.00     0.016 A 
ATOM     14  C   UNL     1      23.478  -8.335 -17.942  1.00  0.00     0.051 A 
ATOM     15  C   UNL     1      24.542  -9.235 -17.809  1.00  0.00     0.157 A 
ATOM     16  C   UNL     1      26.107  -7.387 -17.959  1.00  0.00     0.062 A 
ATOM     17  C   UNL     1      25.863  -8.756 -17.812  1.00  0.00     0.158 A 
BRANCH  15  18
ATOM     18  O   UNL     1      24.294 -10.600 -17.668  1.00  0.00    -0.504 OA
ATOM     19  H   UNL     1      23.611 -10.949 -17.004  1.00  0.00     0.293 HD
ENDBRANCH  15  18
BRANCH  17  20
ATOM     20  O   UNL     1      26.945  -9.624 -17.666  1.00  0.00    -0.504 OA
ATOM     21  H   UNL     1      26.886 -10.605 -17.917  1.00  0.00     0.293 HD
ENDBRANCH  17  20
ENDBRANCH   1  12
BRANCH   2  22
ATOM     22  O   UNL     1      26.792  -5.337 -20.125  1.00  0.00    -0.502 OA
ATOM     23  H   UNL     1      26.291  -5.829 -20.855  1.00  0.00     0.293 HD
ENDBRANCH   2  22
BRANCH   6  24
ATOM     24  O   UNL     1      26.623  -0.213 -19.253  1.00  0.00    -0.507 OA
ATOM     25  H   UNL     1      27.631  -0.270 -19.165  1.00  0.00     0.293 HD
ENDBRANCH   6  24
BRANCH   8  26
ATOM     26  O   UNL     1      23.448   0.058 -15.629  1.00  0.00    -0.508 OA
ATOM     27  H   UNL     1      22.532  -0.224 -15.302  1.00  0.00     0.293 HD
ENDBRANCH   8  26
TORSDOF 6
ENDMDL
