MODEL 1
REMARK VINA RESULT:    -6.722      0.000      0.000
REMARK INTER + INTRA:          -8.412
REMARK INTER:                  -8.098
REMARK INTRA:                  -0.314
REMARK UNBOUND:                -0.314
REMARK SMILES O=c1c(O)c(-c2ccc(O)c(O)c2)oc2cc(O)cc(O)c12
REMARK SMILES IDX 5 1 3 2 2 3 1 4 22 5 20 6 19 7 17 8 16 9 15 10 14 11 6 12
REMARK SMILES IDX 7 13 8 14 9 15 13 16 11 17 10 18 12 20 4 22 21 24 18 26
REMARK H PARENT 10 19 12 21 4 23 21 25 18 27
REMARK Flexibility Score: inf
ROOT
ATOM      1  C   UNL     1      17.911  19.904  -8.183  1.00  0.00     0.180 A 
ATOM      2  C   UNL     1      18.964  18.998  -8.404  1.00  0.00     0.208 A 
ATOM      3  C   UNL     1      19.204  17.991  -7.456  1.00  0.00     0.238 A 
ATOM      4  O   UNL     1      20.113  17.150  -7.685  1.00  0.00    -0.285 OA
ATOM      5  C   UNL     1      18.400  17.910  -6.294  1.00  0.00     0.111 A 
ATOM      6  C   UNL     1      18.580  16.954  -5.249  1.00  0.00     0.134 A 
ATOM      7  C   UNL     1      17.645  16.885  -4.208  1.00  0.00     0.093 A 
ATOM      8  C   UNL     1      16.576  17.776  -4.140  1.00  0.00     0.123 A 
ATOM      9  C   UNL     1      16.424  18.754  -5.125  1.00  0.00     0.094 A 
ATOM     10  C   UNL     1      17.319  18.825  -6.195  1.00  0.00     0.146 A 
ATOM     11  O   UNL     1      17.135  19.762  -7.116  1.00  0.00    -0.452 OA
ENDROOT
BRANCH   1  12
ATOM     12  C   UNL     1      17.612  21.008  -9.124  1.00  0.00     0.025 A 
ATOM     13  C   UNL     1      16.808  20.805 -10.260  1.00  0.00     0.016 A 
ATOM     14  C   UNL     1      16.560  21.856 -11.147  1.00  0.00     0.051 A 
ATOM     15  C   UNL     1      17.121  23.119 -10.919  1.00  0.00     0.157 A 
ATOM     16  C   UNL     1      18.190  22.271  -8.913  1.00  0.00     0.062 A 
ATOM     17  C   UNL     1      17.941  23.326  -9.802  1.00  0.00     0.158 A 
BRANCH  15  18
ATOM     18  O   UNL     1      16.874  24.170 -11.801  1.00  0.00    -0.504 OA
ATOM     19  H   UNL     1      17.228  25.104 -11.626  1.00  0.00     0.293 HD
ENDBRANCH  15  18
BRANCH  17  20
ATOM     20  O   UNL     1      18.504  24.582  -9.582  1.00  0.00    -0.504 OA
ATOM     21  H   UNL     1      19.130  25.008 -10.256  1.00  0.00     0.293 HD
ENDBRANCH  17  20
ENDBRANCH   1  12
BRANCH   2  22
ATOM     22  O   UNL     1      19.732  19.082  -9.568  1.00  0.00    -0.502 OA
ATOM     23  H   UNL     1      19.930  18.276 -10.148  1.00  0.00     0.293 HD
ENDBRANCH   2  22
BRANCH   6  24
ATOM     24  O   UNL     1      19.666  16.077  -5.171  1.00  0.00    -0.507 OA
ATOM     25  H   UNL     1      19.727  15.194  -5.655  1.00  0.00     0.293 HD
ENDBRANCH   6  24
BRANCH   8  26
ATOM     26  O   UNL     1      15.673  17.688  -3.083  1.00  0.00    -0.508 OA
ATOM     27  H   UNL     1      15.642  18.389  -2.352  1.00  0.00     0.293 HD
ENDBRANCH   8  26
TORSDOF 6
ENDMDL
MODEL 2
REMARK VINA RESULT:    -6.526      2.149      3.743
REMARK INTER + INTRA:          -8.175
REMARK INTER:                  -7.852
REMARK INTRA:                  -0.322
REMARK UNBOUND:                -0.314
REMARK SMILES O=c1c(O)c(-c2ccc(O)c(O)c2)oc2cc(O)cc(O)c12
REMARK SMILES IDX 5 1 3 2 2 3 1 4 22 5 20 6 19 7 17 8 16 9 15 10 14 11 6 12
REMARK SMILES IDX 7 13 8 14 9 15 13 16 11 17 10 18 12 20 4 22 21 24 18 26
REMARK H PARENT 10 19 12 21 4 23 21 25 18 27
REMARK Flexibility Score: inf
ROOT
ATOM      1  C   UNL     1      17.272  21.562  -6.938  1.00  0.00     0.180 A 
ATOM      2  C   UNL     1      16.299  21.999  -6.022  1.00  0.00     0.208 A 
ATOM      3  C   UNL     1      16.226  21.385  -4.762  1.00  0.00     0.238 A 
ATOM      4  O   UNL     1      15.388  21.816  -3.926  1.00  0.00    -0.285 OA
ATOM      5  C   UNL     1      17.115  20.332  -4.439  1.00  0.00     0.111 A 
ATOM      6  C   UNL     1      17.104  19.611  -3.206  1.00  0.00     0.134 A 
ATOM      7  C   UNL     1      18.114  18.677  -2.944  1.00  0.00     0.093 A 
ATOM      8  C   UNL     1      19.094  18.390  -3.892  1.00  0.00     0.123 A 
ATOM      9  C   UNL     1      19.080  19.046  -5.124  1.00  0.00     0.094 A 
ATOM     10  C   UNL     1      18.107  20.009  -5.402  1.00  0.00     0.146 A 
ATOM     11  O   UNL     1      18.133  20.617  -6.581  1.00  0.00    -0.452 OA
ENDROOT
BRANCH   1  12
ATOM     12  C   UNL     1      17.395  22.144  -8.295  1.00  0.00     0.025 A 
ATOM     13  C   UNL     1      18.189  23.278  -8.535  1.00  0.00     0.016 A 
ATOM     14  C   UNL     1      18.270  23.824  -9.820  1.00  0.00     0.051 A 
ATOM     15  C   UNL     1      17.549  23.253 -10.876  1.00  0.00     0.157 A 
ATOM     16  C   UNL     1      16.657  21.589  -9.354  1.00  0.00     0.062 A 
ATOM     17  C   UNL     1      16.738  22.136 -10.642  1.00  0.00     0.158 A 
BRANCH  15  18
ATOM     18  O   UNL     1      17.628  23.794 -12.159  1.00  0.00    -0.504 OA
ATOM     19  H   UNL     1      17.933  24.748 -12.314  1.00  0.00     0.293 HD
ENDBRANCH  15  18
BRANCH  17  20
ATOM     20  O   UNL     1      16.015  21.574 -11.694  1.00  0.00    -0.504 OA
ATOM     21  H   UNL     1      15.070  21.872 -11.906  1.00  0.00     0.293 HD
ENDBRANCH  17  20
ENDBRANCH   1  12
BRANCH   2  22
ATOM     22  O   UNL     1      15.445  23.054  -6.353  1.00  0.00    -0.502 OA
ATOM     23  H   UNL     1      15.506  23.963  -5.911  1.00  0.00     0.293 HD
ENDBRANCH   2  22
BRANCH   6  24
ATOM     24  O   UNL     1      16.116  19.755  -2.227  1.00  0.00    -0.507 OA
ATOM     25  H   UNL     1      16.006  19.147  -1.429  1.00  0.00     0.293 HD
ENDBRANCH   6  24
BRANCH   8  26
ATOM     26  O   UNL     1      20.075  17.444  -3.603  1.00  0.00    -0.508 OA
ATOM     27  H   UNL     1      19.836  16.486  -3.375  1.00  0.00     0.293 HD
ENDBRANCH   8  26
TORSDOF 6
ENDMDL
MODEL 3
REMARK VINA RESULT:    -6.376      1.801      3.247
REMARK INTER + INTRA:          -7.995
REMARK INTER:                  -7.978
REMARK INTRA:                  -0.017
REMARK UNBOUND:                -0.314
REMARK SMILES O=c1c(O)c(-c2ccc(O)c(O)c2)oc2cc(O)cc(O)c12
REMARK SMILES IDX 5 1 3 2 2 3 1 4 22 5 20 6 19 7 17 8 16 9 15 10 14 11 6 12
REMARK SMILES IDX 7 13 8 14 9 15 13 16 11 17 10 18 12 20 4 22 21 24 18 26
REMARK H PARENT 10 19 12 21 4 23 21 25 18 27
REMARK Flexibility Score: inf
ROOT
ATOM      1  C   UNL     1      18.417  20.574  -7.492  1.00  0.00     0.180 A 
ATOM      2  C   UNL     1      18.245  21.005  -6.165  1.00  0.00     0.208 A 
ATOM      3  C   UNL     1      18.576  20.131  -5.118  1.00  0.00     0.238 A 
ATOM      4  O   UNL     1      18.471  20.541  -3.932  1.00  0.00    -0.285 OA
ATOM      5  C   UNL     1      19.060  18.833  -5.409  1.00  0.00     0.111 A 
ATOM      6  C   UNL     1      19.389  17.851  -4.426  1.00  0.00     0.134 A 
ATOM      7  C   UNL     1      19.982  16.647  -4.826  1.00  0.00     0.093 A 
ATOM      8  C   UNL     1      20.197  16.362  -6.173  1.00  0.00     0.123 A 
ATOM      9  C   UNL     1      19.825  17.290  -7.147  1.00  0.00     0.094 A 
ATOM     10  C   UNL     1      19.265  18.515  -6.778  1.00  0.00     0.146 A 
ATOM     11  O   UNL     1      18.934  19.375  -7.732  1.00  0.00    -0.452 OA
ENDROOT
BRANCH   1  12
ATOM     12  C   UNL     1      18.066  21.429  -8.650  1.00  0.00     0.025 A 
ATOM     13  C   UNL     1      18.567  22.738  -8.771  1.00  0.00     0.016 A 
ATOM     14  C   UNL     1      18.202  23.535  -9.860  1.00  0.00     0.051 A 
ATOM     15  C   UNL     1      17.324  23.042 -10.833  1.00  0.00     0.157 A 
ATOM     16  C   UNL     1      17.168  20.948  -9.618  1.00  0.00     0.062 A 
ATOM     17  C   UNL     1      16.803  21.748 -10.710  1.00  0.00     0.158 A 
BRANCH  15  18
ATOM     18  O   UNL     1      16.959  23.834 -11.921  1.00  0.00    -0.504 OA
ATOM     19  H   UNL     1      17.631  24.426 -12.395  1.00  0.00     0.293 HD
ENDBRANCH  15  18
BRANCH  17  20
ATOM     20  O   UNL     1      15.923  21.262 -11.677  1.00  0.00    -0.504 OA
ATOM     21  H   UNL     1      15.091  21.776 -11.942  1.00  0.00     0.293 HD
ENDBRANCH  17  20
ENDBRANCH   1  12
BRANCH   2  22
ATOM     22  O   UNL     1      17.786  22.298  -5.899  1.00  0.00    -0.502 OA
ATOM     23  H   UNL     1      17.604  22.628  -4.960  1.00  0.00     0.293 HD
ENDBRANCH   2  22
BRANCH   6  24
ATOM     24  O   UNL     1      19.130  17.996  -3.060  1.00  0.00    -0.507 OA
ATOM     25  H   UNL     1      19.090  18.879  -2.574  1.00  0.00     0.293 HD
ENDBRANCH   6  24
BRANCH   8  26
ATOM     26  O   UNL     1      20.776  15.147  -6.535  1.00  0.00    -0.508 OA
ATOM     27  H   UNL     1      21.026  14.452  -5.842  1.00  0.00     0.293 HD
ENDBRANCH   8  26
TORSDOF 6
ENDMDL
MODEL 4
REMARK VINA RESULT:    -6.324      1.678      2.931
REMARK INTER + INTRA:          -7.932
REMARK INTER:                  -7.974
REMARK INTRA:                   0.042
REMARK UNBOUND:                -0.314
REMARK SMILES O=c1c(O)c(-c2ccc(O)c(O)c2)oc2cc(O)cc(O)c12
REMARK SMILES IDX 5 1 3 2 2 3 1 4 22 5 20 6 19 7 17 8 16 9 15 10 14 11 6 12
REMARK SMILES IDX 7 13 8 14 9 15 13 16 11 17 10 18 12 20 4 22 21 24 18 26
REMARK H PARENT 10 19 12 21 4 23 21 25 18 27
REMARK Flexibility Score: inf
ROOT
ATOM      1  C   UNL     1      18.292  20.329  -7.303  1.00  0.00     0.180 A 
ATOM      2  C   UNL     1      18.085  20.769  -5.983  1.00  0.00     0.208 A 
ATOM      3  C   UNL     1      18.443  19.925  -4.921  1.00  0.00     0.238 A 
ATOM      4  O   UNL     1      18.306  20.345  -3.742  1.00  0.00    -0.285 OA
ATOM      5  C   UNL     1      18.990  18.647  -5.189  1.00  0.00     0.111 A 
ATOM      6  C   UNL     1      19.352  17.694  -4.189  1.00  0.00     0.134 A 
ATOM      7  C   UNL     1      20.005  16.514  -4.566  1.00  0.00     0.093 A 
ATOM      8  C   UNL     1      20.250  16.222  -5.907  1.00  0.00     0.123 A 
ATOM      9  C   UNL     1      19.847  17.119  -6.897  1.00  0.00     0.094 A 
ATOM     10  C   UNL     1      19.226  18.322  -6.551  1.00  0.00     0.146 A 
ATOM     11  O   UNL     1      18.867  19.153  -7.521  1.00  0.00    -0.452 OA
ENDROOT
BRANCH   1  12
ATOM     12  C   UNL     1      17.916  21.152  -8.476  1.00  0.00     0.025 A 
ATOM     13  C   UNL     1      17.181  20.610  -9.544  1.00  0.00     0.016 A 
ATOM     14  C   UNL     1      16.858  21.399 -10.652  1.00  0.00     0.051 A 
ATOM     15  C   UNL     1      17.277  22.735 -10.713  1.00  0.00     0.157 A 
ATOM     16  C   UNL     1      18.352  22.486  -8.553  1.00  0.00     0.062 A 
ATOM     17  C   UNL     1      18.028  23.278  -9.663  1.00  0.00     0.158 A 
BRANCH  15  18
ATOM     18  O   UNL     1      16.956  23.526 -11.815  1.00  0.00    -0.504 OA
ATOM     19  H   UNL     1      16.435  23.154 -12.601  1.00  0.00     0.293 HD
ENDBRANCH  15  18
BRANCH  17  20
ATOM     20  O   UNL     1      18.450  24.605  -9.730  1.00  0.00    -0.504 OA
ATOM     21  H   UNL     1      17.851  25.333 -10.102  1.00  0.00     0.293 HD
ENDBRANCH  17  20
ENDBRANCH   1  12
BRANCH   2  22
ATOM     22  O   UNL     1      17.563  22.042  -5.740  1.00  0.00    -0.502 OA
ATOM     23  H   UNL     1      17.578  22.778  -6.436  1.00  0.00     0.293 HD
ENDBRANCH   2  22
BRANCH   6  24
ATOM     24  O   UNL     1      19.071  17.845  -2.829  1.00  0.00    -0.507 OA
ATOM     25  H   UNL     1      19.691  17.576  -2.080  1.00  0.00     0.293 HD
ENDBRANCH   6  24
BRANCH   8  26
ATOM     26  O   UNL     1      20.889  15.031  -6.246  1.00  0.00    -0.508 OA
ATOM     27  H   UNL     1      21.310  14.896  -7.157  1.00  0.00     0.293 HD
ENDBRANCH   8  26
TORSDOF 6
ENDMDL
MODEL 5
REMARK VINA RESULT:    -6.221      4.087      5.346
REMARK INTER + INTRA:          -7.808
REMARK INTER:                  -7.477
REMARK INTRA:                  -0.331
REMARK UNBOUND:                -0.314
REMARK SMILES O=c1c(O)c(-c2ccc(O)c(O)c2)oc2cc(O)cc(O)c12
REMARK SMILES IDX 5 1 3 2 2 3 1 4 22 5 20 6 19 7 17 8 16 9 15 10 14 11 6 12
REMARK SMILES IDX 7 13 8 14 9 15 13 16 11 17 10 18 12 20 4 22 21 24 18 26
REMARK H PARENT 10 19 12 21 4 23 21 25 18 27
REMARK Flexibility Score: inf
ROOT
ATOM      1  C   UNL     1      16.198  22.816  -6.780  1.00  0.00     0.180 A 
ATOM      2  C   UNL     1      16.516  21.698  -5.989  1.00  0.00     0.208 A 
ATOM      3  C   UNL     1      16.045  21.644  -4.668  1.00  0.00     0.238 A 
ATOM      4  O   UNL     1      16.287  20.616  -3.981  1.00  0.00    -0.285 OA
ATOM      5  C   UNL     1      15.277  22.714  -4.149  1.00  0.00     0.111 A 
ATOM      6  C   UNL     1      14.783  22.783  -2.811  1.00  0.00     0.134 A 
ATOM      7  C   UNL     1      13.924  23.827  -2.446  1.00  0.00     0.093 A 
ATOM      8  C   UNL     1      13.595  24.838  -3.347  1.00  0.00     0.123 A 
ATOM      9  C   UNL     1      14.121  24.813  -4.640  1.00  0.00     0.094 A 
ATOM     10  C   UNL     1      14.951  23.765  -5.045  1.00  0.00     0.146 A 
ATOM     11  O   UNL     1      15.422  23.772  -6.286  1.00  0.00    -0.452 OA
ENDROOT
BRANCH   1  12
ATOM     12  C   UNL     1      16.679  22.956  -8.175  1.00  0.00     0.025 A 
ATOM     13  C   UNL     1      17.913  23.564  -8.465  1.00  0.00     0.016 A 
ATOM     14  C   UNL     1      18.336  23.708  -9.789  1.00  0.00     0.051 A 
ATOM     15  C   UNL     1      17.526  23.258 -10.841  1.00  0.00     0.157 A 
ATOM     16  C   UNL     1      15.862  22.527  -9.234  1.00  0.00     0.062 A 
ATOM     17  C   UNL     1      16.286  22.671 -10.563  1.00  0.00     0.158 A 
BRANCH  15  18
ATOM     18  O   UNL     1      17.944  23.398 -12.163  1.00  0.00    -0.504 OA
ATOM     19  H   UNL     1      17.958  22.611 -12.801  1.00  0.00     0.293 HD
ENDBRANCH  15  18
BRANCH  17  20
ATOM     20  O   UNL     1      15.479  22.231 -11.611  1.00  0.00    -0.504 OA
ATOM     21  H   UNL     1      15.073  22.880 -12.276  1.00  0.00     0.293 HD
ENDBRANCH  17  20
ENDBRANCH   1  12
BRANCH   2  22
ATOM     22  O   UNL     1      17.257  20.643  -6.527  1.00  0.00    -0.502 OA
ATOM     23  H   UNL     1      17.600  19.875  -5.963  1.00  0.00     0.293 HD
ENDBRANCH   2  22
BRANCH   6  24
ATOM     24  O   UNL     1      15.124  21.874  -1.805  1.00  0.00    -0.507 OA
ATOM     25  H   UNL     1      14.635  21.778  -0.928  1.00  0.00     0.293 HD
ENDBRANCH   6  24
BRANCH   8  26
ATOM     26  O   UNL     1      12.750  25.870  -2.944  1.00  0.00    -0.508 OA
ATOM     27  H   UNL     1      12.875  26.342  -2.056  1.00  0.00     0.293 HD
ENDBRANCH   8  26
TORSDOF 6
ENDMDL
MODEL 6
REMARK VINA RESULT:    -6.221      1.728      7.016
REMARK INTER + INTRA:          -7.808
REMARK INTER:                  -7.474
REMARK INTRA:                  -0.334
REMARK UNBOUND:                -0.314
REMARK SMILES O=c1c(O)c(-c2ccc(O)c(O)c2)oc2cc(O)cc(O)c12
REMARK SMILES IDX 5 1 3 2 2 3 1 4 22 5 20 6 19 7 17 8 16 9 15 10 14 11 6 12
REMARK SMILES IDX 7 13 8 14 9 15 13 16 11 17 10 18 12 20 4 22 21 24 18 26
REMARK H PARENT 10 19 12 21 4 23 21 25 18 27
REMARK Flexibility Score: inf
ROOT
ATOM      1  C   UNL     1      17.952  20.552  -6.810  1.00  0.00     0.180 A 
ATOM      2  C   UNL     1      18.650  21.771  -6.741  1.00  0.00     0.208 A 
ATOM      3  C   UNL     1      18.569  22.664  -7.820  1.00  0.00     0.238 A 
ATOM      4  O   UNL     1      19.152  23.777  -7.730  1.00  0.00    -0.285 OA
ATOM      5  C   UNL     1      17.806  22.322  -8.962  1.00  0.00     0.111 A 
ATOM      6  C   UNL     1      17.687  23.134 -10.131  1.00  0.00     0.134 A 
ATOM      7  C   UNL     1      16.800  22.756 -11.146  1.00  0.00     0.093 A 
ATOM      8  C   UNL     1      16.079  21.566 -11.067  1.00  0.00     0.123 A 
ATOM      9  C   UNL     1      16.232  20.735  -9.956  1.00  0.00     0.094 A 
ATOM     10  C   UNL     1      17.081  21.102  -8.910  1.00  0.00     0.146 A 
ATOM     11  O   UNL     1      17.192  20.290  -7.867  1.00  0.00    -0.452 OA
ENDROOT
BRANCH   1  12
ATOM     12  C   UNL     1      18.008  19.549  -5.722  1.00  0.00     0.025 A 
ATOM     13  C   UNL     1      19.015  18.568  -5.683  1.00  0.00     0.016 A 
ATOM     14  C   UNL     1      19.034  17.616  -4.660  1.00  0.00     0.051 A 
ATOM     15  C   UNL     1      18.042  17.623  -3.671  1.00  0.00     0.157 A 
ATOM     16  C   UNL     1      17.004  19.537  -4.740  1.00  0.00     0.062 A 
ATOM     17  C   UNL     1      17.023  18.582  -3.713  1.00  0.00     0.158 A 
BRANCH  15  18
ATOM     18  O   UNL     1      18.059  16.676  -2.648  1.00  0.00    -0.504 OA
ATOM     19  H   UNL     1      18.748  16.709  -1.906  1.00  0.00     0.293 HD
ENDBRANCH  15  18
BRANCH  17  20
ATOM     20  O   UNL     1      16.033  18.582  -2.732  1.00  0.00    -0.504 OA
ATOM     21  H   UNL     1      16.234  18.310  -1.776  1.00  0.00     0.293 HD
ENDBRANCH  17  20
ENDBRANCH   1  12
BRANCH   2  22
ATOM     22  O   UNL     1      19.381  22.098  -5.595  1.00  0.00    -0.502 OA
ATOM     23  H   UNL     1      19.517  23.054  -5.292  1.00  0.00     0.293 HD
ENDBRANCH   2  22
BRANCH   6  24
ATOM     24  O   UNL     1      18.431  24.296 -10.353  1.00  0.00    -0.507 OA
ATOM     25  H   UNL     1      19.111  24.674  -9.711  1.00  0.00     0.293 HD
ENDBRANCH   6  24
BRANCH   8  26
ATOM     26  O   UNL     1      15.217  21.213 -12.103  1.00  0.00    -0.508 OA
ATOM     27  H   UNL     1      15.531  20.651 -12.886  1.00  0.00     0.293 HD
ENDBRANCH   8  26
TORSDOF 6
ENDMDL
MODEL 7
REMARK VINA RESULT:    -6.200      2.030      6.881
REMARK INTER + INTRA:          -7.783
REMARK INTER:                  -7.462
REMARK INTRA:                  -0.320
REMARK UNBOUND:                -0.314
REMARK SMILES O=c1c(O)c(-c2ccc(O)c(O)c2)oc2cc(O)cc(O)c12
REMARK SMILES IDX 5 1 3 2 2 3 1 4 22 5 20 6 19 7 17 8 16 9 15 10 14 11 6 12
REMARK SMILES IDX 7 13 8 14 9 15 13 16 11 17 10 18 12 20 4 22 21 24 18 26
REMARK H PARENT 10 19 12 21 4 23 21 25 18 27
REMARK Flexibility Score: inf
ROOT
ATOM      1  C   UNL     1      18.055  19.050  -7.632  1.00  0.00     0.180 A 
ATOM      2  C   UNL     1      17.625  19.753  -6.493  1.00  0.00     0.208 A 
ATOM      3  C   UNL     1      17.496  21.148  -6.563  1.00  0.00     0.238 A 
ATOM      4  O   UNL     1      17.058  21.766  -5.556  1.00  0.00    -0.285 OA
ATOM      5  C   UNL     1      17.812  21.826  -7.764  1.00  0.00     0.111 A 
ATOM      6  C   UNL     1      17.755  23.243  -7.935  1.00  0.00     0.134 A 
ATOM      7  C   UNL     1      17.965  23.793  -9.205  1.00  0.00     0.093 A 
ATOM      8  C   UNL     1      18.292  22.988 -10.295  1.00  0.00     0.123 A 
ATOM      9  C   UNL     1      18.409  21.607 -10.127  1.00  0.00     0.094 A 
ATOM     10  C   UNL     1      18.170  21.024  -8.880  1.00  0.00     0.146 A 
ATOM     11  O   UNL     1      18.281  19.707  -8.763  1.00  0.00    -0.452 OA
ENDROOT
BRANCH   1  12
ATOM     12  C   UNL     1      18.240  17.580  -7.629  1.00  0.00     0.025 A 
ATOM     13  C   UNL     1      17.202  16.711  -8.009  1.00  0.00     0.016 A 
ATOM     14  C   UNL     1      17.391  15.327  -7.975  1.00  0.00     0.051 A 
ATOM     15  C   UNL     1      18.614  14.792  -7.546  1.00  0.00     0.157 A 
ATOM     16  C   UNL     1      19.456  17.037  -7.180  1.00  0.00     0.062 A 
ATOM     17  C   UNL     1      19.646  15.649  -7.145  1.00  0.00     0.158 A 
BRANCH  15  18
ATOM     18  O   UNL     1      18.807  13.412  -7.512  1.00  0.00    -0.504 OA
ATOM     19  H   UNL     1      18.985  12.923  -6.642  1.00  0.00     0.293 HD
ENDBRANCH  15  18
BRANCH  17  20
ATOM     20  O   UNL     1      20.859  15.114  -6.712  1.00  0.00    -0.504 OA
ATOM     21  H   UNL     1      20.907  14.478  -5.925  1.00  0.00     0.293 HD
ENDBRANCH  17  20
ENDBRANCH   1  12
BRANCH   2  22
ATOM     22  O   UNL     1      17.297  19.062  -5.323  1.00  0.00    -0.502 OA
ATOM     23  H   UNL     1      17.556  18.095  -5.172  1.00  0.00     0.293 HD
ENDBRANCH   2  22
BRANCH   6  24
ATOM     24  O   UNL     1      17.527  24.146  -6.893  1.00  0.00    -0.507 OA
ATOM     25  H   UNL     1      17.133  23.902  -5.997  1.00  0.00     0.293 HD
ENDBRANCH   6  24
BRANCH   8  26
ATOM     26  O   UNL     1      18.509  23.572 -11.541  1.00  0.00    -0.508 OA
ATOM     27  H   UNL     1      17.738  23.842 -12.141  1.00  0.00     0.293 HD
ENDBRANCH   8  26
TORSDOF 6
ENDMDL
MODEL 8
REMARK VINA RESULT:    -6.164      2.275      3.238
REMARK INTER + INTRA:          -7.739
REMARK INTER:                  -7.426
REMARK INTRA:                  -0.313
REMARK UNBOUND:                -0.314
REMARK SMILES O=c1c(O)c(-c2ccc(O)c(O)c2)oc2cc(O)cc(O)c12
REMARK SMILES IDX 5 1 3 2 2 3 1 4 22 5 20 6 19 7 17 8 16 9 15 10 14 11 6 12
REMARK SMILES IDX 7 13 8 14 9 15 13 16 11 17 10 18 12 20 4 22 21 24 18 26
REMARK H PARENT 10 19 12 21 4 23 21 25 18 27
REMARK Flexibility Score: inf
ROOT
ATOM      1  C   UNL     1      17.810  19.181  -8.208  1.00  0.00     0.180 A 
ATOM      2  C   UNL     1      16.608  18.477  -8.399  1.00  0.00     0.208 A 
ATOM      3  C   UNL     1      16.557  17.115  -8.066  1.00  0.00     0.238 A 
ATOM      4  O   UNL     1      15.463  16.503  -8.187  1.00  0.00    -0.285 OA
ATOM      5  C   UNL     1      17.711  16.469  -7.561  1.00  0.00     0.111 A 
ATOM      6  C   UNL     1      17.783  15.082  -7.228  1.00  0.00     0.134 A 
ATOM      7  C   UNL     1      18.938  14.580  -6.615  1.00  0.00     0.093 A 
ATOM      8  C   UNL     1      20.044  15.396  -6.383  1.00  0.00     0.123 A 
ATOM      9  C   UNL     1      20.006  16.739  -6.758  1.00  0.00     0.094 A 
ATOM     10  C   UNL     1      18.856  17.279  -7.339  1.00  0.00     0.146 A 
ATOM     11  O   UNL     1      18.856  18.563  -7.673  1.00  0.00    -0.452 OA
ENDROOT
BRANCH   1  12
ATOM     12  C   UNL     1      17.949  20.614  -8.560  1.00  0.00     0.025 A 
ATOM     13  C   UNL     1      18.173  21.023  -9.887  1.00  0.00     0.016 A 
ATOM     14  C   UNL     1      18.325  22.378 -10.191  1.00  0.00     0.051 A 
ATOM     15  C   UNL     1      18.269  23.341  -9.175  1.00  0.00     0.157 A 
ATOM     16  C   UNL     1      17.916  21.582  -7.542  1.00  0.00     0.062 A 
ATOM     17  C   UNL     1      18.068  22.941  -7.848  1.00  0.00     0.158 A 
BRANCH  15  18
ATOM     18  O   UNL     1      18.419  24.694  -9.475  1.00  0.00    -0.504 OA
ATOM     19  H   UNL     1      19.311  25.163  -9.377  1.00  0.00     0.293 HD
ENDBRANCH  15  18
BRANCH  17  20
ATOM     20  O   UNL     1      18.021  23.901  -6.837  1.00  0.00    -0.504 OA
ATOM     21  H   UNL     1      17.331  23.857  -6.097  1.00  0.00     0.293 HD
ENDBRANCH  17  20
ENDBRANCH   1  12
BRANCH   2  22
ATOM     22  O   UNL     1      15.474  19.139  -8.878  1.00  0.00    -0.502 OA
ATOM     23  H   UNL     1      15.408  19.489  -9.826  1.00  0.00     0.293 HD
ENDBRANCH   2  22
BRANCH   6  24
ATOM     24  O   UNL     1      16.770  14.160  -7.502  1.00  0.00    -0.507 OA
ATOM     25  H   UNL     1      16.781  13.504  -8.268  1.00  0.00     0.293 HD
ENDBRANCH   6  24
BRANCH   8  26
ATOM     26  O   UNL     1      21.181  14.858  -5.784  1.00  0.00    -0.508 OA
ATOM     27  H   UNL     1      21.214  13.892  -5.479  1.00  0.00     0.293 HD
ENDBRANCH   8  26
TORSDOF 6
ENDMDL
MODEL 9
REMARK VINA RESULT:    -6.094      1.964      6.915
REMARK INTER + INTRA:          -7.655
REMARK INTER:                  -7.347
REMARK INTRA:                  -0.308
REMARK UNBOUND:                -0.314
REMARK SMILES O=c1c(O)c(-c2ccc(O)c(O)c2)oc2cc(O)cc(O)c12
REMARK SMILES IDX 5 1 3 2 2 3 1 4 22 5 20 6 19 7 17 8 16 9 15 10 14 11 6 12
REMARK SMILES IDX 7 13 8 14 9 15 13 16 11 17 10 18 12 20 4 22 21 24 18 26
REMARK H PARENT 10 19 12 21 4 23 21 25 18 27
REMARK Flexibility Score: inf
ROOT
ATOM      1  C   UNL     1      17.569  19.612  -7.869  1.00  0.00     0.180 A 
ATOM      2  C   UNL     1      18.461  20.505  -7.250  1.00  0.00     0.208 A 
ATOM      3  C   UNL     1      18.609  21.795  -7.780  1.00  0.00     0.238 A 
ATOM      4  O   UNL     1      19.368  22.609  -7.190  1.00  0.00    -0.285 OA
ATOM      5  C   UNL     1      17.877  22.173  -8.931  1.00  0.00     0.111 A 
ATOM      6  C   UNL     1      17.979  23.443  -9.577  1.00  0.00     0.134 A 
ATOM      7  C   UNL     1      17.110  23.752 -10.631  1.00  0.00     0.093 A 
ATOM      8  C   UNL     1      16.191  22.818 -11.104  1.00  0.00     0.123 A 
ATOM      9  C   UNL     1      16.122  21.553 -10.519  1.00  0.00     0.094 A 
ATOM     10  C   UNL     1      16.950  21.227  -9.442  1.00  0.00     0.146 A 
ATOM     11  O   UNL     1      16.848  20.017  -8.907  1.00  0.00    -0.452 OA
ENDROOT
BRANCH   1  12
ATOM     12  C   UNL     1      17.377  18.225  -7.383  1.00  0.00     0.025 A 
ATOM     13  C   UNL     1      16.508  17.937  -6.316  1.00  0.00     0.016 A 
ATOM     14  C   UNL     1      16.362  16.625  -5.859  1.00  0.00     0.051 A 
ATOM     15  C   UNL     1      17.092  15.586  -6.450  1.00  0.00     0.157 A 
ATOM     16  C   UNL     1      18.123  17.182  -7.958  1.00  0.00     0.062 A 
ATOM     17  C   UNL     1      17.977  15.865  -7.499  1.00  0.00     0.158 A 
BRANCH  15  18
ATOM     18  O   UNL     1      16.948  14.275  -5.998  1.00  0.00    -0.504 OA
ATOM     19  H   UNL     1      17.742  13.735  -5.674  1.00  0.00     0.293 HD
ENDBRANCH  15  18
BRANCH  17  20
ATOM     20  O   UNL     1      18.707  14.830  -8.081  1.00  0.00    -0.504 OA
ATOM     21  H   UNL     1      18.250  14.026  -8.494  1.00  0.00     0.293 HD
ENDBRANCH  17  20
ENDBRANCH   1  12
BRANCH   2  22
ATOM     22  O   UNL     1      19.159  20.119  -6.102  1.00  0.00    -0.502 OA
ATOM     23  H   UNL     1      18.843  19.368  -5.500  1.00  0.00     0.293 HD
ENDBRANCH   2  22
BRANCH   6  24
ATOM     24  O   UNL     1      18.926  24.414  -9.242  1.00  0.00    -0.507 OA
ATOM     25  H   UNL     1      19.912  24.238  -9.122  1.00  0.00     0.293 HD
ENDBRANCH   6  24
BRANCH   8  26
ATOM     26  O   UNL     1      15.352  23.156 -12.165  1.00  0.00    -0.508 OA
ATOM     27  H   UNL     1      15.122  22.488 -12.892  1.00  0.00     0.293 HD
ENDBRANCH   8  26
TORSDOF 6
ENDMDL
