MODEL 1
REMARK VINA RESULT:    -5.226      0.000      0.000
REMARK INTER + INTRA:          -6.267
REMARK INTER:                  -6.143
REMARK INTRA:                  -0.124
REMARK UNBOUND:                -0.124
REMARK SMILES O=C([O-])C=Cc1ccc(O)c(O)c1
REMARK SMILES IDX 6 1 13 2 7 3 11 4 8 5 9 6 5 7 4 8 2 9 1 10 3 11 12 12 10 14
REMARK H PARENT 12 13 10 15
REMARK Flexibility Score: inf
ROOT
ATOM      1  C   UNL     1       8.003  -6.497  -7.764  1.00  0.00    -0.022 A 
ATOM      2  C   UNL     1       8.009  -5.395  -6.887  1.00  0.00     0.058 A 
ATOM      3  C   UNL     1       7.921  -7.789  -7.225  1.00  0.00     0.012 A 
ATOM      4  C   UNL     1       7.961  -5.580  -5.498  1.00  0.00     0.157 A 
ATOM      5  C   UNL     1       7.877  -7.981  -5.844  1.00  0.00     0.051 A 
ATOM      6  C   UNL     1       7.901  -6.890  -4.970  1.00  0.00     0.157 A 
ENDROOT
BRANCH   1   7
ATOM      7  C   UNL     1       8.040  -6.343  -9.239  1.00  0.00     0.010 C 
ATOM      8  C   UNL     1       8.050  -5.158  -9.865  1.00  0.00     0.025 C 
BRANCH   8   9
ATOM      9  C   UNL     1       8.099  -5.052 -11.331  1.00  0.00     0.064 C 
ATOM     10  O   UNL     1       7.891  -3.940 -11.881  1.00  0.00    -0.545 OA
ATOM     11  O   UNL     1       8.371  -6.164 -12.122  1.00  0.00    -0.545 OA
ENDBRANCH   8   9
ENDBRANCH   1   7
BRANCH   4  12
ATOM     12  O   UNL     1       7.971  -4.441  -4.690  1.00  0.00    -0.504 OA
ATOM     13  H   UNL     1       7.498  -4.376  -3.799  1.00  0.00     0.293 HD
ENDBRANCH   4  12
BRANCH   6  14
ATOM     14  O   UNL     1       7.859  -7.151  -3.598  1.00  0.00    -0.504 OA
ATOM     15  H   UNL     1       7.009  -7.183  -3.056  1.00  0.00     0.293 HD
ENDBRANCH   6  14
TORSDOF 4
ENDMDL
MODEL 2
REMARK VINA RESULT:    -5.193      2.543      3.169
REMARK INTER + INTRA:          -6.228
REMARK INTER:                  -6.105
REMARK INTRA:                  -0.123
REMARK UNBOUND:                -0.124
REMARK SMILES O=C([O-])C=Cc1ccc(O)c(O)c1
REMARK SMILES IDX 6 1 13 2 7 3 11 4 8 5 9 6 5 7 4 8 2 9 1 10 3 11 12 12 10 14
REMARK H PARENT 12 13 10 15
REMARK Flexibility Score: inf
ROOT
ATOM      1  C   UNL     1       9.233  -6.818  -7.860  1.00  0.00    -0.022 A 
ATOM      2  C   UNL     1      10.180  -6.071  -7.132  1.00  0.00     0.058 A 
ATOM      3  C   UNL     1       7.887  -6.761  -7.472  1.00  0.00     0.012 A 
ATOM      4  C   UNL     1       9.795  -5.304  -6.024  1.00  0.00     0.157 A 
ATOM      5  C   UNL     1       7.496  -6.003  -6.368  1.00  0.00     0.051 A 
ATOM      6  C   UNL     1       8.436  -5.275  -5.633  1.00  0.00     0.157 A 
ENDROOT
BRANCH   1   7
ATOM      7  C   UNL     1       9.599  -7.631  -9.045  1.00  0.00     0.010 C 
ATOM      8  C   UNL     1      10.799  -7.587  -9.638  1.00  0.00     0.025 C 
BRANCH   8   9
ATOM      9  C   UNL     1      11.122  -8.421 -10.806  1.00  0.00     0.064 C 
ATOM     10  O   UNL     1      11.575  -9.582 -10.634  1.00  0.00    -0.545 OA
ATOM     11  O   UNL     1      10.934  -7.947 -12.101  1.00  0.00    -0.545 OA
ENDBRANCH   8   9
ENDBRANCH   1   7
BRANCH   4  12
ATOM     12  O   UNL     1      10.789  -4.590  -5.350  1.00  0.00    -0.504 OA
ATOM     13  H   UNL     1      11.615  -5.012  -4.949  1.00  0.00     0.293 HD
ENDBRANCH   4  12
BRANCH   6  14
ATOM     14  O   UNL     1       7.981  -4.541  -4.535  1.00  0.00    -0.504 OA
ATOM     15  H   UNL     1       8.259  -4.721  -3.581  1.00  0.00     0.293 HD
ENDBRANCH   6  14
TORSDOF 4
ENDMDL
MODEL 3
REMARK VINA RESULT:    -4.928      2.332      3.512
REMARK INTER + INTRA:          -5.916
REMARK INTER:                  -5.777
REMARK INTRA:                  -0.139
REMARK UNBOUND:                -0.124
REMARK SMILES O=C([O-])C=Cc1ccc(O)c(O)c1
REMARK SMILES IDX 6 1 13 2 7 3 11 4 8 5 9 6 5 7 4 8 2 9 1 10 3 11 12 12 10 14
REMARK H PARENT 12 13 10 15
REMARK Flexibility Score: inf
ROOT
ATOM      1  C   UNL     1       8.417  -5.237 -10.338  1.00  0.00    -0.022 A 
ATOM      2  C   UNL     1       9.712  -5.656  -9.976  1.00  0.00     0.058 A 
ATOM      3  C   UNL     1       7.470  -5.021  -9.326  1.00  0.00     0.012 A 
ATOM      4  C   UNL     1      10.048  -5.880  -8.634  1.00  0.00     0.157 A 
ATOM      5  C   UNL     1       7.796  -5.246  -7.988  1.00  0.00     0.051 A 
ATOM      6  C   UNL     1       9.075  -5.679  -7.628  1.00  0.00     0.157 A 
ENDROOT
BRANCH   1   7
ATOM      7  C   UNL     1       8.026  -4.977 -11.745  1.00  0.00     0.010 C 
ATOM      8  C   UNL     1       7.627  -3.781 -12.199  1.00  0.00     0.025 C 
BRANCH   8   9
ATOM      9  C   UNL     1       7.259  -3.566 -13.607  1.00  0.00     0.064 C 
ATOM     10  O   UNL     1       7.309  -4.528 -14.416  1.00  0.00    -0.545 OA
ATOM     11  O   UNL     1       6.857  -2.314 -14.061  1.00  0.00    -0.545 OA
ENDBRANCH   8   9
ENDBRANCH   1   7
BRANCH   4  12
ATOM     12  O   UNL     1      11.352  -6.295  -8.351  1.00  0.00    -0.504 OA
ATOM     13  H   UNL     1      12.087  -5.674  -8.042  1.00  0.00     0.293 HD
ENDBRANCH   4  12
BRANCH   6  14
ATOM     14  O   UNL     1       9.336  -5.891  -6.272  1.00  0.00    -0.504 OA
ATOM     15  H   UNL     1      10.137  -5.518  -5.786  1.00  0.00     0.293 HD
ENDBRANCH   6  14
TORSDOF 4
ENDMDL
MODEL 4
REMARK VINA RESULT:    -4.914      2.497      3.058
REMARK INTER + INTRA:          -5.900
REMARK INTER:                  -5.751
REMARK INTRA:                  -0.149
REMARK UNBOUND:                -0.124
REMARK SMILES O=C([O-])C=Cc1ccc(O)c(O)c1
REMARK SMILES IDX 6 1 13 2 7 3 11 4 8 5 9 6 5 7 4 8 2 9 1 10 3 11 12 12 10 14
REMARK H PARENT 12 13 10 15
REMARK Flexibility Score: inf
ROOT
ATOM      1  C   UNL     1       8.334  -7.144  -8.587  1.00  0.00    -0.022 A 
ATOM      2  C   UNL     1       7.645  -6.465  -7.562  1.00  0.00     0.058 A 
ATOM      3  C   UNL     1       9.733  -7.064  -8.626  1.00  0.00     0.012 A 
ATOM      4  C   UNL     1       8.337  -5.703  -6.612  1.00  0.00     0.157 A 
ATOM      5  C   UNL     1      10.429  -6.304  -7.686  1.00  0.00     0.051 A 
ATOM      6  C   UNL     1       9.746  -5.615  -6.678  1.00  0.00     0.157 A 
ENDROOT
BRANCH   1   7
ATOM      7  C   UNL     1       7.640  -7.971  -9.604  1.00  0.00     0.010 C 
ATOM      8  C   UNL     1       8.078  -8.131 -10.859  1.00  0.00     0.025 C 
BRANCH   8   9
ATOM      9  C   UNL     1       7.362  -8.971 -11.833  1.00  0.00     0.064 C 
ATOM     10  O   UNL     1       6.206  -9.388 -11.562  1.00  0.00    -0.545 OA
ATOM     11  O   UNL     1       7.944  -9.314 -13.049  1.00  0.00    -0.545 OA
ENDBRANCH   8   9
ENDBRANCH   1   7
BRANCH   4  12
ATOM     12  O   UNL     1       7.587  -5.058  -5.625  1.00  0.00    -0.504 OA
ATOM     13  H   UNL     1       7.349  -4.076  -5.647  1.00  0.00     0.293 HD
ENDBRANCH   4  12
BRANCH   6  14
ATOM     14  O   UNL     1      10.501  -4.867  -5.771  1.00  0.00    -0.504 OA
ATOM     15  H   UNL     1      10.211  -3.978  -5.394  1.00  0.00     0.293 HD
ENDBRANCH   6  14
TORSDOF 4
ENDMDL
MODEL 5
REMARK VINA RESULT:    -4.899      1.501      6.103
REMARK INTER + INTRA:          -5.882
REMARK INTER:                  -5.761
REMARK INTRA:                  -0.121
REMARK UNBOUND:                -0.124
REMARK SMILES O=C([O-])C=Cc1ccc(O)c(O)c1
REMARK SMILES IDX 6 1 13 2 7 3 11 4 8 5 9 6 5 7 4 8 2 9 1 10 3 11 12 12 10 14
REMARK H PARENT 12 13 10 15
REMARK Flexibility Score: inf
ROOT
ATOM      1  C   UNL     1       8.175  -5.814  -9.996  1.00  0.00    -0.022 A 
ATOM      2  C   UNL     1       7.804  -4.544 -10.477  1.00  0.00     0.058 A 
ATOM      3  C   UNL     1       8.305  -6.871 -10.909  1.00  0.00     0.012 A 
ATOM      4  C   UNL     1       7.542  -4.337 -11.838  1.00  0.00     0.157 A 
ATOM      5  C   UNL     1       8.042  -6.674 -12.265  1.00  0.00     0.051 A 
ATOM      6  C   UNL     1       7.656  -5.418 -12.742  1.00  0.00     0.157 A 
ENDROOT
BRANCH   1   7
ATOM      7  C   UNL     1       8.473  -6.071  -8.565  1.00  0.00     0.010 C 
ATOM      8  C   UNL     1       7.778  -5.536  -7.552  1.00  0.00     0.025 C 
BRANCH   8   9
ATOM      9  C   UNL     1       8.102  -5.828  -6.147  1.00  0.00     0.064 C 
ATOM     10  O   UNL     1       7.777  -6.938  -5.652  1.00  0.00    -0.545 OA
ATOM     11  O   UNL     1       8.761  -4.895  -5.353  1.00  0.00    -0.545 OA
ENDBRANCH   8   9
ENDBRANCH   1   7
BRANCH   4  12
ATOM     12  O   UNL     1       7.179  -3.050 -12.242  1.00  0.00    -0.504 OA
ATOM     13  H   UNL     1       7.072  -2.770 -13.207  1.00  0.00     0.293 HD
ENDBRANCH   4  12
BRANCH   6  14
ATOM     14  O   UNL     1       7.402  -5.288 -14.110  1.00  0.00    -0.504 OA
ATOM     15  H   UNL     1       8.077  -5.494 -14.831  1.00  0.00     0.293 HD
ENDBRANCH   6  14
TORSDOF 4
ENDMDL
MODEL 6
REMARK VINA RESULT:    -4.881      1.498      6.317
REMARK INTER + INTRA:          -5.862
REMARK INTER:                  -5.731
REMARK INTRA:                  -0.131
REMARK UNBOUND:                -0.124
REMARK SMILES O=C([O-])C=Cc1ccc(O)c(O)c1
REMARK SMILES IDX 6 1 13 2 7 3 11 4 8 5 9 6 5 7 4 8 2 9 1 10 3 11 12 12 10 14
REMARK H PARENT 12 13 10 15
REMARK Flexibility Score: inf
ROOT
ATOM      1  C   UNL     1       8.298  -5.748  -9.958  1.00  0.00    -0.022 A 
ATOM      2  C   UNL     1       8.308  -6.866 -10.816  1.00  0.00     0.058 A 
ATOM      3  C   UNL     1       7.952  -4.496 -10.485  1.00  0.00     0.012 A 
ATOM      4  C   UNL     1       8.004  -6.732 -12.177  1.00  0.00     0.157 A 
ATOM      5  C   UNL     1       7.652  -4.353 -11.841  1.00  0.00     0.051 A 
ATOM      6  C   UNL     1       7.678  -5.458 -12.697  1.00  0.00     0.157 A 
ENDROOT
BRANCH   1   7
ATOM      7  C   UNL     1       8.602  -5.851  -8.510  1.00  0.00     0.010 C 
ATOM      8  C   UNL     1       7.665  -5.933  -7.556  1.00  0.00     0.025 C 
BRANCH   8   9
ATOM      9  C   UNL     1       8.012  -6.045  -6.130  1.00  0.00     0.064 C 
ATOM     10  O   UNL     1       8.647  -5.115  -5.571  1.00  0.00    -0.545 OA
ATOM     11  O   UNL     1       7.651  -7.166  -5.390  1.00  0.00    -0.545 OA
ENDBRANCH   8   9
ENDBRANCH   1   7
BRANCH   4  12
ATOM     12  O   UNL     1       8.033  -7.884 -12.967  1.00  0.00    -0.504 OA
ATOM     13  H   UNL     1       8.676  -8.026 -13.733  1.00  0.00     0.293 HD
ENDBRANCH   4  12
BRANCH   6  14
ATOM     14  O   UNL     1       7.373  -5.247 -14.044  1.00  0.00    -0.504 OA
ATOM     15  H   UNL     1       6.622  -5.713 -14.533  1.00  0.00     0.293 HD
ENDBRANCH   6  14
TORSDOF 4
ENDMDL
MODEL 7
REMARK VINA RESULT:    -4.878      8.998     11.461
REMARK INTER + INTRA:          -5.858
REMARK INTER:                  -5.735
REMARK INTRA:                  -0.122
REMARK UNBOUND:                -0.124
REMARK SMILES O=C([O-])C=Cc1ccc(O)c(O)c1
REMARK SMILES IDX 6 1 13 2 7 3 11 4 8 5 9 6 5 7 4 8 2 9 1 10 3 11 12 12 10 14
REMARK H PARENT 12 13 10 15
REMARK Flexibility Score: inf
ROOT
ATOM      1  C   UNL     1       4.917   3.683  -7.145  1.00  0.00    -0.022 A 
ATOM      2  C   UNL     1       5.570   2.928  -8.139  1.00  0.00     0.058 A 
ATOM      3  C   UNL     1       4.128   4.774  -7.536  1.00  0.00     0.012 A 
ATOM      4  C   UNL     1       5.460   3.271  -9.493  1.00  0.00     0.157 A 
ATOM      5  C   UNL     1       4.016   5.125  -8.882  1.00  0.00     0.051 A 
ATOM      6  C   UNL     1       4.678   4.388  -9.869  1.00  0.00     0.157 A 
ENDROOT
BRANCH   1   7
ATOM      7  C   UNL     1       4.999   3.345  -5.703  1.00  0.00     0.010 C 
ATOM      8  C   UNL     1       5.989   2.624  -5.162  1.00  0.00     0.025 C 
BRANCH   8   9
ATOM      9  C   UNL     1       6.037   2.322  -3.723  1.00  0.00     0.064 C 
ATOM     10  O   UNL     1       6.443   3.199  -2.917  1.00  0.00    -0.545 OA
ATOM     11  O   UNL     1       5.640   1.081  -3.236  1.00  0.00    -0.545 OA
ENDBRANCH   8   9
ENDBRANCH   1   7
BRANCH   4  12
ATOM     12  O   UNL     1       6.135   2.477 -10.423  1.00  0.00    -0.504 OA
ATOM     13  H   UNL     1       6.288   1.484 -10.313  1.00  0.00     0.293 HD
ENDBRANCH   4  12
BRANCH   6  14
ATOM     14  O   UNL     1       4.529   4.794 -11.197  1.00  0.00    -0.504 OA
ATOM     15  H   UNL     1       3.717   5.277 -11.552  1.00  0.00     0.293 HD
ENDBRANCH   6  14
TORSDOF 4
ENDMDL
MODEL 8
REMARK VINA RESULT:    -4.823      2.449      3.323
REMARK INTER + INTRA:          -5.793
REMARK INTER:                  -5.668
REMARK INTRA:                  -0.124
REMARK UNBOUND:                -0.124
REMARK SMILES O=C([O-])C=Cc1ccc(O)c(O)c1
REMARK SMILES IDX 6 1 13 2 7 3 11 4 8 5 9 6 5 7 4 8 2 9 1 10 3 11 12 12 10 14
REMARK H PARENT 12 13 10 15
REMARK Flexibility Score: inf
ROOT
ATOM      1  C   UNL     1       8.461  -5.177 -10.488  1.00  0.00    -0.022 A 
ATOM      2  C   UNL     1       7.605  -4.891  -9.406  1.00  0.00     0.058 A 
ATOM      3  C   UNL     1       9.680  -5.821 -10.232  1.00  0.00     0.012 A 
ATOM      4  C   UNL     1       7.970  -5.217  -8.093  1.00  0.00     0.157 A 
ATOM      5  C   UNL     1      10.052  -6.146  -8.927  1.00  0.00     0.051 A 
ATOM      6  C   UNL     1       9.213  -5.847  -7.850  1.00  0.00     0.157 A 
ENDROOT
BRANCH   1   7
ATOM      7  C   UNL     1       8.105  -4.859 -11.892  1.00  0.00     0.010 C 
ATOM      8  C   UNL     1       7.547  -3.703 -12.276  1.00  0.00     0.025 C 
BRANCH   8   9
ATOM      9  C   UNL     1       7.222  -3.425 -13.684  1.00  0.00     0.064 C 
ATOM     10  O   UNL     1       7.290  -4.352 -14.532  1.00  0.00    -0.545 OA
ATOM     11  O   UNL     1       6.841  -2.152 -14.095  1.00  0.00    -0.545 OA
ENDBRANCH   8   9
ENDBRANCH   1   7
BRANCH   4  12
ATOM     12  O   UNL     1       7.071  -4.903  -7.070  1.00  0.00    -0.504 OA
ATOM     13  H   UNL     1       6.118  -4.608  -7.227  1.00  0.00     0.293 HD
ENDBRANCH   4  12
BRANCH   6  14
ATOM     14  O   UNL     1       9.646  -6.194  -6.568  1.00  0.00    -0.504 OA
ATOM     15  H   UNL     1      10.497  -6.702  -6.378  1.00  0.00     0.293 HD
ENDBRANCH   6  14
TORSDOF 4
ENDMDL
MODEL 9
REMARK VINA RESULT:    -4.787      0.856      2.057
REMARK INTER + INTRA:          -5.751
REMARK INTER:                  -5.599
REMARK INTRA:                  -0.152
REMARK UNBOUND:                -0.124
REMARK SMILES O=C([O-])C=Cc1ccc(O)c(O)c1
REMARK SMILES IDX 6 1 13 2 7 3 11 4 8 5 9 6 5 7 4 8 2 9 1 10 3 11 12 12 10 14
REMARK H PARENT 12 13 10 15
REMARK Flexibility Score: inf
ROOT
ATOM      1  C   UNL     1       8.014  -6.436  -7.419  1.00  0.00    -0.022 A 
ATOM      2  C   UNL     1       7.618  -7.590  -6.717  1.00  0.00     0.058 A 
ATOM      3  C   UNL     1       8.447  -5.318  -6.691  1.00  0.00     0.012 A 
ATOM      4  C   UNL     1       7.628  -7.621  -5.316  1.00  0.00     0.157 A 
ATOM      5  C   UNL     1       8.456  -5.339  -5.295  1.00  0.00     0.051 A 
ATOM      6  C   UNL     1       8.046  -6.478  -4.596  1.00  0.00     0.157 A 
ENDROOT
BRANCH   1   7
ATOM      7  C   UNL     1       8.029  -6.368  -8.901  1.00  0.00     0.010 C 
ATOM      8  C   UNL     1       8.122  -5.225  -9.594  1.00  0.00     0.025 C 
BRANCH   8   9
ATOM      9  C   UNL     1       8.145  -5.206 -11.065  1.00  0.00     0.064 C 
ATOM     10  O   UNL     1       8.669  -6.164 -11.690  1.00  0.00    -0.545 OA
ATOM     11  O   UNL     1       7.598  -4.144 -11.777  1.00  0.00    -0.545 OA
ENDBRANCH   8   9
ENDBRANCH   1   7
BRANCH   4  12
ATOM     12  O   UNL     1       7.222  -8.800  -4.687  1.00  0.00    -0.504 OA
ATOM     13  H   UNL     1       6.423  -8.867  -4.072  1.00  0.00     0.293 HD
ENDBRANCH   4  12
BRANCH   6  14
ATOM     14  O   UNL     1       8.075  -6.432  -3.200  1.00  0.00    -0.504 OA
ATOM     15  H   UNL     1       8.922  -6.388  -2.654  1.00  0.00     0.293 HD
ENDBRANCH   6  14
TORSDOF 4
ENDMDL
