MODEL 1
REMARK VINA RESULT:    -1.297      0.000      0.000
REMARK INTER + INTRA:          -1.566
REMARK INTER:                  -1.562
REMARK INTRA:                  -0.004
REMARK UNBOUND:                -0.004
REMARK SMILES O=c1c(O)c(-c2ccc(O)c(O)c2)oc2cc(O)cc(O)c12
REMARK SMILES IDX 5 1 3 2 2 3 1 4 22 5 20 6 19 7 17 8 16 9 15 10 14 11 6 12
REMARK SMILES IDX 7 13 8 14 9 15 13 16 11 17 10 18 12 20 4 22 21 24 18 26
REMARK H PARENT 10 19 12 21 4 23 21 25 18 27
REMARK Flexibility Score: inf
ROOT
ATOM      1  C   UNL     1     -18.864   9.157  26.460  1.00  0.00     0.180 A 
ATOM      2  C   UNL     1     -17.500   8.975  26.750  1.00  0.00     0.208 A 
ATOM      3  C   UNL     1     -16.560   9.113  25.717  1.00  0.00     0.238 A 
ATOM      4  O   UNL     1     -15.346   8.896  25.970  1.00  0.00    -0.285 OA
ATOM      5  C   UNL     1     -16.993   9.445  24.410  1.00  0.00     0.111 A 
ATOM      6  C   UNL     1     -16.124   9.649  23.296  1.00  0.00     0.134 A 
ATOM      7  C   UNL     1     -16.670   9.845  22.021  1.00  0.00     0.093 A 
ATOM      8  C   UNL     1     -18.052   9.911  21.833  1.00  0.00     0.123 A 
ATOM      9  C   UNL     1     -18.908   9.774  22.923  1.00  0.00     0.094 A 
ATOM     10  C   UNL     1     -18.393   9.540  24.202  1.00  0.00     0.146 A 
ATOM     11  O   UNL     1     -19.244   9.404  25.212  1.00  0.00    -0.452 OA
ENDROOT
BRANCH   1  12
ATOM     12  C   UNL     1     -19.911   9.054  27.501  1.00  0.00     0.025 A 
ATOM     13  C   UNL     1     -20.799  10.123  27.697  1.00  0.00     0.016 A 
ATOM     14  C   UNL     1     -21.781  10.056  28.689  1.00  0.00     0.051 A 
ATOM     15  C   UNL     1     -21.881   8.928  29.510  1.00  0.00     0.157 A 
ATOM     16  C   UNL     1     -19.999   7.930  28.343  1.00  0.00     0.062 A 
ATOM     17  C   UNL     1     -20.983   7.861  29.340  1.00  0.00     0.158 A 
BRANCH  15  18
ATOM     18  O   UNL     1     -22.873   8.888  30.489  1.00  0.00    -0.504 OA
ATOM     19  H   UNL     1     -23.121   8.031  30.969  1.00  0.00     0.293 HD
ENDBRANCH  15  18
BRANCH  17  20
ATOM     20  O   UNL     1     -21.068   6.740  30.165  1.00  0.00    -0.504 OA
ATOM     21  H   UNL     1     -21.528   6.779  31.067  1.00  0.00     0.293 HD
ENDBRANCH  17  20
ENDBRANCH   1  12
BRANCH   2  22
ATOM     22  O   UNL     1     -17.097   8.626  28.042  1.00  0.00    -0.502 OA
ATOM     23  H   UNL     1     -16.195   8.888  28.420  1.00  0.00     0.293 HD
ENDBRANCH   2  22
BRANCH   6  24
ATOM     24  O   UNL     1     -14.730   9.693  23.392  1.00  0.00    -0.507 OA
ATOM     25  H   UNL     1     -14.124  10.176  22.746  1.00  0.00     0.293 HD
ENDBRANCH   6  24
BRANCH   8  26
ATOM     26  O   UNL     1     -18.587  10.123  20.564  1.00  0.00    -0.508 OA
ATOM     27  H   UNL     1     -18.848   9.349  19.963  1.00  0.00     0.293 HD
ENDBRANCH   8  26
TORSDOF 6
ENDMDL
MODEL 2
REMARK VINA RESULT:     1.433      0.913      1.558
REMARK INTER + INTRA:           1.723
REMARK INTER:                   2.013
REMARK INTRA:                  -0.290
REMARK UNBOUND:                -0.004
REMARK SMILES O=c1c(O)c(-c2ccc(O)c(O)c2)oc2cc(O)cc(O)c12
REMARK SMILES IDX 5 1 3 2 2 3 1 4 22 5 20 6 19 7 17 8 16 9 15 10 14 11 6 12
REMARK SMILES IDX 7 13 8 14 9 15 13 16 11 17 10 18 12 20 4 22 21 24 18 26
REMARK H PARENT 10 19 12 21 4 23 21 25 18 27
REMARK Flexibility Score: inf
ROOT
ATOM      1  C   UNL     1     -18.395   8.740  26.096  1.00  0.00     0.180 A 
ATOM      2  C   UNL     1     -16.992   8.759  26.192  1.00  0.00     0.208 A 
ATOM      3  C   UNL     1     -16.237   9.111  25.062  1.00  0.00     0.238 A 
ATOM      4  O   UNL     1     -14.981   9.073  25.139  1.00  0.00    -0.285 OA
ATOM      5  C   UNL     1     -16.893   9.454  23.855  1.00  0.00     0.111 A 
ATOM      6  C   UNL     1     -16.228   9.866  22.661  1.00  0.00     0.134 A 
ATOM      7  C   UNL     1     -16.969  10.055  21.488  1.00  0.00     0.093 A 
ATOM      8  C   UNL     1     -18.359   9.913  21.485  1.00  0.00     0.123 A 
ATOM      9  C   UNL     1     -19.024   9.571  22.660  1.00  0.00     0.094 A 
ATOM     10  C   UNL     1     -18.307   9.339  23.837  1.00  0.00     0.146 A 
ATOM     11  O   UNL     1     -18.978   9.004  24.932  1.00  0.00    -0.452 OA
ENDROOT
BRANCH   1  12
ATOM     12  C   UNL     1     -19.259   8.404  27.250  1.00  0.00     0.025 A 
ATOM     13  C   UNL     1     -19.467   7.058  27.587  1.00  0.00     0.016 A 
ATOM     14  C   UNL     1     -20.295   6.716  28.660  1.00  0.00     0.051 A 
ATOM     15  C   UNL     1     -20.940   7.712  29.400  1.00  0.00     0.157 A 
ATOM     16  C   UNL     1     -19.926   9.403  27.982  1.00  0.00     0.062 A 
ATOM     17  C   UNL     1     -20.759   9.062  29.058  1.00  0.00     0.158 A 
BRANCH  15  18
ATOM     18  O   UNL     1     -21.759   7.341  30.467  1.00  0.00    -0.504 OA
ATOM     19  H   UNL     1     -22.447   6.602  30.385  1.00  0.00     0.293 HD
ENDBRANCH  15  18
BRANCH  17  20
ATOM     20  O   UNL     1     -21.411  10.059  29.782  1.00  0.00    -0.504 OA
ATOM     21  H   UNL     1     -22.270   9.873  30.287  1.00  0.00     0.293 HD
ENDBRANCH  17  20
ENDBRANCH   1  12
BRANCH   2  22
ATOM     22  O   UNL     1     -16.365   8.394  27.387  1.00  0.00    -0.502 OA
ATOM     23  H   UNL     1     -16.167   9.062  28.123  1.00  0.00     0.293 HD
ENDBRANCH   2  22
BRANCH   6  24
ATOM     24  O   UNL     1     -14.856  10.125  22.581  1.00  0.00    -0.507 OA
ATOM     25  H   UNL     1     -14.144   9.420  22.468  1.00  0.00     0.293 HD
ENDBRANCH   6  24
BRANCH   8  26
ATOM     26  O   UNL     1     -19.091  10.119  20.318  1.00  0.00    -0.508 OA
ATOM     27  H   UNL     1     -19.489   9.345  19.798  1.00  0.00     0.293 HD
ENDBRANCH   8  26
TORSDOF 6
ENDMDL
