MODEL 1
REMARK VINA RESULT:    -0.875      0.000      0.000
REMARK INTER + INTRA:          -3.587
REMARK INTER:                  -1.898
REMARK INTRA:                  -1.690
REMARK UNBOUND:                -1.690
REMARK SMILES CCCCCCCCCCCCCCCCCCCCCC(=O)[O-]
REMARK SMILES IDX 12 1 11 2 10 3 9 4 8 5 7 6 6 7 5 8 4 9 3 10 2 11 1 12 13 13
REMARK SMILES IDX 14 14 15 15 16 16 17 17 18 18 19 19 20 20 21 21 22 22 23 23
REMARK SMILES IDX 24 24
REMARK H PARENT
REMARK Flexibility Score: inf
ROOT
ATOM      1  C   UNL     1      13.593   7.736  15.607  1.00  0.00     0.000 C 
ENDROOT
BRANCH   1   2
ATOM      2  C   UNL     1      13.009   8.810  14.678  1.00  0.00     0.000 C 
BRANCH   2   3
ATOM      3  C   UNL     1      13.075  10.196  15.330  1.00  0.00     0.000 C 
BRANCH   3   4
ATOM      4  C   UNL     1      12.064  11.156  14.685  1.00  0.00    -0.000 C 
BRANCH   4   5
ATOM      5  C   UNL     1      12.067  12.547  15.340  1.00  0.00    -0.000 C 
BRANCH   5   6
ATOM      6  C   UNL     1      13.482  13.019  15.720  1.00  0.00    -0.000 C 
BRANCH   6   7
ATOM      7  C   UNL     1      13.636  14.553  15.631  1.00  0.00    -0.000 C 
BRANCH   7   8
ATOM      8  C   UNL     1      12.721  15.206  14.576  1.00  0.00    -0.000 C 
BRANCH   8   9
ATOM      9  C   UNL     1      13.408  15.540  13.239  1.00  0.00    -0.000 C 
BRANCH   9  10
ATOM     10  C   UNL     1      12.847  14.795  12.010  1.00  0.00    -0.000 C 
BRANCH  10  11
ATOM     11  C   UNL     1      12.809  13.262  12.140  1.00  0.00    -0.003 C 
ATOM     12  C   UNL     1      11.726  12.615  11.280  1.00  0.00     0.004 C 
ENDBRANCH  10  11
ENDBRANCH   9  10
ENDBRANCH   8   9
ENDBRANCH   7   8
ENDBRANCH   6   7
ENDBRANCH   5   6
ENDBRANCH   4   5
ENDBRANCH   3   4
ENDBRANCH   2   3
ENDBRANCH   1   2
BRANCH   1  13
ATOM     13  C   UNL     1      12.506   6.974  16.394  1.00  0.00     0.000 C 
BRANCH  13  14
ATOM     14  C   UNL     1      12.783   6.875  17.906  1.00  0.00     0.000 C 
BRANCH  14  15
ATOM     15  C   UNL     1      13.044   5.452  18.435  1.00  0.00     0.000 C 
BRANCH  15  16
ATOM     16  C   UNL     1      12.570   4.316  17.508  1.00  0.00     0.000 C 
BRANCH  16  17
ATOM     17  C   UNL     1      13.732   3.579  16.825  1.00  0.00     0.000 C 
BRANCH  17  18
ATOM     18  C   UNL     1      14.019   4.170  15.437  1.00  0.00     0.000 C 
BRANCH  18  19
ATOM     19  C   UNL     1      15.516   4.499  15.244  1.00  0.00     0.000 C 
BRANCH  19  20
ATOM     20  C   UNL     1      15.910   4.737  13.776  1.00  0.00     0.006 C 
BRANCH  20  21
ATOM     21  C   UNL     1      14.722   5.156  12.901  1.00  0.00     0.053 C 
BRANCH  21  22
ATOM     22  C   UNL     1      14.782   4.465  11.575  1.00  0.00     0.041 C 
ATOM     23  O   UNL     1      13.742   4.343  10.877  1.00  0.00    -0.550 OA
ATOM     24  O   UNL     1      15.980   3.921  11.128  1.00  0.00    -0.550 OA
ENDBRANCH  21  22
ENDBRANCH  20  21
ENDBRANCH  19  20
ENDBRANCH  18  19
ENDBRANCH  17  18
ENDBRANCH  16  17
ENDBRANCH  15  16
ENDBRANCH  14  15
ENDBRANCH  13  14
ENDBRANCH   1  13
TORSDOF 20
ENDMDL
MODEL 2
REMARK VINA RESULT:    -0.754      3.635      8.902
REMARK INTER + INTRA:          -3.325
REMARK INTER:                  -1.942
REMARK INTRA:                  -1.382
REMARK UNBOUND:                -1.690
REMARK SMILES CCCCCCCCCCCCCCCCCCCCCC(=O)[O-]
REMARK SMILES IDX 12 1 11 2 10 3 9 4 8 5 7 6 6 7 5 8 4 9 3 10 2 11 1 12 13 13
REMARK SMILES IDX 14 14 15 15 16 16 17 17 18 18 19 19 20 20 21 21 22 22 23 23
REMARK SMILES IDX 24 24
REMARK H PARENT
REMARK Flexibility Score: inf
ROOT
ATOM      1  C   UNL     1      13.050   6.193  18.050  1.00  0.00     0.000 C 
ENDROOT
BRANCH   1   2
ATOM      2  C   UNL     1      12.086   5.103  18.540  1.00  0.00     0.000 C 
BRANCH   2   3
ATOM      3  C   UNL     1      12.704   3.709  18.378  1.00  0.00     0.000 C 
BRANCH   3   4
ATOM      4  C   UNL     1      12.946   3.385  16.896  1.00  0.00    -0.000 C 
BRANCH   4   5
ATOM      5  C   UNL     1      14.441   3.284  16.549  1.00  0.00    -0.000 C 
BRANCH   5   6
ATOM      6  C   UNL     1      14.801   4.042  15.259  1.00  0.00    -0.000 C 
BRANCH   6   7
ATOM      7  C   UNL     1      16.321   4.053  14.985  1.00  0.00    -0.000 C 
BRANCH   7   8
ATOM      8  C   UNL     1      16.722   4.887  13.752  1.00  0.00    -0.000 C 
BRANCH   8   9
ATOM      9  C   UNL     1      17.226   4.067  12.551  1.00  0.00    -0.000 C 
BRANCH   9  10
ATOM     10  C   UNL     1      16.144   3.679  11.521  1.00  0.00    -0.000 C 
BRANCH  10  11
ATOM     11  C   UNL     1      14.924   4.617  11.475  1.00  0.00    -0.003 C 
ATOM     12  C   UNL     1      13.684   3.957  10.876  1.00  0.00     0.004 C 
ENDBRANCH  10  11
ENDBRANCH   9  10
ENDBRANCH   8   9
ENDBRANCH   7   8
ENDBRANCH   6   7
ENDBRANCH   5   6
ENDBRANCH   4   5
ENDBRANCH   3   4
ENDBRANCH   2   3
ENDBRANCH   1   2
BRANCH   1  13
ATOM     13  C   UNL     1      12.495   6.981  16.844  1.00  0.00     0.000 C 
BRANCH  13  14
ATOM     14  C   UNL     1      13.383   6.908  15.588  1.00  0.00     0.000 C 
BRANCH  14  15
ATOM     15  C   UNL     1      13.698   8.263  14.926  1.00  0.00     0.000 C 
BRANCH  15  16
ATOM     16  C   UNL     1      12.873   9.453  15.454  1.00  0.00     0.000 C 
BRANCH  16  17
ATOM     17  C   UNL     1      13.117  10.746  14.663  1.00  0.00     0.000 C 
BRANCH  17  18
ATOM     18  C   UNL     1      12.275  11.902  15.224  1.00  0.00     0.000 C 
BRANCH  18  19
ATOM     19  C   UNL     1      13.153  13.070  15.725  1.00  0.00     0.000 C 
BRANCH  19  20
ATOM     20  C   UNL     1      12.917  14.387  14.965  1.00  0.00     0.006 C 
BRANCH  20  21
ATOM     21  C   UNL     1      13.474  14.360  13.537  1.00  0.00     0.053 C 
BRANCH  21  22
ATOM     22  C   UNL     1      13.369  15.714  12.910  1.00  0.00     0.041 C 
ATOM     23  O   UNL     1      13.778  16.732  13.527  1.00  0.00    -0.550 OA
ATOM     24  O   UNL     1      12.781  15.856  11.658  1.00  0.00    -0.550 OA
ENDBRANCH  21  22
ENDBRANCH  20  21
ENDBRANCH  19  20
ENDBRANCH  18  19
ENDBRANCH  17  18
ENDBRANCH  16  17
ENDBRANCH  15  16
ENDBRANCH  14  15
ENDBRANCH  13  14
ENDBRANCH   1  13
TORSDOF 20
ENDMDL
MODEL 3
REMARK VINA RESULT:    -0.717      3.417      8.853
REMARK INTER + INTRA:          -3.245
REMARK INTER:                  -1.888
REMARK INTRA:                  -1.357
REMARK UNBOUND:                -1.690
REMARK SMILES CCCCCCCCCCCCCCCCCCCCCC(=O)[O-]
REMARK SMILES IDX 12 1 11 2 10 3 9 4 8 5 7 6 6 7 5 8 4 9 3 10 2 11 1 12 13 13
REMARK SMILES IDX 14 14 15 15 16 16 17 17 18 18 19 19 20 20 21 21 22 22 23 23
REMARK SMILES IDX 24 24
REMARK H PARENT
REMARK Flexibility Score: inf
ROOT
ATOM      1  C   UNL     1      12.889   5.845  18.144  1.00  0.00     0.000 C 
ENDROOT
BRANCH   1   2
ATOM      2  C   UNL     1      12.893   4.309  18.153  1.00  0.00     0.000 C 
BRANCH   2   3
ATOM      3  C   UNL     1      13.124   3.752  16.743  1.00  0.00     0.000 C 
BRANCH   3   4
ATOM      4  C   UNL     1      14.578   3.288  16.568  1.00  0.00    -0.000 C 
BRANCH   4   5
ATOM      5  C   UNL     1      15.349   4.134  15.541  1.00  0.00    -0.000 C 
BRANCH   5   6
ATOM      6  C   UNL     1      14.419   4.978  14.651  1.00  0.00    -0.000 C 
BRANCH   6   7
ATOM      7  C   UNL     1      15.088   5.390  13.322  1.00  0.00    -0.000 C 
BRANCH   7   8
ATOM      8  C   UNL     1      14.416   4.781  12.075  1.00  0.00    -0.000 C 
BRANCH   8   9
ATOM      9  C   UNL     1      15.385   4.364  10.955  1.00  0.00    -0.000 C 
BRANCH   9  10
ATOM     10  C   UNL     1      16.332   3.198  11.308  1.00  0.00    -0.000 C 
BRANCH  10  11
ATOM     11  C   UNL     1      17.802   3.600  11.532  1.00  0.00    -0.003 C 
ATOM     12  C   UNL     1      18.158   3.766  13.008  1.00  0.00     0.004 C 
ENDBRANCH  10  11
ENDBRANCH   9  10
ENDBRANCH   8   9
ENDBRANCH   7   8
ENDBRANCH   6   7
ENDBRANCH   5   6
ENDBRANCH   4   5
ENDBRANCH   3   4
ENDBRANCH   2   3
ENDBRANCH   1   2
BRANCH   1  13
ATOM     13  C   UNL     1      12.299   6.431  16.845  1.00  0.00     0.000 C 
BRANCH  13  14
ATOM     14  C   UNL     1      12.600   7.928  16.641  1.00  0.00     0.000 C 
BRANCH  14  15
ATOM     15  C   UNL     1      13.391   8.272  15.364  1.00  0.00     0.000 C 
BRANCH  15  16
ATOM     16  C   UNL     1      13.508   9.777  15.056  1.00  0.00     0.000 C 
BRANCH  16  17
ATOM     17  C   UNL     1      12.143  10.478  14.981  1.00  0.00     0.000 C 
BRANCH  17  18
ATOM     18  C   UNL     1      12.247  11.805  14.215  1.00  0.00     0.000 C 
BRANCH  18  19
ATOM     19  C   UNL     1      13.111  12.843  14.965  1.00  0.00     0.000 C 
BRANCH  19  20
ATOM     20  C   UNL     1      12.538  14.270  14.917  1.00  0.00     0.006 C 
BRANCH  20  21
ATOM     21  C   UNL     1      13.482  15.268  14.237  1.00  0.00     0.053 C 
BRANCH  21  22
ATOM     22  C   UNL     1      13.250  15.283  12.759  1.00  0.00     0.041 C 
ATOM     23  O   UNL     1      12.774  14.270  12.182  1.00  0.00    -0.550 OA
ATOM     24  O   UNL     1      13.597  16.402  12.012  1.00  0.00    -0.550 OA
ENDBRANCH  21  22
ENDBRANCH  20  21
ENDBRANCH  19  20
ENDBRANCH  18  19
ENDBRANCH  17  18
ENDBRANCH  16  17
ENDBRANCH  15  16
ENDBRANCH  14  15
ENDBRANCH  13  14
ENDBRANCH   1  13
TORSDOF 20
ENDMDL
MODEL 4
REMARK VINA RESULT:    -0.574      1.188      1.411
REMARK INTER + INTRA:          -2.935
REMARK INTER:                  -1.274
REMARK INTRA:                  -1.661
REMARK UNBOUND:                -1.690
REMARK SMILES CCCCCCCCCCCCCCCCCCCCCC(=O)[O-]
REMARK SMILES IDX 12 1 11 2 10 3 9 4 8 5 7 6 6 7 5 8 4 9 3 10 2 11 1 12 13 13
REMARK SMILES IDX 14 14 15 15 16 16 17 17 18 18 19 19 20 20 21 21 22 22 23 23
REMARK SMILES IDX 24 24
REMARK H PARENT
REMARK Flexibility Score: inf
ROOT
ATOM      1  C   UNL     1      13.540   7.865  15.600  1.00  0.00     0.000 C 
ENDROOT
BRANCH   1   2
ATOM      2  C   UNL     1      13.196   8.999  14.624  1.00  0.00     0.000 C 
BRANCH   2   3
ATOM      3  C   UNL     1      13.057  10.336  15.362  1.00  0.00     0.000 C 
BRANCH   3   4
ATOM      4  C   UNL     1      12.081  11.269  14.629  1.00  0.00    -0.000 C 
BRANCH   4   5
ATOM      5  C   UNL     1      12.030  12.676  15.247  1.00  0.00    -0.000 C 
BRANCH   5   6
ATOM      6  C   UNL     1      13.399  13.140  15.776  1.00  0.00    -0.000 C 
BRANCH   6   7
ATOM      7  C   UNL     1      13.595  14.666  15.648  1.00  0.00    -0.000 C 
BRANCH   7   8
ATOM      8  C   UNL     1      12.683  15.321  14.591  1.00  0.00    -0.000 C 
BRANCH   8   9
ATOM      9  C   UNL     1      13.379  15.674  13.264  1.00  0.00    -0.000 C 
BRANCH   9  10
ATOM     10  C   UNL     1      12.775  15.008  12.010  1.00  0.00    -0.000 C 
BRANCH  10  11
ATOM     11  C   UNL     1      12.878  13.473  11.975  1.00  0.00    -0.003 C 
ATOM     12  C   UNL     1      11.654  12.805  11.352  1.00  0.00     0.004 C 
ENDBRANCH  10  11
ENDBRANCH   9  10
ENDBRANCH   8   9
ENDBRANCH   7   8
ENDBRANCH   6   7
ENDBRANCH   5   6
ENDBRANCH   4   5
ENDBRANCH   3   4
ENDBRANCH   2   3
ENDBRANCH   1   2
BRANCH   1  13
ATOM     13  C   UNL     1      12.452   7.651  16.672  1.00  0.00     0.000 C 
BRANCH  13  14
ATOM     14  C   UNL     1      12.140   6.170  16.960  1.00  0.00     0.000 C 
BRANCH  14  15
ATOM     15  C   UNL     1      12.902   5.559  18.152  1.00  0.00     0.000 C 
BRANCH  15  16
ATOM     16  C   UNL     1      13.099   4.032  18.084  1.00  0.00     0.000 C 
BRANCH  16  17
ATOM     17  C   UNL     1      13.208   3.508  16.645  1.00  0.00     0.000 C 
BRANCH  17  18
ATOM     18  C   UNL     1      14.542   3.925  16.007  1.00  0.00     0.000 C 
BRANCH  18  19
ATOM     19  C   UNL     1      14.338   4.664  14.666  1.00  0.00     0.000 C 
BRANCH  19  20
ATOM     20  C   UNL     1      15.648   5.163  14.033  1.00  0.00     0.006 C 
BRANCH  20  21
ATOM     21  C   UNL     1      15.959   4.484  12.694  1.00  0.00     0.053 C 
BRANCH  21  22
ATOM     22  C   UNL     1      17.382   4.021  12.661  1.00  0.00     0.041 C 
ATOM     23  O   UNL     1      18.086   4.063  13.704  1.00  0.00    -0.550 OA
ATOM     24  O   UNL     1      17.942   3.580  11.468  1.00  0.00    -0.550 OA
ENDBRANCH  21  22
ENDBRANCH  20  21
ENDBRANCH  19  20
ENDBRANCH  18  19
ENDBRANCH  17  18
ENDBRANCH  16  17
ENDBRANCH  15  16
ENDBRANCH  14  15
ENDBRANCH  13  14
ENDBRANCH   1  13
TORSDOF 20
ENDMDL
MODEL 5
REMARK VINA RESULT:    -0.519      1.167      2.645
REMARK INTER + INTRA:          -2.816
REMARK INTER:                  -1.789
REMARK INTRA:                  -1.027
REMARK UNBOUND:                -1.690
REMARK SMILES CCCCCCCCCCCCCCCCCCCCCC(=O)[O-]
REMARK SMILES IDX 12 1 11 2 10 3 9 4 8 5 7 6 6 7 5 8 4 9 3 10 2 11 1 12 13 13
REMARK SMILES IDX 14 14 15 15 16 16 17 17 18 18 19 19 20 20 21 21 22 22 23 23
REMARK SMILES IDX 24 24
REMARK H PARENT
REMARK Flexibility Score: inf
ROOT
ATOM      1  C   UNL     1      12.994   6.606  18.394  1.00  0.00     0.000 C 
ENDROOT
BRANCH   1   2
ATOM      2  C   UNL     1      12.484   6.250  16.990  1.00  0.00     0.000 C 
BRANCH   2   3
ATOM      3  C   UNL     1      12.294   7.511  16.138  1.00  0.00     0.000 C 
BRANCH   3   4
ATOM      4  C   UNL     1      13.559   7.819  15.324  1.00  0.00    -0.000 C 
BRANCH   4   5
ATOM      5  C   UNL     1      13.727   9.320  15.035  1.00  0.00    -0.000 C 
BRANCH   5   6
ATOM      6  C   UNL     1      12.464  10.132  15.371  1.00  0.00    -0.000 C 
BRANCH   6   7
ATOM      7  C   UNL     1      12.317  11.389  14.487  1.00  0.00    -0.000 C 
BRANCH   7   8
ATOM      8  C   UNL     1      12.429  12.713  15.269  1.00  0.00    -0.000 C 
BRANCH   8   9
ATOM      9  C   UNL     1      13.199  13.831  14.543  1.00  0.00    -0.000 C 
BRANCH   9  10
ATOM     10  C   UNL     1      13.036  13.850  13.009  1.00  0.00    -0.000 C 
BRANCH  10  11
ATOM     11  C   UNL     1      13.124  15.244  12.363  1.00  0.00    -0.003 C 
ATOM     12  C   UNL     1      13.488  16.343  13.359  1.00  0.00     0.004 C 
ENDBRANCH  10  11
ENDBRANCH   9  10
ENDBRANCH   8   9
ENDBRANCH   7   8
ENDBRANCH   6   7
ENDBRANCH   5   6
ENDBRANCH   4   5
ENDBRANCH   3   4
ENDBRANCH   2   3
ENDBRANCH   1   2
BRANCH   1  13
ATOM     13  C   UNL     1      12.878   5.430  19.385  1.00  0.00     0.000 C 
BRANCH  13  14
ATOM     14  C   UNL     1      11.915   4.319  18.927  1.00  0.00     0.000 C 
BRANCH  14  15
ATOM     15  C   UNL     1      12.554   2.929  18.741  1.00  0.00     0.000 C 
BRANCH  15  16
ATOM     16  C   UNL     1      12.861   2.544  17.281  1.00  0.00     0.000 C 
BRANCH  16  17
ATOM     17  C   UNL     1      14.290   2.910  16.854  1.00  0.00     0.000 C 
BRANCH  17  18
ATOM     18  C   UNL     1      14.300   4.188  16.003  1.00  0.00     0.000 C 
BRANCH  18  19
ATOM     19  C   UNL     1      15.237   4.065  14.781  1.00  0.00     0.000 C 
BRANCH  19  20
ATOM     20  C   UNL     1      15.129   5.245  13.801  1.00  0.00     0.006 C 
BRANCH  20  21
ATOM     21  C   UNL     1      15.114   4.801  12.333  1.00  0.00     0.053 C 
BRANCH  21  22
ATOM     22  C   UNL     1      16.407   4.139  11.975  1.00  0.00     0.041 C 
ATOM     23  O   UNL     1      16.452   3.300  11.037  1.00  0.00    -0.550 OA
ATOM     24  O   UNL     1      17.557   4.419  12.705  1.00  0.00    -0.550 OA
ENDBRANCH  21  22
ENDBRANCH  20  21
ENDBRANCH  19  20
ENDBRANCH  18  19
ENDBRANCH  17  18
ENDBRANCH  16  17
ENDBRANCH  15  16
ENDBRANCH  14  15
ENDBRANCH  13  14
ENDBRANCH   1  13
TORSDOF 20
ENDMDL
MODEL 6
REMARK VINA RESULT:    -0.517      2.751      8.776
REMARK INTER + INTRA:          -2.811
REMARK INTER:                  -1.296
REMARK INTRA:                  -1.515
REMARK UNBOUND:                -1.690
REMARK SMILES CCCCCCCCCCCCCCCCCCCCCC(=O)[O-]
REMARK SMILES IDX 12 1 11 2 10 3 9 4 8 5 7 6 6 7 5 8 4 9 3 10 2 11 1 12 13 13
REMARK SMILES IDX 14 14 15 15 16 16 17 17 18 18 19 19 20 20 21 21 22 22 23 23
REMARK SMILES IDX 24 24
REMARK H PARENT
REMARK Flexibility Score: inf
ROOT
ATOM      1  C   UNL     1      13.534   9.149  14.927  1.00  0.00     0.000 C 
ENDROOT
BRANCH   1   2
ATOM      2  C   UNL     1      13.475   7.702  15.439  1.00  0.00     0.000 C 
BRANCH   2   3
ATOM      3  C   UNL     1      12.637   7.605  16.720  1.00  0.00     0.000 C 
BRANCH   3   4
ATOM      4  C   UNL     1      12.154   6.166  16.952  1.00  0.00    -0.000 C 
BRANCH   4   5
ATOM      5  C   UNL     1      13.188   5.308  17.700  1.00  0.00    -0.000 C 
BRANCH   5   6
ATOM      6  C   UNL     1      13.540   4.015  16.944  1.00  0.00    -0.000 C 
BRANCH   6   7
ATOM      7  C   UNL     1      13.730   4.249  15.429  1.00  0.00    -0.000 C 
BRANCH   7   8
ATOM      8  C   UNL     1      15.152   4.704  15.046  1.00  0.00    -0.000 C 
BRANCH   8   9
ATOM      9  C   UNL     1      15.294   5.256  13.616  1.00  0.00    -0.000 C 
BRANCH   9  10
ATOM     10  C   UNL     1      16.291   4.497  12.716  1.00  0.00    -0.000 C 
BRANCH  10  11
ATOM     11  C   UNL     1      15.717   4.012  11.373  1.00  0.00    -0.003 C 
ATOM     12  C   UNL     1      14.339   4.596  11.066  1.00  0.00     0.004 C 
ENDBRANCH  10  11
ENDBRANCH   9  10
ENDBRANCH   8   9
ENDBRANCH   7   8
ENDBRANCH   6   7
ENDBRANCH   5   6
ENDBRANCH   4   5
ENDBRANCH   3   4
ENDBRANCH   2   3
ENDBRANCH   1   2
BRANCH   1  13
ATOM     13  C   UNL     1      12.219   9.920  15.170  1.00  0.00     0.000 C 
BRANCH  13  14
ATOM     14  C   UNL     1      12.110  11.235  14.374  1.00  0.00     0.000 C 
BRANCH  14  15
ATOM     15  C   UNL     1      12.117  12.520  15.223  1.00  0.00     0.000 C 
BRANCH  15  16
ATOM     16  C   UNL     1      13.494  12.918  15.790  1.00  0.00     0.000 C 
BRANCH  16  17
ATOM     17  C   UNL     1      13.750  14.431  15.728  1.00  0.00     0.000 C 
BRANCH  17  18
ATOM     18  C   UNL     1      12.707  15.131  14.844  1.00  0.00     0.000 C 
BRANCH  18  19
ATOM     19  C   UNL     1      13.363  15.989  13.741  1.00  0.00     0.000 C 
BRANCH  19  20
ATOM     20  C   UNL     1      13.124  15.451  12.319  1.00  0.00     0.006 C 
BRANCH  20  21
ATOM     21  C   UNL     1      13.055  13.920  12.265  1.00  0.00     0.053 C 
BRANCH  21  22
ATOM     22  C   UNL     1      11.909  13.479  11.411  1.00  0.00     0.041 C 
ATOM     23  O   UNL     1      10.945  14.260  11.190  1.00  0.00    -0.550 OA
ATOM     24  O   UNL     1      11.885  12.190  10.891  1.00  0.00    -0.550 OA
ENDBRANCH  21  22
ENDBRANCH  20  21
ENDBRANCH  19  20
ENDBRANCH  18  19
ENDBRANCH  17  18
ENDBRANCH  16  17
ENDBRANCH  15  16
ENDBRANCH  14  15
ENDBRANCH  13  14
ENDBRANCH   1  13
TORSDOF 20
ENDMDL
MODEL 7
REMARK VINA RESULT:    -0.513      3.504      4.875
REMARK INTER + INTRA:          -2.803
REMARK INTER:                  -1.279
REMARK INTRA:                  -1.524
REMARK UNBOUND:                -1.690
REMARK SMILES CCCCCCCCCCCCCCCCCCCCCC(=O)[O-]
REMARK SMILES IDX 12 1 11 2 10 3 9 4 8 5 7 6 6 7 5 8 4 9 3 10 2 11 1 12 13 13
REMARK SMILES IDX 14 14 15 15 16 16 17 17 18 18 19 19 20 20 21 21 22 22 23 23
REMARK SMILES IDX 24 24
REMARK H PARENT
REMARK Flexibility Score: inf
ROOT
ATOM      1  C   UNL     1      13.236   8.699  15.433  1.00  0.00     0.000 C 
ENDROOT
BRANCH   1   2
ATOM      2  C   UNL     1      13.324  10.131  14.883  1.00  0.00     0.000 C 
BRANCH   2   3
ATOM      3  C   UNL     1      11.939  10.788  14.837  1.00  0.00     0.000 C 
BRANCH   3   4
ATOM      4  C   UNL     1      12.032  12.289  15.150  1.00  0.00    -0.000 C 
BRANCH   4   5
ATOM      5  C   UNL     1      13.418  12.698  15.675  1.00  0.00    -0.000 C 
BRANCH   5   6
ATOM      6  C   UNL     1      13.602  14.226  15.729  1.00  0.00    -0.000 C 
BRANCH   6   7
ATOM      7  C   UNL     1      12.640  14.970  14.778  1.00  0.00    -0.000 C 
BRANCH   7   8
ATOM      8  C   UNL     1      13.329  16.052  13.922  1.00  0.00    -0.000 C 
BRANCH   8   9
ATOM      9  C   UNL     1      13.510  15.685  12.438  1.00  0.00    -0.000 C 
BRANCH   9  10
ATOM     10  C   UNL     1      12.422  14.760  11.854  1.00  0.00    -0.000 C 
BRANCH  10  11
ATOM     11  C   UNL     1      12.705  13.254  11.996  1.00  0.00    -0.003 C 
ATOM     12  C   UNL     1      11.585  12.380  11.434  1.00  0.00     0.004 C 
ENDBRANCH  10  11
ENDBRANCH   9  10
ENDBRANCH   8   9
ENDBRANCH   7   8
ENDBRANCH   6   7
ENDBRANCH   5   6
ENDBRANCH   4   5
ENDBRANCH   3   4
ENDBRANCH   2   3
ENDBRANCH   1   2
BRANCH   1  13
ATOM     13  C   UNL     1      14.425   7.820  14.995  1.00  0.00     0.000 C 
BRANCH  13  14
ATOM     14  C   UNL     1      14.013   6.540  14.244  1.00  0.00     0.000 C 
BRANCH  14  15
ATOM     15  C   UNL     1      14.986   5.353  14.384  1.00  0.00     0.000 C 
BRANCH  15  16
ATOM     16  C   UNL     1      14.637   4.355  15.505  1.00  0.00     0.000 C 
BRANCH  16  17
ATOM     17  C   UNL     1      13.220   4.555  16.063  1.00  0.00     0.000 C 
BRANCH  17  18
ATOM     18  C   UNL     1      13.174   4.253  17.568  1.00  0.00     0.000 C 
BRANCH  18  19
ATOM     19  C   UNL     1      12.749   5.486  18.395  1.00  0.00     0.000 C 
BRANCH  19  20
ATOM     20  C   UNL     1      12.082   5.129  19.735  1.00  0.00     0.006 C 
BRANCH  20  21
ATOM     21  C   UNL     1      11.851   3.622  19.902  1.00  0.00     0.053 C 
BRANCH  21  22
ATOM     22  C   UNL     1      11.900   3.245  21.349  1.00  0.00     0.041 C 
ATOM     23  O   UNL     1      12.041   4.132  22.232  1.00  0.00    -0.550 OA
ATOM     24  O   UNL     1      11.830   1.907  21.722  1.00  0.00    -0.550 OA
ENDBRANCH  21  22
ENDBRANCH  20  21
ENDBRANCH  19  20
ENDBRANCH  18  19
ENDBRANCH  17  18
ENDBRANCH  16  17
ENDBRANCH  15  16
ENDBRANCH  14  15
ENDBRANCH  13  14
ENDBRANCH   1  13
TORSDOF 20
ENDMDL
MODEL 8
REMARK VINA RESULT:    -0.501      4.501      9.543
REMARK INTER + INTRA:          -2.777
REMARK INTER:                  -1.372
REMARK INTRA:                  -1.404
REMARK UNBOUND:                -1.690
REMARK SMILES CCCCCCCCCCCCCCCCCCCCCC(=O)[O-]
REMARK SMILES IDX 12 1 11 2 10 3 9 4 8 5 7 6 6 7 5 8 4 9 3 10 2 11 1 12 13 13
REMARK SMILES IDX 14 14 15 15 16 16 17 17 18 18 19 19 20 20 21 21 22 22 23 23
REMARK SMILES IDX 24 24
REMARK H PARENT
REMARK Flexibility Score: inf
ROOT
ATOM      1  C   UNL     1      13.224   5.446  15.740  1.00  0.00     0.000 C 
ENDROOT
BRANCH   1   2
ATOM      2  C   UNL     1      13.606   4.246  16.619  1.00  0.00     0.000 C 
BRANCH   2   3
ATOM      3  C   UNL     1      12.872   4.295  17.965  1.00  0.00     0.000 C 
BRANCH   3   4
ATOM      4  C   UNL     1      12.647   5.746  18.415  1.00  0.00    -0.000 C 
BRANCH   4   5
ATOM      5  C   UNL     1      13.604   6.171  19.540  1.00  0.00    -0.000 C 
BRANCH   5   6
ATOM      6  C   UNL     1      14.713   7.119  19.048  1.00  0.00    -0.000 C 
BRANCH   6   7
ATOM      7  C   UNL     1      15.691   7.518  20.174  1.00  0.00    -0.000 C 
BRANCH   7   8
ATOM      8  C   UNL     1      16.649   6.385  20.592  1.00  0.00    -0.000 C 
BRANCH   8   9
ATOM      9  C   UNL     1      16.476   5.891  22.040  1.00  0.00    -0.000 C 
BRANCH   9  10
ATOM     10  C   UNL     1      17.774   5.833  22.872  1.00  0.00    -0.000 C 
BRANCH  10  11
ATOM     11  C   UNL     1      18.314   4.416  23.137  1.00  0.00    -0.003 C 
ATOM     12  C   UNL     1      19.780   4.405  23.567  1.00  0.00     0.004 C 
ENDBRANCH  10  11
ENDBRANCH   9  10
ENDBRANCH   8   9
ENDBRANCH   7   8
ENDBRANCH   6   7
ENDBRANCH   5   6
ENDBRANCH   4   5
ENDBRANCH   3   4
ENDBRANCH   2   3
ENDBRANCH   1   2
BRANCH   1  13
ATOM     13  C   UNL     1      14.402   5.955  14.883  1.00  0.00     0.000 C 
BRANCH  13  14
ATOM     14  C   UNL     1      14.367   7.470  14.610  1.00  0.00     0.000 C 
BRANCH  14  15
ATOM     15  C   UNL     1      13.550   8.301  15.618  1.00  0.00     0.000 C 
BRANCH  15  16
ATOM     16  C   UNL     1      12.546   9.286  14.987  1.00  0.00     0.000 C 
BRANCH  16  17
ATOM     17  C   UNL     1      13.065  10.732  14.960  1.00  0.00     0.000 C 
BRANCH  17  18
ATOM     18  C   UNL     1      11.940  11.714  14.606  1.00  0.00     0.000 C 
BRANCH  18  19
ATOM     19  C   UNL     1      12.110  13.073  15.320  1.00  0.00     0.000 C 
BRANCH  19  20
ATOM     20  C   UNL     1      13.425  13.791  14.972  1.00  0.00     0.006 C 
BRANCH  20  21
ATOM     21  C   UNL     1      13.205  15.202  14.414  1.00  0.00     0.053 C 
BRANCH  21  22
ATOM     22  C   UNL     1      13.252  15.185  12.919  1.00  0.00     0.041 C 
ATOM     23  O   UNL     1      12.946  14.139  12.287  1.00  0.00    -0.550 OA
ATOM     24  O   UNL     1      13.672  16.312  12.223  1.00  0.00    -0.550 OA
ENDBRANCH  21  22
ENDBRANCH  20  21
ENDBRANCH  19  20
ENDBRANCH  18  19
ENDBRANCH  17  18
ENDBRANCH  16  17
ENDBRANCH  15  16
ENDBRANCH  14  15
ENDBRANCH  13  14
ENDBRANCH   1  13
TORSDOF 20
ENDMDL
MODEL 9
REMARK VINA RESULT:    -0.425      3.608      8.837
REMARK INTER + INTRA:          -2.612
REMARK INTER:                  -0.761
REMARK INTRA:                  -1.851
REMARK UNBOUND:                -1.690
REMARK SMILES CCCCCCCCCCCCCCCCCCCCCC(=O)[O-]
REMARK SMILES IDX 12 1 11 2 10 3 9 4 8 5 7 6 6 7 5 8 4 9 3 10 2 11 1 12 13 13
REMARK SMILES IDX 14 14 15 15 16 16 17 17 18 18 19 19 20 20 21 21 22 22 23 23
REMARK SMILES IDX 24 24
REMARK H PARENT
REMARK Flexibility Score: inf
ROOT
ATOM      1  C   UNL     1      12.404   6.936  16.500  1.00  0.00     0.000 C 
ENDROOT
BRANCH   1   2
ATOM      2  C   UNL     1      13.184   6.757  17.811  1.00  0.00     0.000 C 
BRANCH   2   3
ATOM      3  C   UNL     1      12.908   5.382  18.432  1.00  0.00     0.000 C 
BRANCH   3   4
ATOM      4  C   UNL     1      12.546   4.354  17.350  1.00  0.00    -0.000 C 
BRANCH   4   5
ATOM      5  C   UNL     1      13.343   3.046  17.486  1.00  0.00    -0.000 C 
BRANCH   5   6
ATOM      6  C   UNL     1      14.563   2.997  16.550  1.00  0.00    -0.000 C 
BRANCH   6   7
ATOM      7  C   UNL     1      14.452   4.002  15.382  1.00  0.00    -0.000 C 
BRANCH   7   8
ATOM      8  C   UNL     1      15.813   4.539  14.895  1.00  0.00    -0.000 C 
BRANCH   8   9
ATOM      9  C   UNL     1      15.835   5.019  13.433  1.00  0.00    -0.000 C 
BRANCH   9  10
ATOM     10  C   UNL     1      14.455   5.096  12.748  1.00  0.00    -0.000 C 
BRANCH  10  11
ATOM     11  C   UNL     1      14.451   4.741  11.250  1.00  0.00    -0.003 C 
ATOM     12  C   UNL     1      15.524   3.720  10.875  1.00  0.00     0.004 C 
ENDBRANCH  10  11
ENDBRANCH   9  10
ENDBRANCH   8   9
ENDBRANCH   7   8
ENDBRANCH   6   7
ENDBRANCH   5   6
ENDBRANCH   4   5
ENDBRANCH   3   4
ENDBRANCH   2   3
ENDBRANCH   1   2
BRANCH   1  13
ATOM     13  C   UNL     1      13.294   7.434  15.342  1.00  0.00     0.000 C 
BRANCH  13  14
ATOM     14  C   UNL     1      13.765   8.893  15.499  1.00  0.00     0.000 C 
BRANCH  14  15
ATOM     15  C   UNL     1      12.756   9.963  15.038  1.00  0.00     0.000 C 
BRANCH  15  16
ATOM     16  C   UNL     1      13.173  11.418  15.329  1.00  0.00     0.000 C 
BRANCH  16  17
ATOM     17  C   UNL     1      12.079  12.435  14.971  1.00  0.00     0.000 C 
BRANCH  17  18
ATOM     18  C   UNL     1      11.178  11.902  13.848  1.00  0.00     0.000 C 
BRANCH  18  19
ATOM     19  C   UNL     1      11.701  12.294  12.449  1.00  0.00     0.000 C 
BRANCH  19  20
ATOM     20  C   UNL     1      12.911  13.243  12.488  1.00  0.00     0.006 C 
BRANCH  20  21
ATOM     21  C   UNL     1      12.560  14.674  12.064  1.00  0.00     0.053 C 
BRANCH  21  22
ATOM     22  C   UNL     1      13.290  15.665  12.916  1.00  0.00     0.041 C 
ATOM     23  O   UNL     1      13.209  15.602  14.171  1.00  0.00    -0.550 OA
ATOM     24  O   UNL     1      14.027  16.683  12.323  1.00  0.00    -0.550 OA
ENDBRANCH  21  22
ENDBRANCH  20  21
ENDBRANCH  19  20
ENDBRANCH  18  19
ENDBRANCH  17  18
ENDBRANCH  16  17
ENDBRANCH  15  16
ENDBRANCH  14  15
ENDBRANCH  13  14
ENDBRANCH   1  13
TORSDOF 20
ENDMDL
