MODEL 1
REMARK VINA RESULT:    -3.159      0.000      0.000
REMARK INTER + INTRA:         -11.999
REMARK INTER:                  -8.330
REMARK INTRA:                  -3.668
REMARK UNBOUND:                -3.668
REMARK SMILES CCCCCCCCCCCCCCCCCCCCCCCCCCCCCC(=O)[O-]
REMARK SMILES IDX 16 1 17 2 18 3 19 4 20 5 21 6 22 7 23 8 24 9 25 10 26 11
REMARK SMILES IDX 27 12 28 13 29 14 30 15 31 16 32 17 15 18 14 19 13 20 12 21
REMARK SMILES IDX 11 22 10 23 9 24 8 25 7 26 6 27 5 28 4 29 3 30 2 31 1 32
REMARK H PARENT
REMARK Flexibility Score: inf
ROOT
ATOM      1  C   UNL     1      -8.097  -3.343  -7.760  1.00  0.00     0.000 C 
ENDROOT
BRANCH   1   2
ATOM      2  C   UNL     1      -7.795  -2.845  -9.180  1.00  0.00     0.000 C 
BRANCH   2   3
ATOM      3  C   UNL     1      -9.039  -2.945 -10.076  1.00  0.00     0.000 C 
BRANCH   3   4
ATOM      4  C   UNL     1      -9.527  -1.573 -10.570  1.00  0.00     0.000 C 
BRANCH   4   5
ATOM      5  C   UNL     1     -11.023  -1.346 -10.302  1.00  0.00     0.000 C 
BRANCH   5   6
ATOM      6  C   UNL     1     -11.611  -2.484  -9.454  1.00  0.00     0.000 C 
BRANCH   6   7
ATOM      7  C   UNL     1     -12.977  -2.968  -9.972  1.00  0.00     0.000 C 
BRANCH   7   8
ATOM      8  C   UNL     1     -13.702  -1.989 -10.918  1.00  0.00     0.000 C 
BRANCH   8   9
ATOM      9  C   UNL     1     -14.511  -0.881 -10.218  1.00  0.00     0.000 C 
BRANCH   9  10
ATOM     10  C   UNL     1     -14.325   0.496 -10.878  1.00  0.00     0.000 C 
BRANCH  10  11
ATOM     11  C   UNL     1     -13.774   1.553  -9.907  1.00  0.00     0.000 C 
BRANCH  11  12
ATOM     12  C   UNL     1     -14.505   1.559  -8.556  1.00  0.00     0.000 C 
BRANCH  12  13
ATOM     13  C   UNL     1     -14.696   2.991  -8.041  1.00  0.00     0.006 C 
BRANCH  13  14
ATOM     14  C   UNL     1     -13.684   3.947  -8.681  1.00  0.00     0.053 C 
BRANCH  14  15
ATOM     15  C   UNL     1     -12.373   3.900  -7.958  1.00  0.00     0.041 C 
ATOM     16  O   UNL     1     -11.427   3.197  -8.406  1.00  0.00    -0.550 OA
ATOM     17  O   UNL     1     -12.199   4.614  -6.780  1.00  0.00    -0.550 OA
ENDBRANCH  14  15
ENDBRANCH  13  14
ENDBRANCH  12  13
ENDBRANCH  11  12
ENDBRANCH  10  11
ENDBRANCH   9  10
ENDBRANCH   8   9
ENDBRANCH   7   8
ENDBRANCH   6   7
ENDBRANCH   5   6
ENDBRANCH   4   5
ENDBRANCH   3   4
ENDBRANCH   2   3
ENDBRANCH   1   2
BRANCH   1  18
ATOM     18  C   UNL     1      -8.811  -4.702  -7.798  1.00  0.00     0.000 C 
BRANCH  18  19
ATOM     19  C   UNL     1     -10.138  -4.701  -7.023  1.00  0.00     0.000 C 
BRANCH  19  20
ATOM     20  C   UNL     1     -11.256  -5.456  -7.764  1.00  0.00     0.000 C 
BRANCH  20  21
ATOM     21  C   UNL     1     -10.713  -6.414  -8.836  1.00  0.00     0.000 C 
BRANCH  21  22
ATOM     22  C   UNL     1     -11.279  -7.838  -8.698  1.00  0.00     0.000 C 
BRANCH  22  23
ATOM     23  C   UNL     1     -12.790  -7.910  -8.978  1.00  0.00     0.000 C 
BRANCH  23  24
ATOM     24  C   UNL     1     -13.213  -7.187 -10.274  1.00  0.00    -0.000 C 
BRANCH  24  25
ATOM     25  C   UNL     1     -14.387  -6.223 -10.048  1.00  0.00    -0.000 C 
BRANCH  25  26
ATOM     26  C   UNL     1     -15.110  -6.536  -8.733  1.00  0.00    -0.000 C 
BRANCH  26  27
ATOM     27  C   UNL     1     -14.738  -5.524  -7.643  1.00  0.00    -0.000 C 
BRANCH  27  28
ATOM     28  C   UNL     1     -15.120  -6.046  -6.253  1.00  0.00    -0.000 C 
BRANCH  28  29
ATOM     29  C   UNL     1     -15.073  -7.580  -6.209  1.00  0.00    -0.000 C 
BRANCH  29  30
ATOM     30  C   UNL     1     -13.774  -8.125  -5.590  1.00  0.00    -0.000 C 
BRANCH  30  31
ATOM     31  C   UNL     1     -12.643  -7.092  -5.442  1.00  0.00    -0.003 C 
ATOM     32  C   UNL     1     -11.424  -7.639  -4.699  1.00  0.00     0.004 C 
ENDBRANCH  30  31
ENDBRANCH  29  30
ENDBRANCH  28  29
ENDBRANCH  27  28
ENDBRANCH  26  27
ENDBRANCH  25  26
ENDBRANCH  24  25
ENDBRANCH  23  24
ENDBRANCH  22  23
ENDBRANCH  21  22
ENDBRANCH  20  21
ENDBRANCH  19  20
ENDBRANCH  18  19
ENDBRANCH   1  18
TORSDOF 28
ENDMDL
MODEL 2
REMARK VINA RESULT:    -2.492     15.486     19.514
REMARK INTER + INTRA:         -10.239
REMARK INTER:                  -8.976
REMARK INTRA:                  -1.263
REMARK UNBOUND:                -3.668
REMARK SMILES CCCCCCCCCCCCCCCCCCCCCCCCCCCCCC(=O)[O-]
REMARK SMILES IDX 16 1 17 2 18 3 19 4 20 5 21 6 22 7 23 8 24 9 25 10 26 11
REMARK SMILES IDX 27 12 28 13 29 14 30 15 31 16 32 17 15 18 14 19 13 20 12 21
REMARK SMILES IDX 11 22 10 23 9 24 8 25 7 26 6 27 5 28 4 29 3 30 2 31 1 32
REMARK H PARENT
REMARK Flexibility Score: inf
ROOT
ATOM      1  C   UNL     1     -10.323   4.724   8.653  1.00  0.00     0.000 C 
ENDROOT
BRANCH   1   2
ATOM      2  C   UNL     1     -11.735   4.140   8.524  1.00  0.00     0.000 C 
BRANCH   2   3
ATOM      3  C   UNL     1     -12.138   3.993   7.049  1.00  0.00     0.000 C 
BRANCH   3   4
ATOM      4  C   UNL     1     -11.034   3.350   6.192  1.00  0.00     0.000 C 
BRANCH   4   5
ATOM      5  C   UNL     1     -10.656   4.208   4.975  1.00  0.00     0.000 C 
BRANCH   5   6
ATOM      6  C   UNL     1     -10.522   5.688   5.363  1.00  0.00     0.000 C 
BRANCH   6   7
ATOM      7  C   UNL     1      -9.068   6.190   5.305  1.00  0.00     0.000 C 
BRANCH   7   8
ATOM      8  C   UNL     1      -8.532   6.793   6.620  1.00  0.00     0.000 C 
BRANCH   8   9
ATOM      9  C   UNL     1      -7.979   8.226   6.505  1.00  0.00     0.000 C 
BRANCH   9  10
ATOM     10  C   UNL     1      -8.402   8.922   5.199  1.00  0.00     0.000 C 
BRANCH  10  11
ATOM     11  C   UNL     1      -7.266   9.741   4.566  1.00  0.00     0.000 C 
BRANCH  11  12
ATOM     12  C   UNL     1      -6.998  11.060   5.306  1.00  0.00     0.000 C 
BRANCH  12  13
ATOM     13  C   UNL     1      -5.596  11.068   5.927  1.00  0.00     0.006 C 
BRANCH  13  14
ATOM     14  C   UNL     1      -5.571  11.890   7.220  1.00  0.00     0.053 C 
BRANCH  14  15
ATOM     15  C   UNL     1      -6.821  11.674   8.015  1.00  0.00     0.041 C 
ATOM     16  O   UNL     1      -6.774  11.066   9.118  1.00  0.00    -0.550 OA
ATOM     17  O   UNL     1      -8.043  12.125   7.532  1.00  0.00    -0.550 OA
ENDBRANCH  14  15
ENDBRANCH  13  14
ENDBRANCH  12  13
ENDBRANCH  11  12
ENDBRANCH  10  11
ENDBRANCH   9  10
ENDBRANCH   8   9
ENDBRANCH   7   8
ENDBRANCH   6   7
ENDBRANCH   5   6
ENDBRANCH   4   5
ENDBRANCH   3   4
ENDBRANCH   2   3
ENDBRANCH   1   2
BRANCH   1  18
ATOM     18  C   UNL     1     -10.367   6.259   8.686  1.00  0.00     0.000 C 
BRANCH  18  19
ATOM     19  C   UNL     1     -11.771   6.822   8.415  1.00  0.00     0.000 C 
BRANCH  19  20
ATOM     20  C   UNL     1     -11.878   7.512   7.044  1.00  0.00     0.000 C 
BRANCH  20  21
ATOM     21  C   UNL     1     -11.933   9.044   7.156  1.00  0.00     0.000 C 
BRANCH  21  22
ATOM     22  C   UNL     1     -10.957   9.744   6.194  1.00  0.00     0.000 C 
BRANCH  22  23
ATOM     23  C   UNL     1     -10.933  11.271   6.373  1.00  0.00     0.000 C 
BRANCH  23  24
ATOM     24  C   UNL     1     -11.870  12.021   5.404  1.00  0.00    -0.000 C 
BRANCH  24  25
ATOM     25  C   UNL     1     -12.388  11.117   4.276  1.00  0.00    -0.000 C 
BRANCH  25  26
ATOM     26  C   UNL     1     -13.913  11.216   4.149  1.00  0.00    -0.000 C 
BRANCH  26  27
ATOM     27  C   UNL     1     -14.612  10.409   5.250  1.00  0.00    -0.000 C 
BRANCH  27  28
ATOM     28  C   UNL     1     -15.123   9.068   4.709  1.00  0.00    -0.000 C 
BRANCH  28  29
ATOM     29  C   UNL     1     -13.956   8.123   4.390  1.00  0.00    -0.000 C 
BRANCH  29  30
ATOM     30  C   UNL     1     -14.287   6.645   4.665  1.00  0.00    -0.000 C 
BRANCH  30  31
ATOM     31  C   UNL     1     -13.982   5.684   3.502  1.00  0.00    -0.003 C 
ATOM     32  C   UNL     1     -13.791   6.401   2.165  1.00  0.00     0.004 C 
ENDBRANCH  30  31
ENDBRANCH  29  30
ENDBRANCH  28  29
ENDBRANCH  27  28
ENDBRANCH  26  27
ENDBRANCH  25  26
ENDBRANCH  24  25
ENDBRANCH  23  24
ENDBRANCH  22  23
ENDBRANCH  21  22
ENDBRANCH  20  21
ENDBRANCH  19  20
ENDBRANCH  18  19
ENDBRANCH   1  18
TORSDOF 28
ENDMDL
MODEL 3
REMARK VINA RESULT:    -2.096     15.477     19.192
REMARK INTER + INTRA:          -9.195
REMARK INTER:                  -7.280
REMARK INTRA:                  -1.915
REMARK UNBOUND:                -3.668
REMARK SMILES CCCCCCCCCCCCCCCCCCCCCCCCCCCCCC(=O)[O-]
REMARK SMILES IDX 16 1 17 2 18 3 19 4 20 5 21 6 22 7 23 8 24 9 25 10 26 11
REMARK SMILES IDX 27 12 28 13 29 14 30 15 31 16 32 17 15 18 14 19 13 20 12 21
REMARK SMILES IDX 11 22 10 23 9 24 8 25 7 26 6 27 5 28 4 29 3 30 2 31 1 32
REMARK H PARENT
REMARK Flexibility Score: inf
ROOT
ATOM      1  C   UNL     1     -13.242   5.563   3.755  1.00  0.00     0.000 C 
ENDROOT
BRANCH   1   2
ATOM      2  C   UNL     1     -13.976   6.476   2.764  1.00  0.00     0.000 C 
BRANCH   2   3
ATOM      3  C   UNL     1     -15.125   7.228   3.452  1.00  0.00     0.000 C 
BRANCH   3   4
ATOM      4  C   UNL     1     -14.650   8.075   4.645  1.00  0.00     0.000 C 
BRANCH   4   5
ATOM      5  C   UNL     1     -14.968   9.568   4.472  1.00  0.00     0.000 C 
BRANCH   5   6
ATOM      6  C   UNL     1     -15.125  10.261   5.834  1.00  0.00     0.000 C 
BRANCH   6   7
ATOM      7  C   UNL     1     -14.461  11.649   5.877  1.00  0.00     0.000 C 
BRANCH   7   8
ATOM      8  C   UNL     1     -13.376  11.821   6.961  1.00  0.00     0.000 C 
BRANCH   8   9
ATOM      9  C   UNL     1     -12.694  10.517   7.415  1.00  0.00     0.000 C 
BRANCH   9  10
ATOM     10  C   UNL     1     -11.563  10.079   6.469  1.00  0.00     0.000 C 
BRANCH  10  11
ATOM     11  C   UNL     1     -10.682  11.252   6.009  1.00  0.00     0.000 C 
BRANCH  11  12
ATOM     12  C   UNL     1     -10.592  11.367   4.480  1.00  0.00     0.000 C 
BRANCH  12  13
ATOM     13  C   UNL     1     -11.799  12.123   3.913  1.00  0.00     0.006 C 
BRANCH  13  14
ATOM     14  C   UNL     1     -11.797  12.094   2.381  1.00  0.00     0.053 C 
BRANCH  14  15
ATOM     15  C   UNL     1     -13.035  11.435   1.856  1.00  0.00     0.041 C 
ATOM     16  O   UNL     1     -14.167  11.935   2.092  1.00  0.00    -0.550 OA
ATOM     17  O   UNL     1     -12.943  10.257   1.125  1.00  0.00    -0.550 OA
ENDBRANCH  14  15
ENDBRANCH  13  14
ENDBRANCH  12  13
ENDBRANCH  11  12
ENDBRANCH  10  11
ENDBRANCH   9  10
ENDBRANCH   8   9
ENDBRANCH   7   8
ENDBRANCH   6   7
ENDBRANCH   5   6
ENDBRANCH   4   5
ENDBRANCH   3   4
ENDBRANCH   2   3
ENDBRANCH   1   2
BRANCH   1  18
ATOM     18  C   UNL     1     -12.530   6.391   4.835  1.00  0.00     0.000 C 
BRANCH  18  19
ATOM     19  C   UNL     1     -11.183   5.785   5.263  1.00  0.00     0.000 C 
BRANCH  19  20
ATOM     20  C   UNL     1     -11.135   4.259   5.074  1.00  0.00     0.000 C 
BRANCH  20  21
ATOM     21  C   UNL     1     -11.723   3.497   6.273  1.00  0.00     0.000 C 
BRANCH  21  22
ATOM     22  C   UNL     1     -11.707   4.329   7.568  1.00  0.00     0.000 C 
BRANCH  22  23
ATOM     23  C   UNL     1     -10.286   4.578   8.100  1.00  0.00     0.000 C 
BRANCH  23  24
ATOM     24  C   UNL     1     -10.187   5.787   9.054  1.00  0.00    -0.000 C 
BRANCH  24  25
ATOM     25  C   UNL     1      -9.928   7.102   8.305  1.00  0.00    -0.000 C 
BRANCH  25  26
ATOM     26  C   UNL     1      -9.435   6.833   6.878  1.00  0.00    -0.000 C 
BRANCH  26  27
ATOM     27  C   UNL     1      -8.107   7.550   6.608  1.00  0.00    -0.000 C 
BRANCH  27  28
ATOM     28  C   UNL     1      -8.180   8.376   5.317  1.00  0.00    -0.000 C 
BRANCH  28  29
ATOM     29  C   UNL     1      -7.483   9.733   5.491  1.00  0.00    -0.000 C 
BRANCH  29  30
ATOM     30  C   UNL     1      -7.450  10.208   6.955  1.00  0.00    -0.000 C 
BRANCH  30  31
ATOM     31  C   UNL     1      -7.230  11.719   7.143  1.00  0.00    -0.003 C 
ATOM     32  C   UNL     1      -6.705  12.081   8.532  1.00  0.00     0.004 C 
ENDBRANCH  30  31
ENDBRANCH  29  30
ENDBRANCH  28  29
ENDBRANCH  27  28
ENDBRANCH  26  27
ENDBRANCH  25  26
ENDBRANCH  24  25
ENDBRANCH  23  24
ENDBRANCH  22  23
ENDBRANCH  21  22
ENDBRANCH  20  21
ENDBRANCH  19  20
ENDBRANCH  18  19
ENDBRANCH   1  18
TORSDOF 28
ENDMDL
MODEL 4
REMARK VINA RESULT:    -1.705     15.911     20.553
REMARK INTER + INTRA:          -8.164
REMARK INTER:                  -5.474
REMARK INTRA:                  -2.690
REMARK UNBOUND:                -3.668
REMARK SMILES CCCCCCCCCCCCCCCCCCCCCCCCCCCCCC(=O)[O-]
REMARK SMILES IDX 16 1 17 2 18 3 19 4 20 5 21 6 22 7 23 8 24 9 25 10 26 11
REMARK SMILES IDX 27 12 28 13 29 14 30 15 31 16 32 17 15 18 14 19 13 20 12 21
REMARK SMILES IDX 11 22 10 23 9 24 8 25 7 26 6 27 5 28 4 29 3 30 2 31 1 32
REMARK H PARENT
REMARK Flexibility Score: inf
ROOT
ATOM      1  C   UNL     1     -13.868   8.334   3.844  1.00  0.00     0.000 C 
ENDROOT
BRANCH   1   2
ATOM      2  C   UNL     1     -13.736   6.895   4.358  1.00  0.00     0.000 C 
BRANCH   2   3
ATOM      3  C   UNL     1     -12.885   6.840   5.636  1.00  0.00     0.000 C 
BRANCH   3   4
ATOM      4  C   UNL     1     -12.034   8.105   5.836  1.00  0.00     0.000 C 
BRANCH   4   5
ATOM      5  C   UNL     1     -10.560   7.891   5.458  1.00  0.00     0.000 C 
BRANCH   5   6
ATOM      6  C   UNL     1      -9.632   8.235   6.633  1.00  0.00     0.000 C 
BRANCH   6   7
ATOM      7  C   UNL     1      -8.781   7.037   7.092  1.00  0.00     0.000 C 
BRANCH   7   8
ATOM      8  C   UNL     1      -9.098   6.514   8.508  1.00  0.00     0.000 C 
BRANCH   8   9
ATOM      9  C   UNL     1     -10.565   6.107   8.742  1.00  0.00     0.000 C 
BRANCH   9  10
ATOM     10  C   UNL     1     -10.740   4.586   8.898  1.00  0.00     0.000 C 
BRANCH  10  11
ATOM     11  C   UNL     1     -12.156   4.110   8.533  1.00  0.00     0.000 C 
BRANCH  11  12
ATOM     12  C   UNL     1     -12.437   4.180   7.025  1.00  0.00     0.000 C 
BRANCH  12  13
ATOM     13  C   UNL     1     -11.453   3.303   6.240  1.00  0.00     0.006 C 
BRANCH  13  14
ATOM     14  C   UNL     1     -10.168   4.073   5.915  1.00  0.00     0.053 C 
BRANCH  14  15
ATOM     15  C   UNL     1     -10.202   4.602   4.515  1.00  0.00     0.041 C 
ATOM     16  O   UNL     1     -11.254   4.507   3.826  1.00  0.00    -0.550 OA
ATOM     17  O   UNL     1      -9.068   5.182   3.959  1.00  0.00    -0.550 OA
ENDBRANCH  14  15
ENDBRANCH  13  14
ENDBRANCH  12  13
ENDBRANCH  11  12
ENDBRANCH  10  11
ENDBRANCH   9  10
ENDBRANCH   8   9
ENDBRANCH   7   8
ENDBRANCH   6   7
ENDBRANCH   5   6
ENDBRANCH   4   5
ENDBRANCH   3   4
ENDBRANCH   2   3
ENDBRANCH   1   2
BRANCH   1  18
ATOM     18  C   UNL     1     -14.872   9.127   4.694  1.00  0.00     0.000 C 
BRANCH  18  19
ATOM     19  C   UNL     1     -14.622  10.643   4.655  1.00  0.00     0.000 C 
BRANCH  19  20
ATOM     20  C   UNL     1     -13.354  11.014   3.865  1.00  0.00     0.000 C 
BRANCH  20  21
ATOM     21  C   UNL     1     -12.475  12.036   4.604  1.00  0.00     0.000 C 
BRANCH  21  22
ATOM     22  C   UNL     1     -11.021  12.037   4.102  1.00  0.00     0.000 C 
BRANCH  22  23
ATOM     23  C   UNL     1     -10.072  11.242   5.016  1.00  0.00     0.000 C 
BRANCH  23  24
ATOM     24  C   UNL     1      -9.916  11.854   6.424  1.00  0.00    -0.000 C 
BRANCH  24  25
ATOM     25  C   UNL     1      -8.447  12.124   6.783  1.00  0.00    -0.000 C 
BRANCH  25  26
ATOM     26  C   UNL     1      -7.929  11.087   7.787  1.00  0.00    -0.000 C 
BRANCH  26  27
ATOM     27  C   UNL     1      -6.419  10.870   7.627  1.00  0.00    -0.000 C 
BRANCH  27  28
ATOM     28  C   UNL     1      -5.846  11.773   6.528  1.00  0.00    -0.000 C 
BRANCH  28  29
ATOM     29  C   UNL     1      -4.874  10.996   5.628  1.00  0.00    -0.000 C 
BRANCH  29  30
ATOM     30  C   UNL     1      -3.398  11.330   5.908  1.00  0.00    -0.000 C 
BRANCH  30  31
ATOM     31  C   UNL     1      -2.574  11.722   4.669  1.00  0.00    -0.003 C 
ATOM     32  C   UNL     1      -1.065  11.648   4.904  1.00  0.00     0.004 C 
ENDBRANCH  30  31
ENDBRANCH  29  30
ENDBRANCH  28  29
ENDBRANCH  27  28
ENDBRANCH  26  27
ENDBRANCH  25  26
ENDBRANCH  24  25
ENDBRANCH  23  24
ENDBRANCH  22  23
ENDBRANCH  21  22
ENDBRANCH  20  21
ENDBRANCH  19  20
ENDBRANCH  18  19
ENDBRANCH   1  18
TORSDOF 28
ENDMDL
MODEL 5
REMARK VINA RESULT:    -1.663     15.615     19.862
REMARK INTER + INTRA:          -8.053
REMARK INTER:                  -6.530
REMARK INTRA:                  -1.523
REMARK UNBOUND:                -3.668
REMARK SMILES CCCCCCCCCCCCCCCCCCCCCCCCCCCCCC(=O)[O-]
REMARK SMILES IDX 16 1 17 2 18 3 19 4 20 5 21 6 22 7 23 8 24 9 25 10 26 11
REMARK SMILES IDX 27 12 28 13 29 14 30 15 31 16 32 17 15 18 14 19 13 20 12 21
REMARK SMILES IDX 11 22 10 23 9 24 8 25 7 26 6 27 5 28 4 29 3 30 2 31 1 32
REMARK H PARENT
REMARK Flexibility Score: inf
ROOT
ATOM      1  C   UNL     1     -10.974   4.009   5.141  1.00  0.00     0.000 C 
ENDROOT
BRANCH   1   2
ATOM      2  C   UNL     1     -10.637   5.466   4.797  1.00  0.00     0.000 C 
BRANCH   2   3
ATOM      3  C   UNL     1      -9.130   5.731   4.935  1.00  0.00     0.000 C 
BRANCH   3   4
ATOM      4  C   UNL     1      -8.755   7.193   4.639  1.00  0.00     0.000 C 
BRANCH   4   5
ATOM      5  C   UNL     1      -9.126   8.142   5.789  1.00  0.00     0.000 C 
BRANCH   5   6
ATOM      6  C   UNL     1      -8.129   9.307   5.887  1.00  0.00     0.000 C 
BRANCH   6   7
ATOM      7  C   UNL     1      -7.367   9.329   7.225  1.00  0.00     0.000 C 
BRANCH   7   8
ATOM      8  C   UNL     1      -7.045  10.735   7.770  1.00  0.00     0.000 C 
BRANCH   8   9
ATOM      9  C   UNL     1      -6.834  11.820   6.698  1.00  0.00     0.000 C 
BRANCH   9  10
ATOM     10  C   UNL     1      -6.544  11.230   5.307  1.00  0.00     0.000 C 
BRANCH  10  11
ATOM     11  C   UNL     1      -5.086  11.437   4.865  1.00  0.00     0.000 C 
BRANCH  11  12
ATOM     12  C   UNL     1      -4.072  10.989   5.928  1.00  0.00     0.000 C 
BRANCH  12  13
ATOM     13  C   UNL     1      -2.881  11.953   5.995  1.00  0.00     0.006 C 
BRANCH  13  14
ATOM     14  C   UNL     1      -2.099  11.953   4.677  1.00  0.00     0.053 C 
BRANCH  14  15
ATOM     15  C   UNL     1      -0.748  11.334   4.858  1.00  0.00     0.041 C 
ATOM     16  O   UNL     1      -0.640  10.094   5.060  1.00  0.00    -0.550 OA
ATOM     17  O   UNL     1       0.394  12.125   4.825  1.00  0.00    -0.550 OA
ENDBRANCH  14  15
ENDBRANCH  13  14
ENDBRANCH  12  13
ENDBRANCH  11  12
ENDBRANCH  10  11
ENDBRANCH   9  10
ENDBRANCH   8   9
ENDBRANCH   7   8
ENDBRANCH   6   7
ENDBRANCH   5   6
ENDBRANCH   4   5
ENDBRANCH   3   4
ENDBRANCH   2   3
ENDBRANCH   1   2
BRANCH   1  18
ATOM     18  C   UNL     1     -11.787   3.929   6.442  1.00  0.00     0.000 C 
BRANCH  18  19
ATOM     19  C   UNL     1     -12.275   5.304   6.928  1.00  0.00     0.000 C 
BRANCH  19  20
ATOM     20  C   UNL     1     -11.178   6.096   7.660  1.00  0.00     0.000 C 
BRANCH  20  21
ATOM     21  C   UNL     1     -11.690   7.430   8.227  1.00  0.00     0.000 C 
BRANCH  21  22
ATOM     22  C   UNL     1     -11.865   8.506   7.142  1.00  0.00     0.000 C 
BRANCH  22  23
ATOM     23  C   UNL     1     -12.135   9.904   7.724  1.00  0.00     0.000 C 
BRANCH  23  24
ATOM     24  C   UNL     1     -12.579  10.937   6.668  1.00  0.00    -0.000 C 
BRANCH  24  25
ATOM     25  C   UNL     1     -11.889  10.721   5.313  1.00  0.00    -0.000 C 
BRANCH  25  26
ATOM     26  C   UNL     1     -12.914  10.691   4.174  1.00  0.00    -0.000 C 
BRANCH  26  27
ATOM     27  C   UNL     1     -14.341  10.858   4.710  1.00  0.00    -0.000 C 
BRANCH  27  28
ATOM     28  C   UNL     1     -15.093   9.522   4.701  1.00  0.00    -0.000 C 
BRANCH  28  29
ATOM     29  C   UNL     1     -14.141   8.357   4.391  1.00  0.00    -0.000 C 
BRANCH  29  30
ATOM     30  C   UNL     1     -14.788   6.977   4.612  1.00  0.00    -0.000 C 
BRANCH  30  31
ATOM     31  C   UNL     1     -14.150   5.826   3.814  1.00  0.00    -0.003 C 
ATOM     32  C   UNL     1     -13.994   6.141   2.327  1.00  0.00     0.004 C 
ENDBRANCH  30  31
ENDBRANCH  29  30
ENDBRANCH  28  29
ENDBRANCH  27  28
ENDBRANCH  26  27
ENDBRANCH  25  26
ENDBRANCH  24  25
ENDBRANCH  23  24
ENDBRANCH  22  23
ENDBRANCH  21  22
ENDBRANCH  20  21
ENDBRANCH  19  20
ENDBRANCH  18  19
ENDBRANCH   1  18
TORSDOF 28
ENDMDL
MODEL 6
REMARK VINA RESULT:    -1.589     15.295     19.327
REMARK INTER + INTRA:          -7.858
REMARK INTER:                  -6.461
REMARK INTRA:                  -1.397
REMARK UNBOUND:                -3.668
REMARK SMILES CCCCCCCCCCCCCCCCCCCCCCCCCCCCCC(=O)[O-]
REMARK SMILES IDX 16 1 17 2 18 3 19 4 20 5 21 6 22 7 23 8 24 9 25 10 26 11
REMARK SMILES IDX 27 12 28 13 29 14 30 15 31 16 32 17 15 18 14 19 13 20 12 21
REMARK SMILES IDX 11 22 10 23 9 24 8 25 7 26 6 27 5 28 4 29 3 30 2 31 1 32
REMARK H PARENT
REMARK Flexibility Score: inf
ROOT
ATOM      1  C   UNL     1      -8.755   6.109   4.999  1.00  0.00     0.000 C 
ENDROOT
BRANCH   1   2
ATOM      2  C   UNL     1     -10.186   5.557   5.002  1.00  0.00     0.000 C 
BRANCH   2   3
ATOM      3  C   UNL     1     -10.202   4.063   4.645  1.00  0.00     0.000 C 
BRANCH   3   4
ATOM      4  C   UNL     1     -10.928   3.209   5.698  1.00  0.00     0.000 C 
BRANCH   4   5
ATOM      5  C   UNL     1     -11.774   4.054   6.663  1.00  0.00     0.000 C 
BRANCH   5   6
ATOM      6  C   UNL     1     -11.313   3.860   8.116  1.00  0.00     0.000 C 
BRANCH   6   7
ATOM      7  C   UNL     1     -11.837   4.957   9.060  1.00  0.00     0.000 C 
BRANCH   7   8
ATOM      8  C   UNL     1     -11.007   6.257   9.074  1.00  0.00     0.000 C 
BRANCH   8   9
ATOM      9  C   UNL     1     -10.565   6.766   7.690  1.00  0.00     0.000 C 
BRANCH   9  10
ATOM     10  C   UNL     1     -11.518   7.829   7.116  1.00  0.00     0.000 C 
BRANCH  10  11
ATOM     11  C   UNL     1     -12.525   7.245   6.112  1.00  0.00     0.000 C 
BRANCH  11  12
ATOM     12  C   UNL     1     -13.557   8.277   5.634  1.00  0.00     0.000 C 
BRANCH  12  13
ATOM     13  C   UNL     1     -14.618   7.622   4.740  1.00  0.00     0.006 C 
BRANCH  13  14
ATOM     14  C   UNL     1     -14.375   6.115   4.612  1.00  0.00     0.053 C 
BRANCH  14  15
ATOM     15  C   UNL     1     -13.874   5.768   3.244  1.00  0.00     0.041 C 
ATOM     16  O   UNL     1     -12.738   5.242   3.099  1.00  0.00    -0.550 OA
ATOM     17  O   UNL     1     -14.651   6.044   2.125  1.00  0.00    -0.550 OA
ENDBRANCH  14  15
ENDBRANCH  13  14
ENDBRANCH  12  13
ENDBRANCH  11  12
ENDBRANCH  10  11
ENDBRANCH   9  10
ENDBRANCH   8   9
ENDBRANCH   7   8
ENDBRANCH   6   7
ENDBRANCH   5   6
ENDBRANCH   4   5
ENDBRANCH   3   4
ENDBRANCH   2   3
ENDBRANCH   1   2
BRANCH   1  18
ATOM     18  C   UNL     1      -8.761   7.645   5.019  1.00  0.00     0.000 C 
BRANCH  18  19
ATOM     19  C   UNL     1      -8.176   8.229   6.315  1.00  0.00     0.000 C 
BRANCH  19  20
ATOM     20  C   UNL     1      -6.745   8.764   6.129  1.00  0.00     0.000 C 
BRANCH  20  21
ATOM     21  C   UNL     1      -6.683  10.300   6.139  1.00  0.00     0.000 C 
BRANCH  21  22
ATOM     22  C   UNL     1      -7.537  10.920   7.258  1.00  0.00     0.000 C 
BRANCH  22  23
ATOM     23  C   UNL     1      -8.623  11.869   6.724  1.00  0.00     0.000 C 
BRANCH  23  24
ATOM     24  C   UNL     1      -9.097  11.525   5.297  1.00  0.00    -0.000 C 
BRANCH  24  25
ATOM     25  C   UNL     1     -10.475  12.124   4.978  1.00  0.00    -0.000 C 
BRANCH  25  26
ATOM     26  C   UNL     1     -11.591  11.331   5.667  1.00  0.00    -0.000 C 
BRANCH  26  27
ATOM     27  C   UNL     1     -12.903  12.124   5.685  1.00  0.00    -0.000 C 
BRANCH  27  28
ATOM     28  C   UNL     1     -14.100  11.216   5.377  1.00  0.00    -0.000 C 
BRANCH  28  29
ATOM     29  C   UNL     1     -14.614  11.448   3.948  1.00  0.00    -0.000 C 
BRANCH  29  30
ATOM     30  C   UNL     1     -13.528  11.988   3.000  1.00  0.00    -0.000 C 
BRANCH  30  31
ATOM     31  C   UNL     1     -13.300  11.149   1.730  1.00  0.00    -0.003 C 
ATOM     32  C   UNL     1     -12.001  11.500   1.005  1.00  0.00     0.004 C 
ENDBRANCH  30  31
ENDBRANCH  29  30
ENDBRANCH  28  29
ENDBRANCH  27  28
ENDBRANCH  26  27
ENDBRANCH  25  26
ENDBRANCH  24  25
ENDBRANCH  23  24
ENDBRANCH  22  23
ENDBRANCH  21  22
ENDBRANCH  20  21
ENDBRANCH  19  20
ENDBRANCH  18  19
ENDBRANCH   1  18
TORSDOF 28
ENDMDL
MODEL 7
REMARK VINA RESULT:    -1.409     15.987     20.196
REMARK INTER + INTRA:          -7.385
REMARK INTER:                  -6.737
REMARK INTRA:                  -0.648
REMARK UNBOUND:                -3.668
REMARK SMILES CCCCCCCCCCCCCCCCCCCCCCCCCCCCCC(=O)[O-]
REMARK SMILES IDX 16 1 17 2 18 3 19 4 20 5 21 6 22 7 23 8 24 9 25 10 26 11
REMARK SMILES IDX 27 12 28 13 29 14 30 15 31 16 32 17 15 18 14 19 13 20 12 21
REMARK SMILES IDX 11 22 10 23 9 24 8 25 7 26 6 27 5 28 4 29 3 30 2 31 1 32
REMARK H PARENT
REMARK Flexibility Score: inf
ROOT
ATOM      1  C   UNL     1      -5.370  12.109   6.600  1.00  0.00     0.000 C 
ENDROOT
BRANCH   1   2
ATOM      2  C   UNL     1      -5.273  11.052   5.492  1.00  0.00     0.000 C 
BRANCH   2   3
ATOM      3  C   UNL     1      -5.736   9.678   5.997  1.00  0.00     0.000 C 
BRANCH   3   4
ATOM      4  C   UNL     1      -7.007   9.181   5.287  1.00  0.00     0.000 C 
BRANCH   4   5
ATOM      5  C   UNL     1      -7.675   8.010   6.023  1.00  0.00     0.000 C 
BRANCH   5   6
ATOM      6  C   UNL     1      -9.104   7.778   5.509  1.00  0.00     0.000 C 
BRANCH   6   7
ATOM      7  C   UNL     1      -9.411   6.291   5.251  1.00  0.00     0.000 C 
BRANCH   7   8
ATOM      8  C   UNL     1      -9.179   5.357   6.456  1.00  0.00     0.000 C 
BRANCH   8   9
ATOM      9  C   UNL     1      -9.728   5.872   7.798  1.00  0.00     0.000 C 
BRANCH   9  10
ATOM     10  C   UNL     1     -11.198   6.317   7.707  1.00  0.00     0.000 C 
BRANCH  10  11
ATOM     11  C   UNL     1     -12.185   5.169   7.973  1.00  0.00     0.000 C 
BRANCH  11  12
ATOM     12  C   UNL     1     -13.199   4.978   6.836  1.00  0.00     0.000 C 
BRANCH  12  13
ATOM     13  C   UNL     1     -12.487   4.731   5.500  1.00  0.00     0.006 C 
BRANCH  13  14
ATOM     14  C   UNL     1     -13.252   5.379   4.340  1.00  0.00     0.053 C 
BRANCH  14  15
ATOM     15  C   UNL     1     -13.618   6.794   4.666  1.00  0.00     0.041 C 
ATOM     16  O   UNL     1     -12.719   7.633   4.943  1.00  0.00    -0.550 OA
ATOM     17  O   UNL     1     -14.951   7.185   4.684  1.00  0.00    -0.550 OA
ENDBRANCH  14  15
ENDBRANCH  13  14
ENDBRANCH  12  13
ENDBRANCH  11  12
ENDBRANCH  10  11
ENDBRANCH   9  10
ENDBRANCH   8   9
ENDBRANCH   7   8
ENDBRANCH   6   7
ENDBRANCH   5   6
ENDBRANCH   4   5
ENDBRANCH   3   4
ENDBRANCH   2   3
ENDBRANCH   1   2
BRANCH   1  18
ATOM     18  C   UNL     1      -5.742  11.460   7.942  1.00  0.00     0.000 C 
BRANCH  18  19
ATOM     19  C   UNL     1      -7.245  11.162   8.067  1.00  0.00     0.000 C 
BRANCH  19  20
ATOM     20  C   UNL     1      -8.109  12.125   7.234  1.00  0.00     0.000 C 
BRANCH  20  21
ATOM     21  C   UNL     1      -8.687  11.460   5.974  1.00  0.00     0.000 C 
BRANCH  21  22
ATOM     22  C   UNL     1     -10.222  11.553   5.907  1.00  0.00     0.000 C 
BRANCH  22  23
ATOM     23  C   UNL     1     -10.866  11.799   7.282  1.00  0.00     0.000 C 
BRANCH  23  24
ATOM     24  C   UNL     1     -12.372  12.125   7.209  1.00  0.00    -0.000 C 
BRANCH  24  25
ATOM     25  C   UNL     1     -13.249  10.883   7.424  1.00  0.00    -0.000 C 
BRANCH  25  26
ATOM     26  C   UNL     1     -13.992  10.507   6.137  1.00  0.00    -0.000 C 
BRANCH  26  27
ATOM     27  C   UNL     1     -14.233  11.740   5.257  1.00  0.00    -0.000 C 
BRANCH  27  28
ATOM     28  C   UNL     1     -12.987  12.077   4.428  1.00  0.00    -0.000 C 
BRANCH  28  29
ATOM     29  C   UNL     1     -13.319  12.120   2.929  1.00  0.00    -0.000 C 
BRANCH  29  30
ATOM     30  C   UNL     1     -12.075  11.970   2.035  1.00  0.00    -0.000 C 
BRANCH  30  31
ATOM     31  C   UNL     1     -12.255  11.040   0.823  1.00  0.00    -0.003 C 
ATOM     32  C   UNL     1     -11.310  11.369  -0.333  1.00  0.00     0.004 C 
ENDBRANCH  30  31
ENDBRANCH  29  30
ENDBRANCH  28  29
ENDBRANCH  27  28
ENDBRANCH  26  27
ENDBRANCH  25  26
ENDBRANCH  24  25
ENDBRANCH  23  24
ENDBRANCH  22  23
ENDBRANCH  21  22
ENDBRANCH  20  21
ENDBRANCH  19  20
ENDBRANCH  18  19
ENDBRANCH   1  18
TORSDOF 28
ENDMDL
