MODEL 1
REMARK VINA RESULT:    80.026      0.000      0.000
REMARK INTER + INTRA:         113.077
REMARK INTER:                 112.775
REMARK INTRA:                   0.302
REMARK UNBOUND:                 0.302
REMARK SMILES O=c1cc(-c2ccc(O)c(O)c2)oc2cc(O)c([C@H]3O[C@H](CO)[C@H](O)[C@H](O)[C@H]3O)c(O)c12
REMARK SMILES IDX 4 1 3 2 2 3 1 4 32 5 14 6 13 7 15 8 16 9 18 10 30 11 5 12
REMARK SMILES IDX 6 13 7 14 8 15 12 16 10 17 9 18 11 20 31 22 17 24 19 26
REMARK SMILES IDX 28 27 20 28 26 29 21 30 24 31 29 32 27 34 22 36 23 37 25 39
REMARK H PARENT 9 19 11 21 31 23 17 25 29 33 27 35 23 38 25 40
REMARK Flexibility Score: inf
ROOT
ATOM      1  C   UNL     1       7.333   0.051   0.891  1.00  0.00     0.138 A 
ATOM      2  C   UNL     1       7.173  -0.374  -0.436  1.00  0.00     0.100 A 
ATOM      3  C   UNL     1       5.902  -0.709  -0.901  1.00  0.00     0.197 A 
ATOM      4  O   UNL     1       5.774  -1.094  -2.095  1.00  0.00    -0.289 OA
ATOM      5  C   UNL     1       4.792  -0.623  -0.031  1.00  0.00     0.107 A 
ATOM      6  C   UNL     1       5.039  -0.194   1.292  1.00  0.00     0.146 A 
ATOM      7  O   UNL     1       6.270   0.116   1.688  1.00  0.00    -0.456 OA
ATOM      8  C   UNL     1       3.990  -0.078   2.198  1.00  0.00     0.094 A 
ATOM      9  C   UNL     1       2.684  -0.405   1.828  1.00  0.00     0.128 A 
ATOM     10  C   UNL     1       2.407  -0.884   0.523  1.00  0.00     0.068 A 
ATOM     11  C   UNL     1       3.468  -0.936  -0.428  1.00  0.00     0.140 A 
ENDROOT
BRANCH   1  12
ATOM     12  C   UNL     1       8.661   0.420   1.442  1.00  0.00     0.021 A 
ATOM     13  C   UNL     1       8.881   0.340   2.828  1.00  0.00     0.016 A 
ATOM     14  C   UNL     1      10.119   0.687   3.373  1.00  0.00     0.051 A 
ATOM     15  C   UNL     1      11.158   1.131   2.544  1.00  0.00     0.157 A 
ATOM     16  C   UNL     1       9.706   0.879   0.616  1.00  0.00     0.062 A 
ATOM     17  C   UNL     1      10.946   1.230   1.159  1.00  0.00     0.158 A 
BRANCH  15  18
ATOM     18  O   UNL     1      12.392   1.476   3.091  1.00  0.00    -0.504 OA
ATOM     19  H   UNL     1      13.192   1.686   2.506  1.00  0.00     0.293 HD
ENDBRANCH  15  18
BRANCH  17  20
ATOM     20  O   UNL     1      11.956   1.679   0.309  1.00  0.00    -0.504 OA
ATOM     21  H   UNL     1      11.967   2.619  -0.066  1.00  0.00     0.293 HD
ENDBRANCH  17  20
ENDBRANCH   1  12
BRANCH  11  22
ATOM     22  O   UNL     1       3.232  -1.275  -1.766  1.00  0.00    -0.506 OA
ATOM     23  H   UNL     1       3.046  -2.210  -2.100  1.00  0.00     0.293 HD
ENDBRANCH  11  22
BRANCH   9  24
ATOM     24  O   UNL     1       1.661  -0.244   2.763  1.00  0.00    -0.507 OA
ATOM     25  H   UNL     1       1.051   0.566   2.756  1.00  0.00     0.293 HD
ENDBRANCH   9  24
BRANCH  10  26
ATOM     26  C   UNL     1       0.986  -1.294   0.137  1.00  0.00     0.188 C 
ATOM     27  C   UNL     1       0.150  -1.562   1.405  1.00  0.00     0.179 C 
ATOM     28  O   UNL     1       1.011  -2.433  -0.709  1.00  0.00    -0.362 OA
ATOM     29  C   UNL     1      -1.300  -1.880   1.007  1.00  0.00     0.177 C 
ATOM     30  C   UNL     1      -0.276  -2.806  -1.187  1.00  0.00     0.176 C 
ATOM     31  C   UNL     1      -1.331  -2.996  -0.058  1.00  0.00     0.177 C 
BRANCH  27  32
ATOM     32  O   UNL     1       0.699  -2.641   2.119  1.00  0.00    -0.387 OA
ATOM     33  H   UNL     1       0.540  -3.457   1.576  1.00  0.00     0.211 HD
ENDBRANCH  27  32
BRANCH  29  34
ATOM     34  O   UNL     1      -1.943  -0.726   0.532  1.00  0.00    -0.387 OA
ATOM     35  H   UNL     1      -2.078  -0.127   1.312  1.00  0.00     0.211 HD
ENDBRANCH  29  34
BRANCH  30  36
ATOM     36  C   UNL     1      -0.721  -1.967  -2.408  1.00  0.00     0.191 C 
BRANCH  36  37
ATOM     37  O   UNL     1      -1.989  -1.404  -2.230  1.00  0.00    -0.394 OA
ATOM     38  H   UNL     1      -2.377  -1.844  -1.431  1.00  0.00     0.210 HD
ENDBRANCH  36  37
ENDBRANCH  30  36
BRANCH  31  39
ATOM     39  O   UNL     1      -2.618  -3.122  -0.607  1.00  0.00    -0.388 OA
ATOM     40  H   UNL     1      -2.659  -4.012  -1.045  1.00  0.00     0.211 HD
ENDBRANCH  31  39
ENDBRANCH  10  26
TORSDOF 11
ENDMDL
MODEL 2
REMARK VINA RESULT:    80.860     13.056     16.162
REMARK INTER + INTRA:         114.252
REMARK INTER:                 115.021
REMARK INTRA:                  -0.769
REMARK UNBOUND:                 0.302
REMARK SMILES O=c1cc(-c2ccc(O)c(O)c2)oc2cc(O)c([C@H]3O[C@H](CO)[C@H](O)[C@H](O)[C@H]3O)c(O)c12
REMARK SMILES IDX 4 1 3 2 2 3 1 4 32 5 14 6 13 7 15 8 16 9 18 10 30 11 5 12
REMARK SMILES IDX 6 13 7 14 8 15 12 16 10 17 9 18 11 20 31 22 17 24 19 26
REMARK SMILES IDX 28 27 20 28 26 29 21 30 24 31 29 32 27 34 22 36 23 37 25 39
REMARK H PARENT 9 19 11 21 31 23 17 25 29 33 27 35 23 38 25 40
REMARK Flexibility Score: inf
ROOT
ATOM      1  C   UNL     1      -1.633  12.342   4.042  1.00  0.00     0.138 A 
ATOM      2  C   UNL     1      -0.977  13.405   4.681  1.00  0.00     0.100 A 
ATOM      3  C   UNL     1      -0.120  13.139   5.750  1.00  0.00     0.197 A 
ATOM      4  O   UNL     1       0.459  14.105   6.317  1.00  0.00    -0.289 OA
ATOM      5  C   UNL     1       0.071  11.807   6.181  1.00  0.00     0.107 A 
ATOM      6  C   UNL     1      -0.633  10.796   5.489  1.00  0.00     0.146 A 
ATOM      7  O   UNL     1      -1.437  11.099   4.475  1.00  0.00    -0.456 OA
ATOM      8  C   UNL     1      -0.482   9.464   5.856  1.00  0.00     0.094 A 
ATOM      9  C   UNL     1       0.342   9.102   6.923  1.00  0.00     0.128 A 
ATOM     10  C   UNL     1       1.026  10.094   7.669  1.00  0.00     0.068 A 
ATOM     11  C   UNL     1       0.930  11.454   7.251  1.00  0.00     0.140 A 
ENDROOT
BRANCH   1  12
ATOM     12  C   UNL     1      -2.556  12.563   2.900  1.00  0.00     0.021 A 
ATOM     13  C   UNL     1      -2.548  11.662   1.821  1.00  0.00     0.016 A 
ATOM     14  C   UNL     1      -3.402  11.850   0.733  1.00  0.00     0.051 A 
ATOM     15  C   UNL     1      -4.272  12.947   0.696  1.00  0.00     0.157 A 
ATOM     16  C   UNL     1      -3.424  13.671   2.852  1.00  0.00     0.062 A 
ATOM     17  C   UNL     1      -4.278  13.864   1.761  1.00  0.00     0.158 A 
BRANCH  15  18
ATOM     18  O   UNL     1      -5.123  13.132  -0.392  1.00  0.00    -0.504 OA
ATOM     19  H   UNL     1      -4.769  13.393  -1.304  1.00  0.00     0.293 HD
ENDBRANCH  15  18
BRANCH  17  20
ATOM     20  O   UNL     1      -5.124  14.972   1.750  1.00  0.00    -0.504 OA
ATOM     21  H   UNL     1      -5.959  15.007   1.178  1.00  0.00     0.293 HD
ENDBRANCH  17  20
ENDBRANCH   1  12
BRANCH  11  22
ATOM     22  O   UNL     1       1.685  12.461   7.865  1.00  0.00    -0.506 OA
ATOM     23  H   UNL     1       2.385  13.021   7.400  1.00  0.00     0.293 HD
ENDBRANCH  11  22
BRANCH   9  24
ATOM     24  O   UNL     1       0.483   7.749   7.234  1.00  0.00    -0.507 OA
ATOM     25  H   UNL     1       1.208   7.416   7.860  1.00  0.00     0.293 HD
ENDBRANCH   9  24
BRANCH  10  26
ATOM     26  C   UNL     1       1.884   9.701   8.871  1.00  0.00     0.188 C 
ATOM     27  C   UNL     1       3.378   9.763   8.497  1.00  0.00     0.179 C 
ATOM     28  O   UNL     1       1.526   8.408   9.335  1.00  0.00    -0.362 OA
ATOM     29  C   UNL     1       4.232   9.459   9.738  1.00  0.00     0.177 C 
ATOM     30  C   UNL     1       2.219   8.023  10.516  1.00  0.00     0.176 C 
ATOM     31  C   UNL     1       3.767   8.146  10.400  1.00  0.00     0.177 C 
BRANCH  27  32
ATOM     32  O   UNL     1       3.655   8.829   7.484  1.00  0.00    -0.387 OA
ATOM     33  H   UNL     1       2.883   8.207   7.446  1.00  0.00     0.211 HD
ENDBRANCH  27  32
BRANCH  29  34
ATOM     34  O   UNL     1       4.167  10.522  10.652  1.00  0.00    -0.387 OA
ATOM     35  H   UNL     1       5.035  11.002  10.602  1.00  0.00     0.211 HD
ENDBRANCH  29  34
BRANCH  30  36
ATOM     36  C   UNL     1       1.578   8.607  11.796  1.00  0.00     0.191 C 
BRANCH  36  37
ATOM     37  O   UNL     1       1.628   7.712  12.870  1.00  0.00    -0.394 OA
ATOM     38  H   UNL     1       1.211   6.871  12.548  1.00  0.00     0.210 HD
ENDBRANCH  36  37
ENDBRANCH  30  36
BRANCH  31  39
ATOM     39  O   UNL     1       4.366   7.986  11.661  1.00  0.00    -0.388 OA
ATOM     40  H   UNL     1       4.376   8.881  12.091  1.00  0.00     0.211 HD
ENDBRANCH  31  39
ENDBRANCH  10  26
TORSDOF 11
ENDMDL
MODEL 3
REMARK VINA RESULT:    81.046      1.878      2.461
REMARK INTER + INTRA:         114.514
REMARK INTER:                 114.662
REMARK INTRA:                  -0.148
REMARK UNBOUND:                 0.302
REMARK SMILES O=c1cc(-c2ccc(O)c(O)c2)oc2cc(O)c([C@H]3O[C@H](CO)[C@H](O)[C@H](O)[C@H]3O)c(O)c12
REMARK SMILES IDX 4 1 3 2 2 3 1 4 32 5 14 6 13 7 15 8 16 9 18 10 30 11 5 12
REMARK SMILES IDX 6 13 7 14 8 15 12 16 10 17 9 18 11 20 31 22 17 24 19 26
REMARK SMILES IDX 28 27 20 28 26 29 21 30 24 31 29 32 27 34 22 36 23 37 25 39
REMARK H PARENT 9 19 11 21 31 23 17 25 29 33 27 35 23 38 25 40
REMARK Flexibility Score: inf
ROOT
ATOM      1  C   UNL     1       6.518  -0.834   2.639  1.00  0.00     0.138 A 
ATOM      2  C   UNL     1       6.752  -1.318   1.343  1.00  0.00     0.100 A 
ATOM      3  C   UNL     1       5.671  -1.551   0.492  1.00  0.00     0.197 A 
ATOM      4  O   UNL     1       5.896  -1.990  -0.668  1.00  0.00    -0.289 OA
ATOM      5  C   UNL     1       4.355  -1.304   0.946  1.00  0.00     0.107 A 
ATOM      6  C   UNL     1       4.206  -0.825   2.267  1.00  0.00     0.146 A 
ATOM      7  O   UNL     1       5.268  -0.617   3.039  1.00  0.00    -0.456 OA
ATOM      8  C   UNL     1       2.941  -0.552   2.773  1.00  0.00     0.094 A 
ATOM      9  C   UNL     1       1.797  -0.769   2.001  1.00  0.00     0.128 A 
ATOM     10  C   UNL     1       1.907  -1.293   0.689  1.00  0.00     0.068 A 
ATOM     11  C   UNL     1       3.206  -1.506   0.142  1.00  0.00     0.140 A 
ENDROOT
BRANCH   1  12
ATOM     12  C   UNL     1       7.628  -0.568   3.589  1.00  0.00     0.021 A 
ATOM     13  C   UNL     1       8.712   0.227   3.180  1.00  0.00     0.016 A 
ATOM     14  C   UNL     1       9.772   0.486   4.052  1.00  0.00     0.051 A 
ATOM     15  C   UNL     1       9.773  -0.052   5.345  1.00  0.00     0.157 A 
ATOM     16  C   UNL     1       7.641  -1.118   4.886  1.00  0.00     0.062 A 
ATOM     17  C   UNL     1       8.702  -0.861   5.760  1.00  0.00     0.158 A 
BRANCH  15  18
ATOM     18  O   UNL     1      10.832   0.210   6.213  1.00  0.00    -0.504 OA
ATOM     19  H   UNL     1      10.808   0.990   6.859  1.00  0.00     0.293 HD
ENDBRANCH  15  18
BRANCH  17  20
ATOM     20  O   UNL     1       8.679  -1.421   7.037  1.00  0.00    -0.504 OA
ATOM     21  H   UNL     1       8.988  -0.911   7.855  1.00  0.00     0.293 HD
ENDBRANCH  17  20
ENDBRANCH   1  12
BRANCH  11  22
ATOM     22  O   UNL     1       3.381  -1.897  -1.191  1.00  0.00    -0.506 OA
ATOM     23  H   UNL     1       3.317  -2.847  -1.526  1.00  0.00     0.293 HD
ENDBRANCH  11  22
BRANCH   9  24
ATOM     24  O   UNL     1       0.551  -0.452   2.543  1.00  0.00    -0.507 OA
ATOM     25  H   UNL     1       0.424  -0.288   3.535  1.00  0.00     0.293 HD
ENDBRANCH   9  24
BRANCH  10  26
ATOM     26  C   UNL     1       0.652  -1.581  -0.134  1.00  0.00     0.188 C 
ATOM     27  C   UNL     1      -0.521  -1.944   0.798  1.00  0.00     0.179 C 
ATOM     28  O   UNL     1       0.901  -2.618  -1.071  1.00  0.00    -0.362 OA
ATOM     29  C   UNL     1      -1.798  -2.138  -0.034  1.00  0.00     0.177 C 
ATOM     30  C   UNL     1      -0.199  -2.866  -1.939  1.00  0.00     0.176 C 
ATOM     31  C   UNL     1      -1.540  -3.124  -1.191  1.00  0.00     0.177 C 
BRANCH  27  32
ATOM     32  O   UNL     1      -0.224  -3.124   1.502  1.00  0.00    -0.387 OA
ATOM     33  H   UNL     1       0.763  -3.229   1.484  1.00  0.00     0.211 HD
ENDBRANCH  27  32
BRANCH  29  34
ATOM     34  O   UNL     1      -2.255  -0.905  -0.528  1.00  0.00    -0.387 OA
ATOM     35  H   UNL     1      -3.232  -0.995  -0.676  1.00  0.00     0.211 HD
ENDBRANCH  29  34
BRANCH  30  36
ATOM     36  C   UNL     1      -0.254  -1.874  -3.124  1.00  0.00     0.191 C 
BRANCH  36  37
ATOM     37  O   UNL     1      -1.336  -0.992  -3.027  1.00  0.00    -0.394 OA
ATOM     38  H   UNL     1      -1.794  -1.210  -2.175  1.00  0.00     0.210 HD
ENDBRANCH  36  37
ENDBRANCH  30  36
BRANCH  31  39
ATOM     39  O   UNL     1      -2.614  -3.119  -2.097  1.00  0.00    -0.388 OA
ATOM     40  H   UNL     1      -2.867  -2.169  -2.239  1.00  0.00     0.211 HD
ENDBRANCH  31  39
ENDBRANCH  10  26
TORSDOF 11
ENDMDL
MODEL 4
REMARK VINA RESULT:    83.025      7.082     10.202
REMARK INTER + INTRA:         117.302
REMARK INTER:                 118.115
REMARK INTRA:                  -0.813
REMARK UNBOUND:                 0.302
REMARK SMILES O=c1cc(-c2ccc(O)c(O)c2)oc2cc(O)c([C@H]3O[C@H](CO)[C@H](O)[C@H](O)[C@H]3O)c(O)c12
REMARK SMILES IDX 4 1 3 2 2 3 1 4 32 5 14 6 13 7 15 8 16 9 18 10 30 11 5 12
REMARK SMILES IDX 6 13 7 14 8 15 12 16 10 17 9 18 11 20 31 22 17 24 19 26
REMARK SMILES IDX 28 27 20 28 26 29 21 30 24 31 29 32 27 34 22 36 23 37 25 39
REMARK H PARENT 9 19 11 21 31 23 17 25 29 33 27 35 23 38 25 40
REMARK Flexibility Score: inf
ROOT
ATOM      1  C   UNL     1      -2.729   6.597  -0.549  1.00  0.00     0.138 A 
ATOM      2  C   UNL     1      -1.871   6.314  -1.622  1.00  0.00     0.100 A 
ATOM      3  C   UNL     1      -1.341   5.031  -1.756  1.00  0.00     0.197 A 
ATOM      4  O   UNL     1      -0.567   4.792  -2.722  1.00  0.00    -0.289 OA
ATOM      5  C   UNL     1      -1.670   4.034  -0.810  1.00  0.00     0.107 A 
ATOM      6  C   UNL     1      -2.535   4.403   0.244  1.00  0.00     0.146 A 
ATOM      7  O   UNL     1      -3.015   5.639   0.329  1.00  0.00    -0.456 OA
ATOM      8  C   UNL     1      -2.906   3.468   1.204  1.00  0.00     0.094 A 
ATOM      9  C   UNL     1      -2.415   2.161   1.161  1.00  0.00     0.128 A 
ATOM     10  C   UNL     1      -1.508   1.770   0.145  1.00  0.00     0.068 A 
ATOM     11  C   UNL     1      -1.181   2.705  -0.882  1.00  0.00     0.140 A 
ENDROOT
BRANCH   1  12
ATOM     12  C   UNL     1      -3.323   7.944  -0.354  1.00  0.00     0.021 A 
ATOM     13  C   UNL     1      -4.521   8.074   0.369  1.00  0.00     0.016 A 
ATOM     14  C   UNL     1      -5.103   9.328   0.562  1.00  0.00     0.051 A 
ATOM     15  C   UNL     1      -4.504  10.476   0.028  1.00  0.00     0.157 A 
ATOM     16  C   UNL     1      -2.732   9.101  -0.900  1.00  0.00     0.062 A 
ATOM     17  C   UNL     1      -3.314  10.359  -0.710  1.00  0.00     0.158 A 
BRANCH  15  18
ATOM     18  O   UNL     1      -5.087  11.727   0.223  1.00  0.00    -0.504 OA
ATOM     19  H   UNL     1      -4.636  12.578  -0.092  1.00  0.00     0.293 HD
ENDBRANCH  15  18
BRANCH  17  20
ATOM     20  O   UNL     1      -2.699  11.481  -1.264  1.00  0.00    -0.504 OA
ATOM     21  H   UNL     1      -2.507  11.556  -2.256  1.00  0.00     0.293 HD
ENDBRANCH  17  20
ENDBRANCH   1  12
BRANCH  11  22
ATOM     22  O   UNL     1      -0.397   2.337  -1.981  1.00  0.00    -0.506 OA
ATOM     23  H   UNL     1       0.060   1.443  -2.090  1.00  0.00     0.293 HD
ENDBRANCH  11  22
BRANCH   9  24
ATOM     24  O   UNL     1      -2.840   1.251   2.130  1.00  0.00    -0.507 OA
ATOM     25  H   UNL     1      -2.359   0.374   2.287  1.00  0.00     0.293 HD
ENDBRANCH   9  24
BRANCH  10  26
ATOM     26  C   UNL     1      -0.929   0.356   0.130  1.00  0.00     0.188 C 
ATOM     27  C   UNL     1       0.423   0.330   0.872  1.00  0.00     0.179 C 
ATOM     28  O   UNL     1      -0.789  -0.109  -1.204  1.00  0.00    -0.362 OA
ATOM     29  C   UNL     1       0.948  -1.113   0.933  1.00  0.00     0.177 C 
ATOM     30  C   UNL     1      -0.349  -1.459  -1.285  1.00  0.00     0.176 C 
ATOM     31  C   UNL     1       0.951  -1.742  -0.475  1.00  0.00     0.177 C 
BRANCH  27  32
ATOM     32  O   UNL     1       1.349   1.150   0.204  1.00  0.00    -0.387 OA
ATOM     33  H   UNL     1       2.253   0.837   0.468  1.00  0.00     0.211 HD
ENDBRANCH  27  32
BRANCH  29  34
ATOM     34  O   UNL     1       0.173  -1.882   1.815  1.00  0.00    -0.387 OA
ATOM     35  H   UNL     1       0.065  -1.349   2.647  1.00  0.00     0.211 HD
ENDBRANCH  29  34
BRANCH  30  36
ATOM     36  C   UNL     1      -1.504  -2.471  -1.103  1.00  0.00     0.191 C 
BRANCH  36  37
ATOM     37  O   UNL     1      -2.264  -2.209   0.042  1.00  0.00    -0.394 OA
ATOM     38  H   UNL     1      -3.207  -2.151  -0.260  1.00  0.00     0.210 HD
ENDBRANCH  36  37
ENDBRANCH  30  36
BRANCH  31  39
ATOM     39  O   UNL     1       1.190  -3.125  -0.401  1.00  0.00    -0.388 OA
ATOM     40  H   UNL     1       0.379  -3.577  -0.754  1.00  0.00     0.211 HD
ENDBRANCH  31  39
ENDBRANCH  10  26
TORSDOF 11
ENDMDL
