MODEL 1
REMARK VINA RESULT:    -9.425      0.000      0.000
REMARK INTER + INTRA:         -11.275
REMARK INTER:                 -11.353
REMARK INTRA:                   0.079
REMARK UNBOUND:                 0.079
REMARK SMILES O=c1c(O)c(-c2ccc(O)c(O)c2)oc2cc(O)cc(O)c12
REMARK SMILES IDX 5 1 3 2 2 3 1 4 22 5 20 6 19 7 17 8 16 9 15 10 14 11 6 12
REMARK SMILES IDX 7 13 8 14 9 15 13 16 11 17 10 18 12 20 4 22 21 24 18 26
REMARK H PARENT 10 19 12 21 4 23 21 25 18 27
REMARK Flexibility Score: inf
ROOT
ATOM      1  C   UNL     1      -1.628  45.146   2.617  1.00  0.00     0.180 A 
ATOM      2  C   UNL     1      -2.628  45.177   1.629  1.00  0.00     0.208 A 
ATOM      3  C   UNL     1      -2.258  45.051   0.281  1.00  0.00     0.238 A 
ATOM      4  O   UNL     1      -3.163  45.023  -0.593  1.00  0.00    -0.285 OA
ATOM      5  C   UNL     1      -0.892  44.913  -0.065  1.00  0.00     0.111 A 
ATOM      6  C   UNL     1      -0.399  44.818  -1.401  1.00  0.00     0.134 A 
ATOM      7  C   UNL     1       0.957  44.552  -1.620  1.00  0.00     0.093 A 
ATOM      8  C   UNL     1       1.851  44.444  -0.555  1.00  0.00     0.123 A 
ATOM      9  C   UNL     1       1.390  44.594   0.753  1.00  0.00     0.094 A 
ATOM     10  C   UNL     1       0.036  44.823   1.005  1.00  0.00     0.146 A 
ATOM     11  O   UNL     1      -0.362  44.950   2.265  1.00  0.00    -0.452 OA
ENDROOT
BRANCH   1  12
ATOM     12  C   UNL     1      -1.938  45.298   4.057  1.00  0.00     0.025 A 
ATOM     13  C   UNL     1      -2.965  44.531   4.626  1.00  0.00     0.016 A 
ATOM     14  C   UNL     1      -3.260  44.644   5.986  1.00  0.00     0.051 A 
ATOM     15  C   UNL     1      -2.530  45.511   6.806  1.00  0.00     0.157 A 
ATOM     16  C   UNL     1      -1.187  46.152   4.882  1.00  0.00     0.062 A 
ATOM     17  C   UNL     1      -1.474  46.271   6.248  1.00  0.00     0.158 A 
BRANCH  15  18
ATOM     18  O   UNL     1      -2.880  45.583   8.155  1.00  0.00    -0.504 OA
ATOM     19  H   UNL     1      -3.439  44.891   8.632  1.00  0.00     0.293 HD
ENDBRANCH  15  18
BRANCH  17  20
ATOM     20  O   UNL     1      -0.689  47.141   7.007  1.00  0.00    -0.504 OA
ATOM     21  H   UNL     1      -0.842  48.137   7.062  1.00  0.00     0.293 HD
ENDBRANCH  17  20
ENDBRANCH   1  12
BRANCH   2  22
ATOM     22  O   UNL     1      -3.973  45.292   1.995  1.00  0.00    -0.502 OA
ATOM     23  H   UNL     1      -4.474  46.171   1.952  1.00  0.00     0.293 HD
ENDBRANCH   2  22
BRANCH   6  24
ATOM     24  O   UNL     1      -1.192  45.002  -2.539  1.00  0.00    -0.507 OA
ATOM     25  H   UNL     1      -2.076  44.547  -2.703  1.00  0.00     0.293 HD
ENDBRANCH   6  24
BRANCH   8  26
ATOM     26  O   UNL     1       3.198  44.196  -0.811  1.00  0.00    -0.508 OA
ATOM     27  H   UNL     1       3.852  44.002  -0.062  1.00  0.00     0.293 HD
ENDBRANCH   8  26
TORSDOF 6
ENDMDL
MODEL 2
REMARK VINA RESULT:    -9.347      1.429      2.550
REMARK INTER + INTRA:         -11.180
REMARK INTER:                 -10.979
REMARK INTRA:                  -0.201
REMARK UNBOUND:                 0.079
REMARK SMILES O=c1c(O)c(-c2ccc(O)c(O)c2)oc2cc(O)cc(O)c12
REMARK SMILES IDX 5 1 3 2 2 3 1 4 22 5 20 6 19 7 17 8 16 9 15 10 14 11 6 12
REMARK SMILES IDX 7 13 8 14 9 15 13 16 11 17 10 18 12 20 4 22 21 24 18 26
REMARK H PARENT 10 19 12 21 4 23 21 25 18 27
REMARK Flexibility Score: inf
ROOT
ATOM      1  C   UNL     1      -0.628  44.965   0.896  1.00  0.00     0.180 A 
ATOM      2  C   UNL     1      -1.424  45.221  -0.235  1.00  0.00     0.208 A 
ATOM      3  C   UNL     1      -0.837  45.157  -1.509  1.00  0.00     0.238 A 
ATOM      4  O   UNL     1      -1.567  45.332  -2.519  1.00  0.00    -0.285 OA
ATOM      5  C   UNL     1       0.541  44.856  -1.636  1.00  0.00     0.111 A 
ATOM      6  C   UNL     1       1.248  44.804  -2.874  1.00  0.00     0.134 A 
ATOM      7  C   UNL     1       2.578  44.368  -2.892  1.00  0.00     0.093 A 
ATOM      8  C   UNL     1       3.246  44.044  -1.712  1.00  0.00     0.123 A 
ATOM      9  C   UNL     1       2.582  44.148  -0.490  1.00  0.00     0.094 A 
ATOM     10  C   UNL     1       1.243  44.545  -0.443  1.00  0.00     0.146 A 
ATOM     11  O   UNL     1       0.645  44.621   0.740  1.00  0.00    -0.452 OA
ENDROOT
BRANCH   1  12
ATOM     12  C   UNL     1      -1.169  45.038   2.272  1.00  0.00     0.025 A 
ATOM     13  C   UNL     1      -0.788  46.098   3.108  1.00  0.00     0.016 A 
ATOM     14  C   UNL     1      -1.301  46.197   4.402  1.00  0.00     0.051 A 
ATOM     15  C   UNL     1      -2.215  45.252   4.883  1.00  0.00     0.157 A 
ATOM     16  C   UNL     1      -2.104  44.101   2.744  1.00  0.00     0.062 A 
ATOM     17  C   UNL     1      -2.627  44.193   4.039  1.00  0.00     0.158 A 
BRANCH  15  18
ATOM     18  O   UNL     1      -2.685  45.404   6.189  1.00  0.00    -0.504 OA
ATOM     19  H   UNL     1      -3.573  45.822   6.425  1.00  0.00     0.293 HD
ENDBRANCH  15  18
BRANCH  17  20
ATOM     20  O   UNL     1      -3.549  43.225   4.441  1.00  0.00    -0.504 OA
ATOM     21  H   UNL     1      -3.801  43.049   5.402  1.00  0.00     0.293 HD
ENDBRANCH  17  20
ENDBRANCH   1  12
BRANCH   2  22
ATOM     22  O   UNL     1      -2.787  45.495  -0.087  1.00  0.00    -0.502 OA
ATOM     23  H   UNL     1      -3.253  45.462   0.811  1.00  0.00     0.293 HD
ENDBRANCH   2  22
BRANCH   6  24
ATOM     24  O   UNL     1       0.702  45.194  -4.101  1.00  0.00    -0.507 OA
ATOM     25  H   UNL     1       0.141  46.020  -4.244  1.00  0.00     0.293 HD
ENDBRANCH   6  24
BRANCH   8  26
ATOM     26  O   UNL     1       4.575  43.629  -1.766  1.00  0.00    -0.508 OA
ATOM     27  H   UNL     1       5.047  43.477  -2.649  1.00  0.00     0.293 HD
ENDBRANCH   8  26
TORSDOF 6
ENDMDL
MODEL 3
REMARK VINA RESULT:    -8.920      1.204      6.817
REMARK INTER + INTRA:         -10.667
REMARK INTER:                 -10.758
REMARK INTRA:                   0.092
REMARK UNBOUND:                 0.079
REMARK SMILES O=c1c(O)c(-c2ccc(O)c(O)c2)oc2cc(O)cc(O)c12
REMARK SMILES IDX 5 1 3 2 2 3 1 4 22 5 20 6 19 7 17 8 16 9 15 10 14 11 6 12
REMARK SMILES IDX 7 13 8 14 9 15 13 16 11 17 10 18 12 20 4 22 21 24 18 26
REMARK H PARENT 10 19 12 21 4 23 21 25 18 27
REMARK Flexibility Score: inf
ROOT
ATOM      1  C   UNL     1      -1.125  45.226   2.544  1.00  0.00     0.180 A 
ATOM      2  C   UNL     1      -2.404  44.734   2.861  1.00  0.00     0.208 A 
ATOM      3  C   UNL     1      -2.890  44.889   4.168  1.00  0.00     0.238 A 
ATOM      4  O   UNL     1      -4.057  44.497   4.430  1.00  0.00    -0.285 OA
ATOM      5  C   UNL     1      -2.085  45.519   5.149  1.00  0.00     0.111 A 
ATOM      6  C   UNL     1      -2.459  45.693   6.515  1.00  0.00     0.134 A 
ATOM      7  C   UNL     1      -1.640  46.445   7.365  1.00  0.00     0.093 A 
ATOM      8  C   UNL     1      -0.429  46.973   6.918  1.00  0.00     0.123 A 
ATOM      9  C   UNL     1      -0.025  46.757   5.600  1.00  0.00     0.094 A 
ATOM     10  C   UNL     1      -0.838  46.042   4.717  1.00  0.00     0.146 A 
ATOM     11  O   UNL     1      -0.421  45.869   3.470  1.00  0.00    -0.452 OA
ENDROOT
BRANCH   1  12
ATOM     12  C   UNL     1      -0.536  45.077   1.195  1.00  0.00     0.025 A 
ATOM     13  C   UNL     1       0.779  44.605   1.064  1.00  0.00     0.016 A 
ATOM     14  C   UNL     1       1.347  44.438  -0.199  1.00  0.00     0.051 A 
ATOM     15  C   UNL     1       0.614  44.723  -1.356  1.00  0.00     0.157 A 
ATOM     16  C   UNL     1      -1.283  45.342   0.035  1.00  0.00     0.062 A 
ATOM     17  C   UNL     1      -0.722  45.175  -1.238  1.00  0.00     0.158 A 
BRANCH  15  18
ATOM     18  O   UNL     1       1.243  44.542  -2.589  1.00  0.00    -0.504 OA
ATOM     19  H   UNL     1       1.419  45.287  -3.248  1.00  0.00     0.293 HD
ENDBRANCH  15  18
BRANCH  17  20
ATOM     20  O   UNL     1      -1.523  45.460  -2.346  1.00  0.00    -0.504 OA
ATOM     21  H   UNL     1      -1.530  46.348  -2.824  1.00  0.00     0.293 HD
ENDBRANCH  17  20
ENDBRANCH   1  12
BRANCH   2  22
ATOM     22  O   UNL     1      -3.191  44.136   1.871  1.00  0.00    -0.502 OA
ATOM     23  H   UNL     1      -4.193  44.025   1.967  1.00  0.00     0.293 HD
ENDBRANCH   2  22
BRANCH   6  24
ATOM     24  O   UNL     1      -3.604  45.130   7.088  1.00  0.00    -0.507 OA
ATOM     25  H   UNL     1      -4.151  45.558   7.819  1.00  0.00     0.293 HD
ENDBRANCH   6  24
BRANCH   8  26
ATOM     26  O   UNL     1       0.369  47.703   7.796  1.00  0.00    -0.508 OA
ATOM     27  H   UNL     1       1.173  47.287   8.251  1.00  0.00     0.293 HD
ENDBRANCH   8  26
TORSDOF 6
ENDMDL
MODEL 4
REMARK VINA RESULT:    -8.891      1.482      6.847
REMARK INTER + INTRA:         -10.631
REMARK INTER:                 -10.882
REMARK INTRA:                   0.251
REMARK UNBOUND:                 0.079
REMARK SMILES O=c1c(O)c(-c2ccc(O)c(O)c2)oc2cc(O)cc(O)c12
REMARK SMILES IDX 5 1 3 2 2 3 1 4 22 5 20 6 19 7 17 8 16 9 15 10 14 11 6 12
REMARK SMILES IDX 7 13 8 14 9 15 13 16 11 17 10 18 12 20 4 22 21 24 18 26
REMARK H PARENT 10 19 12 21 4 23 21 25 18 27
REMARK Flexibility Score: inf
ROOT
ATOM      1  C   UNL     1      -0.699  45.009   0.296  1.00  0.00     0.180 A 
ATOM      2  C   UNL     1      -2.064  44.721   0.471  1.00  0.00     0.208 A 
ATOM      3  C   UNL     1      -2.637  44.881   1.743  1.00  0.00     0.238 A 
ATOM      4  O   UNL     1      -3.871  44.675   1.880  1.00  0.00    -0.285 OA
ATOM      5  C   UNL     1      -1.835  45.313   2.827  1.00  0.00     0.111 A 
ATOM      6  C   UNL     1      -2.301  45.471   4.167  1.00  0.00     0.134 A 
ATOM      7  C   UNL     1      -1.454  46.029   5.132  1.00  0.00     0.093 A 
ATOM      8  C   UNL     1      -0.138  46.371   4.823  1.00  0.00     0.123 A 
ATOM      9  C   UNL     1       0.346  46.165   3.531  1.00  0.00     0.094 A 
ATOM     10  C   UNL     1      -0.486  45.645   2.537  1.00  0.00     0.146 A 
ATOM     11  O   UNL     1       0.011  45.474   1.319  1.00  0.00    -0.452 OA
ENDROOT
BRANCH   1  12
ATOM     12  C   UNL     1      -0.019  44.839  -1.008  1.00  0.00     0.025 A 
ATOM     13  C   UNL     1      -0.709  45.143  -2.190  1.00  0.00     0.016 A 
ATOM     14  C   UNL     1      -0.080  45.009  -3.429  1.00  0.00     0.051 A 
ATOM     15  C   UNL     1       1.250  44.585  -3.513  1.00  0.00     0.157 A 
ATOM     16  C   UNL     1       1.324  44.435  -1.087  1.00  0.00     0.062 A 
ATOM     17  C   UNL     1       1.965  44.301  -2.325  1.00  0.00     0.158 A 
BRANCH  15  18
ATOM     18  O   UNL     1       1.818  44.464  -4.783  1.00  0.00    -0.504 OA
ATOM     19  H   UNL     1       2.402  45.169  -5.210  1.00  0.00     0.293 HD
ENDBRANCH  15  18
BRANCH  17  20
ATOM     20  O   UNL     1       3.300  43.892  -2.328  1.00  0.00    -0.504 OA
ATOM     21  H   UNL     1       3.672  43.182  -2.940  1.00  0.00     0.293 HD
ENDBRANCH  17  20
ENDBRANCH   1  12
BRANCH   2  22
ATOM     22  O   UNL     1      -2.842  44.317  -0.618  1.00  0.00    -0.502 OA
ATOM     23  H   UNL     1      -3.036  43.343  -0.816  1.00  0.00     0.293 HD
ENDBRANCH   2  22
BRANCH   6  24
ATOM     24  O   UNL     1      -3.569  45.076   4.603  1.00  0.00    -0.507 OA
ATOM     25  H   UNL     1      -4.027  44.217   4.337  1.00  0.00     0.293 HD
ENDBRANCH   6  24
BRANCH   8  26
ATOM     26  O   UNL     1       0.683  46.908   5.812  1.00  0.00    -0.508 OA
ATOM     27  H   UNL     1       1.692  46.912   5.720  1.00  0.00     0.293 HD
ENDBRANCH   8  26
TORSDOF 6
ENDMDL
MODEL 5
REMARK VINA RESULT:    -8.835      1.188      6.724
REMARK INTER + INTRA:         -10.564
REMARK INTER:                 -10.672
REMARK INTRA:                   0.109
REMARK UNBOUND:                 0.079
REMARK SMILES O=c1c(O)c(-c2ccc(O)c(O)c2)oc2cc(O)cc(O)c12
REMARK SMILES IDX 5 1 3 2 2 3 1 4 22 5 20 6 19 7 17 8 16 9 15 10 14 11 6 12
REMARK SMILES IDX 7 13 8 14 9 15 13 16 11 17 10 18 12 20 4 22 21 24 18 26
REMARK H PARENT 10 19 12 21 4 23 21 25 18 27
REMARK Flexibility Score: inf
ROOT
ATOM      1  C   UNL     1      -1.128  45.207   2.536  1.00  0.00     0.180 A 
ATOM      2  C   UNL     1      -2.400  44.709   2.870  1.00  0.00     0.208 A 
ATOM      3  C   UNL     1      -2.876  44.878   4.180  1.00  0.00     0.238 A 
ATOM      4  O   UNL     1      -4.037  44.480   4.456  1.00  0.00    -0.285 OA
ATOM      5  C   UNL     1      -2.068  45.527   5.145  1.00  0.00     0.111 A 
ATOM      6  C   UNL     1      -2.433  45.718   6.511  1.00  0.00     0.134 A 
ATOM      7  C   UNL     1      -1.613  46.488   7.344  1.00  0.00     0.093 A 
ATOM      8  C   UNL     1      -0.410  47.019   6.879  1.00  0.00     0.123 A 
ATOM      9  C   UNL     1      -0.015  46.789   5.561  1.00  0.00     0.094 A 
ATOM     10  C   UNL     1      -0.830  46.055   4.695  1.00  0.00     0.146 A 
ATOM     11  O   UNL     1      -0.422  45.868   3.447  1.00  0.00    -0.452 OA
ENDROOT
BRANCH   1  12
ATOM     12  C   UNL     1      -0.548  45.044   1.184  1.00  0.00     0.025 A 
ATOM     13  C   UNL     1      -1.335  45.326   0.058  1.00  0.00     0.016 A 
ATOM     14  C   UNL     1      -0.802  45.199  -1.226  1.00  0.00     0.051 A 
ATOM     15  C   UNL     1       0.527  44.804  -1.412  1.00  0.00     0.157 A 
ATOM     16  C   UNL     1       0.794  44.669   1.002  1.00  0.00     0.062 A 
ATOM     17  C   UNL     1       1.338  44.541  -0.282  1.00  0.00     0.158 A 
BRANCH  15  18
ATOM     18  O   UNL     1       0.997  44.688  -2.722  1.00  0.00    -0.504 OA
ATOM     19  H   UNL     1       1.490  45.420  -3.212  1.00  0.00     0.293 HD
ENDBRANCH  15  18
BRANCH  17  20
ATOM     20  O   UNL     1       2.678  44.163  -0.388  1.00  0.00    -0.504 OA
ATOM     21  H   UNL     1       3.312  44.104   0.395  1.00  0.00     0.293 HD
ENDBRANCH  17  20
ENDBRANCH   1  12
BRANCH   2  22
ATOM     22  O   UNL     1      -3.190  44.091   1.896  1.00  0.00    -0.502 OA
ATOM     23  H   UNL     1      -3.489  44.570   1.055  1.00  0.00     0.293 HD
ENDBRANCH   2  22
BRANCH   6  24
ATOM     24  O   UNL     1      -3.568  45.153   7.101  1.00  0.00    -0.507 OA
ATOM     25  H   UNL     1      -4.457  45.033   6.640  1.00  0.00     0.293 HD
ENDBRANCH   6  24
BRANCH   8  26
ATOM     26  O   UNL     1       0.389  47.768   7.741  1.00  0.00    -0.508 OA
ATOM     27  H   UNL     1       1.390  47.623   7.794  1.00  0.00     0.293 HD
ENDBRANCH   8  26
TORSDOF 6
ENDMDL
MODEL 6
REMARK VINA RESULT:    -8.545      2.591      7.958
REMARK INTER + INTRA:         -10.215
REMARK INTER:                 -10.417
REMARK INTRA:                   0.202
REMARK UNBOUND:                 0.079
REMARK SMILES O=c1c(O)c(-c2ccc(O)c(O)c2)oc2cc(O)cc(O)c12
REMARK SMILES IDX 5 1 3 2 2 3 1 4 22 5 20 6 19 7 17 8 16 9 15 10 14 11 6 12
REMARK SMILES IDX 7 13 8 14 9 15 13 16 11 17 10 18 12 20 4 22 21 24 18 26
REMARK H PARENT 10 19 12 21 4 23 21 25 18 27
REMARK Flexibility Score: inf
ROOT
ATOM      1  C   UNL     1       1.519  44.504  -1.922  1.00  0.00     0.180 A 
ATOM      2  C   UNL     1       0.329  44.561  -2.669  1.00  0.00     0.208 A 
ATOM      3  C   UNL     1      -0.884  44.789  -2.001  1.00  0.00     0.238 A 
ATOM      4  O   UNL     1      -1.938  44.894  -2.682  1.00  0.00    -0.285 OA
ATOM      5  C   UNL     1      -0.896  44.940  -0.593  1.00  0.00     0.111 A 
ATOM      6  C   UNL     1      -2.072  45.135   0.191  1.00  0.00     0.134 A 
ATOM      7  C   UNL     1      -1.953  45.403   1.560  1.00  0.00     0.093 A 
ATOM      8  C   UNL     1      -0.707  45.419   2.185  1.00  0.00     0.123 A 
ATOM      9  C   UNL     1       0.445  45.170   1.438  1.00  0.00     0.094 A 
ATOM     10  C   UNL     1       0.362  44.936   0.064  1.00  0.00     0.146 A 
ATOM     11  O   UNL     1       1.483  44.714  -0.611  1.00  0.00    -0.452 OA
ENDROOT
BRANCH   1  12
ATOM     12  C   UNL     1       2.833  44.242  -2.553  1.00  0.00     0.025 A 
ATOM     13  C   UNL     1       3.759  43.415  -1.900  1.00  0.00     0.016 A 
ATOM     14  C   UNL     1       4.995  43.139  -2.485  1.00  0.00     0.051 A 
ATOM     15  C   UNL     1       5.327  43.668  -3.737  1.00  0.00     0.157 A 
ATOM     16  C   UNL     1       3.153  44.756  -3.821  1.00  0.00     0.062 A 
ATOM     17  C   UNL     1       4.390  44.482  -4.418  1.00  0.00     0.158 A 
BRANCH  15  18
ATOM     18  O   UNL     1       6.582  43.360  -4.265  1.00  0.00    -0.504 OA
ATOM     19  H   UNL     1       6.827  42.461  -4.654  1.00  0.00     0.293 HD
ENDBRANCH  15  18
BRANCH  17  20
ATOM     20  O   UNL     1       4.641  45.028  -5.678  1.00  0.00    -0.504 OA
ATOM     21  H   UNL     1       4.294  44.639  -6.542  1.00  0.00     0.293 HD
ENDBRANCH  17  20
ENDBRANCH   1  12
BRANCH   2  22
ATOM     22  O   UNL     1       0.367  44.431  -4.061  1.00  0.00    -0.502 OA
ATOM     23  H   UNL     1       0.907  45.052  -4.651  1.00  0.00     0.293 HD
ENDBRANCH   2  22
BRANCH   6  24
ATOM     24  O   UNL     1      -3.372  45.049  -0.318  1.00  0.00    -0.507 OA
ATOM     25  H   UNL     1      -3.877  44.188  -0.464  1.00  0.00     0.293 HD
ENDBRANCH   6  24
BRANCH   8  26
ATOM     26  O   UNL     1      -0.627  45.673   3.552  1.00  0.00    -0.508 OA
ATOM     27  H   UNL     1      -1.018  46.514   3.959  1.00  0.00     0.293 HD
ENDBRANCH   8  26
TORSDOF 6
ENDMDL
MODEL 7
REMARK VINA RESULT:    -8.500      4.374      9.301
REMARK INTER + INTRA:         -10.161
REMARK INTER:                  -9.918
REMARK INTRA:                  -0.243
REMARK UNBOUND:                 0.079
REMARK SMILES O=c1c(O)c(-c2ccc(O)c(O)c2)oc2cc(O)cc(O)c12
REMARK SMILES IDX 5 1 3 2 2 3 1 4 22 5 20 6 19 7 17 8 16 9 15 10 14 11 6 12
REMARK SMILES IDX 7 13 8 14 9 15 13 16 11 17 10 18 12 20 4 22 21 24 18 26
REMARK H PARENT 10 19 12 21 4 23 21 25 18 27
REMARK Flexibility Score: inf
ROOT
ATOM      1  C   UNL     1      -0.111  46.967   8.325  1.00  0.00     0.180 A 
ATOM      2  C   UNL     1       0.211  48.319   8.537  1.00  0.00     0.208 A 
ATOM      3  C   UNL     1       0.915  48.678   9.697  1.00  0.00     0.238 A 
ATOM      4  O   UNL     1       1.249  49.881   9.854  1.00  0.00    -0.285 OA
ATOM      5  C   UNL     1       1.275  47.683  10.639  1.00  0.00     0.111 A 
ATOM      6  C   UNL     1       1.954  47.938  11.869  1.00  0.00     0.134 A 
ATOM      7  C   UNL     1       2.374  46.864  12.661  1.00  0.00     0.093 A 
ATOM      8  C   UNL     1       2.084  45.548  12.304  1.00  0.00     0.123 A 
ATOM      9  C   UNL     1       1.368  45.290  11.134  1.00  0.00     0.094 A 
ATOM     10  C   UNL     1       0.967  46.339  10.303  1.00  0.00     0.146 A 
ATOM     11  O   UNL     1       0.297  46.050   9.195  1.00  0.00    -0.452 OA
ENDROOT
BRANCH   1  12
ATOM     12  C   UNL     1      -0.873  46.516   7.138  1.00  0.00     0.025 A 
ATOM     13  C   UNL     1      -0.235  46.453   5.891  1.00  0.00     0.016 A 
ATOM     14  C   UNL     1      -0.929  46.012   4.764  1.00  0.00     0.051 A 
ATOM     15  C   UNL     1      -2.266  45.610   4.860  1.00  0.00     0.157 A 
ATOM     16  C   UNL     1      -2.208  46.091   7.243  1.00  0.00     0.062 A 
ATOM     17  C   UNL     1      -2.912  45.644   6.118  1.00  0.00     0.158 A 
BRANCH  15  18
ATOM     18  O   UNL     1      -2.905  45.186   3.694  1.00  0.00    -0.504 OA
ATOM     19  H   UNL     1      -3.452  44.339   3.624  1.00  0.00     0.293 HD
ENDBRANCH  15  18
BRANCH  17  20
ATOM     20  O   UNL     1      -4.237  45.240   6.296  1.00  0.00    -0.504 OA
ATOM     21  H   UNL     1      -4.596  44.341   6.011  1.00  0.00     0.293 HD
ENDBRANCH  17  20
ENDBRANCH   1  12
BRANCH   2  22
ATOM     22  O   UNL     1      -0.134  49.281   7.583  1.00  0.00    -0.502 OA
ATOM     23  H   UNL     1      -0.758  49.082   6.811  1.00  0.00     0.293 HD
ENDBRANCH   2  22
BRANCH   6  24
ATOM     24  O   UNL     1       2.213  49.220  12.364  1.00  0.00    -0.507 OA
ATOM     25  H   UNL     1       1.580  50.002  12.295  1.00  0.00     0.293 HD
ENDBRANCH   6  24
BRANCH   8  26
ATOM     26  O   UNL     1       2.503  44.504  13.125  1.00  0.00    -0.508 OA
ATOM     27  H   UNL     1       2.012  44.272  13.980  1.00  0.00     0.293 HD
ENDBRANCH   8  26
TORSDOF 6
ENDMDL
MODEL 8
REMARK VINA RESULT:    -8.488      2.970      5.520
REMARK INTER + INTRA:         -10.146
REMARK INTER:                 -10.348
REMARK INTRA:                   0.202
REMARK UNBOUND:                 0.079
REMARK SMILES O=c1c(O)c(-c2ccc(O)c(O)c2)oc2cc(O)cc(O)c12
REMARK SMILES IDX 5 1 3 2 2 3 1 4 22 5 20 6 19 7 17 8 16 9 15 10 14 11 6 12
REMARK SMILES IDX 7 13 8 14 9 15 13 16 11 17 10 18 12 20 4 22 21 24 18 26
REMARK H PARENT 10 19 12 21 4 23 21 25 18 27
REMARK Flexibility Score: inf
ROOT
ATOM      1  C   UNL     1      -0.756  46.603   7.262  1.00  0.00     0.180 A 
ATOM      2  C   UNL     1      -2.079  46.130   7.332  1.00  0.00     0.208 A 
ATOM      3  C   UNL     1      -2.692  45.647   6.165  1.00  0.00     0.238 A 
ATOM      4  O   UNL     1      -3.855  45.174   6.246  1.00  0.00    -0.285 OA
ATOM      5  C   UNL     1      -1.982  45.657   4.940  1.00  0.00     0.111 A 
ATOM      6  C   UNL     1      -2.519  45.229   3.688  1.00  0.00     0.134 A 
ATOM      7  C   UNL     1      -1.685  45.161   2.566  1.00  0.00     0.093 A 
ATOM      8  C   UNL     1      -0.352  45.567   2.633  1.00  0.00     0.123 A 
ATOM      9  C   UNL     1       0.166  46.043   3.837  1.00  0.00     0.094 A 
ATOM     10  C   UNL     1      -0.631  46.088   4.984  1.00  0.00     0.146 A 
ATOM     11  O   UNL     1      -0.095  46.539   6.111  1.00  0.00    -0.452 OA
ENDROOT
BRANCH   1  12
ATOM     12  C   UNL     1      -0.052  47.151   8.443  1.00  0.00     0.025 A 
ATOM     13  C   UNL     1       0.774  48.274   8.294  1.00  0.00     0.016 A 
ATOM     14  C   UNL     1       1.431  48.819   9.398  1.00  0.00     0.051 A 
ATOM     15  C   UNL     1       1.266  48.266  10.673  1.00  0.00     0.157 A 
ATOM     16  C   UNL     1      -0.239  46.607   9.725  1.00  0.00     0.062 A 
ATOM     17  C   UNL     1       0.414  47.148  10.840  1.00  0.00     0.158 A 
BRANCH  15  18
ATOM     18  O   UNL     1       1.957  48.853  11.734  1.00  0.00    -0.504 OA
ATOM     19  H   UNL     1       2.060  49.850  11.860  1.00  0.00     0.293 HD
ENDBRANCH  15  18
BRANCH  17  20
ATOM     20  O   UNL     1       0.183  46.555  12.083  1.00  0.00    -0.504 OA
ATOM     21  H   UNL     1       0.587  45.677  12.373  1.00  0.00     0.293 HD
ENDBRANCH  17  20
ENDBRANCH   1  12
BRANCH   2  22
ATOM     22  O   UNL     1      -2.753  46.108   8.556  1.00  0.00    -0.502 OA
ATOM     23  H   UNL     1      -3.589  46.655   8.727  1.00  0.00     0.293 HD
ENDBRANCH   2  22
BRANCH   6  24
ATOM     24  O   UNL     1      -3.861  44.889   3.491  1.00  0.00    -0.507 OA
ATOM     25  H   UNL     1      -4.627  45.545   3.491  1.00  0.00     0.293 HD
ENDBRANCH   6  24
BRANCH   8  26
ATOM     26  O   UNL     1       0.444  45.501   1.492  1.00  0.00    -0.508 OA
ATOM     27  H   UNL     1       0.159  45.931   0.621  1.00  0.00     0.293 HD
ENDBRANCH   8  26
TORSDOF 6
ENDMDL
MODEL 9
REMARK VINA RESULT:    -8.050      1.443      3.116
REMARK INTER + INTRA:          -9.619
REMARK INTER:                  -9.835
REMARK INTRA:                   0.216
REMARK UNBOUND:                 0.079
REMARK SMILES O=c1c(O)c(-c2ccc(O)c(O)c2)oc2cc(O)cc(O)c12
REMARK SMILES IDX 5 1 3 2 2 3 1 4 22 5 20 6 19 7 17 8 16 9 15 10 14 11 6 12
REMARK SMILES IDX 7 13 8 14 9 15 13 16 11 17 10 18 12 20 4 22 21 24 18 26
REMARK H PARENT 10 19 12 21 4 23 21 25 18 27
REMARK Flexibility Score: inf
ROOT
ATOM      1  C   UNL     1      -0.086  45.332   2.031  1.00  0.00     0.180 A 
ATOM      2  C   UNL     1       1.294  45.124   1.860  1.00  0.00     0.208 A 
ATOM      3  C   UNL     1       1.790  44.866   0.572  1.00  0.00     0.238 A 
ATOM      4  O   UNL     1       3.032  44.735   0.419  1.00  0.00    -0.285 OA
ATOM      5  C   UNL     1       0.899  44.803  -0.526  1.00  0.00     0.111 A 
ATOM      6  C   UNL     1       1.286  44.508  -1.868  1.00  0.00     0.134 A 
ATOM      7  C   UNL     1       0.340  44.602  -2.896  1.00  0.00     0.093 A 
ATOM      8  C   UNL     1      -0.991  44.913  -2.624  1.00  0.00     0.123 A 
ATOM      9  C   UNL     1      -1.393  45.144  -1.308  1.00  0.00     0.094 A 
ATOM     10  C   UNL     1      -0.465  45.095  -0.265  1.00  0.00     0.146 A 
ATOM     11  O   UNL     1      -0.887  45.331   0.971  1.00  0.00    -0.452 OA
ENDROOT
BRANCH   1  12
ATOM     12  C   UNL     1      -0.686  45.584   3.360  1.00  0.00     0.025 A 
ATOM     13  C   UNL     1      -1.932  45.020   3.674  1.00  0.00     0.016 A 
ATOM     14  C   UNL     1      -2.506  45.228   4.928  1.00  0.00     0.051 A 
ATOM     15  C   UNL     1      -1.846  45.988   5.899  1.00  0.00     0.157 A 
ATOM     16  C   UNL     1      -0.010  46.329   4.341  1.00  0.00     0.062 A 
ATOM     17  C   UNL     1      -0.577  46.541   5.604  1.00  0.00     0.158 A 
BRANCH  15  18
ATOM     18  O   UNL     1      -2.477  46.165   7.132  1.00  0.00    -0.504 OA
ATOM     19  H   UNL     1      -2.770  45.407   7.731  1.00  0.00     0.293 HD
ENDBRANCH  15  18
BRANCH  17  20
ATOM     20  O   UNL     1       0.152  47.293   6.528  1.00  0.00    -0.504 OA
ATOM     21  H   UNL     1      -0.133  48.199   6.868  1.00  0.00     0.293 HD
ENDBRANCH  17  20
ENDBRANCH   1  12
BRANCH   2  22
ATOM     22  O   UNL     1       2.158  45.212   2.955  1.00  0.00    -0.502 OA
ATOM     23  H   UNL     1       2.042  44.645   3.786  1.00  0.00     0.293 HD
ENDBRANCH   2  22
BRANCH   6  24
ATOM     24  O   UNL     1       2.570  44.097  -2.236  1.00  0.00    -0.507 OA
ATOM     25  H   UNL     1       3.052  44.392  -3.072  1.00  0.00     0.293 HD
ENDBRANCH   6  24
BRANCH   8  26
ATOM     26  O   UNL     1      -1.909  44.981  -3.670  1.00  0.00    -0.508 OA
ATOM     27  H   UNL     1      -2.354  44.150  -4.040  1.00  0.00     0.293 HD
ENDBRANCH   8  26
TORSDOF 6
ENDMDL
