MODEL 1
REMARK VINA RESULT:    25.213      0.000      0.000
REMARK INTER + INTRA:          25.950
REMARK INTER:                  25.950
REMARK INTRA:                   0.000
REMARK UNBOUND:                 0.000
REMARK SMILES CC1(C)CC[C@@]2(C)CC[C@]3(C)C(=CC[C@@H]4[C@]5(C)CC[C@H](O)C(C)(C)[C@@H]5CC[C@]43C)[C@H]2C1
REMARK SMILES IDX 1 1 2 2 4 3 5 4 6 5 8 6 9 7 10 8 12 9 13 10 14 11 15 12
REMARK SMILES IDX 28 13 27 14 26 15 25 16 16 17 18 18 19 19 20 20 22 21 23 22
REMARK SMILES IDX 24 23 17 24 29 25 30 26 31 27 11 28 7 29 3 30 21 31
REMARK H PARENT 21 32
REMARK Flexibility Score: inf
ROOT
ATOM      1  C   UNL     1     139.478 127.143 147.592  1.00  0.00     0.011 C 
ATOM      2  C   UNL     1     138.132 126.428 147.324  1.00  0.00    -0.035 C 
ATOM      3  C   UNL     1     136.977 127.478 147.372  1.00  0.00     0.007 C 
ATOM      4  C   UNL     1     136.163 127.560 146.074  1.00  0.00     0.008 C 
ATOM      5  C   UNL     1     135.678 126.175 145.556  1.00  0.00    -0.026 C 
ATOM      6  C   UNL     1     134.968 126.435 144.202  1.00  0.00     0.008 C 
ATOM      7  C   UNL     1     134.527 125.137 143.521  1.00  0.00     0.012 C 
ATOM      8  C   UNL     1     135.721 124.162 143.187  1.00  0.00    -0.006 C 
ATOM      9  C   UNL     1     137.010 124.602 143.930  1.00  0.00    -0.064 C 
ATOM     10  C   UNL     1     138.234 124.299 143.405  1.00  0.00    -0.027 C 
ATOM     11  C   UNL     1     138.497 123.752 142.025  1.00  0.00     0.032 C 
ATOM     12  C   UNL     1     137.241 123.180 141.337  1.00  0.00     0.006 C 
ATOM     13  C   UNL     1     135.980 124.096 141.599  1.00  0.00    -0.020 C 
ATOM     14  C   UNL     1     134.739 123.532 140.815  1.00  0.00     0.008 C 
ATOM     15  C   UNL     1     134.908 122.093 140.319  1.00  0.00     0.005 C 
ATOM     16  C   UNL     1     136.112 121.908 139.343  1.00  0.00     0.003 C 
ATOM     17  C   UNL     1     137.450 122.649 139.849  1.00  0.00    -0.025 C 
ATOM     18  C   UNL     1     137.996 123.784 138.899  1.00  0.00     0.010 C 
ATOM     19  C   UNL     1     137.168 124.042 137.652  1.00  0.00     0.033 C 
ATOM     20  C   UNL     1     136.856 122.719 136.968  1.00  0.00     0.120 C 
ATOM     21  C   UNL     1     135.764 121.945 137.769  1.00  0.00    -0.006 C 
ATOM     22  C   UNL     1     134.362 122.555 137.447  1.00  0.00     0.014 C 
ATOM     23  C   UNL     1     135.732 120.491 137.222  1.00  0.00     0.014 C 
ATOM     24  C   UNL     1     138.570 121.555 139.894  1.00  0.00     0.012 C 
ATOM     25  C   UNL     1     136.232 125.551 141.069  1.00  0.00     0.012 C 
ATOM     26  C   UNL     1     136.884 125.157 145.381  1.00  0.00     0.022 C 
ATOM     27  C   UNL     1     138.227 125.735 145.937  1.00  0.00     0.015 C 
ATOM     28  C   UNL     1     135.340 122.771 143.785  1.00  0.00     0.017 C 
ATOM     29  C   UNL     1     134.630 125.615 146.563  1.00  0.00     0.012 C 
ATOM     30  C   UNL     1     137.944 125.364 148.432  1.00  0.00     0.011 C 
ENDROOT
BRANCH  20  31
ATOM     31  O   UNL     1     136.456 122.979 135.644  1.00  0.00    -0.393 OA
ATOM     32  H   UNL     1     135.656 123.566 135.683  1.00  0.00     0.210 HD
ENDBRANCH  20  31
TORSDOF 1
ENDMDL
MODEL 2
REMARK VINA RESULT:    26.910      2.612      8.282
REMARK INTER + INTRA:          27.697
REMARK INTER:                  27.697
REMARK INTRA:                   0.000
REMARK UNBOUND:                 0.000
REMARK SMILES CC1(C)CC[C@@]2(C)CC[C@]3(C)C(=CC[C@@H]4[C@]5(C)CC[C@H](O)C(C)(C)[C@@H]5CC[C@]43C)[C@H]2C1
REMARK SMILES IDX 1 1 2 2 4 3 5 4 6 5 8 6 9 7 10 8 12 9 13 10 14 11 15 12
REMARK SMILES IDX 28 13 27 14 26 15 25 16 16 17 18 18 19 19 20 20 22 21 23 22
REMARK SMILES IDX 24 23 17 24 29 25 30 26 31 27 11 28 7 29 3 30 21 31
REMARK H PARENT 21 32
REMARK Flexibility Score: inf
ROOT
ATOM      1  C   UNL     1     133.845 122.396 136.887  1.00  0.00     0.011 C 
ATOM      2  C   UNL     1     135.140 122.049 137.659  1.00  0.00    -0.035 C 
ATOM      3  C   UNL     1     136.369 122.613 136.877  1.00  0.00     0.007 C 
ATOM      4  C   UNL     1     137.218 123.599 137.690  1.00  0.00     0.008 C 
ATOM      5  C   UNL     1     137.610 123.066 139.098  1.00  0.00    -0.026 C 
ATOM      6  C   UNL     1     138.370 124.217 139.808  1.00  0.00     0.008 C 
ATOM      7  C   UNL     1     138.730 123.867 141.254  1.00  0.00     0.012 C 
ATOM      8  C   UNL     1     137.476 123.571 142.162  1.00  0.00    -0.006 C 
ATOM      9  C   UNL     1     136.206 123.376 141.294  1.00  0.00    -0.064 C 
ATOM     10  C   UNL     1     134.975 123.662 141.815  1.00  0.00    -0.027 C 
ATOM     11  C   UNL     1     134.706 124.376 143.115  1.00  0.00     0.032 C 
ATOM     12  C   UNL     1     135.932 124.446 144.047  1.00  0.00     0.006 C 
ATOM     13  C   UNL     1     137.251 124.755 143.232  1.00  0.00    -0.020 C 
ATOM     14  C   UNL     1     138.465 124.904 144.220  1.00  0.00     0.008 C 
ATOM     15  C   UNL     1     138.202 124.363 145.629  1.00  0.00     0.005 C 
ATOM     16  C   UNL     1     137.012 125.066 146.354  1.00  0.00     0.003 C 
ATOM     17  C   UNL     1     135.720 125.249 145.408  1.00  0.00    -0.025 C 
ATOM     18  C   UNL     1     135.283 126.740 145.138  1.00  0.00     0.010 C 
ATOM     19  C   UNL     1     136.158 127.801 145.785  1.00  0.00     0.033 C 
ATOM     20  C   UNL     1     136.387 127.446 147.247  1.00  0.00     0.120 C 
ATOM     21  C   UNL     1     137.400 126.265 147.361  1.00  0.00    -0.006 C 
ATOM     22  C   UNL     1     138.850 126.810 147.163  1.00  0.00     0.014 C 
ATOM     23  C   UNL     1     137.336 125.740 148.822  1.00  0.00     0.014 C 
ATOM     24  C   UNL     1     134.522 124.582 146.164  1.00  0.00     0.012 C 
ATOM     25  C   UNL     1     137.120 126.113 142.460  1.00  0.00     0.012 C 
ATOM     26  C   UNL     1     136.337 122.622 139.936  1.00  0.00     0.022 C 
ATOM     27  C   UNL     1     135.028 122.663 139.081  1.00  0.00     0.015 C 
ATOM     28  C   UNL     1     137.738 122.193 142.847  1.00  0.00     0.017 C 
ATOM     29  C   UNL     1     138.590 121.870 138.914  1.00  0.00     0.012 C 
ATOM     30  C   UNL     1     135.222 120.506 137.756  1.00  0.00     0.011 C 
ENDROOT
BRANCH  20  31
ATOM     31  O   UNL     1     136.837 128.595 147.925  1.00  0.00    -0.393 OA
ATOM     32  H   UNL     1     136.287 128.692 148.745  1.00  0.00     0.210 HD
ENDBRANCH  20  31
TORSDOF 1
ENDMDL
