MODEL 1
REMARK VINA RESULT:    -4.911      0.000      0.000
REMARK INTER + INTRA:         -10.050
REMARK INTER:                  -8.931
REMARK INTRA:                  -1.120
REMARK UNBOUND:                -1.120
REMARK SMILES CCCCCCCCCCCCCCCC(=O)[O-]
REMARK SMILES IDX 9 1 10 2 11 3 12 4 13 5 14 6 15 7 16 8 17 9 18 10 8 11 7 12
REMARK SMILES IDX 6 13 5 14 4 15 3 16 2 17 1 18
REMARK H PARENT
REMARK Flexibility Score: inf
ROOT
ATOM      1  C   UNL     1      41.733   5.075  18.863  1.00  0.00     0.000 C 
ENDROOT
BRANCH   1   2
ATOM      2  C   UNL     1      43.013   5.119  19.717  1.00  0.00     0.000 C 
BRANCH   2   3
ATOM      3  C   UNL     1      42.724   5.311  21.215  1.00  0.00     0.000 C 
BRANCH   3   4
ATOM      4  C   UNL     1      43.919   4.919  22.101  1.00  0.00     0.000 C 
BRANCH   4   5
ATOM      5  C   UNL     1      43.705   3.587  22.833  1.00  0.00     0.000 C 
BRANCH   5   6
ATOM      6  C   UNL     1      44.202   2.407  21.984  1.00  0.00     0.006 C 
BRANCH   6   7
ATOM      7  C   UNL     1      43.258   1.201  22.054  1.00  0.00     0.053 C 
BRANCH   7   8
ATOM      8  C   UNL     1      43.894   0.035  22.746  1.00  0.00     0.041 C 
ATOM      9  O   UNL     1      44.137  -1.024  22.111  1.00  0.00    -0.550 OA
ATOM     10  O   UNL     1      44.250   0.130  24.087  1.00  0.00    -0.550 OA
ENDBRANCH   7   8
ENDBRANCH   6   7
ENDBRANCH   5   6
ENDBRANCH   4   5
ENDBRANCH   3   4
ENDBRANCH   2   3
ENDBRANCH   1   2
BRANCH   1  11
ATOM     11  C   UNL     1      41.095   3.679  18.703  1.00  0.00     0.000 C 
BRANCH  11  12
ATOM     12  C   UNL     1      42.094   2.509  18.642  1.00  0.00    -0.000 C 
BRANCH  12  13
ATOM     13  C   UNL     1      41.793   1.527  17.500  1.00  0.00    -0.000 C 
BRANCH  13  14
ATOM     14  C   UNL     1      41.121   2.248  16.322  1.00  0.00    -0.000 C 
BRANCH  14  15
ATOM     15  C   UNL     1      41.081   1.387  15.049  1.00  0.00    -0.000 C 
BRANCH  15  16
ATOM     16  C   UNL     1      41.035   2.233  13.764  1.00  0.00    -0.000 C 
BRANCH  16  17
ATOM     17  C   UNL     1      39.915   3.284  13.792  1.00  0.00    -0.003 C 
ATOM     18  C   UNL     1      40.026   4.295  12.653  1.00  0.00     0.004 C 
ENDBRANCH  16  17
ENDBRANCH  15  16
ENDBRANCH  14  15
ENDBRANCH  13  14
ENDBRANCH  12  13
ENDBRANCH  11  12
ENDBRANCH   1  11
TORSDOF 14
ENDMDL
MODEL 2
REMARK VINA RESULT:    -4.538      6.059      9.209
REMARK INTER + INTRA:          -9.372
REMARK INTER:                  -8.023
REMARK INTRA:                  -1.349
REMARK UNBOUND:                -1.120
REMARK SMILES CCCCCCCCCCCCCCCC(=O)[O-]
REMARK SMILES IDX 9 1 10 2 11 3 12 4 13 5 14 6 15 7 16 8 17 9 18 10 8 11 7 12
REMARK SMILES IDX 6 13 5 14 4 15 3 16 2 17 1 18
REMARK H PARENT
REMARK Flexibility Score: inf
ROOT
ATOM      1  C   UNL     1      41.498  -2.919  14.971  1.00  0.00     0.000 C 
ENDROOT
BRANCH   1   2
ATOM      2  C   UNL     1      42.183  -1.648  15.506  1.00  0.00     0.000 C 
BRANCH   2   3
ATOM      3  C   UNL     1      41.252  -0.792  16.381  1.00  0.00     0.000 C 
BRANCH   3   4
ATOM      4  C   UNL     1      41.959   0.446  16.958  1.00  0.00     0.000 C 
BRANCH   4   5
ATOM      5  C   UNL     1      41.322   1.764  16.497  1.00  0.00     0.000 C 
BRANCH   5   6
ATOM      6  C   UNL     1      40.908   1.686  15.019  1.00  0.00     0.006 C 
BRANCH   6   7
ATOM      7  C   UNL     1      40.165   2.946  14.556  1.00  0.00     0.053 C 
BRANCH   7   8
ATOM      8  C   UNL     1      40.469   3.278  13.128  1.00  0.00     0.041 C 
ATOM      9  O   UNL     1      39.843   4.202  12.546  1.00  0.00    -0.550 OA
ATOM     10  O   UNL     1      41.468   2.590  12.450  1.00  0.00    -0.550 OA
ENDBRANCH   7   8
ENDBRANCH   6   7
ENDBRANCH   5   6
ENDBRANCH   4   5
ENDBRANCH   3   4
ENDBRANCH   2   3
ENDBRANCH   1   2
BRANCH   1  11
ATOM     11  C   UNL     1      41.938  -4.236  15.643  1.00  0.00     0.000 C 
BRANCH  11  12
ATOM     12  C   UNL     1      40.813  -5.017  16.347  1.00  0.00    -0.000 C 
BRANCH  12  13
ATOM     13  C   UNL     1      40.410  -4.398  17.693  1.00  0.00    -0.000 C 
BRANCH  13  14
ATOM     14  C   UNL     1      41.640  -3.859  18.438  1.00  0.00    -0.000 C 
BRANCH  14  15
ATOM     15  C   UNL     1      42.281  -4.911  19.358  1.00  0.00    -0.000 C 
BRANCH  15  16
ATOM     16  C   UNL     1      43.626  -5.428  18.819  1.00  0.00    -0.000 C 
BRANCH  16  17
ATOM     17  C   UNL     1      43.709  -6.961  18.815  1.00  0.00    -0.003 C 
ATOM     18  C   UNL     1      42.403  -7.622  18.378  1.00  0.00     0.004 C 
ENDBRANCH  16  17
ENDBRANCH  15  16
ENDBRANCH  14  15
ENDBRANCH  13  14
ENDBRANCH  12  13
ENDBRANCH  11  12
ENDBRANCH   1  11
TORSDOF 14
ENDMDL
MODEL 3
REMARK VINA RESULT:    -4.516      4.665      7.699
REMARK INTER + INTRA:          -9.332
REMARK INTER:                  -7.837
REMARK INTRA:                  -1.495
REMARK UNBOUND:                -1.120
REMARK SMILES CCCCCCCCCCCCCCCC(=O)[O-]
REMARK SMILES IDX 9 1 10 2 11 3 12 4 13 5 14 6 15 7 16 8 17 9 18 10 8 11 7 12
REMARK SMILES IDX 6 13 5 14 4 15 3 16 2 17 1 18
REMARK H PARENT
REMARK Flexibility Score: inf
ROOT
ATOM      1  C   UNL     1      41.575  -4.194  13.629  1.00  0.00     0.000 C 
ENDROOT
BRANCH   1   2
ATOM      2  C   UNL     1      40.579  -5.089  14.389  1.00  0.00     0.000 C 
BRANCH   2   3
ATOM      3  C   UNL     1      41.274  -6.110  15.306  1.00  0.00     0.000 C 
BRANCH   3   4
ATOM      4  C   UNL     1      41.788  -5.478  16.610  1.00  0.00     0.000 C 
BRANCH   4   5
ATOM      5  C   UNL     1      40.714  -4.654  17.335  1.00  0.00     0.000 C 
BRANCH   5   6
ATOM      6  C   UNL     1      41.351  -3.710  18.367  1.00  0.00     0.006 C 
BRANCH   6   7
ATOM      7  C   UNL     1      42.883  -3.718  18.295  1.00  0.00     0.053 C 
BRANCH   7   8
ATOM      8  C   UNL     1      43.496  -4.273  19.544  1.00  0.00     0.041 C 
ATOM      9  O   UNL     1      43.746  -3.516  20.518  1.00  0.00    -0.550 OA
ATOM     10  O   UNL     1      43.761  -5.634  19.644  1.00  0.00    -0.550 OA
ENDBRANCH   7   8
ENDBRANCH   6   7
ENDBRANCH   5   6
ENDBRANCH   4   5
ENDBRANCH   3   4
ENDBRANCH   2   3
ENDBRANCH   1   2
BRANCH   1  11
ATOM     11  C   UNL     1      41.223  -2.692  13.604  1.00  0.00     0.000 C 
BRANCH  11  12
ATOM     12  C   UNL     1      42.086  -1.805  14.519  1.00  0.00    -0.000 C 
BRANCH  12  13
ATOM     13  C   UNL     1      41.370  -1.413  15.820  1.00  0.00    -0.000 C 
BRANCH  13  14
ATOM     14  C   UNL     1      41.784  -0.004  16.270  1.00  0.00    -0.000 C 
BRANCH  14  15
ATOM     15  C   UNL     1      42.154   0.054  17.761  1.00  0.00    -0.000 C 
BRANCH  15  16
ATOM     16  C   UNL     1      42.466   1.483  18.238  1.00  0.00    -0.000 C 
BRANCH  16  17
ATOM     17  C   UNL     1      41.440   2.509  17.734  1.00  0.00    -0.003 C 
ATOM     18  C   UNL     1      41.155   3.609  18.755  1.00  0.00     0.004 C 
ENDBRANCH  16  17
ENDBRANCH  15  16
ENDBRANCH  14  15
ENDBRANCH  13  14
ENDBRANCH  12  13
ENDBRANCH  11  12
ENDBRANCH   1  11
TORSDOF 14
ENDMDL
MODEL 4
REMARK VINA RESULT:    -4.483      8.129     11.275
REMARK INTER + INTRA:          -9.271
REMARK INTER:                  -7.532
REMARK INTRA:                  -1.739
REMARK UNBOUND:                -1.120
REMARK SMILES CCCCCCCCCCCCCCCC(=O)[O-]
REMARK SMILES IDX 9 1 10 2 11 3 12 4 13 5 14 6 15 7 16 8 17 9 18 10 8 11 7 12
REMARK SMILES IDX 6 13 5 14 4 15 3 16 2 17 1 18
REMARK H PARENT
REMARK Flexibility Score: inf
ROOT
ATOM      1  C   UNL     1      36.667  -4.908  11.874  1.00  0.00     0.000 C 
ENDROOT
BRANCH   1   2
ATOM      2  C   UNL     1      38.182  -5.123  11.705  1.00  0.00     0.000 C 
BRANCH   2   3
ATOM      3  C   UNL     1      38.992  -4.652  12.924  1.00  0.00     0.000 C 
BRANCH   3   4
ATOM      4  C   UNL     1      40.013  -3.559  12.567  1.00  0.00     0.000 C 
BRANCH   4   5
ATOM      5  C   UNL     1      41.311  -3.670  13.381  1.00  0.00     0.000 C 
BRANCH   5   6
ATOM      6  C   UNL     1      41.318  -2.666  14.544  1.00  0.00     0.006 C 
BRANCH   6   7
ATOM      7  C   UNL     1      42.028  -3.220  15.786  1.00  0.00     0.053 C 
BRANCH   7   8
ATOM      8  C   UNL     1      41.055  -3.743  16.797  1.00  0.00     0.041 C 
ATOM      9  O   UNL     1      40.501  -4.860  16.624  1.00  0.00    -0.550 OA
ATOM     10  O   UNL     1      40.787  -3.012  17.949  1.00  0.00    -0.550 OA
ENDBRANCH   7   8
ENDBRANCH   6   7
ENDBRANCH   5   6
ENDBRANCH   4   5
ENDBRANCH   3   4
ENDBRANCH   2   3
ENDBRANCH   1   2
BRANCH   1  11
ATOM     11  C   UNL     1      35.774  -6.025  11.295  1.00  0.00     0.000 C 
BRANCH  11  12
ATOM     12  C   UNL     1      34.306  -5.991  11.756  1.00  0.00    -0.000 C 
BRANCH  12  13
ATOM     13  C   UNL     1      34.081  -5.071  12.964  1.00  0.00    -0.000 C 
BRANCH  13  14
ATOM     14  C   UNL     1      33.436  -5.841  14.126  1.00  0.00    -0.000 C 
BRANCH  14  15
ATOM     15  C   UNL     1      34.452  -6.685  14.913  1.00  0.00    -0.000 C 
BRANCH  15  16
ATOM     16  C   UNL     1      35.706  -5.885  15.306  1.00  0.00    -0.000 C 
BRANCH  16  17
ATOM     17  C   UNL     1      37.002  -6.684  15.105  1.00  0.00    -0.003 C 
ATOM     18  C   UNL     1      36.792  -7.951  14.278  1.00  0.00     0.004 C 
ENDBRANCH  16  17
ENDBRANCH  15  16
ENDBRANCH  14  15
ENDBRANCH  13  14
ENDBRANCH  12  13
ENDBRANCH  11  12
ENDBRANCH   1  11
TORSDOF 14
ENDMDL
MODEL 5
REMARK VINA RESULT:    -4.465      6.997      9.534
REMARK INTER + INTRA:          -9.239
REMARK INTER:                  -8.018
REMARK INTRA:                  -1.221
REMARK UNBOUND:                -1.120
REMARK SMILES CCCCCCCCCCCCCCCC(=O)[O-]
REMARK SMILES IDX 9 1 10 2 11 3 12 4 13 5 14 6 15 7 16 8 17 9 18 10 8 11 7 12
REMARK SMILES IDX 6 13 5 14 4 15 3 16 2 17 1 18
REMARK H PARENT
REMARK Flexibility Score: inf
ROOT
ATOM      1  C   UNL     1      40.257  -3.803  12.660  1.00  0.00     0.000 C 
ENDROOT
BRANCH   1   2
ATOM      2  C   UNL     1      41.114  -3.531  13.910  1.00  0.00     0.000 C 
BRANCH   2   3
ATOM      3  C   UNL     1      41.631  -2.084  13.977  1.00  0.00     0.000 C 
BRANCH   3   4
ATOM      4  C   UNL     1      42.132  -1.701  15.379  1.00  0.00     0.000 C 
BRANCH   4   5
ATOM      5  C   UNL     1      41.201  -2.189  16.498  1.00  0.00     0.000 C 
BRANCH   5   6
ATOM      6  C   UNL     1      41.911  -2.147  17.860  1.00  0.00     0.006 C 
BRANCH   6   7
ATOM      7  C   UNL     1      42.904  -3.303  18.034  1.00  0.00     0.053 C 
BRANCH   7   8
ATOM      8  C   UNL     1      42.281  -4.626  17.714  1.00  0.00     0.041 C 
ATOM      9  O   UNL     1      41.376  -5.096  18.451  1.00  0.00    -0.550 OA
ATOM     10  O   UNL     1      42.676  -5.326  16.579  1.00  0.00    -0.550 OA
ENDBRANCH   7   8
ENDBRANCH   6   7
ENDBRANCH   5   6
ENDBRANCH   4   5
ENDBRANCH   3   4
ENDBRANCH   2   3
ENDBRANCH   1   2
BRANCH   1  11
ATOM     11  C   UNL     1      39.012  -4.683  12.894  1.00  0.00     0.000 C 
BRANCH  11  12
ATOM     12  C   UNL     1      37.909  -4.549  11.829  1.00  0.00    -0.000 C 
BRANCH  12  13
ATOM     13  C   UNL     1      37.448  -5.905  11.274  1.00  0.00    -0.000 C 
BRANCH  13  14
ATOM     14  C   UNL     1      35.948  -6.118  11.524  1.00  0.00    -0.000 C 
BRANCH  14  15
ATOM     15  C   UNL     1      35.267  -4.875  12.121  1.00  0.00    -0.000 C 
BRANCH  15  16
ATOM     16  C   UNL     1      34.384  -5.210  13.336  1.00  0.00    -0.000 C 
BRANCH  16  17
ATOM     17  C   UNL     1      35.049  -6.218  14.286  1.00  0.00    -0.003 C 
ATOM     18  C   UNL     1      36.138  -5.584  15.150  1.00  0.00     0.004 C 
ENDBRANCH  16  17
ENDBRANCH  15  16
ENDBRANCH  14  15
ENDBRANCH  13  14
ENDBRANCH  12  13
ENDBRANCH  11  12
ENDBRANCH   1  11
TORSDOF 14
ENDMDL
MODEL 6
REMARK VINA RESULT:    -4.354      4.318      7.238
REMARK INTER + INTRA:          -9.038
REMARK INTER:                  -7.954
REMARK INTRA:                  -1.083
REMARK UNBOUND:                -1.120
REMARK SMILES CCCCCCCCCCCCCCCC(=O)[O-]
REMARK SMILES IDX 9 1 10 2 11 3 12 4 13 5 14 6 15 7 16 8 17 9 18 10 8 11 7 12
REMARK SMILES IDX 6 13 5 14 4 15 3 16 2 17 1 18
REMARK H PARENT
REMARK Flexibility Score: inf
ROOT
ATOM      1  C   UNL     1      41.953   4.711  18.871  1.00  0.00     0.000 C 
ENDROOT
BRANCH   1   2
ATOM      2  C   UNL     1      41.929   3.332  19.555  1.00  0.00     0.000 C 
BRANCH   2   3
ATOM      3  C   UNL     1      43.208   2.517  19.301  1.00  0.00     0.000 C 
BRANCH   3   4
ATOM      4  C   UNL     1      42.947   1.255  18.462  1.00  0.00     0.000 C 
BRANCH   4   5
ATOM      5  C   UNL     1      41.535   1.223  17.860  1.00  0.00     0.000 C 
BRANCH   5   6
ATOM      6  C   UNL     1      41.587   1.366  16.331  1.00  0.00     0.006 C 
BRANCH   6   7
ATOM      7  C   UNL     1      40.734   2.537  15.827  1.00  0.00     0.053 C 
BRANCH   7   8
ATOM      8  C   UNL     1      40.567   2.505  14.339  1.00  0.00     0.041 C 
ATOM      9  O   UNL     1      41.193   1.658  13.650  1.00  0.00    -0.550 OA
ATOM     10  O   UNL     1      39.694   3.389  13.717  1.00  0.00    -0.550 OA
ENDBRANCH   7   8
ENDBRANCH   6   7
ENDBRANCH   5   6
ENDBRANCH   4   5
ENDBRANCH   3   4
ENDBRANCH   2   3
ENDBRANCH   1   2
BRANCH   1  11
ATOM     11  C   UNL     1      42.072   5.917  19.826  1.00  0.00     0.000 C 
BRANCH  11  12
ATOM     12  C   UNL     1      43.345   5.942  20.690  1.00  0.00    -0.000 C 
BRANCH  12  13
ATOM     13  C   UNL     1      44.614   6.229  19.875  1.00  0.00    -0.000 C 
BRANCH  13  14
ATOM     14  C   UNL     1      44.882   7.739  19.792  1.00  0.00    -0.000 C 
BRANCH  14  15
ATOM     15  C   UNL     1      44.289   8.376  18.524  1.00  0.00    -0.000 C 
BRANCH  15  16
ATOM     16  C   UNL     1      45.344   9.117  17.685  1.00  0.00    -0.000 C 
BRANCH  16  17
ATOM     17  C   UNL     1      46.780   8.727  18.067  1.00  0.00    -0.003 C 
ATOM     18  C   UNL     1      47.759   8.865  16.903  1.00  0.00     0.004 C 
ENDBRANCH  16  17
ENDBRANCH  15  16
ENDBRANCH  14  15
ENDBRANCH  13  14
ENDBRANCH  12  13
ENDBRANCH  11  12
ENDBRANCH   1  11
TORSDOF 14
ENDMDL
MODEL 7
REMARK VINA RESULT:    -4.346      8.079     10.780
REMARK INTER + INTRA:          -9.023
REMARK INTER:                  -8.449
REMARK INTRA:                  -0.573
REMARK UNBOUND:                -1.120
REMARK SMILES CCCCCCCCCCCCCCCC(=O)[O-]
REMARK SMILES IDX 9 1 10 2 11 3 12 4 13 5 14 6 15 7 16 8 17 9 18 10 8 11 7 12
REMARK SMILES IDX 6 13 5 14 4 15 3 16 2 17 1 18
REMARK H PARENT
REMARK Flexibility Score: inf
ROOT
ATOM      1  C   UNL     1      38.630  -5.298  13.632  1.00  0.00     0.000 C 
ENDROOT
BRANCH   1   2
ATOM      2  C   UNL     1      40.062  -4.986  14.104  1.00  0.00     0.000 C 
BRANCH   2   3
ATOM      3  C   UNL     1      40.534  -3.583  13.691  1.00  0.00     0.000 C 
BRANCH   3   4
ATOM      4  C   UNL     1      41.451  -2.935  14.742  1.00  0.00     0.000 C 
BRANCH   4   5
ATOM      5  C   UNL     1      42.016  -1.583  14.286  1.00  0.00     0.000 C 
BRANCH   5   6
ATOM      6  C   UNL     1      41.679  -0.477  15.299  1.00  0.00     0.006 C 
BRANCH   6   7
ATOM      7  C   UNL     1      41.326   0.850  14.615  1.00  0.00     0.053 C 
BRANCH   7   8
ATOM      8  C   UNL     1      40.976   1.913  15.610  1.00  0.00     0.041 C 
ATOM      9  O   UNL     1      41.443   1.866  16.778  1.00  0.00    -0.550 OA
ATOM     10  O   UNL     1      40.161   2.975  15.236  1.00  0.00    -0.550 OA
ENDBRANCH   7   8
ENDBRANCH   6   7
ENDBRANCH   5   6
ENDBRANCH   4   5
ENDBRANCH   3   4
ENDBRANCH   2   3
ENDBRANCH   1   2
BRANCH   1  11
ATOM     11  C   UNL     1      38.341  -4.979  12.150  1.00  0.00     0.000 C 
BRANCH  11  12
ATOM     12  C   UNL     1      36.852  -4.804  11.799  1.00  0.00    -0.000 C 
BRANCH  12  13
ATOM     13  C   UNL     1      35.950  -5.834  12.494  1.00  0.00    -0.000 C 
BRANCH  13  14
ATOM     14  C   UNL     1      34.773  -5.143  13.199  1.00  0.00    -0.000 C 
BRANCH  14  15
ATOM     15  C   UNL     1      33.419  -5.473  12.550  1.00  0.00    -0.000 C 
BRANCH  15  16
ATOM     16  C   UNL     1      33.564  -6.350  11.295  1.00  0.00    -0.000 C 
BRANCH  16  17
ATOM     17  C   UNL     1      32.464  -7.418  11.193  1.00  0.00    -0.003 C 
ATOM     18  C   UNL     1      31.992  -7.644   9.758  1.00  0.00     0.004 C 
ENDBRANCH  16  17
ENDBRANCH  15  16
ENDBRANCH  14  15
ENDBRANCH  13  14
ENDBRANCH  12  13
ENDBRANCH  11  12
ENDBRANCH   1  11
TORSDOF 14
ENDMDL
MODEL 8
REMARK VINA RESULT:    -4.322      7.589     10.388
REMARK INTER + INTRA:          -8.979
REMARK INTER:                  -7.128
REMARK INTRA:                  -1.851
REMARK UNBOUND:                -1.120
REMARK SMILES CCCCCCCCCCCCCCCC(=O)[O-]
REMARK SMILES IDX 9 1 10 2 11 3 12 4 13 5 14 6 15 7 16 8 17 9 18 10 8 11 7 12
REMARK SMILES IDX 6 13 5 14 4 15 3 16 2 17 1 18
REMARK H PARENT
REMARK Flexibility Score: inf
ROOT
ATOM      1  C   UNL     1      38.717  -6.065  12.679  1.00  0.00     0.000 C 
ENDROOT
BRANCH   1   2
ATOM      2  C   UNL     1      39.655  -5.113  11.915  1.00  0.00     0.000 C 
BRANCH   2   3
ATOM      3  C   UNL     1      39.815  -3.749  12.607  1.00  0.00     0.000 C 
BRANCH   3   4
ATOM      4  C   UNL     1      41.280  -3.432  12.954  1.00  0.00     0.000 C 
BRANCH   4   5
ATOM      5  C   UNL     1      41.485  -3.131  14.446  1.00  0.00     0.000 C 
BRANCH   5   6
ATOM      6  C   UNL     1      41.487  -4.426  15.272  1.00  0.00     0.006 C 
BRANCH   6   7
ATOM      7  C   UNL     1      40.914  -4.219  16.680  1.00  0.00     0.053 C 
BRANCH   7   8
ATOM      8  C   UNL     1      41.724  -3.239  17.473  1.00  0.00     0.041 C 
ATOM      9  O   UNL     1      42.894  -3.530  17.833  1.00  0.00    -0.550 OA
ATOM     10  O   UNL     1      41.198  -1.991  17.784  1.00  0.00    -0.550 OA
ENDBRANCH   7   8
ENDBRANCH   6   7
ENDBRANCH   5   6
ENDBRANCH   4   5
ENDBRANCH   3   4
ENDBRANCH   2   3
ENDBRANCH   1   2
BRANCH   1  11
ATOM     11  C   UNL     1      38.303  -5.591  14.087  1.00  0.00     0.000 C 
BRANCH  11  12
ATOM     12  C   UNL     1      38.035  -6.717  15.102  1.00  0.00    -0.000 C 
BRANCH  12  13
ATOM     13  C   UNL     1      36.558  -6.812  15.511  1.00  0.00    -0.000 C 
BRANCH  13  14
ATOM     14  C   UNL     1      35.778  -5.576  15.038  1.00  0.00    -0.000 C 
BRANCH  14  15
ATOM     15  C   UNL     1      34.434  -5.940  14.387  1.00  0.00    -0.000 C 
BRANCH  15  16
ATOM     16  C   UNL     1      34.127  -5.083  13.146  1.00  0.00    -0.000 C 
BRANCH  16  17
ATOM     17  C   UNL     1      35.196  -5.226  12.053  1.00  0.00    -0.003 C 
ATOM     18  C   UNL     1      35.213  -6.616  11.422  1.00  0.00     0.004 C 
ENDBRANCH  16  17
ENDBRANCH  15  16
ENDBRANCH  14  15
ENDBRANCH  13  14
ENDBRANCH  12  13
ENDBRANCH  11  12
ENDBRANCH   1  11
TORSDOF 14
ENDMDL
MODEL 9
REMARK VINA RESULT:    -4.281      3.957      6.997
REMARK INTER + INTRA:          -8.904
REMARK INTER:                  -7.525
REMARK INTRA:                  -1.379
REMARK UNBOUND:                -1.120
REMARK SMILES CCCCCCCCCCCCCCCC(=O)[O-]
REMARK SMILES IDX 9 1 10 2 11 3 12 4 13 5 14 6 15 7 16 8 17 9 18 10 8 11 7 12
REMARK SMILES IDX 6 13 5 14 4 15 3 16 2 17 1 18
REMARK H PARENT
REMARK Flexibility Score: inf
ROOT
ATOM      1  C   UNL     1      44.050   8.541  18.992  1.00  0.00     0.000 C 
ENDROOT
BRANCH   1   2
ATOM      2  C   UNL     1      43.368   7.169  18.845  1.00  0.00     0.000 C 
BRANCH   2   3
ATOM      3  C   UNL     1      43.516   6.291  20.099  1.00  0.00     0.000 C 
BRANCH   3   4
ATOM      4  C   UNL     1      42.885   4.900  19.924  1.00  0.00     0.000 C 
BRANCH   4   5
ATOM      5  C   UNL     1      41.580   4.937  19.115  1.00  0.00     0.000 C 
BRANCH   5   6
ATOM      6  C   UNL     1      41.243   3.547  18.554  1.00  0.00     0.006 C 
BRANCH   6   7
ATOM      7  C   UNL     1      42.377   2.538  18.779  1.00  0.00     0.053 C 
BRANCH   7   8
ATOM      8  C   UNL     1      42.169   1.281  17.992  1.00  0.00     0.041 C 
ATOM      9  O   UNL     1      41.577   1.319  16.882  1.00  0.00    -0.550 OA
ATOM     10  O   UNL     1      42.659   0.071  18.470  1.00  0.00    -0.550 OA
ENDBRANCH   7   8
ENDBRANCH   6   7
ENDBRANCH   5   6
ENDBRANCH   4   5
ENDBRANCH   3   4
ENDBRANCH   2   3
ENDBRANCH   1   2
BRANCH   1  11
ATOM     11  C   UNL     1      44.827   9.026  17.750  1.00  0.00     0.000 C 
BRANCH  11  12
ATOM     12  C   UNL     1      46.178   9.700  18.048  1.00  0.00    -0.000 C 
BRANCH  12  13
ATOM     13  C   UNL     1      47.354   9.019  17.333  1.00  0.00    -0.000 C 
BRANCH  13  14
ATOM     14  C   UNL     1      48.180   8.178  18.318  1.00  0.00    -0.000 C 
BRANCH  14  15
ATOM     15  C   UNL     1      47.626   6.754  18.489  1.00  0.00    -0.000 C 
BRANCH  15  16
ATOM     16  C   UNL     1      47.189   6.459  19.934  1.00  0.00    -0.000 C 
BRANCH  16  17
ATOM     17  C   UNL     1      46.951   4.962  20.184  1.00  0.00    -0.003 C 
ATOM     18  C   UNL     1      47.662   4.452  21.436  1.00  0.00     0.004 C 
ENDBRANCH  16  17
ENDBRANCH  15  16
ENDBRANCH  14  15
ENDBRANCH  13  14
ENDBRANCH  12  13
ENDBRANCH  11  12
ENDBRANCH   1  11
TORSDOF 14
ENDMDL
