MODEL 1
REMARK VINA RESULT:    30.597      0.000      0.000
REMARK INTER + INTRA:          46.447
REMARK INTER:                  42.224
REMARK INTRA:                   4.223
REMARK UNBOUND:                 4.223
REMARK SMILES CC[C@H](CC[C@@H](C)[C@H]1CC[C@@H]2[C@@H]3CC=C4C[C@H](O)CC[C@@]4(C)[C@H]3CC[C@]21C)C(C)C
REMARK SMILES IDX 5 1 4 2 3 3 2 4 1 5 28 6 29 7 30 8 6 9 7 10 8 11 9 12 26 13
REMARK SMILES IDX 10 14 11 15 25 16 27 17 12 18 24 19 23 20 13 21 21 22 14 23
REMARK SMILES IDX 15 24 20 25 22 26 16 27 19 28 17 29 18 30
REMARK H PARENT 18 31
REMARK Flexibility Score: inf
ROOT
ATOM      1  C   UNL     1      17.141  12.927  40.975  1.00  0.00     0.004 C 
ENDROOT
BRANCH   1   2
ATOM      2  C   UNL     1      17.640  13.927  42.039  1.00  0.00     0.004 C 
BRANCH   2   3
ATOM      3  C   UNL     1      19.189  14.000  42.165  1.00  0.00    -0.009 C 
BRANCH   3   4
ATOM      4  C   UNL     1      19.703  12.911  43.148  1.00  0.00     0.000 C 
ATOM      5  C   UNL     1      20.963  13.330  43.911  1.00  0.00     0.004 C 
ENDBRANCH   3   4
BRANCH   3   6
ATOM      6  C   UNL     1      19.925  13.947  40.782  1.00  0.00    -0.014 C 
ATOM      7  C   UNL     1      21.457  13.960  40.927  1.00  0.00     0.007 C 
ATOM      8  C   UNL     1      19.489  12.765  39.899  1.00  0.00     0.007 C 
ENDBRANCH   3   6
ENDBRANCH   2   3
ENDBRANCH   1   2
BRANCH   1   9
ATOM      9  C   UNL     1      16.550  13.637  39.717  1.00  0.00    -0.011 C 
ATOM     10  C   UNL     1      17.553  13.478  38.543  1.00  0.00     0.008 C 
BRANCH   9  11
ATOM     11  C   UNL     1      15.138  13.078  39.320  1.00  0.00    -0.002 C 
ATOM     12  C   UNL     1      13.989  14.119  39.488  1.00  0.00     0.005 C 
ATOM     13  C   UNL     1      14.955  12.495  37.850  1.00  0.00    -0.026 C 
ATOM     14  C   UNL     1      13.060  13.970  38.292  1.00  0.00     0.005 C 
ATOM     15  C   UNL     1      14.018  13.535  37.209  1.00  0.00    -0.001 C 
ATOM     16  C   UNL     1      16.211  12.362  36.901  1.00  0.00     0.007 C 
ATOM     17  C   UNL     1      14.288  11.094  38.026  1.00  0.00     0.012 C 
ATOM     18  C   UNL     1      13.480  13.217  35.791  1.00  0.00     0.000 C 
ATOM     19  C   UNL     1      15.940  12.670  35.391  1.00  0.00     0.005 C 
ATOM     20  C   UNL     1      14.480  12.366  34.968  1.00  0.00     0.003 C 
ATOM     21  C   UNL     1      12.108  12.551  35.690  1.00  0.00     0.031 C 
ATOM     22  C   UNL     1      14.146  12.444  33.433  1.00  0.00    -0.008 C 
ATOM     23  C   UNL     1      11.714  12.463  34.234  1.00  0.00    -0.027 C 
ATOM     24  C   UNL     1      12.615  12.435  33.212  1.00  0.00    -0.065 C 
ATOM     25  C   UNL     1      14.721  13.742  32.787  1.00  0.00     0.014 C 
ATOM     26  C   UNL     1      14.757  11.201  32.733  1.00  0.00     0.016 C 
ATOM     27  C   UNL     1      12.118  12.642  31.798  1.00  0.00     0.063 C 
ATOM     28  C   UNL     1      14.224  13.982  31.347  1.00  0.00     0.033 C 
ATOM     29  C   UNL     1      12.688  13.962  31.252  1.00  0.00     0.118 C 
BRANCH  29  30
ATOM     30  O   UNL     1      12.311  14.125  29.911  1.00  0.00    -0.393 OA
ATOM     31  H   UNL     1      11.333  13.949  29.865  1.00  0.00     0.210 HD
ENDBRANCH  29  30
ENDBRANCH   9  11
ENDBRANCH   1   9
TORSDOF 7
ENDMDL
MODEL 2
REMARK VINA RESULT:    33.125      1.434      2.374
REMARK INTER + INTRA:          49.935
REMARK INTER:                  50.448
REMARK INTRA:                  -0.513
REMARK UNBOUND:                 4.223
REMARK SMILES CC[C@H](CC[C@@H](C)[C@H]1CC[C@@H]2[C@@H]3CC=C4C[C@H](O)CC[C@@]4(C)[C@H]3CC[C@]21C)C(C)C
REMARK SMILES IDX 5 1 4 2 3 3 2 4 1 5 28 6 29 7 30 8 6 9 7 10 8 11 9 12 26 13
REMARK SMILES IDX 10 14 11 15 25 16 27 17 12 18 24 19 23 20 13 21 21 22 14 23
REMARK SMILES IDX 15 24 20 25 22 26 16 27 19 28 17 29 18 30
REMARK H PARENT 18 31
REMARK Flexibility Score: inf
ROOT
ATOM      1  C   UNL     1      15.985  13.956  39.728  1.00  0.00     0.004 C 
ENDROOT
BRANCH   1   2
ATOM      2  C   UNL     1      16.589  14.121  41.137  1.00  0.00     0.004 C 
BRANCH   2   3
ATOM      3  C   UNL     1      17.777  13.161  41.434  1.00  0.00    -0.009 C 
BRANCH   3   4
ATOM      4  C   UNL     1      18.187  13.255  42.931  1.00  0.00     0.000 C 
ATOM      5  C   UNL     1      19.606  12.747  43.204  1.00  0.00     0.004 C 
ENDBRANCH   3   4
BRANCH   3   6
ATOM      6  C   UNL     1      17.506  11.684  40.985  1.00  0.00    -0.014 C 
ATOM      7  C   UNL     1      18.682  11.081  40.196  1.00  0.00     0.007 C 
ATOM      8  C   UNL     1      17.115  10.751  42.144  1.00  0.00     0.007 C 
ENDBRANCH   3   6
ENDBRANCH   2   3
ENDBRANCH   1   2
BRANCH   1   9
ATOM      9  C   UNL     1      14.683  13.095  39.731  1.00  0.00    -0.011 C 
ATOM     10  C   UNL     1      13.490  14.001  39.322  1.00  0.00     0.008 C 
BRANCH   9  11
ATOM     11  C   UNL     1      14.784  11.849  38.783  1.00  0.00    -0.002 C 
ATOM     12  C   UNL     1      13.562  10.887  38.889  1.00  0.00     0.005 C 
ATOM     13  C   UNL     1      14.967  12.113  37.223  1.00  0.00    -0.026 C 
ATOM     14  C   UNL     1      13.216  10.432  37.478  1.00  0.00     0.005 C 
ATOM     15  C   UNL     1      13.618  11.633  36.658  1.00  0.00    -0.001 C 
ATOM     16  C   UNL     1      15.186  13.588  36.702  1.00  0.00     0.007 C 
ATOM     17  C   UNL     1      16.171  11.223  36.778  1.00  0.00     0.012 C 
ATOM     18  C   UNL     1      13.477  11.592  35.116  1.00  0.00     0.000 C 
ATOM     19  C   UNL     1      14.497  13.921  35.338  1.00  0.00     0.005 C 
ATOM     20  C   UNL     1      14.341  12.677  34.425  1.00  0.00     0.003 C 
ATOM     21  C   UNL     1      13.755  10.261  34.418  1.00  0.00     0.031 C 
ATOM     22  C   UNL     1      13.848  12.926  32.951  1.00  0.00    -0.008 C 
ATOM     23  C   UNL     1      13.422  10.401  32.950  1.00  0.00    -0.027 C 
ATOM     24  C   UNL     1      13.441  11.590  32.286  1.00  0.00    -0.065 C 
ATOM     25  C   UNL     1      12.617  13.882  32.912  1.00  0.00     0.014 C 
ATOM     26  C   UNL     1      15.016  13.549  32.140  1.00  0.00     0.016 C 
ATOM     27  C   UNL     1      12.813  11.665  30.911  1.00  0.00     0.063 C 
ATOM     28  C   UNL     1      11.953  13.971  31.523  1.00  0.00     0.033 C 
ATOM     29  C   UNL     1      11.583  12.584  30.967  1.00  0.00     0.118 C 
BRANCH  29  30
ATOM     30  O   UNL     1      11.043  12.737  29.682  1.00  0.00    -0.393 OA
ATOM     31  H   UNL     1      11.089  13.706  29.465  1.00  0.00     0.210 HD
ENDBRANCH  29  30
ENDBRANCH   9  11
ENDBRANCH   1   9
TORSDOF 7
ENDMDL
