MODEL 1
REMARK VINA RESULT:    -4.537      0.000      0.000
REMARK INTER + INTRA:          -7.910
REMARK INTER:                  -7.190
REMARK INTRA:                  -0.720
REMARK UNBOUND:                -0.720
REMARK SMILES CCCCCCCCCCCC(=O)[O-]
REMARK SMILES IDX 7 1 8 2 9 3 10 4 11 5 12 6 13 7 14 8 6 9 5 10 4 11 3 12 2 13
REMARK SMILES IDX 1 14
REMARK H PARENT
REMARK Flexibility Score: inf
ROOT
ATOM      1  C   UNL     1       6.589 -31.548 -17.948  1.00  0.00     0.000 C 
ENDROOT
BRANCH   1   2
ATOM      2  C   UNL     1       7.401 -32.339 -18.987  1.00  0.00     0.000 C 
BRANCH   2   3
ATOM      3  C   UNL     1       6.512 -32.974 -20.071  1.00  0.00     0.000 C 
BRANCH   3   4
ATOM      4  C   UNL     1       7.047 -34.333 -20.558  1.00  0.00     0.006 C 
BRANCH   4   5
ATOM      5  C   UNL     1       6.218 -34.976 -21.683  1.00  0.00     0.053 C 
BRANCH   5   6
ATOM      6  C   UNL     1       6.702 -36.351 -22.023  1.00  0.00     0.041 C 
ATOM      7  O   UNL     1       7.286 -36.563 -23.119  1.00  0.00    -0.550 OA
ATOM      8  O   UNL     1       6.478 -37.405 -21.146  1.00  0.00    -0.550 OA
ENDBRANCH   5   6
ENDBRANCH   4   5
ENDBRANCH   3   4
ENDBRANCH   2   3
ENDBRANCH   1   2
BRANCH   1   9
ATOM      9  C   UNL     1       5.323 -30.907 -18.545  1.00  0.00     0.000 C 
BRANCH   9  10
ATOM     10  C   UNL     1       4.920 -29.612 -17.822  1.00  0.00    -0.000 C 
BRANCH  10  11
ATOM     11  C   UNL     1       5.666 -29.420 -16.493  1.00  0.00    -0.000 C 
BRANCH  11  12
ATOM     12  C   UNL     1       6.196 -27.984 -16.363  1.00  0.00    -0.000 C 
BRANCH  12  13
ATOM     13  C   UNL     1       7.093 -27.577 -17.543  1.00  0.00    -0.003 C 
ATOM     14  C   UNL     1       8.441 -28.299 -17.538  1.00  0.00     0.004 C 
ENDBRANCH  12  13
ENDBRANCH  11  12
ENDBRANCH  10  11
ENDBRANCH   9  10
ENDBRANCH   1   9
TORSDOF 10
ENDMDL
MODEL 2
REMARK VINA RESULT:    -4.437      2.240      3.288
REMARK INTER + INTRA:          -7.751
REMARK INTER:                  -6.581
REMARK INTRA:                  -1.171
REMARK UNBOUND:                -0.720
REMARK SMILES CCCCCCCCCCCC(=O)[O-]
REMARK SMILES IDX 7 1 8 2 9 3 10 4 11 5 12 6 13 7 14 8 6 9 5 10 4 11 3 12 2 13
REMARK SMILES IDX 1 14
REMARK H PARENT
REMARK Flexibility Score: inf
ROOT
ATOM      1  C   UNL     1       3.977 -30.545 -15.759  1.00  0.00     0.000 C 
ENDROOT
BRANCH   1   2
ATOM      2  C   UNL     1       4.889 -31.780 -15.671  1.00  0.00     0.000 C 
BRANCH   2   3
ATOM      3  C   UNL     1       6.116 -31.674 -16.593  1.00  0.00     0.000 C 
BRANCH   3   4
ATOM      4  C   UNL     1       5.768 -31.902 -18.076  1.00  0.00     0.006 C 
BRANCH   4   5
ATOM      5  C   UNL     1       6.961 -31.767 -19.036  1.00  0.00     0.053 C 
BRANCH   5   6
ATOM      6  C   UNL     1       7.174 -33.009 -19.847  1.00  0.00     0.041 C 
ATOM      7  O   UNL     1       8.227 -33.683 -19.707  1.00  0.00    -0.550 OA
ATOM      8  O   UNL     1       6.224 -33.401 -20.782  1.00  0.00    -0.550 OA
ENDBRANCH   5   6
ENDBRANCH   4   5
ENDBRANCH   3   4
ENDBRANCH   2   3
ENDBRANCH   1   2
BRANCH   1   9
ATOM      9  C   UNL     1       4.758 -29.221 -15.667  1.00  0.00     0.000 C 
BRANCH   9  10
ATOM     10  C   UNL     1       4.301 -28.191 -16.712  1.00  0.00    -0.000 C 
BRANCH  10  11
ATOM     11  C   UNL     1       5.308 -28.026 -17.859  1.00  0.00    -0.000 C 
BRANCH  11  12
ATOM     12  C   UNL     1       6.351 -26.948 -17.523  1.00  0.00    -0.000 C 
BRANCH  12  13
ATOM     13  C   UNL     1       7.783 -27.382 -17.874  1.00  0.00    -0.003 C 
ATOM     14  C   UNL     1       8.236 -28.616 -17.092  1.00  0.00     0.004 C 
ENDBRANCH  12  13
ENDBRANCH  11  12
ENDBRANCH  10  11
ENDBRANCH   9  10
ENDBRANCH   1   9
TORSDOF 10
ENDMDL
MODEL 3
REMARK VINA RESULT:    -4.290     10.547     13.208
REMARK INTER + INTRA:          -7.518
REMARK INTER:                  -7.101
REMARK INTRA:                  -0.416
REMARK UNBOUND:                -0.720
REMARK SMILES CCCCCCCCCCCC(=O)[O-]
REMARK SMILES IDX 7 1 8 2 9 3 10 4 11 5 12 6 13 7 14 8 6 9 5 10 4 11 3 12 2 13
REMARK SMILES IDX 1 14
REMARK H PARENT
REMARK Flexibility Score: inf
ROOT
ATOM      1  C   UNL     1      -1.107 -42.452 -18.223  1.00  0.00     0.000 C 
ENDROOT
BRANCH   1   2
ATOM      2  C   UNL     1       0.429 -42.534 -18.225  1.00  0.00     0.000 C 
BRANCH   2   3
ATOM      3  C   UNL     1       0.942 -43.980 -18.328  1.00  0.00     0.000 C 
BRANCH   3   4
ATOM      4  C   UNL     1       0.567 -44.834 -17.102  1.00  0.00     0.006 C 
BRANCH   4   5
ATOM      5  C   UNL     1      -0.350 -46.027 -17.415  1.00  0.00     0.053 C 
BRANCH   5   6
ATOM      6  C   UNL     1      -1.793 -45.707 -17.172  1.00  0.00     0.041 C 
ATOM      7  O   UNL     1      -2.668 -46.058 -18.007  1.00  0.00    -0.550 OA
ATOM      8  O   UNL     1      -2.166 -44.991 -16.042  1.00  0.00    -0.550 OA
ENDBRANCH   5   6
ENDBRANCH   4   5
ENDBRANCH   3   4
ENDBRANCH   2   3
ENDBRANCH   1   2
BRANCH   1   9
ATOM      9  C   UNL     1      -1.633 -41.152 -18.857  1.00  0.00     0.000 C 
BRANCH   9  10
ATOM     10  C   UNL     1      -0.992 -40.859 -20.223  1.00  0.00    -0.000 C 
BRANCH  10  11
ATOM     11  C   UNL     1      -1.610 -39.636 -20.916  1.00  0.00    -0.000 C 
BRANCH  11  12
ATOM     12  C   UNL     1      -0.572 -38.922 -21.797  1.00  0.00    -0.000 C 
BRANCH  12  13
ATOM     13  C   UNL     1      -1.102 -37.604 -22.382  1.00  0.00    -0.003 C 
ATOM     14  C   UNL     1      -0.866 -36.409 -21.456  1.00  0.00     0.004 C 
ENDBRANCH  12  13
ENDBRANCH  11  12
ENDBRANCH  10  11
ENDBRANCH   9  10
ENDBRANCH   1   9
TORSDOF 10
ENDMDL
MODEL 4
REMARK VINA RESULT:    -4.289     10.624     13.797
REMARK INTER + INTRA:          -7.516
REMARK INTER:                  -6.825
REMARK INTRA:                  -0.690
REMARK UNBOUND:                -0.720
REMARK SMILES CCCCCCCCCCCC(=O)[O-]
REMARK SMILES IDX 7 1 8 2 9 3 10 4 11 5 12 6 13 7 14 8 6 9 5 10 4 11 3 12 2 13
REMARK SMILES IDX 1 14
REMARK H PARENT
REMARK Flexibility Score: inf
ROOT
ATOM      1  C   UNL     1      -0.195 -41.595 -17.676  1.00  0.00     0.000 C 
ENDROOT
BRANCH   1   2
ATOM      2  C   UNL     1      -1.318 -41.635 -18.724  1.00  0.00     0.000 C 
BRANCH   2   3
ATOM      3  C   UNL     1      -0.832 -41.228 -20.126  1.00  0.00     0.000 C 
BRANCH   3   4
ATOM      4  C   UNL     1      -1.410 -39.878 -20.588  1.00  0.00     0.006 C 
BRANCH   4   5
ATOM      5  C   UNL     1      -0.517 -39.110 -21.577  1.00  0.00     0.053 C 
BRANCH   5   6
ATOM      6  C   UNL     1      -1.110 -37.790 -21.963  1.00  0.00     0.041 C 
ATOM      7  O   UNL     1      -1.710 -37.663 -23.063  1.00  0.00    -0.550 OA
ATOM      8  O   UNL     1      -0.971 -36.692 -21.123  1.00  0.00    -0.550 OA
ENDBRANCH   5   6
ENDBRANCH   4   5
ENDBRANCH   3   4
ENDBRANCH   2   3
ENDBRANCH   1   2
BRANCH   1   9
ATOM      9  C   UNL     1       0.180 -42.995 -17.153  1.00  0.00     0.000 C 
BRANCH   9  10
ATOM     10  C   UNL     1       0.816 -43.879 -18.237  1.00  0.00    -0.000 C 
BRANCH  10  11
ATOM     11  C   UNL     1       0.792 -45.371 -17.873  1.00  0.00    -0.000 C 
BRANCH  11  12
ATOM     12  C   UNL     1      -0.369 -45.683 -16.916  1.00  0.00    -0.000 C 
BRANCH  12  13
ATOM     13  C   UNL     1      -1.614 -46.208 -17.649  1.00  0.00    -0.003 C 
ATOM     14  C   UNL     1      -2.788 -45.229 -17.597  1.00  0.00     0.004 C 
ENDBRANCH  12  13
ENDBRANCH  11  12
ENDBRANCH  10  11
ENDBRANCH   9  10
ENDBRANCH   1   9
TORSDOF 10
ENDMDL
MODEL 5
REMARK VINA RESULT:    -4.140      2.197      3.123
REMARK INTER + INTRA:          -7.280
REMARK INTER:                  -6.958
REMARK INTRA:                  -0.322
REMARK UNBOUND:                -0.720
REMARK SMILES CCCCCCCCCCCC(=O)[O-]
REMARK SMILES IDX 7 1 8 2 9 3 10 4 11 5 12 6 13 7 14 8 6 9 5 10 4 11 3 12 2 13
REMARK SMILES IDX 1 14
REMARK H PARENT
REMARK Flexibility Score: inf
ROOT
ATOM      1  C   UNL     1       7.155 -33.972 -20.225  1.00  0.00     0.000 C 
ENDROOT
BRANCH   1   2
ATOM      2  C   UNL     1       6.365 -34.726 -21.307  1.00  0.00     0.000 C 
BRANCH   2   3
ATOM      3  C   UNL     1       6.239 -36.230 -21.006  1.00  0.00     0.000 C 
BRANCH   3   4
ATOM      4  C   UNL     1       5.184 -36.927 -21.884  1.00  0.00     0.006 C 
BRANCH   4   5
ATOM      5  C   UNL     1       4.754 -36.121 -23.121  1.00  0.00     0.053 C 
BRANCH   5   6
ATOM      6  C   UNL     1       3.416 -36.554 -23.638  1.00  0.00     0.041 C 
ATOM      7  O   UNL     1       2.766 -35.805 -24.414  1.00  0.00    -0.550 OA
ATOM      8  O   UNL     1       2.875 -37.768 -23.236  1.00  0.00    -0.550 OA
ENDBRANCH   5   6
ENDBRANCH   4   5
ENDBRANCH   3   4
ENDBRANCH   2   3
ENDBRANCH   1   2
BRANCH   1   9
ATOM      9  C   UNL     1       6.664 -32.526 -20.030  1.00  0.00     0.000 C 
BRANCH   9  10
ATOM     10  C   UNL     1       7.149 -31.911 -18.708  1.00  0.00    -0.000 C 
BRANCH  10  11
ATOM     11  C   UNL     1       6.180 -30.855 -18.156  1.00  0.00    -0.000 C 
BRANCH  11  12
ATOM     12  C   UNL     1       6.704 -30.264 -16.839  1.00  0.00    -0.000 C 
BRANCH  12  13
ATOM     13  C   UNL     1       6.867 -28.737 -16.900  1.00  0.00    -0.003 C 
ATOM     14  C   UNL     1       8.163 -28.308 -17.591  1.00  0.00     0.004 C 
ENDBRANCH  12  13
ENDBRANCH  11  12
ENDBRANCH  10  11
ENDBRANCH   9  10
ENDBRANCH   1   9
TORSDOF 10
ENDMDL
MODEL 6
REMARK VINA RESULT:    -4.111      3.990      7.361
REMARK INTER + INTRA:          -7.235
REMARK INTER:                  -6.686
REMARK INTRA:                  -0.549
REMARK UNBOUND:                -0.720
REMARK SMILES CCCCCCCCCCCC(=O)[O-]
REMARK SMILES IDX 7 1 8 2 9 3 10 4 11 5 12 6 13 7 14 8 6 9 5 10 4 11 3 12 2 13
REMARK SMILES IDX 1 14
REMARK H PARENT
REMARK Flexibility Score: inf
ROOT
ATOM      1  C   UNL     1       4.731 -30.713 -18.181  1.00  0.00     0.000 C 
ENDROOT
BRANCH   1   2
ATOM      2  C   UNL     1       4.695 -30.032 -16.803  1.00  0.00     0.000 C 
BRANCH   2   3
ATOM      3  C   UNL     1       4.429 -28.520 -16.899  1.00  0.00     0.000 C 
BRANCH   3   4
ATOM      4  C   UNL     1       5.617 -27.674 -16.407  1.00  0.00     0.006 C 
BRANCH   4   5
ATOM      5  C   UNL     1       6.422 -26.996 -17.529  1.00  0.00     0.053 C 
BRANCH   5   6
ATOM      6  C   UNL     1       7.785 -27.597 -17.687  1.00  0.00     0.041 C 
ATOM      7  O   UNL     1       8.026 -28.746 -17.231  1.00  0.00    -0.550 OA
ATOM      8  O   UNL     1       8.796 -26.875 -18.307  1.00  0.00    -0.550 OA
ENDBRANCH   5   6
ENDBRANCH   4   5
ENDBRANCH   3   4
ENDBRANCH   2   3
ENDBRANCH   1   2
BRANCH   1   9
ATOM      9  C   UNL     1       5.638 -31.957 -18.205  1.00  0.00     0.000 C 
BRANCH   9  10
ATOM     10  C   UNL     1       6.868 -31.774 -19.109  1.00  0.00    -0.000 C 
BRANCH  10  11
ATOM     11  C   UNL     1       7.384 -33.103 -19.680  1.00  0.00    -0.000 C 
BRANCH  11  12
ATOM     12  C   UNL     1       6.430 -33.646 -20.755  1.00  0.00    -0.000 C 
BRANCH  12  13
ATOM     13  C   UNL     1       6.687 -35.126 -21.079  1.00  0.00    -0.003 C 
ATOM     14  C   UNL     1       6.175 -35.525 -22.465  1.00  0.00     0.004 C 
ENDBRANCH  12  13
ENDBRANCH  11  12
ENDBRANCH  10  11
ENDBRANCH   9  10
ENDBRANCH   1   9
TORSDOF 10
ENDMDL
MODEL 7
REMARK VINA RESULT:    -4.095     12.404     13.770
REMARK INTER + INTRA:          -7.209
REMARK INTER:                  -5.799
REMARK INTRA:                  -1.410
REMARK UNBOUND:                -0.720
REMARK SMILES CCCCCCCCCCCC(=O)[O-]
REMARK SMILES IDX 7 1 8 2 9 3 10 4 11 5 12 6 13 7 14 8 6 9 5 10 4 11 3 12 2 13
REMARK SMILES IDX 1 14
REMARK H PARENT
REMARK Flexibility Score: inf
ROOT
ATOM      1  C   UNL     1       1.645 -43.397 -15.416  1.00  0.00     0.000 C 
ENDROOT
BRANCH   1   2
ATOM      2  C   UNL     1       2.225 -43.617 -16.823  1.00  0.00     0.000 C 
BRANCH   2   3
ATOM      3  C   UNL     1       1.761 -44.944 -17.451  1.00  0.00     0.000 C 
BRANCH   3   4
ATOM      4  C   UNL     1       0.276 -44.924 -17.857  1.00  0.00     0.006 C 
BRANCH   4   5
ATOM      5  C   UNL     1      -0.620 -45.862 -17.032  1.00  0.00     0.053 C 
BRANCH   5   6
ATOM      6  C   UNL     1      -1.872 -45.182 -16.570  1.00  0.00     0.041 C 
ATOM      7  O   UNL     1      -2.761 -44.858 -17.401  1.00  0.00    -0.550 OA
ATOM      8  O   UNL     1      -2.041 -44.875 -15.225  1.00  0.00    -0.550 OA
ENDBRANCH   5   6
ENDBRANCH   4   5
ENDBRANCH   3   4
ENDBRANCH   2   3
ENDBRANCH   1   2
BRANCH   1   9
ATOM      9  C   UNL     1       1.211 -41.939 -15.174  1.00  0.00     0.000 C 
BRANCH   9  10
ATOM     10  C   UNL     1       0.509 -41.322 -16.394  1.00  0.00    -0.000 C 
BRANCH  10  11
ATOM     11  C   UNL     1      -0.992 -41.647 -16.438  1.00  0.00    -0.000 C 
BRANCH  11  12
ATOM     12  C   UNL     1      -1.511 -41.644 -17.885  1.00  0.00    -0.000 C 
BRANCH  12  13
ATOM     13  C   UNL     1      -0.381 -41.515 -18.918  1.00  0.00    -0.003 C 
ATOM     14  C   UNL     1      -0.832 -40.821 -20.204  1.00  0.00     0.004 C 
ENDBRANCH  12  13
ENDBRANCH  11  12
ENDBRANCH  10  11
ENDBRANCH   9  10
ENDBRANCH   1   9
TORSDOF 10
ENDMDL
MODEL 8
REMARK VINA RESULT:    -4.063      9.017     12.355
REMARK INTER + INTRA:          -7.158
REMARK INTER:                  -6.911
REMARK INTRA:                  -0.247
REMARK UNBOUND:                -0.720
REMARK SMILES CCCCCCCCCCCC(=O)[O-]
REMARK SMILES IDX 7 1 8 2 9 3 10 4 11 5 12 6 13 7 14 8 6 9 5 10 4 11 3 12 2 13
REMARK SMILES IDX 1 14
REMARK H PARENT
REMARK Flexibility Score: inf
ROOT
ATOM      1  C   UNL     1      -1.531 -40.141 -20.485  1.00  0.00     0.000 C 
ENDROOT
BRANCH   1   2
ATOM      2  C   UNL     1      -0.711 -39.410 -21.560  1.00  0.00     0.000 C 
BRANCH   2   3
ATOM      3  C   UNL     1      -0.776 -37.880 -21.413  1.00  0.00     0.000 C 
BRANCH   3   4
ATOM      4  C   UNL     1       0.197 -37.149 -22.357  1.00  0.00     0.006 C 
BRANCH   4   5
ATOM      5  C   UNL     1       1.479 -36.640 -21.679  1.00  0.00     0.053 C 
BRANCH   5   6
ATOM      6  C   UNL     1       2.688 -36.835 -22.542  1.00  0.00     0.041 C 
ATOM      7  O   UNL     1       3.755 -36.218 -22.285  1.00  0.00    -0.550 OA
ATOM      8  O   UNL     1       2.625 -37.671 -23.649  1.00  0.00    -0.550 OA
ENDBRANCH   5   6
ENDBRANCH   4   5
ENDBRANCH   3   4
ENDBRANCH   2   3
ENDBRANCH   1   2
BRANCH   1   9
ATOM      9  C   UNL     1      -0.703 -41.185 -19.714  1.00  0.00     0.000 C 
BRANCH   9  10
ATOM     10  C   UNL     1      -1.486 -41.819 -18.553  1.00  0.00    -0.000 C 
BRANCH  10  11
ATOM     11  C   UNL     1      -0.792 -43.065 -17.983  1.00  0.00    -0.000 C 
BRANCH  11  12
ATOM     12  C   UNL     1      -1.819 -44.154 -17.635  1.00  0.00    -0.000 C 
BRANCH  12  13
ATOM     13  C   UNL     1      -1.208 -45.300 -16.813  1.00  0.00    -0.003 C 
ATOM     14  C   UNL     1      -1.280 -45.050 -15.306  1.00  0.00     0.004 C 
ENDBRANCH  12  13
ENDBRANCH  11  12
ENDBRANCH  10  11
ENDBRANCH   9  10
ENDBRANCH   1   9
TORSDOF 10
ENDMDL
MODEL 9
REMARK VINA RESULT:    -4.005      6.623      8.490
REMARK INTER + INTRA:          -7.066
REMARK INTER:                  -6.503
REMARK INTRA:                  -0.564
REMARK UNBOUND:                -0.720
REMARK SMILES CCCCCCCCCCCC(=O)[O-]
REMARK SMILES IDX 7 1 8 2 9 3 10 4 11 5 12 6 13 7 14 8 6 9 5 10 4 11 3 12 2 13
REMARK SMILES IDX 1 14
REMARK H PARENT
REMARK Flexibility Score: inf
ROOT
ATOM      1  C   UNL     1       6.940 -36.256 -23.236  1.00  0.00     0.000 C 
ENDROOT
BRANCH   1   2
ATOM      2  C   UNL     1       7.386 -35.826 -24.643  1.00  0.00     0.000 C 
BRANCH   2   3
ATOM      3  C   UNL     1       8.855 -36.184 -24.932  1.00  0.00     0.000 C 
BRANCH   3   4
ATOM      4  C   UNL     1       9.410 -35.464 -26.174  1.00  0.00     0.006 C 
BRANCH   4   5
ATOM      5  C   UNL     1      10.919 -35.657 -26.400  1.00  0.00     0.053 C 
BRANCH   5   6
ATOM      6  C   UNL     1      11.739 -34.833 -25.456  1.00  0.00     0.041 C 
ATOM      7  O   UNL     1      12.837 -35.272 -25.023  1.00  0.00    -0.550 OA
ATOM      8  O   UNL     1      11.275 -33.596 -25.028  1.00  0.00    -0.550 OA
ENDBRANCH   5   6
ENDBRANCH   4   5
ENDBRANCH   3   4
ENDBRANCH   2   3
ENDBRANCH   1   2
BRANCH   1   9
ATOM      9  C   UNL     1       5.740 -35.443 -22.719  1.00  0.00     0.000 C 
BRANCH   9  10
ATOM     10  C   UNL     1       4.695 -36.319 -22.009  1.00  0.00    -0.000 C 
BRANCH  10  11
ATOM     11  C   UNL     1       3.317 -36.260 -22.684  1.00  0.00    -0.000 C 
BRANCH  11  12
ATOM     12  C   UNL     1       2.997 -37.585 -23.393  1.00  0.00    -0.000 C 
BRANCH  12  13
ATOM     13  C   UNL     1       2.656 -37.392 -24.879  1.00  0.00    -0.003 C 
ATOM     14  C   UNL     1       2.801 -35.939 -25.335  1.00  0.00     0.004 C 
ENDBRANCH  12  13
ENDBRANCH  11  12
ENDBRANCH  10  11
ENDBRANCH   9  10
ENDBRANCH   1   9
TORSDOF 10
ENDMDL
