MODEL 1
REMARK VINA RESULT:    31.593      0.000      0.000
REMARK INTER + INTRA:          36.611
REMARK INTER:                  34.363
REMARK INTRA:                   2.248
REMARK UNBOUND:                 2.248
REMARK SMILES C[C@H]1[C@H](C)CC[C@]2(C(=O)[O-])CC[C@@]3(C)C(=CC[C@H]4[C@@]5(C)CC[C@@H](O)C(C)(C)[C@H]5CC[C@@]43C)[C@@H]12
REMARK SMILES IDX 7 1 6 2 11 3 33 4 5 5 12 6 15 7 2 8 3 9 13 10 16 11 1 12
REMARK SMILES IDX 4 13 14 14 31 15 17 16 18 17 30 18 32 19 19 20 29 21 28 22
REMARK SMILES IDX 21 23 20 24 25 25 22 26 23 27 26 28 27 29 8 30 9 31 10 32
REMARK SMILES IDX 24 33
REMARK H PARENT 24 34
REMARK Flexibility Score: inf
ROOT
ATOM      1  C   UNL     1      45.641  28.009  -4.667  1.00  0.00     0.017 C 
ATOM      2  C   UNL     1      45.455  27.269  -6.018  1.00  0.00     0.014 C 
ATOM      3  C   UNL     1      46.639  27.197  -3.819  1.00  0.00     0.014 C 
ATOM      4  C   UNL     1      44.288  28.005  -3.882  1.00  0.00     0.030 C 
ATOM      5  C   UNL     1      44.337  27.887  -6.862  1.00  0.00     0.004 C 
ATOM      6  C   UNL     1      46.967  27.857  -2.472  1.00  0.00     0.013 C 
ATOM      7  C   UNL     1      44.414  28.515  -2.427  1.00  0.00    -0.063 C 
ATOM      8  C   UNL     1      43.036  28.479  -4.723  1.00  0.00    -0.003 C 
ATOM      9  C   UNL     1      42.976  27.838  -6.142  1.00  0.00    -0.011 C 
ATOM     10  C   UNL     1      45.783  28.576  -1.687  1.00  0.00    -0.006 C 
ATOM     11  C   UNL     1      43.272  28.698  -1.709  1.00  0.00    -0.027 C 
ATOM     12  C   UNL     1      42.829  30.004  -4.798  1.00  0.00     0.008 C 
ATOM     13  C   UNL     1      42.411  26.405  -6.104  1.00  0.00     0.008 C 
ATOM     14  C   UNL     1      46.164  30.090  -1.582  1.00  0.00     0.017 C 
ATOM     15  C   UNL     1      45.607  27.924  -0.224  1.00  0.00    -0.020 C 
ATOM     16  C   UNL     1      43.174  28.842  -0.211  1.00  0.00     0.032 C 
ATOM     17  C   UNL     1      44.516  28.756   0.559  1.00  0.00     0.006 C 
ATOM     18  C   UNL     1      46.958  27.938   0.590  1.00  0.00     0.008 C 
ATOM     19  C   UNL     1      45.141  26.433  -0.414  1.00  0.00     0.012 C 
ATOM     20  C   UNL     1      44.384  28.493   2.126  1.00  0.00    -0.025 C 
ATOM     21  C   UNL     1      46.982  28.839   1.834  1.00  0.00     0.005 C 
ATOM     22  C   UNL     1      45.806  28.628   2.834  1.00  0.00     0.003 C 
ATOM     23  C   UNL     1      43.723  27.122   2.451  1.00  0.00     0.010 C 
ATOM     24  C   UNL     1      43.435  29.596   2.698  1.00  0.00     0.012 C 
ATOM     25  C   UNL     1      46.119  27.607   4.011  1.00  0.00    -0.006 C 
ATOM     26  C   UNL     1      43.652  26.773   3.947  1.00  0.00     0.033 C 
ATOM     27  C   UNL     1      44.808  27.314   4.808  1.00  0.00     0.120 C 
ATOM     28  C   UNL     1      47.123  28.261   5.007  1.00  0.00     0.014 C 
ATOM     29  C   UNL     1      46.768  26.285   3.521  1.00  0.00     0.014 C 
ENDROOT
BRANCH   1  30
ATOM     30  C   UNL     1      46.238  29.384  -4.955  1.00  0.00     0.048 C 
ATOM     31  O   UNL     1      46.079  29.906  -6.092  1.00  0.00    -0.550 OA
ATOM     32  O   UNL     1      46.955  30.090  -4.004  1.00  0.00    -0.550 OA
ENDBRANCH   1  30
BRANCH  27  33
ATOM     33  O   UNL     1      45.045  26.402   5.857  1.00  0.00    -0.393 OA
ATOM     34  H   UNL     1      44.454  26.653   6.614  1.00  0.00     0.210 HD
ENDBRANCH  27  33
TORSDOF 2
ENDMDL
