MODEL 1
REMARK VINA RESULT:    -4.298      0.000      0.000
REMARK INTER + INTRA:         -13.488
REMARK INTER:                  -9.827
REMARK INTRA:                  -3.661
REMARK UNBOUND:                -3.661
REMARK SMILES CCCCCCCCCCCCCCCCCCCCCCCC(=O)[O-]
REMARK SMILES IDX 13 1 14 2 15 3 16 4 17 5 18 6 19 7 20 8 21 9 22 10 23 11
REMARK SMILES IDX 24 12 25 13 26 14 12 15 11 16 10 17 9 18 8 19 7 20 6 21 5 22
REMARK SMILES IDX 4 23 3 24 2 25 1 26
REMARK H PARENT
REMARK Flexibility Score: inf
ROOT
ATOM      1  C   UNL     1      15.942  53.159  24.268  1.00  0.00     0.000 C 
ENDROOT
BRANCH   1   2
ATOM      2  C   UNL     1      15.481  51.757  23.840  1.00  0.00     0.000 C 
BRANCH   2   3
ATOM      3  C   UNL     1      16.454  50.650  24.283  1.00  0.00     0.000 C 
BRANCH   3   4
ATOM      4  C   UNL     1      16.026  49.864  25.539  1.00  0.00     0.000 C 
BRANCH   4   5
ATOM      5  C   UNL     1      17.174  49.379  26.451  1.00  0.00     0.000 C 
BRANCH   5   6
ATOM      6  C   UNL     1      17.330  50.149  27.781  1.00  0.00     0.000 C 
BRANCH   6   7
ATOM      7  C   UNL     1      17.395  51.681  27.626  1.00  0.00     0.000 C 
BRANCH   7   8
ATOM      8  C   UNL     1      18.823  52.231  27.433  1.00  0.00     0.000 C 
BRANCH   8   9
ATOM      9  C   UNL     1      19.051  52.752  26.004  1.00  0.00     0.000 C 
BRANCH   9  10
ATOM     10  C   UNL     1      20.495  53.219  25.764  1.00  0.00     0.006 C 
BRANCH  10  11
ATOM     11  C   UNL     1      20.592  54.326  24.706  1.00  0.00     0.053 C 
BRANCH  11  12
ATOM     12  C   UNL     1      21.753  55.223  24.993  1.00  0.00     0.041 C 
ATOM     13  O   UNL     1      22.404  55.740  24.046  1.00  0.00    -0.550 OA
ATOM     14  O   UNL     1      22.149  55.452  26.306  1.00  0.00    -0.550 OA
ENDBRANCH  11  12
ENDBRANCH  10  11
ENDBRANCH   9  10
ENDBRANCH   8   9
ENDBRANCH   7   8
ENDBRANCH   6   7
ENDBRANCH   5   6
ENDBRANCH   4   5
ENDBRANCH   3   4
ENDBRANCH   2   3
ENDBRANCH   1   2
BRANCH   1  15
ATOM     15  C   UNL     1      15.141  53.657  25.476  1.00  0.00     0.000 C 
BRANCH  15  16
ATOM     16  C   UNL     1      13.892  52.794  25.699  1.00  0.00     0.000 C 
BRANCH  16  17
ATOM     17  C   UNL     1      13.747  52.314  27.155  1.00  0.00     0.000 C 
BRANCH  17  18
ATOM     18  C   UNL     1      13.047  53.308  28.106  1.00  0.00    -0.000 C 
BRANCH  18  19
ATOM     19  C   UNL     1      13.889  54.527  28.522  1.00  0.00    -0.000 C 
BRANCH  19  20
ATOM     20  C   UNL     1      15.202  54.139  29.222  1.00  0.00    -0.000 C 
BRANCH  20  21
ATOM     21  C   UNL     1      14.976  53.522  30.613  1.00  0.00    -0.000 C 
BRANCH  21  22
ATOM     22  C   UNL     1      15.547  52.095  30.757  1.00  0.00    -0.000 C 
BRANCH  22  23
ATOM     23  C   UNL     1      16.602  52.005  31.870  1.00  0.00    -0.000 C 
BRANCH  23  24
ATOM     24  C   UNL     1      17.616  50.892  31.578  1.00  0.00    -0.000 C 
BRANCH  24  25
ATOM     25  C   UNL     1      18.978  51.479  31.187  1.00  0.00    -0.003 C 
ATOM     26  C   UNL     1      19.846  50.438  30.487  1.00  0.00     0.004 C 
ENDBRANCH  24  25
ENDBRANCH  23  24
ENDBRANCH  22  23
ENDBRANCH  21  22
ENDBRANCH  20  21
ENDBRANCH  19  20
ENDBRANCH  18  19
ENDBRANCH  17  18
ENDBRANCH  16  17
ENDBRANCH  15  16
ENDBRANCH   1  15
TORSDOF 22
ENDMDL
MODEL 2
REMARK VINA RESULT:    -4.263      3.624      5.775
REMARK INTER + INTRA:         -13.406
REMARK INTER:                  -9.406
REMARK INTRA:                  -4.001
REMARK UNBOUND:                -3.661
REMARK SMILES CCCCCCCCCCCCCCCCCCCCCCCC(=O)[O-]
REMARK SMILES IDX 13 1 14 2 15 3 16 4 17 5 18 6 19 7 20 8 21 9 22 10 23 11
REMARK SMILES IDX 24 12 25 13 26 14 12 15 11 16 10 17 9 18 8 19 7 20 6 21 5 22
REMARK SMILES IDX 4 23 3 24 2 25 1 26
REMARK H PARENT
REMARK Flexibility Score: inf
ROOT
ATOM      1  C   UNL     1      16.419  50.116  24.618  1.00  0.00     0.000 C 
ENDROOT
BRANCH   1   2
ATOM      2  C   UNL     1      15.671  50.533  25.893  1.00  0.00     0.000 C 
BRANCH   2   3
ATOM      3  C   UNL     1      16.612  50.751  27.090  1.00  0.00     0.000 C 
BRANCH   3   4
ATOM      4  C   UNL     1      17.408  52.073  27.068  1.00  0.00     0.000 C 
BRANCH   4   5
ATOM      5  C   UNL     1      18.869  51.985  27.558  1.00  0.00     0.000 C 
BRANCH   5   6
ATOM      6  C   UNL     1      19.056  52.039  29.090  1.00  0.00     0.000 C 
BRANCH   6   7
ATOM      7  C   UNL     1      19.347  50.674  29.744  1.00  0.00     0.000 C 
BRANCH   7   8
ATOM      8  C   UNL     1      18.103  49.989  30.346  1.00  0.00     0.000 C 
BRANCH   8   9
ATOM      9  C   UNL     1      18.081  50.082  31.882  1.00  0.00     0.000 C 
BRANCH   9  10
ATOM     10  C   UNL     1      18.847  51.302  32.415  1.00  0.00     0.006 C 
BRANCH  10  11
ATOM     11  C   UNL     1      17.965  52.237  33.253  1.00  0.00     0.053 C 
BRANCH  11  12
ATOM     12  C   UNL     1      17.902  51.765  34.670  1.00  0.00     0.041 C 
ATOM     13  O   UNL     1      16.914  51.093  35.071  1.00  0.00    -0.550 OA
ATOM     14  O   UNL     1      18.909  52.107  35.564  1.00  0.00    -0.550 OA
ENDBRANCH  11  12
ENDBRANCH  10  11
ENDBRANCH   9  10
ENDBRANCH   8   9
ENDBRANCH   7   8
ENDBRANCH   6   7
ENDBRANCH   5   6
ENDBRANCH   4   5
ENDBRANCH   3   4
ENDBRANCH   2   3
ENDBRANCH   1   2
BRANCH   1  15
ATOM     15  C   UNL     1      16.143  51.096  23.472  1.00  0.00     0.000 C 
BRANCH  15  16
ATOM     16  C   UNL     1      17.234  52.173  23.396  1.00  0.00     0.000 C 
BRANCH  16  17
ATOM     17  C   UNL     1      16.681  53.600  23.566  1.00  0.00     0.000 C 
BRANCH  17  18
ATOM     18  C   UNL     1      15.196  53.683  23.975  1.00  0.00    -0.000 C 
BRANCH  18  19
ATOM     19  C   UNL     1      14.855  54.775  25.004  1.00  0.00    -0.000 C 
BRANCH  19  20
ATOM     20  C   UNL     1      14.489  54.206  26.384  1.00  0.00    -0.000 C 
BRANCH  20  21
ATOM     21  C   UNL     1      13.305  53.225  26.330  1.00  0.00    -0.000 C 
BRANCH  21  22
ATOM     22  C   UNL     1      12.888  52.680  27.712  1.00  0.00    -0.000 C 
BRANCH  22  23
ATOM     23  C   UNL     1      13.666  53.348  28.857  1.00  0.00    -0.000 C 
BRANCH  23  24
ATOM     24  C   UNL     1      14.238  52.300  29.819  1.00  0.00    -0.000 C 
BRANCH  24  25
ATOM     25  C   UNL     1      15.620  52.722  30.333  1.00  0.00    -0.003 C 
ATOM     26  C   UNL     1      15.826  54.226  30.189  1.00  0.00     0.004 C 
ENDBRANCH  24  25
ENDBRANCH  23  24
ENDBRANCH  22  23
ENDBRANCH  21  22
ENDBRANCH  20  21
ENDBRANCH  19  20
ENDBRANCH  18  19
ENDBRANCH  17  18
ENDBRANCH  16  17
ENDBRANCH  15  16
ENDBRANCH   1  15
TORSDOF 22
ENDMDL
MODEL 3
REMARK VINA RESULT:    -4.242      7.940     11.694
REMARK INTER + INTRA:         -13.358
REMARK INTER:                  -9.369
REMARK INTRA:                  -3.989
REMARK UNBOUND:                -3.661
REMARK SMILES CCCCCCCCCCCCCCCCCCCCCCCC(=O)[O-]
REMARK SMILES IDX 13 1 14 2 15 3 16 4 17 5 18 6 19 7 20 8 21 9 22 10 23 11
REMARK SMILES IDX 24 12 25 13 26 14 12 15 11 16 10 17 9 18 8 19 7 20 6 21 5 22
REMARK SMILES IDX 4 23 3 24 2 25 1 26
REMARK H PARENT
REMARK Flexibility Score: inf
ROOT
ATOM      1  C   UNL     1      17.001  51.071  38.902  1.00  0.00     0.000 C 
ENDROOT
BRANCH   1   2
ATOM      2  C   UNL     1      16.668  51.655  37.521  1.00  0.00     0.000 C 
BRANCH   2   3
ATOM      3  C   UNL     1      17.106  50.737  36.366  1.00  0.00     0.000 C 
BRANCH   3   4
ATOM      4  C   UNL     1      15.982  49.883  35.744  1.00  0.00     0.000 C 
BRANCH   4   5
ATOM      5  C   UNL     1      16.368  49.080  34.483  1.00  0.00     0.000 C 
BRANCH   5   6
ATOM      6  C   UNL     1      17.386  49.769  33.549  1.00  0.00     0.000 C 
BRANCH   6   7
ATOM      7  C   UNL     1      18.747  49.052  33.451  1.00  0.00     0.000 C 
BRANCH   7   8
ATOM      8  C   UNL     1      19.936  49.889  33.967  1.00  0.00     0.000 C 
BRANCH   8   9
ATOM      9  C   UNL     1      20.314  49.521  35.412  1.00  0.00     0.000 C 
BRANCH   9  10
ATOM     10  C   UNL     1      21.018  48.159  35.515  1.00  0.00     0.006 C 
BRANCH  10  11
ATOM     11  C   UNL     1      22.383  48.144  34.813  1.00  0.00     0.053 C 
BRANCH  11  12
ATOM     12  C   UNL     1      22.519  46.924  33.961  1.00  0.00     0.041 C 
ATOM     13  O   UNL     1      21.860  46.821  32.891  1.00  0.00    -0.550 OA
ATOM     14  O   UNL     1      23.335  45.876  34.369  1.00  0.00    -0.550 OA
ENDBRANCH  11  12
ENDBRANCH  10  11
ENDBRANCH   9  10
ENDBRANCH   8   9
ENDBRANCH   7   8
ENDBRANCH   6   7
ENDBRANCH   5   6
ENDBRANCH   4   5
ENDBRANCH   3   4
ENDBRANCH   2   3
ENDBRANCH   1   2
BRANCH   1  15
ATOM     15  C   UNL     1      18.098  50.004  38.798  1.00  0.00     0.000 C 
BRANCH  15  16
ATOM     16  C   UNL     1      18.820  49.827  40.142  1.00  0.00     0.000 C 
BRANCH  16  17
ATOM     17  C   UNL     1      18.750  51.083  41.029  1.00  0.00     0.000 C 
BRANCH  17  18
ATOM     18  C   UNL     1      19.975  51.312  41.938  1.00  0.00    -0.000 C 
BRANCH  18  19
ATOM     19  C   UNL     1      20.901  52.469  41.519  1.00  0.00    -0.000 C 
BRANCH  19  20
ATOM     20  C   UNL     1      22.393  52.121  41.650  1.00  0.00    -0.000 C 
BRANCH  20  21
ATOM     21  C   UNL     1      23.056  51.821  40.295  1.00  0.00    -0.000 C 
BRANCH  21  22
ATOM     22  C   UNL     1      22.649  50.459  39.694  1.00  0.00    -0.000 C 
BRANCH  22  23
ATOM     23  C   UNL     1      21.905  50.615  38.359  1.00  0.00    -0.000 C 
BRANCH  23  24
ATOM     24  C   UNL     1      21.917  52.075  37.890  1.00  0.00    -0.000 C 
BRANCH  24  25
ATOM     25  C   UNL     1      20.539  52.495  37.363  1.00  0.00    -0.003 C 
ATOM     26  C   UNL     1      19.893  53.534  38.274  1.00  0.00     0.004 C 
ENDBRANCH  24  25
ENDBRANCH  23  24
ENDBRANCH  22  23
ENDBRANCH  21  22
ENDBRANCH  20  21
ENDBRANCH  19  20
ENDBRANCH  18  19
ENDBRANCH  17  18
ENDBRANCH  16  17
ENDBRANCH  15  16
ENDBRANCH   1  15
TORSDOF 22
ENDMDL
MODEL 4
REMARK VINA RESULT:    -4.240      8.517     12.325
REMARK INTER + INTRA:         -13.353
REMARK INTER:                  -9.335
REMARK INTRA:                  -4.019
REMARK UNBOUND:                -3.661
REMARK SMILES CCCCCCCCCCCCCCCCCCCCCCCC(=O)[O-]
REMARK SMILES IDX 13 1 14 2 15 3 16 4 17 5 18 6 19 7 20 8 21 9 22 10 23 11
REMARK SMILES IDX 24 12 25 13 26 14 12 15 11 16 10 17 9 18 8 19 7 20 6 21 5 22
REMARK SMILES IDX 4 23 3 24 2 25 1 26
REMARK H PARENT
REMARK Flexibility Score: inf
ROOT
ATOM      1  C   UNL     1      18.361  49.707  39.961  1.00  0.00     0.000 C 
ENDROOT
BRANCH   1   2
ATOM      2  C   UNL     1      17.623  51.039  40.160  1.00  0.00     0.000 C 
BRANCH   2   3
ATOM      3  C   UNL     1      16.865  51.493  38.900  1.00  0.00     0.000 C 
BRANCH   3   4
ATOM      4  C   UNL     1      17.277  50.782  37.594  1.00  0.00     0.000 C 
BRANCH   4   5
ATOM      5  C   UNL     1      16.341  51.000  36.386  1.00  0.00     0.000 C 
BRANCH   5   6
ATOM      6  C   UNL     1      17.048  51.319  35.052  1.00  0.00     0.000 C 
BRANCH   6   7
ATOM      7  C   UNL     1      18.560  51.590  35.181  1.00  0.00     0.000 C 
BRANCH   7   8
ATOM      8  C   UNL     1      19.446  50.559  34.452  1.00  0.00     0.000 C 
BRANCH   8   9
ATOM      9  C   UNL     1      19.005  49.114  34.741  1.00  0.00     0.000 C 
BRANCH   9  10
ATOM     10  C   UNL     1      20.106  48.278  35.412  1.00  0.00     0.006 C 
BRANCH  10  11
ATOM     11  C   UNL     1      21.506  48.605  34.876  1.00  0.00     0.053 C 
BRANCH  11  12
ATOM     12  C   UNL     1      22.010  47.492  34.014  1.00  0.00     0.041 C 
ATOM     13  O   UNL     1      21.358  47.133  32.998  1.00  0.00    -0.550 OA
ATOM     14  O   UNL     1      23.174  46.815  34.359  1.00  0.00    -0.550 OA
ENDBRANCH  11  12
ENDBRANCH  10  11
ENDBRANCH   9  10
ENDBRANCH   8   9
ENDBRANCH   7   8
ENDBRANCH   6   7
ENDBRANCH   5   6
ENDBRANCH   4   5
ENDBRANCH   3   4
ENDBRANCH   2   3
ENDBRANCH   1   2
BRANCH   1  15
ATOM     15  C   UNL     1      19.433  49.506  41.038  1.00  0.00     0.000 C 
BRANCH  15  16
ATOM     16  C   UNL     1      19.149  50.382  42.266  1.00  0.00     0.000 C 
BRANCH  16  17
ATOM     17  C   UNL     1      20.426  50.971  42.891  1.00  0.00     0.000 C 
BRANCH  17  18
ATOM     18  C   UNL     1      21.341  51.738  41.914  1.00  0.00    -0.000 C 
BRANCH  18  19
ATOM     19  C   UNL     1      21.346  53.269  42.079  1.00  0.00    -0.000 C 
BRANCH  19  20
ATOM     20  C   UNL     1      21.054  54.015  40.768  1.00  0.00    -0.000 C 
BRANCH  20  21
ATOM     21  C   UNL     1      20.337  53.136  39.729  1.00  0.00    -0.000 C 
BRANCH  21  22
ATOM     22  C   UNL     1      20.681  53.497  38.268  1.00  0.00    -0.000 C 
BRANCH  22  23
ATOM     23  C   UNL     1      21.413  52.355  37.546  1.00  0.00    -0.000 C 
BRANCH  23  24
ATOM     24  C   UNL     1      20.871  50.990  37.987  1.00  0.00    -0.000 C 
BRANCH  24  25
ATOM     25  C   UNL     1      22.013  49.986  38.191  1.00  0.00    -0.003 C 
ATOM     26  C   UNL     1      22.839  50.334  39.424  1.00  0.00     0.004 C 
ENDBRANCH  24  25
ENDBRANCH  23  24
ENDBRANCH  22  23
ENDBRANCH  21  22
ENDBRANCH  20  21
ENDBRANCH  19  20
ENDBRANCH  18  19
ENDBRANCH  17  18
ENDBRANCH  16  17
ENDBRANCH  15  16
ENDBRANCH   1  15
TORSDOF 22
ENDMDL
MODEL 5
REMARK VINA RESULT:    -4.208      4.286      7.395
REMARK INTER + INTRA:         -13.282
REMARK INTER:                  -9.653
REMARK INTRA:                  -3.628
REMARK UNBOUND:                -3.661
REMARK SMILES CCCCCCCCCCCCCCCCCCCCCCCC(=O)[O-]
REMARK SMILES IDX 13 1 14 2 15 3 16 4 17 5 18 6 19 7 20 8 21 9 22 10 23 11
REMARK SMILES IDX 24 12 25 13 26 14 12 15 11 16 10 17 9 18 8 19 7 20 6 21 5 22
REMARK SMILES IDX 4 23 3 24 2 25 1 26
REMARK H PARENT
REMARK Flexibility Score: inf
ROOT
ATOM      1  C   UNL     1      17.358  50.690  28.500  1.00  0.00     0.000 C 
ENDROOT
BRANCH   1   2
ATOM      2  C   UNL     1      18.153  50.413  29.784  1.00  0.00     0.000 C 
BRANCH   2   3
ATOM      3  C   UNL     1      19.266  51.447  30.029  1.00  0.00     0.000 C 
BRANCH   3   4
ATOM      4  C   UNL     1      19.850  51.458  31.458  1.00  0.00     0.000 C 
BRANCH   4   5
ATOM      5  C   UNL     1      18.822  51.593  32.602  1.00  0.00     0.000 C 
BRANCH   5   6
ATOM      6  C   UNL     1      18.809  50.431  33.618  1.00  0.00     0.000 C 
BRANCH   6   7
ATOM      7  C   UNL     1      17.409  50.060  34.143  1.00  0.00     0.000 C 
BRANCH   7   8
ATOM      8  C   UNL     1      16.381  49.761  33.031  1.00  0.00     0.000 C 
BRANCH   8   9
ATOM      9  C   UNL     1      16.652  48.412  32.344  1.00  0.00     0.000 C 
BRANCH   9  10
ATOM     10  C   UNL     1      15.479  47.429  32.481  1.00  0.00     0.006 C 
BRANCH  10  11
ATOM     11  C   UNL     1      14.179  48.115  32.918  1.00  0.00     0.053 C 
BRANCH  11  12
ATOM     12  C   UNL     1      13.058  47.745  32.001  1.00  0.00     0.041 C 
ATOM     13  O   UNL     1      12.724  46.538  31.864  1.00  0.00    -0.550 OA
ATOM     14  O   UNL     1      12.412  48.726  31.258  1.00  0.00    -0.550 OA
ENDBRANCH  11  12
ENDBRANCH  10  11
ENDBRANCH   9  10
ENDBRANCH   8   9
ENDBRANCH   7   8
ENDBRANCH   6   7
ENDBRANCH   5   6
ENDBRANCH   4   5
ENDBRANCH   3   4
ENDBRANCH   2   3
ENDBRANCH   1   2
BRANCH   1  15
ATOM     15  C   UNL     1      17.952  51.876  27.730  1.00  0.00     0.000 C 
BRANCH  15  16
ATOM     16  C   UNL     1      17.158  52.148  26.445  1.00  0.00     0.000 C 
BRANCH  16  17
ATOM     17  C   UNL     1      16.150  51.032  26.115  1.00  0.00     0.000 C 
BRANCH  17  18
ATOM     18  C   UNL     1      14.694  51.502  25.917  1.00  0.00    -0.000 C 
BRANCH  18  19
ATOM     19  C   UNL     1      14.529  52.962  25.457  1.00  0.00    -0.000 C 
BRANCH  19  20
ATOM     20  C   UNL     1      13.172  53.566  25.854  1.00  0.00    -0.000 C 
BRANCH  20  21
ATOM     21  C   UNL     1      12.560  52.894  27.095  1.00  0.00    -0.000 C 
BRANCH  21  22
ATOM     22  C   UNL     1      12.823  53.661  28.408  1.00  0.00    -0.000 C 
BRANCH  22  23
ATOM     23  C   UNL     1      14.057  53.127  29.153  1.00  0.00    -0.000 C 
BRANCH  23  24
ATOM     24  C   UNL     1      15.239  54.094  29.023  1.00  0.00    -0.000 C 
BRANCH  24  25
ATOM     25  C   UNL     1      16.037  54.167  30.331  1.00  0.00    -0.003 C 
ATOM     26  C   UNL     1      15.745  52.963  31.222  1.00  0.00     0.004 C 
ENDBRANCH  24  25
ENDBRANCH  23  24
ENDBRANCH  22  23
ENDBRANCH  21  22
ENDBRANCH  20  21
ENDBRANCH  19  20
ENDBRANCH  18  19
ENDBRANCH  17  18
ENDBRANCH  16  17
ENDBRANCH  15  16
ENDBRANCH   1  15
TORSDOF 22
ENDMDL
MODEL 6
REMARK VINA RESULT:    -4.178      6.913     10.797
REMARK INTER + INTRA:         -13.214
REMARK INTER:                  -8.755
REMARK INTRA:                  -4.459
REMARK UNBOUND:                -3.661
REMARK SMILES CCCCCCCCCCCCCCCCCCCCCCCC(=O)[O-]
REMARK SMILES IDX 13 1 14 2 15 3 16 4 17 5 18 6 19 7 20 8 21 9 22 10 23 11
REMARK SMILES IDX 24 12 25 13 26 14 12 15 11 16 10 17 9 18 8 19 7 20 6 21 5 22
REMARK SMILES IDX 4 23 3 24 2 25 1 26
REMARK H PARENT
REMARK Flexibility Score: inf
ROOT
ATOM      1  C   UNL     1      18.574  47.456  36.727  1.00  0.00     0.000 C 
ENDROOT
BRANCH   1   2
ATOM      2  C   UNL     1      17.730  48.143  37.810  1.00  0.00     0.000 C 
BRANCH   2   3
ATOM      3  C   UNL     1      16.466  48.813  37.241  1.00  0.00     0.000 C 
BRANCH   3   4
ATOM      4  C   UNL     1      16.258  50.284  37.659  1.00  0.00     0.000 C 
BRANCH   4   5
ATOM      5  C   UNL     1      16.416  51.330  36.534  1.00  0.00     0.000 C 
BRANCH   5   6
ATOM      6  C   UNL     1      16.818  50.762  35.156  1.00  0.00     0.000 C 
BRANCH   6   7
ATOM      7  C   UNL     1      17.667  51.717  34.296  1.00  0.00     0.000 C 
BRANCH   7   8
ATOM      8  C   UNL     1      18.843  51.030  33.570  1.00  0.00     0.000 C 
BRANCH   8   9
ATOM      9  C   UNL     1      18.912  51.424  32.085  1.00  0.00     0.000 C 
BRANCH   9  10
ATOM     10  C   UNL     1      17.533  51.746  31.489  1.00  0.00     0.006 C 
BRANCH  10  11
ATOM     11  C   UNL     1      16.961  50.588  30.661  1.00  0.00     0.053 C 
BRANCH  11  12
ATOM     12  C   UNL     1      15.972  49.808  31.465  1.00  0.00     0.041 C 
ATOM     13  O   UNL     1      16.344  48.801  32.125  1.00  0.00    -0.550 OA
ATOM     14  O   UNL     1      14.628  50.161  31.450  1.00  0.00    -0.550 OA
ENDBRANCH  11  12
ENDBRANCH  10  11
ENDBRANCH   9  10
ENDBRANCH   8   9
ENDBRANCH   7   8
ENDBRANCH   6   7
ENDBRANCH   5   6
ENDBRANCH   4   5
ENDBRANCH   3   4
ENDBRANCH   2   3
ENDBRANCH   1   2
BRANCH   1  15
ATOM     15  C   UNL     1      19.598  48.427  36.128  1.00  0.00     0.000 C 
BRANCH  15  16
ATOM     16  C   UNL     1      20.257  49.274  37.226  1.00  0.00     0.000 C 
BRANCH  16  17
ATOM     17  C   UNL     1      20.750  50.639  36.714  1.00  0.00     0.000 C 
BRANCH  17  18
ATOM     18  C   UNL     1      19.954  51.858  37.226  1.00  0.00    -0.000 C 
BRANCH  18  19
ATOM     19  C   UNL     1      20.805  53.042  37.719  1.00  0.00    -0.000 C 
BRANCH  19  20
ATOM     20  C   UNL     1      20.397  53.533  39.117  1.00  0.00    -0.000 C 
BRANCH  20  21
ATOM     21  C   UNL     1      21.369  53.075  40.218  1.00  0.00    -0.000 C 
BRANCH  21  22
ATOM     22  C   UNL     1      22.434  52.071  39.726  1.00  0.00    -0.000 C 
BRANCH  22  23
ATOM     23  C   UNL     1      22.148  50.641  40.209  1.00  0.00    -0.000 C 
BRANCH  23  24
ATOM     24  C   UNL     1      21.015  50.626  41.243  1.00  0.00    -0.000 C 
BRANCH  24  25
ATOM     25  C   UNL     1      19.858  49.734  40.777  1.00  0.00    -0.003 C 
ATOM     26  C   UNL     1      18.602  50.558  40.507  1.00  0.00     0.004 C 
ENDBRANCH  24  25
ENDBRANCH  23  24
ENDBRANCH  22  23
ENDBRANCH  21  22
ENDBRANCH  20  21
ENDBRANCH  19  20
ENDBRANCH  18  19
ENDBRANCH  17  18
ENDBRANCH  16  17
ENDBRANCH  15  16
ENDBRANCH   1  15
TORSDOF 22
ENDMDL
MODEL 7
REMARK VINA RESULT:    -4.172      6.329     10.178
REMARK INTER + INTRA:         -13.198
REMARK INTER:                  -9.663
REMARK INTRA:                  -3.535
REMARK UNBOUND:                -3.661
REMARK SMILES CCCCCCCCCCCCCCCCCCCCCCCC(=O)[O-]
REMARK SMILES IDX 13 1 14 2 15 3 16 4 17 5 18 6 19 7 20 8 21 9 22 10 23 11
REMARK SMILES IDX 24 12 25 13 26 14 12 15 11 16 10 17 9 18 8 19 7 20 6 21 5 22
REMARK SMILES IDX 4 23 3 24 2 25 1 26
REMARK H PARENT
REMARK Flexibility Score: inf
ROOT
ATOM      1  C   UNL     1      16.578  51.378  36.594  1.00  0.00     0.000 C 
ENDROOT
BRANCH   1   2
ATOM      2  C   UNL     1      17.280  50.484  35.561  1.00  0.00     0.000 C 
BRANCH   2   3
ATOM      3  C   UNL     1      18.683  50.995  35.188  1.00  0.00     0.000 C 
BRANCH   3   4
ATOM      4  C   UNL     1      19.829  49.984  35.407  1.00  0.00     0.000 C 
BRANCH   4   5
ATOM      5  C   UNL     1      20.542  49.493  34.129  1.00  0.00     0.000 C 
BRANCH   5   6
ATOM      6  C   UNL     1      19.707  49.574  32.834  1.00  0.00     0.000 C 
BRANCH   6   7
ATOM      7  C   UNL     1      20.212  50.613  31.814  1.00  0.00     0.000 C 
BRANCH   7   8
ATOM      8  C   UNL     1      19.126  51.594  31.326  1.00  0.00     0.000 C 
BRANCH   8   9
ATOM      9  C   UNL     1      17.733  50.940  31.293  1.00  0.00     0.000 C 
BRANCH   9  10
ATOM     10  C   UNL     1      16.673  51.760  32.044  1.00  0.00     0.006 C 
BRANCH  10  11
ATOM     11  C   UNL     1      15.814  52.618  31.106  1.00  0.00     0.053 C 
BRANCH  11  12
ATOM     12  C   UNL     1      14.808  51.769  30.396  1.00  0.00     0.041 C 
ATOM     13  O   UNL     1      14.405  52.092  29.247  1.00  0.00    -0.550 OA
ATOM     14  O   UNL     1      14.277  50.647  31.022  1.00  0.00    -0.550 OA
ENDBRANCH  11  12
ENDBRANCH  10  11
ENDBRANCH   9  10
ENDBRANCH   8   9
ENDBRANCH   7   8
ENDBRANCH   6   7
ENDBRANCH   5   6
ENDBRANCH   4   5
ENDBRANCH   3   4
ENDBRANCH   2   3
ENDBRANCH   1   2
BRANCH   1  15
ATOM     15  C   UNL     1      16.408  50.646  37.930  1.00  0.00     0.000 C 
BRANCH  15  16
ATOM     16  C   UNL     1      16.794  49.166  37.798  1.00  0.00     0.000 C 
BRANCH  16  17
ATOM     17  C   UNL     1      17.820  48.717  38.853  1.00  0.00     0.000 C 
BRANCH  17  18
ATOM     18  C   UNL     1      19.054  49.632  38.998  1.00  0.00    -0.000 C 
BRANCH  18  19
ATOM     19  C   UNL     1      19.322  50.158  40.420  1.00  0.00    -0.000 C 
BRANCH  19  20
ATOM     20  C   UNL     1      20.813  50.411  40.696  1.00  0.00    -0.000 C 
BRANCH  20  21
ATOM     21  C   UNL     1      21.698  50.155  39.464  1.00  0.00    -0.000 C 
BRANCH  21  22
ATOM     22  C   UNL     1      22.932  51.079  39.385  1.00  0.00    -0.000 C 
BRANCH  22  23
ATOM     23  C   UNL     1      22.592  52.445  38.769  1.00  0.00    -0.000 C 
BRANCH  23  24
ATOM     24  C   UNL     1      21.794  52.280  37.470  1.00  0.00    -0.000 C 
BRANCH  24  25
ATOM     25  C   UNL     1      20.686  53.336  37.368  1.00  0.00    -0.003 C 
ATOM     26  C   UNL     1      19.900  53.438  38.671  1.00  0.00     0.004 C 
ENDBRANCH  24  25
ENDBRANCH  23  24
ENDBRANCH  22  23
ENDBRANCH  21  22
ENDBRANCH  20  21
ENDBRANCH  19  20
ENDBRANCH  18  19
ENDBRANCH  17  18
ENDBRANCH  16  17
ENDBRANCH  15  16
ENDBRANCH   1  15
TORSDOF 22
ENDMDL
MODEL 8
REMARK VINA RESULT:    -4.163      7.082     11.286
REMARK INTER + INTRA:         -13.179
REMARK INTER:                  -9.300
REMARK INTRA:                  -3.880
REMARK UNBOUND:                -3.661
REMARK SMILES CCCCCCCCCCCCCCCCCCCCCCCC(=O)[O-]
REMARK SMILES IDX 13 1 14 2 15 3 16 4 17 5 18 6 19 7 20 8 21 9 22 10 23 11
REMARK SMILES IDX 24 12 25 13 26 14 12 15 11 16 10 17 9 18 8 19 7 20 6 21 5 22
REMARK SMILES IDX 4 23 3 24 2 25 1 26
REMARK H PARENT
REMARK Flexibility Score: inf
ROOT
ATOM      1  C   UNL     1      17.700  51.111  39.851  1.00  0.00     0.000 C 
ENDROOT
BRANCH   1   2
ATOM      2  C   UNL     1      16.898  51.417  38.578  1.00  0.00     0.000 C 
BRANCH   2   3
ATOM      3  C   UNL     1      16.037  50.227  38.117  1.00  0.00     0.000 C 
BRANCH   3   4
ATOM      4  C   UNL     1      16.064  49.945  36.600  1.00  0.00     0.000 C 
BRANCH   4   5
ATOM      5  C   UNL     1      17.363  49.310  36.058  1.00  0.00     0.000 C 
BRANCH   5   6
ATOM      6  C   UNL     1      18.008  50.045  34.863  1.00  0.00     0.000 C 
BRANCH   6   7
ATOM      7  C   UNL     1      17.401  51.429  34.563  1.00  0.00     0.000 C 
BRANCH   7   8
ATOM      8  C   UNL     1      18.264  52.304  33.630  1.00  0.00     0.000 C 
BRANCH   8   9
ATOM      9  C   UNL     1      17.997  51.999  32.146  1.00  0.00     0.000 C 
BRANCH   9  10
ATOM     10  C   UNL     1      16.499  51.984  31.802  1.00  0.00     0.006 C 
BRANCH  10  11
ATOM     11  C   UNL     1      16.035  50.636  31.236  1.00  0.00     0.053 C 
BRANCH  11  12
ATOM     12  C   UNL     1      16.885  50.238  30.071  1.00  0.00     0.041 C 
ATOM     13  O   UNL     1      16.765  50.834  28.967  1.00  0.00    -0.550 OA
ATOM     14  O   UNL     1      17.775  49.177  30.187  1.00  0.00    -0.550 OA
ENDBRANCH  11  12
ENDBRANCH  10  11
ENDBRANCH   9  10
ENDBRANCH   8   9
ENDBRANCH   7   8
ENDBRANCH   6   7
ENDBRANCH   5   6
ENDBRANCH   4   5
ENDBRANCH   3   4
ENDBRANCH   2   3
ENDBRANCH   1   2
BRANCH   1  15
ATOM     15  C   UNL     1      18.514  49.821  39.691  1.00  0.00     0.000 C 
BRANCH  15  16
ATOM     16  C   UNL     1      19.161  49.413  41.022  1.00  0.00     0.000 C 
BRANCH  16  17
ATOM     17  C   UNL     1      19.485  50.617  41.925  1.00  0.00     0.000 C 
BRANCH  17  18
ATOM     18  C   UNL     1      20.989  50.912  42.110  1.00  0.00    -0.000 C 
BRANCH  18  19
ATOM     19  C   UNL     1      21.488  52.219  41.467  1.00  0.00    -0.000 C 
BRANCH  19  20
ATOM     20  C   UNL     1      22.472  51.981  40.310  1.00  0.00    -0.000 C 
BRANCH  20  21
ATOM     21  C   UNL     1      22.601  50.495  39.934  1.00  0.00    -0.000 C 
BRANCH  21  22
ATOM     22  C   UNL     1      22.032  50.157  38.540  1.00  0.00    -0.000 C 
BRANCH  22  23
ATOM     23  C   UNL     1      21.829  51.412  37.677  1.00  0.00    -0.000 C 
BRANCH  23  24
ATOM     24  C   UNL     1      20.404  51.470  37.115  1.00  0.00    -0.000 C 
BRANCH  24  25
ATOM     25  C   UNL     1      19.939  52.921  36.942  1.00  0.00    -0.003 C 
ATOM     26  C   UNL     1      19.918  53.657  38.277  1.00  0.00     0.004 C 
ENDBRANCH  24  25
ENDBRANCH  23  24
ENDBRANCH  22  23
ENDBRANCH  21  22
ENDBRANCH  20  21
ENDBRANCH  19  20
ENDBRANCH  18  19
ENDBRANCH  17  18
ENDBRANCH  16  17
ENDBRANCH  15  16
ENDBRANCH   1  15
TORSDOF 22
ENDMDL
MODEL 9
REMARK VINA RESULT:    -4.086      8.045     11.599
REMARK INTER + INTRA:         -13.001
REMARK INTER:                  -8.308
REMARK INTRA:                  -4.693
REMARK UNBOUND:                -3.661
REMARK SMILES CCCCCCCCCCCCCCCCCCCCCCCC(=O)[O-]
REMARK SMILES IDX 13 1 14 2 15 3 16 4 17 5 18 6 19 7 20 8 21 9 22 10 23 11
REMARK SMILES IDX 24 12 25 13 26 14 12 15 11 16 10 17 9 18 8 19 7 20 6 21 5 22
REMARK SMILES IDX 4 23 3 24 2 25 1 26
REMARK H PARENT
REMARK Flexibility Score: inf
ROOT
ATOM      1  C   UNL     1      20.548  52.916  37.386  1.00  0.00     0.000 C 
ENDROOT
BRANCH   1   2
ATOM      2  C   UNL     1      21.778  52.035  37.648  1.00  0.00     0.000 C 
BRANCH   2   3
ATOM      3  C   UNL     1      21.437  50.534  37.683  1.00  0.00     0.000 C 
BRANCH   3   4
ATOM      4  C   UNL     1      20.984  49.932  36.337  1.00  0.00     0.000 C 
BRANCH   4   5
ATOM      5  C   UNL     1      20.276  48.563  36.418  1.00  0.00     0.000 C 
BRANCH   5   6
ATOM      6  C   UNL     1      20.012  47.875  35.061  1.00  0.00     0.000 C 
BRANCH   6   7
ATOM      7  C   UNL     1      18.767  46.967  35.039  1.00  0.00     0.000 C 
BRANCH   7   8
ATOM      8  C   UNL     1      17.738  47.286  36.143  1.00  0.00     0.000 C 
BRANCH   8   9
ATOM      9  C   UNL     1      16.325  47.494  35.570  1.00  0.00     0.000 C 
BRANCH   9  10
ATOM     10  C   UNL     1      16.307  47.546  34.035  1.00  0.00     0.006 C 
BRANCH  10  11
ATOM     11  C   UNL     1      15.139  48.375  33.484  1.00  0.00     0.053 C 
BRANCH  11  12
ATOM     12  C   UNL     1      14.152  47.492  32.790  1.00  0.00     0.041 C 
ATOM     13  O   UNL     1      12.970  47.886  32.605  1.00  0.00    -0.550 OA
ATOM     14  O   UNL     1      14.523  46.214  32.388  1.00  0.00    -0.550 OA
ENDBRANCH  11  12
ENDBRANCH  10  11
ENDBRANCH   9  10
ENDBRANCH   8   9
ENDBRANCH   7   8
ENDBRANCH   6   7
ENDBRANCH   5   6
ENDBRANCH   4   5
ENDBRANCH   3   4
ENDBRANCH   2   3
ENDBRANCH   1   2
BRANCH   1  15
ATOM     15  C   UNL     1      19.832  53.265  38.696  1.00  0.00     0.000 C 
BRANCH  15  16
ATOM     16  C   UNL     1      20.789  53.150  39.891  1.00  0.00     0.000 C 
BRANCH  16  17
ATOM     17  C   UNL     1      20.224  52.279  41.028  1.00  0.00     0.000 C 
BRANCH  17  18
ATOM     18  C   UNL     1      18.919  51.528  40.692  1.00  0.00    -0.000 C 
BRANCH  18  19
ATOM     19  C   UNL     1      19.052  50.000  40.564  1.00  0.00    -0.000 C 
BRANCH  19  20
ATOM     20  C   UNL     1      18.130  49.405  39.487  1.00  0.00    -0.000 C 
BRANCH  20  21
ATOM     21  C   UNL     1      17.835  50.391  38.344  1.00  0.00    -0.000 C 
BRANCH  21  22
ATOM     22  C   UNL     1      16.340  50.477  37.969  1.00  0.00    -0.000 C 
BRANCH  22  23
ATOM     23  C   UNL     1      16.134  50.921  36.513  1.00  0.00    -0.000 C 
BRANCH  23  24
ATOM     24  C   UNL     1      17.476  51.204  35.828  1.00  0.00    -0.000 C 
BRANCH  24  25
ATOM     25  C   UNL     1      17.291  51.401  34.318  1.00  0.00    -0.003 C 
ATOM     26  C   UNL     1      18.409  50.723  33.533  1.00  0.00     0.004 C 
ENDBRANCH  24  25
ENDBRANCH  23  24
ENDBRANCH  22  23
ENDBRANCH  21  22
ENDBRANCH  20  21
ENDBRANCH  19  20
ENDBRANCH  18  19
ENDBRANCH  17  18
ENDBRANCH  16  17
ENDBRANCH  15  16
ENDBRANCH   1  15
TORSDOF 22
ENDMDL
