MODEL 1
REMARK VINA RESULT:    -2.339      0.000      0.000
REMARK INTER + INTRA:          -3.967
REMARK INTER:                  -4.390
REMARK INTRA:                   0.423
REMARK UNBOUND:                 0.423
REMARK SMILES CCCCCCCCC=CCCCCCCCC(=O)[O-]
REMARK SMILES IDX 10 1 9 2 11 3 12 4 13 5 14 6 15 7 16 8 17 9 18 10 19 11
REMARK SMILES IDX 20 12 8 13 7 14 6 15 5 16 4 17 3 18 2 19 1 20
REMARK H PARENT
REMARK Flexibility Score: inf
ROOT
ATOM      1  C   UNL     1      87.523  54.025  88.680  1.00  0.00    -0.031 C 
ATOM      2  C   UNL     1      86.235  54.330  88.472  1.00  0.00    -0.031 C 
ENDROOT
BRANCH   1   3
ATOM      3  C   UNL     1      87.993  52.598  88.731  1.00  0.00     0.027 C 
BRANCH   3   4
ATOM      4  C   UNL     1      89.368  52.494  89.401  1.00  0.00     0.004 C 
BRANCH   4   5
ATOM      5  C   UNL     1      90.121  51.247  88.921  1.00  0.00     0.000 C 
BRANCH   5   6
ATOM      6  C   UNL     1      89.595  49.982  89.614  1.00  0.00     0.000 C 
BRANCH   6   7
ATOM      7  C   UNL     1      90.121  49.828  91.049  1.00  0.00     0.000 C 
BRANCH   7   8
ATOM      8  C   UNL     1      89.704  50.992  91.967  1.00  0.00     0.006 C 
BRANCH   8   9
ATOM      9  C   UNL     1      89.745  50.604  93.452  1.00  0.00     0.053 C 
BRANCH   9  10
ATOM     10  C   UNL     1      88.888  51.507  94.285  1.00  0.00     0.041 C 
ATOM     11  O   UNL     1      88.255  51.049  95.272  1.00  0.00    -0.550 OA
ATOM     12  O   UNL     1      88.820  52.863  93.993  1.00  0.00    -0.550 OA
ENDBRANCH   9  10
ENDBRANCH   8   9
ENDBRANCH   7   8
ENDBRANCH   6   7
ENDBRANCH   5   6
ENDBRANCH   4   5
ENDBRANCH   3   4
ENDBRANCH   1   3
BRANCH   2  13
ATOM     13  C   UNL     1      85.759  55.755  88.449  1.00  0.00     0.027 C 
BRANCH  13  14
ATOM     14  C   UNL     1      85.995  56.438  89.806  1.00  0.00     0.004 C 
BRANCH  14  15
ATOM     15  C   UNL     1      85.553  57.917  89.805  1.00  0.00     0.000 C 
BRANCH  15  16
ATOM     16  C   UNL     1      84.559  58.272  88.682  1.00  0.00     0.000 C 
BRANCH  16  17
ATOM     17  C   UNL     1      84.728  59.681  88.089  1.00  0.00    -0.000 C 
BRANCH  17  18
ATOM     18  C   UNL     1      85.086  60.736  89.147  1.00  0.00    -0.000 C 
BRANCH  18  19
ATOM     19  C   UNL     1      84.453  60.392  90.499  1.00  0.00    -0.003 C 
ATOM     20  C   UNL     1      83.607  61.550  91.022  1.00  0.00     0.004 C 
ENDBRANCH  18  19
ENDBRANCH  17  18
ENDBRANCH  16  17
ENDBRANCH  15  16
ENDBRANCH  14  15
ENDBRANCH  13  14
ENDBRANCH   2  13
TORSDOF 15
ENDMDL
MODEL 2
REMARK VINA RESULT:    -2.191      3.466      9.074
REMARK INTER + INTRA:          -3.691
REMARK INTER:                  -3.093
REMARK INTRA:                  -0.597
REMARK UNBOUND:                 0.423
REMARK SMILES CCCCCCCCC=CCCCCCCCC(=O)[O-]
REMARK SMILES IDX 10 1 9 2 11 3 12 4 13 5 14 6 15 7 16 8 17 9 18 10 19 11
REMARK SMILES IDX 20 12 8 13 7 14 6 15 5 16 4 17 3 18 2 19 1 20
REMARK H PARENT
REMARK Flexibility Score: inf
ROOT
ATOM      1  C   UNL     1      88.167  52.767  88.865  1.00  0.00    -0.031 C 
ATOM      2  C   UNL     1      89.437  52.448  89.149  1.00  0.00    -0.031 C 
ENDROOT
BRANCH   1   3
ATOM      3  C   UNL     1      87.585  54.097  89.256  1.00  0.00     0.027 C 
BRANCH   3   4
ATOM      4  C   UNL     1      86.376  54.450  88.382  1.00  0.00     0.004 C 
BRANCH   4   5
ATOM      5  C   UNL     1      86.139  55.964  88.356  1.00  0.00     0.000 C 
BRANCH   5   6
ATOM      6  C   UNL     1      85.412  56.432  89.626  1.00  0.00     0.000 C 
BRANCH   6   7
ATOM      7  C   UNL     1      85.863  57.826  90.088  1.00  0.00     0.000 C 
BRANCH   7   8
ATOM      8  C   UNL     1      84.864  58.935  89.707  1.00  0.00     0.006 C 
BRANCH   8   9
ATOM      9  C   UNL     1      84.889  59.248  88.205  1.00  0.00     0.053 C 
BRANCH   9  10
ATOM     10  C   UNL     1      83.715  58.649  87.494  1.00  0.00     0.041 C 
ATOM     11  O   UNL     1      83.001  57.783  88.064  1.00  0.00    -0.550 OA
ATOM     12  O   UNL     1      83.387  59.076  86.213  1.00  0.00    -0.550 OA
ENDBRANCH   9  10
ENDBRANCH   8   9
ENDBRANCH   7   8
ENDBRANCH   6   7
ENDBRANCH   5   6
ENDBRANCH   4   5
ENDBRANCH   3   4
ENDBRANCH   1   3
BRANCH   2  13
ATOM     13  C   UNL     1      90.010  51.108  88.784  1.00  0.00     0.027 C 
BRANCH  13  14
ATOM     14  C   UNL     1      89.595  50.034  89.802  1.00  0.00     0.004 C 
BRANCH  14  15
ATOM     15  C   UNL     1      90.004  50.400  91.245  1.00  0.00     0.000 C 
BRANCH  15  16
ATOM     16  C   UNL     1      89.770  49.271  92.267  1.00  0.00     0.000 C 
BRANCH  16  17
ATOM     17  C   UNL     1      90.120  49.630  93.721  1.00  0.00    -0.000 C 
BRANCH  17  18
ATOM     18  C   UNL     1      89.230  50.745  94.292  1.00  0.00    -0.000 C 
BRANCH  18  19
ATOM     19  C   UNL     1      90.079  51.874  94.884  1.00  0.00    -0.003 C 
ATOM     20  C   UNL     1      89.378  53.222  94.745  1.00  0.00     0.004 C 
ENDBRANCH  18  19
ENDBRANCH  17  18
ENDBRANCH  16  17
ENDBRANCH  15  16
ENDBRANCH  14  15
ENDBRANCH  13  14
ENDBRANCH   2  13
TORSDOF 15
ENDMDL
MODEL 3
REMARK VINA RESULT:    -2.170      0.947      1.603
REMARK INTER + INTRA:          -3.650
REMARK INTER:                  -2.730
REMARK INTRA:                  -0.920
REMARK UNBOUND:                 0.423
REMARK SMILES CCCCCCCCC=CCCCCCCCC(=O)[O-]
REMARK SMILES IDX 10 1 9 2 11 3 12 4 13 5 14 6 15 7 16 8 17 9 18 10 19 11
REMARK SMILES IDX 20 12 8 13 7 14 6 15 5 16 4 17 3 18 2 19 1 20
REMARK H PARENT
REMARK Flexibility Score: inf
ROOT
ATOM      1  C   UNL     1      86.001  55.122  88.390  1.00  0.00    -0.031 C 
ATOM      2  C   UNL     1      86.174  55.963  89.420  1.00  0.00    -0.031 C 
ENDROOT
BRANCH   1   3
ATOM      3  C   UNL     1      86.588  53.738  88.401  1.00  0.00     0.027 C 
BRANCH   3   4
ATOM      4  C   UNL     1      87.947  53.720  89.111  1.00  0.00     0.004 C 
BRANCH   4   5
ATOM      5  C   UNL     1      88.671  52.389  88.879  1.00  0.00     0.000 C 
BRANCH   5   6
ATOM      6  C   UNL     1      90.007  52.348  89.635  1.00  0.00     0.000 C 
BRANCH   6   7
ATOM      7  C   UNL     1      89.999  51.346  90.800  1.00  0.00     0.000 C 
BRANCH   7   8
ATOM      8  C   UNL     1      90.002  52.031  92.178  1.00  0.00     0.006 C 
BRANCH   8   9
ATOM      9  C   UNL     1      89.913  51.021  93.330  1.00  0.00     0.053 C 
BRANCH   9  10
ATOM     10  C   UNL     1      89.034  51.517  94.437  1.00  0.00     0.041 C 
ATOM     11  O   UNL     1      89.415  51.437  95.634  1.00  0.00    -0.550 OA
ATOM     12  O   UNL     1      87.811  52.104  94.142  1.00  0.00    -0.550 OA
ENDBRANCH   9  10
ENDBRANCH   8   9
ENDBRANCH   7   8
ENDBRANCH   6   7
ENDBRANCH   5   6
ENDBRANCH   4   5
ENDBRANCH   3   4
ENDBRANCH   1   3
BRANCH   2  13
ATOM     13  C   UNL     1      85.612  57.357  89.398  1.00  0.00     0.027 C 
BRANCH  13  14
ATOM     14  C   UNL     1      84.213  57.379  88.763  1.00  0.00     0.004 C 
BRANCH  14  15
ATOM     15  C   UNL     1      84.014  58.584  87.819  1.00  0.00     0.000 C 
BRANCH  15  16
ATOM     16  C   UNL     1      85.247  59.501  87.707  1.00  0.00     0.000 C 
BRANCH  16  17
ATOM     17  C   UNL     1      85.082  60.890  88.347  1.00  0.00    -0.000 C 
BRANCH  17  18
ATOM     18  C   UNL     1      85.322  60.881  89.864  1.00  0.00    -0.000 C 
BRANCH  18  19
ATOM     19  C   UNL     1      84.041  60.513  90.619  1.00  0.00    -0.003 C 
ATOM     20  C   UNL     1      83.533  61.690  91.448  1.00  0.00     0.004 C 
ENDBRANCH  18  19
ENDBRANCH  17  18
ENDBRANCH  16  17
ENDBRANCH  15  16
ENDBRANCH  14  15
ENDBRANCH  13  14
ENDBRANCH   2  13
TORSDOF 15
ENDMDL
MODEL 4
REMARK VINA RESULT:    -1.984      3.290      8.891
REMARK INTER + INTRA:          -3.302
REMARK INTER:                  -2.662
REMARK INTRA:                  -0.640
REMARK UNBOUND:                 0.423
REMARK SMILES CCCCCCCCC=CCCCCCCCC(=O)[O-]
REMARK SMILES IDX 10 1 9 2 11 3 12 4 13 5 14 6 15 7 16 8 17 9 18 10 19 11
REMARK SMILES IDX 20 12 8 13 7 14 6 15 5 16 4 17 3 18 2 19 1 20
REMARK H PARENT
REMARK Flexibility Score: inf
ROOT
ATOM      1  C   UNL     1      88.848  51.904  89.010  1.00  0.00    -0.031 C 
ATOM      2  C   UNL     1      89.786  51.340  89.783  1.00  0.00    -0.031 C 
ENDROOT
BRANCH   1   3
ATOM      3  C   UNL     1      88.548  53.376  89.086  1.00  0.00     0.027 C 
BRANCH   3   4
ATOM      4  C   UNL     1      87.051  53.644  88.896  1.00  0.00     0.004 C 
BRANCH   4   5
ATOM      5  C   UNL     1      86.818  54.990  88.199  1.00  0.00     0.000 C 
BRANCH   5   6
ATOM      6  C   UNL     1      85.395  55.506  88.455  1.00  0.00     0.000 C 
BRANCH   6   7
ATOM      7  C   UNL     1      85.372  56.793  89.295  1.00  0.00     0.000 C 
BRANCH   7   8
ATOM      8  C   UNL     1      84.283  57.784  88.842  1.00  0.00     0.006 C 
BRANCH   8   9
ATOM      9  C   UNL     1      84.877  59.081  88.278  1.00  0.00     0.053 C 
BRANCH   9  10
ATOM     10  C   UNL     1      84.849  60.189  89.285  1.00  0.00     0.041 C 
ATOM     11  O   UNL     1      84.527  59.953  90.479  1.00  0.00    -0.550 OA
ATOM     12  O   UNL     1      85.217  61.476  88.913  1.00  0.00    -0.550 OA
ENDBRANCH   9  10
ENDBRANCH   8   9
ENDBRANCH   7   8
ENDBRANCH   6   7
ENDBRANCH   5   6
ENDBRANCH   4   5
ENDBRANCH   3   4
ENDBRANCH   1   3
BRANCH   2  13
ATOM     13  C   UNL     1      90.066  49.865  89.729  1.00  0.00     0.027 C 
BRANCH  13  14
ATOM     14  C   UNL     1      90.046  49.247  91.135  1.00  0.00     0.004 C 
BRANCH  14  15
ATOM     15  C   UNL     1      90.125  50.314  92.249  1.00  0.00     0.000 C 
BRANCH  15  16
ATOM     16  C   UNL     1      89.910  49.755  93.668  1.00  0.00     0.000 C 
BRANCH  16  17
ATOM     17  C   UNL     1      88.668  50.296  94.397  1.00  0.00    -0.000 C 
BRANCH  17  18
ATOM     18  C   UNL     1      89.017  51.306  95.500  1.00  0.00    -0.000 C 
BRANCH  18  19
ATOM     19  C   UNL     1      89.812  52.485  94.930  1.00  0.00    -0.003 C 
ATOM     20  C   UNL     1      89.011  53.226  93.863  1.00  0.00     0.004 C 
ENDBRANCH  18  19
ENDBRANCH  17  18
ENDBRANCH  16  17
ENDBRANCH  15  16
ENDBRANCH  14  15
ENDBRANCH  13  14
ENDBRANCH   2  13
TORSDOF 15
ENDMDL
MODEL 5
REMARK VINA RESULT:    -1.778      3.547      8.772
REMARK INTER + INTRA:          -2.914
REMARK INTER:                  -2.117
REMARK INTRA:                  -0.797
REMARK UNBOUND:                 0.423
REMARK SMILES CCCCCCCCC=CCCCCCCCC(=O)[O-]
REMARK SMILES IDX 10 1 9 2 11 3 12 4 13 5 14 6 15 7 16 8 17 9 18 10 19 11
REMARK SMILES IDX 20 12 8 13 7 14 6 15 5 16 4 17 3 18 2 19 1 20
REMARK H PARENT
REMARK Flexibility Score: inf
ROOT
ATOM      1  C   UNL     1      87.937  52.603  88.551  1.00  0.00    -0.031 C 
ATOM      2  C   UNL     1      89.061  52.037  89.011  1.00  0.00    -0.031 C 
ENDROOT
BRANCH   1   3
ATOM      3  C   UNL     1      87.551  54.005  88.933  1.00  0.00     0.027 C 
BRANCH   3   4
ATOM      4  C   UNL     1      86.169  54.367  88.377  1.00  0.00     0.004 C 
BRANCH   4   5
ATOM      5  C   UNL     1      85.893  55.868  88.525  1.00  0.00     0.000 C 
BRANCH   5   6
ATOM      6  C   UNL     1      86.072  56.322  89.981  1.00  0.00     0.000 C 
BRANCH   6   7
ATOM      7  C   UNL     1      86.160  57.850  90.120  1.00  0.00     0.000 C 
BRANCH   7   8
ATOM      8  C   UNL     1      84.984  58.447  90.916  1.00  0.00     0.006 C 
BRANCH   8   9
ATOM      9  C   UNL     1      84.151  59.425  90.077  1.00  0.00     0.053 C 
BRANCH   9  10
ATOM     10  C   UNL     1      84.889  59.877  88.855  1.00  0.00     0.041 C 
ATOM     11  O   UNL     1      84.683  59.320  87.746  1.00  0.00    -0.550 OA
ATOM     12  O   UNL     1      85.778  60.941  88.935  1.00  0.00    -0.550 OA
ENDBRANCH   9  10
ENDBRANCH   8   9
ENDBRANCH   7   8
ENDBRANCH   6   7
ENDBRANCH   5   6
ENDBRANCH   4   5
ENDBRANCH   3   4
ENDBRANCH   1   3
BRANCH   2  13
ATOM     13  C   UNL     1      89.433  50.625  88.654  1.00  0.00     0.027 C 
BRANCH  13  14
ATOM     14  C   UNL     1      89.795  49.815  89.908  1.00  0.00     0.004 C 
BRANCH  14  15
ATOM     15  C   UNL     1      89.935  50.704  91.163  1.00  0.00     0.000 C 
BRANCH  15  16
ATOM     16  C   UNL     1      90.037  49.914  92.482  1.00  0.00     0.000 C 
BRANCH  16  17
ATOM     17  C   UNL     1      89.918  50.765  93.758  1.00  0.00    -0.000 C 
BRANCH  17  18
ATOM     18  C   UNL     1      89.139  52.070  93.536  1.00  0.00    -0.000 C 
BRANCH  18  19
ATOM     19  C   UNL     1      88.251  52.389  94.742  1.00  0.00    -0.003 C 
ATOM     20  C   UNL     1      88.034  51.152  95.610  1.00  0.00     0.004 C 
ENDBRANCH  18  19
ENDBRANCH  17  18
ENDBRANCH  16  17
ENDBRANCH  15  16
ENDBRANCH  14  15
ENDBRANCH  13  14
ENDBRANCH   2  13
TORSDOF 15
ENDMDL
MODEL 6
REMARK VINA RESULT:    -1.727      1.179      2.989
REMARK INTER + INTRA:          -2.819
REMARK INTER:                  -2.580
REMARK INTRA:                  -0.240
REMARK UNBOUND:                 0.423
REMARK SMILES CCCCCCCCC=CCCCCCCCC(=O)[O-]
REMARK SMILES IDX 10 1 9 2 11 3 12 4 13 5 14 6 15 7 16 8 17 9 18 10 19 11
REMARK SMILES IDX 20 12 8 13 7 14 6 15 5 16 4 17 3 18 2 19 1 20
REMARK H PARENT
REMARK Flexibility Score: inf
ROOT
ATOM      1  C   UNL     1      89.277  51.794  89.886  1.00  0.00    -0.031 C 
ATOM      2  C   UNL     1      88.779  52.517  88.873  1.00  0.00    -0.031 C 
ENDROOT
BRANCH   1   3
ATOM      3  C   UNL     1      90.003  50.500  89.643  1.00  0.00     0.027 C 
BRANCH   3   4
ATOM      4  C   UNL     1      90.042  49.642  90.913  1.00  0.00     0.004 C 
BRANCH   4   5
ATOM      5  C   UNL     1      90.125  50.520  92.167  1.00  0.00     0.000 C 
BRANCH   5   6
ATOM      6  C   UNL     1      89.259  49.950  93.299  1.00  0.00     0.000 C 
BRANCH   6   7
ATOM      7  C   UNL     1      88.435  51.029  94.018  1.00  0.00     0.000 C 
BRANCH   7   8
ATOM      8  C   UNL     1      88.833  51.202  95.495  1.00  0.00     0.006 C 
BRANCH   8   9
ATOM      9  C   UNL     1      90.117  52.028  95.658  1.00  0.00     0.053 C 
BRANCH   9  10
ATOM     10  C   UNL     1      90.049  53.315  94.896  1.00  0.00     0.041 C 
ATOM     11  O   UNL     1      90.013  53.307  93.638  1.00  0.00    -0.550 OA
ATOM     12  O   UNL     1      89.987  54.524  95.578  1.00  0.00    -0.550 OA
ENDBRANCH   9  10
ENDBRANCH   8   9
ENDBRANCH   7   8
ENDBRANCH   6   7
ENDBRANCH   5   6
ENDBRANCH   4   5
ENDBRANCH   3   4
ENDBRANCH   1   3
BRANCH   2  13
ATOM     13  C   UNL     1      88.028  53.796  89.117  1.00  0.00     0.027 C 
BRANCH  13  14
ATOM     14  C   UNL     1      86.616  53.730  88.514  1.00  0.00     0.004 C 
BRANCH  14  15
ATOM     15  C   UNL     1      86.043  55.130  88.203  1.00  0.00     0.000 C 
BRANCH  15  16
ATOM     16  C   UNL     1      85.582  55.908  89.451  1.00  0.00     0.000 C 
BRANCH  16  17
ATOM     17  C   UNL     1      86.046  57.374  89.509  1.00  0.00    -0.000 C 
BRANCH  17  18
ATOM     18  C   UNL     1      85.181  58.308  88.650  1.00  0.00    -0.000 C 
BRANCH  18  19
ATOM     19  C   UNL     1      84.085  58.967  89.493  1.00  0.00    -0.003 C 
ATOM     20  C   UNL     1      84.605  60.221  90.191  1.00  0.00     0.004 C 
ENDBRANCH  18  19
ENDBRANCH  17  18
ENDBRANCH  16  17
ENDBRANCH  15  16
ENDBRANCH  14  15
ENDBRANCH  13  14
ENDBRANCH   2  13
TORSDOF 15
ENDMDL
MODEL 7
REMARK VINA RESULT:    -1.699      1.038      1.606
REMARK INTER + INTRA:          -2.767
REMARK INTER:                  -2.033
REMARK INTRA:                  -0.734
REMARK UNBOUND:                 0.423
REMARK SMILES CCCCCCCCC=CCCCCCCCC(=O)[O-]
REMARK SMILES IDX 10 1 9 2 11 3 12 4 13 5 14 6 15 7 16 8 17 9 18 10 19 11
REMARK SMILES IDX 20 12 8 13 7 14 6 15 5 16 4 17 3 18 2 19 1 20
REMARK H PARENT
REMARK Flexibility Score: inf
ROOT
ATOM      1  C   UNL     1      88.386  52.823  88.884  1.00  0.00    -0.031 C 
ATOM      2  C   UNL     1      87.279  53.532  88.622  1.00  0.00    -0.031 C 
ENDROOT
BRANCH   1   3
ATOM      3  C   UNL     1      88.516  51.386  88.463  1.00  0.00     0.027 C 
BRANCH   3   4
ATOM      4  C   UNL     1      89.937  50.865  88.707  1.00  0.00     0.004 C 
BRANCH   4   5
ATOM      5  C   UNL     1      89.921  49.381  89.090  1.00  0.00     0.000 C 
BRANCH   5   6
ATOM      6  C   UNL     1      90.003  49.202  90.613  1.00  0.00     0.000 C 
BRANCH   6   7
ATOM      7  C   UNL     1      90.125  50.538  91.362  1.00  0.00     0.000 C 
BRANCH   7   8
ATOM      8  C   UNL     1      89.979  50.383  92.887  1.00  0.00     0.006 C 
BRANCH   8   9
ATOM      9  C   UNL     1      89.744  51.729  93.588  1.00  0.00     0.053 C 
BRANCH   9  10
ATOM     10  C   UNL     1      88.716  51.618  94.672  1.00  0.00     0.041 C 
ATOM     11  O   UNL     1      87.496  51.778  94.408  1.00  0.00    -0.550 OA
ATOM     12  O   UNL     1      89.104  51.301  95.967  1.00  0.00    -0.550 OA
ENDBRANCH   9  10
ENDBRANCH   8   9
ENDBRANCH   7   8
ENDBRANCH   6   7
ENDBRANCH   5   6
ENDBRANCH   4   5
ENDBRANCH   3   4
ENDBRANCH   1   3
BRANCH   2  13
ATOM     13  C   UNL     1      87.137  54.960  89.068  1.00  0.00     0.027 C 
BRANCH  13  14
ATOM     14  C   UNL     1      86.043  55.682  88.266  1.00  0.00     0.004 C 
BRANCH  14  15
ATOM     15  C   UNL     1      85.354  56.797  89.083  1.00  0.00     0.000 C 
BRANCH  15  16
ATOM     16  C   UNL     1      84.083  57.363  88.421  1.00  0.00     0.000 C 
BRANCH  16  17
ATOM     17  C   UNL     1      83.834  58.860  88.670  1.00  0.00    -0.000 C 
BRANCH  17  18
ATOM     18  C   UNL     1      84.453  59.358  89.984  1.00  0.00    -0.000 C 
BRANCH  18  19
ATOM     19  C   UNL     1      84.955  60.799  89.842  1.00  0.00    -0.003 C 
ATOM     20  C   UNL     1      85.680  61.002  88.514  1.00  0.00     0.004 C 
ENDBRANCH  18  19
ENDBRANCH  17  18
ENDBRANCH  16  17
ENDBRANCH  15  16
ENDBRANCH  14  15
ENDBRANCH  13  14
ENDBRANCH   2  13
TORSDOF 15
ENDMDL
MODEL 8
REMARK VINA RESULT:    -1.171      1.200      2.813
REMARK INTER + INTRA:          -1.775
REMARK INTER:                  -1.426
REMARK INTRA:                  -0.349
REMARK UNBOUND:                 0.423
REMARK SMILES CCCCCCCCC=CCCCCCCCC(=O)[O-]
REMARK SMILES IDX 10 1 9 2 11 3 12 4 13 5 14 6 15 7 16 8 17 9 18 10 19 11
REMARK SMILES IDX 20 12 8 13 7 14 6 15 5 16 4 17 3 18 2 19 1 20
REMARK H PARENT
REMARK Flexibility Score: inf
ROOT
ATOM      1  C   UNL     1      85.762  56.025  89.370  1.00  0.00    -0.031 C 
ATOM      2  C   UNL     1      86.227  57.234  89.715  1.00  0.00    -0.031 C 
ENDROOT
BRANCH   1   3
ATOM      3  C   UNL     1      86.323  55.273  88.196  1.00  0.00     0.027 C 
BRANCH   3   4
ATOM      4  C   UNL     1      86.655  53.825  88.575  1.00  0.00     0.004 C 
BRANCH   4   5
ATOM      5  C   UNL     1      88.019  53.737  89.268  1.00  0.00     0.000 C 
BRANCH   5   6
ATOM      6  C   UNL     1      88.701  52.392  88.977  1.00  0.00     0.000 C 
BRANCH   6   7
ATOM      7  C   UNL     1      90.004  52.202  89.769  1.00  0.00     0.000 C 
BRANCH   7   8
ATOM      8  C   UNL     1      89.813  51.351  91.039  1.00  0.00     0.006 C 
BRANCH   8   9
ATOM      9  C   UNL     1      89.809  52.204  92.315  1.00  0.00     0.053 C 
BRANCH   9  10
ATOM     10  C   UNL     1      89.702  51.359  93.547  1.00  0.00     0.041 C 
ATOM     11  O   UNL     1      89.649  50.105  93.454  1.00  0.00    -0.550 OA
ATOM     12  O   UNL     1      89.698  51.956  94.800  1.00  0.00    -0.550 OA
ENDBRANCH   9  10
ENDBRANCH   8   9
ENDBRANCH   7   8
ENDBRANCH   6   7
ENDBRANCH   5   6
ENDBRANCH   4   5
ENDBRANCH   3   4
ENDBRANCH   1   3
BRANCH   2  13
ATOM     13  C   UNL     1      85.646  57.999  90.871  1.00  0.00     0.027 C 
BRANCH  13  14
ATOM     14  C   UNL     1      84.331  58.687  90.473  1.00  0.00     0.004 C 
BRANCH  14  15
ATOM     15  C   UNL     1      84.445  60.227  90.491  1.00  0.00     0.000 C 
BRANCH  15  16
ATOM     16  C   UNL     1      85.484  60.790  89.502  1.00  0.00     0.000 C 
BRANCH  16  17
ATOM     17  C   UNL     1      85.128  60.612  88.016  1.00  0.00    -0.000 C 
BRANCH  17  18
ATOM     18  C   UNL     1      84.946  59.139  87.618  1.00  0.00    -0.000 C 
BRANCH  18  19
ATOM     19  C   UNL     1      83.589  58.919  86.942  1.00  0.00    -0.003 C 
ATOM     20  C   UNL     1      82.772  57.859  87.676  1.00  0.00     0.004 C 
ENDBRANCH  18  19
ENDBRANCH  17  18
ENDBRANCH  16  17
ENDBRANCH  15  16
ENDBRANCH  14  15
ENDBRANCH  13  14
ENDBRANCH   2  13
TORSDOF 15
ENDMDL
