MODEL 1
REMARK VINA RESULT:    -7.437      0.000      0.000
REMARK INTER + INTRA:          -8.438
REMARK INTER:                  -8.959
REMARK INTRA:                   0.521
REMARK UNBOUND:                 0.521
REMARK SMILES O=c1c(O)c(-c2ccc(O)c(O)c2)oc2cc(O)cc(O)c12
REMARK SMILES IDX 5 1 3 2 2 3 1 4 22 5 20 6 19 7 17 8 16 9 15 10 14 11 6 12
REMARK SMILES IDX 7 13 8 14 9 15 13 16 11 17 10 18 12 20 4 22 21 24 18 26
REMARK H PARENT 10 19 12 21 4 23 21 25 18 27
REMARK Flexibility Score: inf
ROOT
ATOM      1  C   UNL     1     -96.505  82.173 207.483  1.00  0.00     0.180 A 
ATOM      2  C   UNL     1     -95.771  82.652 208.583  1.00  0.00     0.208 A 
ATOM      3  C   UNL     1     -95.971  83.975 209.010  1.00  0.00     0.238 A 
ATOM      4  O   UNL     1     -95.257  84.419 209.946  1.00  0.00    -0.285 OA
ATOM      5  C   UNL     1     -96.939  84.785 208.369  1.00  0.00     0.111 A 
ATOM      6  C   UNL     1     -97.257  86.124 208.747  1.00  0.00     0.134 A 
ATOM      7  C   UNL     1     -98.159  86.866 207.973  1.00  0.00     0.093 A 
ATOM      8  C   UNL     1     -98.803  86.295 206.872  1.00  0.00     0.123 A 
ATOM      9  C   UNL     1     -98.541  84.970 206.529  1.00  0.00     0.094 A 
ATOM     10  C   UNL     1     -97.618  84.217 207.258  1.00  0.00     0.146 A 
ATOM     11  O   UNL     1     -97.383  82.967 206.882  1.00  0.00    -0.452 OA
ENDROOT
BRANCH   1  12
ATOM     12  C   UNL     1     -96.340  80.796 206.965  1.00  0.00     0.025 A 
ATOM     13  C   UNL     1     -95.302  79.992 207.460  1.00  0.00     0.016 A 
ATOM     14  C   UNL     1     -95.140  78.682 207.002  1.00  0.00     0.051 A 
ATOM     15  C   UNL     1     -96.021  78.151 206.054  1.00  0.00     0.157 A 
ATOM     16  C   UNL     1     -97.237  80.253 206.027  1.00  0.00     0.062 A 
ATOM     17  C   UNL     1     -97.077  78.938 205.567  1.00  0.00     0.158 A 
BRANCH  15  18
ATOM     18  O   UNL     1     -95.832  76.842 205.614  1.00  0.00    -0.504 OA
ATOM     19  H   UNL     1     -96.368  76.449 204.849  1.00  0.00     0.293 HD
ENDBRANCH  15  18
BRANCH  17  20
ATOM     20  O   UNL     1     -97.967  78.410 204.632  1.00  0.00    -0.504 OA
ATOM     21  H   UNL     1     -97.803  78.493 203.636  1.00  0.00     0.293 HD
ENDBRANCH  17  20
ENDBRANCH   1  12
BRANCH   2  22
ATOM     22  O   UNL     1     -94.875  81.812 209.250  1.00  0.00    -0.502 OA
ATOM     23  H   UNL     1     -94.526  80.955 208.839  1.00  0.00     0.293 HD
ENDBRANCH   2  22
BRANCH   6  24
ATOM     24  O   UNL     1     -96.739  86.762 209.879  1.00  0.00    -0.507 OA
ATOM     25  H   UNL     1     -95.956  86.431 210.422  1.00  0.00     0.293 HD
ENDBRANCH   6  24
BRANCH   8  26
ATOM     26  O   UNL     1     -99.711  87.034 206.118  1.00  0.00    -0.508 OA
ATOM     27  H   UNL     1    -100.199  87.831 206.509  1.00  0.00     0.293 HD
ENDBRANCH   8  26
TORSDOF 6
ENDMDL
MODEL 2
REMARK VINA RESULT:    -7.350      1.770      6.562
REMARK INTER + INTRA:          -8.333
REMARK INTER:                  -8.105
REMARK INTRA:                  -0.228
REMARK UNBOUND:                 0.521
REMARK SMILES O=c1c(O)c(-c2ccc(O)c(O)c2)oc2cc(O)cc(O)c12
REMARK SMILES IDX 5 1 3 2 2 3 1 4 22 5 20 6 19 7 17 8 16 9 15 10 14 11 6 12
REMARK SMILES IDX 7 13 8 14 9 15 13 16 11 17 10 18 12 20 4 22 21 24 18 26
REMARK H PARENT 10 19 12 21 4 23 21 25 18 27
REMARK Flexibility Score: inf
ROOT
ATOM      1  C   UNL     1     -96.507  83.044 208.083  1.00  0.00     0.180 A 
ATOM      2  C   UNL     1     -96.356  82.371 209.309  1.00  0.00     0.208 A 
ATOM      3  C   UNL     1     -96.541  80.979 209.349  1.00  0.00     0.238 A 
ATOM      4  O   UNL     1     -96.479  80.395 210.462  1.00  0.00    -0.285 OA
ATOM      5  C   UNL     1     -96.818  80.270 208.155  1.00  0.00     0.111 A 
ATOM      6  C   UNL     1     -96.980  78.854 208.070  1.00  0.00     0.134 A 
ATOM      7  C   UNL     1     -97.357  78.273 206.853  1.00  0.00     0.093 A 
ATOM      8  C   UNL     1     -97.516  79.050 205.702  1.00  0.00     0.123 A 
ATOM      9  C   UNL     1     -97.307  80.425 205.763  1.00  0.00     0.094 A 
ATOM     10  C   UNL     1     -96.967  81.039 206.970  1.00  0.00     0.146 A 
ATOM     11  O   UNL     1     -96.799  82.355 206.987  1.00  0.00    -0.452 OA
ENDROOT
BRANCH   1  12
ATOM     12  C   UNL     1     -96.342  84.510 207.964  1.00  0.00     0.025 A 
ATOM     13  C   UNL     1     -95.057  85.068 208.036  1.00  0.00     0.016 A 
ATOM     14  C   UNL     1     -94.876  86.447 207.904  1.00  0.00     0.051 A 
ATOM     15  C   UNL     1     -95.972  87.287 207.685  1.00  0.00     0.157 A 
ATOM     16  C   UNL     1     -97.441  85.353 207.721  1.00  0.00     0.062 A 
ATOM     17  C   UNL     1     -97.261  86.738 207.588  1.00  0.00     0.158 A 
BRANCH  15  18
ATOM     18  O   UNL     1     -95.760  88.659 207.560  1.00  0.00    -0.504 OA
ATOM     19  H   UNL     1     -95.929  89.152 206.691  1.00  0.00     0.293 HD
ENDBRANCH  15  18
BRANCH  17  20
ATOM     20  O   UNL     1     -98.357  87.568 207.354  1.00  0.00    -0.504 OA
ATOM     21  H   UNL     1     -98.287  88.386 206.760  1.00  0.00     0.293 HD
ENDBRANCH  17  20
ENDBRANCH   1  12
BRANCH   2  22
ATOM     22  O   UNL     1     -96.007  83.079 210.461  1.00  0.00    -0.502 OA
ATOM     23  H   UNL     1     -96.679  83.621 210.991  1.00  0.00     0.293 HD
ENDBRANCH   2  22
BRANCH   6  24
ATOM     24  O   UNL     1     -96.759  77.975 209.136  1.00  0.00    -0.507 OA
ATOM     25  H   UNL     1     -97.173  77.060 209.226  1.00  0.00     0.293 HD
ENDBRANCH   6  24
BRANCH   8  26
ATOM     26  O   UNL     1     -97.875  78.461 204.492  1.00  0.00    -0.508 OA
ATOM     27  H   UNL     1     -98.054  79.018 203.664  1.00  0.00     0.293 HD
ENDBRANCH   8  26
TORSDOF 6
ENDMDL
MODEL 3
REMARK VINA RESULT:    -7.253      1.602      1.752
REMARK INTER + INTRA:          -8.216
REMARK INTER:                  -8.079
REMARK INTRA:                  -0.138
REMARK UNBOUND:                 0.521
REMARK SMILES O=c1c(O)c(-c2ccc(O)c(O)c2)oc2cc(O)cc(O)c12
REMARK SMILES IDX 5 1 3 2 2 3 1 4 22 5 20 6 19 7 17 8 16 9 15 10 14 11 6 12
REMARK SMILES IDX 7 13 8 14 9 15 13 16 11 17 10 18 12 20 4 22 21 24 18 26
REMARK H PARENT 10 19 12 21 4 23 21 25 18 27
REMARK Flexibility Score: inf
ROOT
ATOM      1  C   UNL     1     -97.237  83.202 207.765  1.00  0.00     0.180 A 
ATOM      2  C   UNL     1     -96.108  83.697 208.440  1.00  0.00     0.208 A 
ATOM      3  C   UNL     1     -95.926  85.087 208.534  1.00  0.00     0.238 A 
ATOM      4  O   UNL     1     -94.875  85.522 209.073  1.00  0.00    -0.285 OA
ATOM      5  C   UNL     1     -96.902  85.963 208.000  1.00  0.00     0.111 A 
ATOM      6  C   UNL     1     -96.843  87.388 208.078  1.00  0.00     0.134 A 
ATOM      7  C   UNL     1     -97.813  88.156 207.422  1.00  0.00     0.093 A 
ATOM      8  C   UNL     1     -98.875  87.551 206.745  1.00  0.00     0.123 A 
ATOM      9  C   UNL     1     -98.972  86.162 206.711  1.00  0.00     0.094 A 
ATOM     10  C   UNL     1     -97.999  85.368 207.323  1.00  0.00     0.146 A 
ATOM     11  O   UNL     1     -98.118  84.049 207.247  1.00  0.00    -0.452 OA
ENDROOT
BRANCH   1  12
ATOM     12  C   UNL     1     -97.490  81.751 207.612  1.00  0.00     0.025 A 
ATOM     13  C   UNL     1     -97.726  80.968 208.753  1.00  0.00     0.016 A 
ATOM     14  C   UNL     1     -97.989  79.601 208.631  1.00  0.00     0.051 A 
ATOM     15  C   UNL     1     -98.035  79.000 207.370  1.00  0.00     0.157 A 
ATOM     16  C   UNL     1     -97.558  81.148 206.343  1.00  0.00     0.062 A 
ATOM     17  C   UNL     1     -97.823  79.776 206.219  1.00  0.00     0.158 A 
BRANCH  15  18
ATOM     18  O   UNL     1     -98.297  77.633 207.281  1.00  0.00    -0.504 OA
ATOM     19  H   UNL     1     -99.215  77.276 207.045  1.00  0.00     0.293 HD
ENDBRANCH  15  18
BRANCH  17  20
ATOM     20  O   UNL     1     -97.882  79.185 204.958  1.00  0.00    -0.504 OA
ATOM     21  H   UNL     1     -97.128  78.606 204.607  1.00  0.00     0.293 HD
ENDBRANCH  17  20
ENDBRANCH   1  12
BRANCH   2  22
ATOM     22  O   UNL     1     -95.195  82.816 209.026  1.00  0.00    -0.502 OA
ATOM     23  H   UNL     1     -94.773  82.051 208.513  1.00  0.00     0.293 HD
ENDBRANCH   2  22
BRANCH   6  24
ATOM     24  O   UNL     1     -95.876  88.094 208.800  1.00  0.00    -0.507 OA
ATOM     25  H   UNL     1     -95.709  89.086 208.728  1.00  0.00     0.293 HD
ENDBRANCH   6  24
BRANCH   8  26
ATOM     26  O   UNL     1     -99.845  88.323 206.110  1.00  0.00    -0.508 OA
ATOM     27  H   UNL     1     -99.745  89.327 206.016  1.00  0.00     0.293 HD
ENDBRANCH   8  26
TORSDOF 6
ENDMDL
MODEL 4
REMARK VINA RESULT:    -7.139      2.269      7.071
REMARK INTER + INTRA:          -8.078
REMARK INTER:                  -7.842
REMARK INTRA:                  -0.236
REMARK UNBOUND:                 0.521
REMARK SMILES O=c1c(O)c(-c2ccc(O)c(O)c2)oc2cc(O)cc(O)c12
REMARK SMILES IDX 5 1 3 2 2 3 1 4 22 5 20 6 19 7 17 8 16 9 15 10 14 11 6 12
REMARK SMILES IDX 7 13 8 14 9 15 13 16 11 17 10 18 12 20 4 22 21 24 18 26
REMARK H PARENT 10 19 12 21 4 23 21 25 18 27
REMARK Flexibility Score: inf
ROOT
ATOM      1  C   UNL     1     -96.398  85.419 208.367  1.00  0.00     0.180 A 
ATOM      2  C   UNL     1     -95.637  84.895 209.428  1.00  0.00     0.208 A 
ATOM      3  C   UNL     1     -95.634  83.507 209.643  1.00  0.00     0.238 A 
ATOM      4  O   UNL     1     -95.012  83.053 210.638  1.00  0.00    -0.285 OA
ATOM      5  C   UNL     1     -96.346  82.655 208.763  1.00  0.00     0.111 A 
ATOM      6  C   UNL     1     -96.376  81.231 208.859  1.00  0.00     0.134 A 
ATOM      7  C   UNL     1     -97.200  80.498 207.995  1.00  0.00     0.093 A 
ATOM      8  C   UNL     1     -97.945  81.133 206.998  1.00  0.00     0.123 A 
ATOM      9  C   UNL     1     -97.879  82.517 206.862  1.00  0.00     0.094 A 
ATOM     10  C   UNL     1     -97.096  83.279 207.732  1.00  0.00     0.146 A 
ATOM     11  O   UNL     1     -97.080  84.598 207.579  1.00  0.00    -0.452 OA
ENDROOT
BRANCH   1  12
ATOM     12  C   UNL     1     -96.463  86.871 208.086  1.00  0.00     0.025 A 
ATOM     13  C   UNL     1     -95.893  87.371 206.905  1.00  0.00     0.016 A 
ATOM     14  C   UNL     1     -95.961  88.735 206.609  1.00  0.00     0.051 A 
ATOM     15  C   UNL     1     -96.611  89.616 207.479  1.00  0.00     0.157 A 
ATOM     16  C   UNL     1     -97.134  87.755 208.950  1.00  0.00     0.062 A 
ATOM     17  C   UNL     1     -97.204  89.124 208.653  1.00  0.00     0.158 A 
BRANCH  15  18
ATOM     18  O   UNL     1     -96.660  90.972 207.157  1.00  0.00    -0.504 OA
ATOM     19  H   UNL     1     -96.781  91.688 207.864  1.00  0.00     0.293 HD
ENDBRANCH  15  18
BRANCH  17  20
ATOM     20  O   UNL     1     -97.866  89.995 209.517  1.00  0.00    -0.504 OA
ATOM     21  H   UNL     1     -98.409  90.778 209.171  1.00  0.00     0.293 HD
ENDBRANCH  17  20
ENDBRANCH   1  12
BRANCH   2  22
ATOM     22  O   UNL     1     -94.881  85.745 210.238  1.00  0.00    -0.502 OA
ATOM     23  H   UNL     1     -94.450  85.434 211.101  1.00  0.00     0.293 HD
ENDBRANCH   2  22
BRANCH   6  24
ATOM     24  O   UNL     1     -95.604  80.490 209.759  1.00  0.00    -0.507 OA
ATOM     25  H   UNL     1     -94.659  80.181 209.592  1.00  0.00     0.293 HD
ENDBRANCH   6  24
BRANCH   8  26
ATOM     26  O   UNL     1     -98.749  80.394 206.133  1.00  0.00    -0.508 OA
ATOM     27  H   UNL     1     -98.557  79.419 205.934  1.00  0.00     0.293 HD
ENDBRANCH   8  26
TORSDOF 6
ENDMDL
MODEL 5
REMARK VINA RESULT:    -7.128      2.491      6.996
REMARK INTER + INTRA:          -8.065
REMARK INTER:                  -7.739
REMARK INTRA:                  -0.326
REMARK UNBOUND:                 0.521
REMARK SMILES O=c1c(O)c(-c2ccc(O)c(O)c2)oc2cc(O)cc(O)c12
REMARK SMILES IDX 5 1 3 2 2 3 1 4 22 5 20 6 19 7 17 8 16 9 15 10 14 11 6 12
REMARK SMILES IDX 7 13 8 14 9 15 13 16 11 17 10 18 12 20 4 22 21 24 18 26
REMARK H PARENT 10 19 12 21 4 23 21 25 18 27
REMARK Flexibility Score: inf
ROOT
ATOM      1  C   UNL     1     -96.821  82.032 208.024  1.00  0.00     0.180 A 
ATOM      2  C   UNL     1     -95.868  81.303 207.291  1.00  0.00     0.208 A 
ATOM      3  C   UNL     1     -95.946  79.901 207.280  1.00  0.00     0.238 A 
ATOM      4  O   UNL     1     -95.046  79.252 206.686  1.00  0.00    -0.285 OA
ATOM      5  C   UNL     1     -97.006  79.248 207.955  1.00  0.00     0.111 A 
ATOM      6  C   UNL     1     -97.208  77.834 207.974  1.00  0.00     0.134 A 
ATOM      7  C   UNL     1     -98.231  77.293 208.762  1.00  0.00     0.093 A 
ATOM      8  C   UNL     1     -99.099  78.118 209.483  1.00  0.00     0.123 A 
ATOM      9  C   UNL     1     -98.944  79.501 209.427  1.00  0.00     0.094 A 
ATOM     10  C   UNL     1     -97.909  80.069 208.680  1.00  0.00     0.146 A 
ATOM     11  O   UNL     1     -97.785  81.390 208.673  1.00  0.00    -0.452 OA
ENDROOT
BRANCH   1  12
ATOM     12  C   UNL     1     -96.797  83.511 208.095  1.00  0.00     0.025 A 
ATOM     13  C   UNL     1     -97.634  84.256 207.250  1.00  0.00     0.016 A 
ATOM     14  C   UNL     1     -97.644  85.652 207.315  1.00  0.00     0.051 A 
ATOM     15  C   UNL     1     -96.830  86.323 208.233  1.00  0.00     0.157 A 
ATOM     16  C   UNL     1     -95.996  84.187 209.032  1.00  0.00     0.062 A 
ATOM     17  C   UNL     1     -96.005  85.588 209.099  1.00  0.00     0.158 A 
BRANCH  15  18
ATOM     18  O   UNL     1     -96.861  87.716 208.272  1.00  0.00    -0.504 OA
ATOM     19  H   UNL     1     -96.079  88.261 208.617  1.00  0.00     0.293 HD
ENDBRANCH  15  18
BRANCH  17  20
ATOM     20  O   UNL     1     -95.202  86.250 210.027  1.00  0.00    -0.504 OA
ATOM     21  H   UNL     1     -94.692  85.747 210.744  1.00  0.00     0.293 HD
ENDBRANCH  17  20
ENDBRANCH   1  12
BRANCH   2  22
ATOM     22  O   UNL     1     -94.875  81.970 206.569  1.00  0.00    -0.502 OA
ATOM     23  H   UNL     1     -94.894  82.043 205.559  1.00  0.00     0.293 HD
ENDBRANCH   2  22
BRANCH   6  24
ATOM     24  O   UNL     1     -96.456  76.925 207.223  1.00  0.00    -0.507 OA
ATOM     25  H   UNL     1     -96.693  76.605 206.296  1.00  0.00     0.293 HD
ENDBRANCH   6  24
BRANCH   8  26
ATOM     26  O   UNL     1    -100.124  77.572 210.251  1.00  0.00    -0.508 OA
ATOM     27  H   UNL     1    -100.163  76.580 210.456  1.00  0.00     0.293 HD
ENDBRANCH   8  26
TORSDOF 6
ENDMDL
MODEL 6
REMARK VINA RESULT:    -7.067      2.113      7.240
REMARK INTER + INTRA:          -7.991
REMARK INTER:                  -7.742
REMARK INTRA:                  -0.249
REMARK UNBOUND:                 0.521
REMARK SMILES O=c1c(O)c(-c2ccc(O)c(O)c2)oc2cc(O)cc(O)c12
REMARK SMILES IDX 5 1 3 2 2 3 1 4 22 5 20 6 19 7 17 8 16 9 15 10 14 11 6 12
REMARK SMILES IDX 7 13 8 14 9 15 13 16 11 17 10 18 12 20 4 22 21 24 18 26
REMARK H PARENT 10 19 12 21 4 23 21 25 18 27
REMARK Flexibility Score: inf
ROOT
ATOM      1  C   UNL     1     -96.932  84.183 207.940  1.00  0.00     0.180 A 
ATOM      2  C   UNL     1     -97.892  83.811 206.982  1.00  0.00     0.208 A 
ATOM      3  C   UNL     1     -98.227  82.455 206.844  1.00  0.00     0.238 A 
ATOM      4  O   UNL     1     -99.029  82.121 205.934  1.00  0.00    -0.285 OA
ATOM      5  C   UNL     1     -97.640  81.493 207.702  1.00  0.00     0.111 A 
ATOM      6  C   UNL     1     -97.938  80.097 207.681  1.00  0.00     0.134 A 
ATOM      7  C   UNL     1     -97.217  79.224 208.507  1.00  0.00     0.093 A 
ATOM      8  C   UNL     1     -96.254  79.705 209.397  1.00  0.00     0.123 A 
ATOM      9  C   UNL     1     -95.995  81.072 209.464  1.00  0.00     0.094 A 
ATOM     10  C   UNL     1     -96.670  81.963 208.626  1.00  0.00     0.146 A 
ATOM     11  O   UNL     1     -96.376  83.255 208.708  1.00  0.00    -0.452 OA
ENDROOT
BRANCH   1  12
ATOM     12  C   UNL     1     -96.517  85.591 208.134  1.00  0.00     0.025 A 
ATOM     13  C   UNL     1     -95.278  86.020 207.635  1.00  0.00     0.016 A 
ATOM     14  C   UNL     1     -94.875  87.349 207.788  1.00  0.00     0.051 A 
ATOM     15  C   UNL     1     -95.709  88.271 208.429  1.00  0.00     0.157 A 
ATOM     16  C   UNL     1     -97.363  86.525 208.759  1.00  0.00     0.062 A 
ATOM     17  C   UNL     1     -96.961  87.860 208.913  1.00  0.00     0.158 A 
BRANCH  15  18
ATOM     18  O   UNL     1     -95.278  89.590 208.568  1.00  0.00    -0.504 OA
ATOM     19  H   UNL     1     -95.010  90.155 207.771  1.00  0.00     0.293 HD
ENDBRANCH  15  18
BRANCH  17  20
ATOM     20  O   UNL     1     -97.803  88.778 209.539  1.00  0.00    -0.504 OA
ATOM     21  H   UNL     1     -97.533  89.747 209.665  1.00  0.00     0.293 HD
ENDBRANCH  17  20
ENDBRANCH   1  12
BRANCH   2  22
ATOM     22  O   UNL     1     -98.516  84.785 206.197  1.00  0.00    -0.502 OA
ATOM     23  H   UNL     1     -98.082  85.175 205.369  1.00  0.00     0.293 HD
ENDBRANCH   2  22
BRANCH   6  24
ATOM     24  O   UNL     1     -98.941  79.522 206.895  1.00  0.00    -0.507 OA
ATOM     25  H   UNL     1     -98.785  79.021 206.034  1.00  0.00     0.293 HD
ENDBRANCH   6  24
BRANCH   8  26
ATOM     26  O   UNL     1     -95.554  78.832 210.226  1.00  0.00    -0.508 OA
ATOM     27  H   UNL     1     -95.799  78.717 211.203  1.00  0.00     0.293 HD
ENDBRANCH   8  26
TORSDOF 6
ENDMDL
MODEL 7
REMARK VINA RESULT:    -6.949      2.100      3.623
REMARK INTER + INTRA:          -7.850
REMARK INTER:                  -7.537
REMARK INTRA:                  -0.313
REMARK UNBOUND:                 0.521
REMARK SMILES O=c1c(O)c(-c2ccc(O)c(O)c2)oc2cc(O)cc(O)c12
REMARK SMILES IDX 5 1 3 2 2 3 1 4 22 5 20 6 19 7 17 8 16 9 15 10 14 11 6 12
REMARK SMILES IDX 7 13 8 14 9 15 13 16 11 17 10 18 12 20 4 22 21 24 18 26
REMARK H PARENT 10 19 12 21 4 23 21 25 18 27
REMARK Flexibility Score: inf
ROOT
ATOM      1  C   UNL     1     -97.300  83.513 207.623  1.00  0.00     0.180 A 
ATOM      2  C   UNL     1     -98.408  83.643 206.766  1.00  0.00     0.208 A 
ATOM      3  C   UNL     1     -98.933  84.921 206.520  1.00  0.00     0.238 A 
ATOM      4  O   UNL     1     -99.969  85.022 205.813  1.00  0.00    -0.285 OA
ATOM      5  C   UNL     1     -98.313  86.060 207.090  1.00  0.00     0.111 A 
ATOM      6  C   UNL     1     -98.733  87.407 206.873  1.00  0.00     0.134 A 
ATOM      7  C   UNL     1     -98.107  88.447 207.573  1.00  0.00     0.093 A 
ATOM      8  C   UNL     1     -97.036  88.194 208.433  1.00  0.00     0.123 A 
ATOM      9  C   UNL     1     -96.583  86.889 208.609  1.00  0.00     0.094 A 
ATOM     10  C   UNL     1     -97.210  85.827 207.954  1.00  0.00     0.146 A 
ATOM     11  O   UNL     1     -96.760  84.596 208.168  1.00  0.00    -0.452 OA
ENDROOT
BRANCH   1  12
ATOM     12  C   UNL     1     -96.700  82.198 207.941  1.00  0.00     0.025 A 
ATOM     13  C   UNL     1     -95.746  81.647 207.072  1.00  0.00     0.016 A 
ATOM     14  C   UNL     1     -95.149  80.417 207.363  1.00  0.00     0.051 A 
ATOM     15  C   UNL     1     -95.485  79.728 208.532  1.00  0.00     0.157 A 
ATOM     16  C   UNL     1     -97.020  81.513 209.127  1.00  0.00     0.062 A 
ATOM     17  C   UNL     1     -96.422  80.279 209.421  1.00  0.00     0.158 A 
BRANCH  15  18
ATOM     18  O   UNL     1     -94.875  78.502 208.794  1.00  0.00    -0.504 OA
ATOM     19  H   UNL     1     -95.273  77.830 209.440  1.00  0.00     0.293 HD
ENDBRANCH  15  18
BRANCH  17  20
ATOM     20  O   UNL     1     -96.750  79.604 210.596  1.00  0.00    -0.504 OA
ATOM     21  H   UNL     1     -96.281  78.746 210.865  1.00  0.00     0.293 HD
ENDBRANCH  17  20
ENDBRANCH   1  12
BRANCH   2  22
ATOM     22  O   UNL     1     -98.958  82.514 206.153  1.00  0.00    -0.502 OA
ATOM     23  H   UNL     1     -99.837  82.542 205.650  1.00  0.00     0.293 HD
ENDBRANCH   2  22
BRANCH   6  24
ATOM     24  O   UNL     1     -99.733  87.780 205.970  1.00  0.00    -0.507 OA
ATOM     25  H   UNL     1    -100.472  88.439 206.165  1.00  0.00     0.293 HD
ENDBRANCH   6  24
BRANCH   8  26
ATOM     26  O   UNL     1     -96.409  89.236 209.113  1.00  0.00    -0.508 OA
ATOM     27  H   UNL     1     -96.852  90.141 209.221  1.00  0.00     0.293 HD
ENDBRANCH   8  26
TORSDOF 6
ENDMDL
MODEL 8
REMARK VINA RESULT:    -6.844      1.592      3.105
REMARK INTER + INTRA:          -7.724
REMARK INTER:                  -7.871
REMARK INTRA:                   0.147
REMARK UNBOUND:                 0.521
REMARK SMILES O=c1c(O)c(-c2ccc(O)c(O)c2)oc2cc(O)cc(O)c12
REMARK SMILES IDX 5 1 3 2 2 3 1 4 22 5 20 6 19 7 17 8 16 9 15 10 14 11 6 12
REMARK SMILES IDX 7 13 8 14 9 15 13 16 11 17 10 18 12 20 4 22 21 24 18 26
REMARK H PARENT 10 19 12 21 4 23 21 25 18 27
REMARK Flexibility Score: inf
ROOT
ATOM      1  C   UNL     1     -97.850  82.876 206.942  1.00  0.00     0.180 A 
ATOM      2  C   UNL     1     -99.004  83.434 206.364  1.00  0.00     0.208 A 
ATOM      3  C   UNL     1     -99.214  84.819 206.465  1.00  0.00     0.238 A 
ATOM      4  O   UNL     1    -100.285  85.300 206.012  1.00  0.00    -0.285 OA
ATOM      5  C   UNL     1     -98.243  85.636 207.093  1.00  0.00     0.111 A 
ATOM      6  C   UNL     1     -98.330  87.056 207.213  1.00  0.00     0.134 A 
ATOM      7  C   UNL     1     -97.360  87.749 207.948  1.00  0.00     0.093 A 
ATOM      8  C   UNL     1     -96.271  87.080 208.514  1.00  0.00     0.123 A 
ATOM      9  C   UNL     1     -96.148  85.702 208.355  1.00  0.00     0.094 A 
ATOM     10  C   UNL     1     -97.119  84.978 207.660  1.00  0.00     0.146 A 
ATOM     11  O   UNL     1     -96.973  83.664 207.553  1.00  0.00    -0.452 OA
ENDROOT
BRANCH   1  12
ATOM     12  C   UNL     1     -97.565  81.424 206.890  1.00  0.00     0.025 A 
ATOM     13  C   UNL     1     -97.077  80.775 208.034  1.00  0.00     0.016 A 
ATOM     14  C   UNL     1     -96.822  79.401 208.014  1.00  0.00     0.051 A 
ATOM     15  C   UNL     1     -97.065  78.654 206.857  1.00  0.00     0.157 A 
ATOM     16  C   UNL     1     -97.829  80.667 205.734  1.00  0.00     0.062 A 
ATOM     17  C   UNL     1     -97.575  79.288 205.713  1.00  0.00     0.158 A 
BRANCH  15  18
ATOM     18  O   UNL     1     -96.798  77.285 206.867  1.00  0.00    -0.504 OA
ATOM     19  H   UNL     1     -96.173  76.864 207.545  1.00  0.00     0.293 HD
ENDBRANCH  15  18
BRANCH  17  20
ATOM     20  O   UNL     1     -97.833  78.546 204.561  1.00  0.00    -0.504 OA
ATOM     21  H   UNL     1     -97.822  77.532 204.568  1.00  0.00     0.293 HD
ENDBRANCH  17  20
ENDBRANCH   1  12
BRANCH   2  22
ATOM     22  O   UNL     1     -99.912  82.621 205.682  1.00  0.00    -0.502 OA
ATOM     23  H   UNL     1     -99.903  82.521 204.674  1.00  0.00     0.293 HD
ENDBRANCH   2  22
BRANCH   6  24
ATOM     24  O   UNL     1     -99.327  87.833 206.613  1.00  0.00    -0.507 OA
ATOM     25  H   UNL     1    -100.316  87.737 206.785  1.00  0.00     0.293 HD
ENDBRANCH   6  24
BRANCH   8  26
ATOM     26  O   UNL     1     -95.302  87.780 209.229  1.00  0.00    -0.508 OA
ATOM     27  H   UNL     1     -94.843  87.374 210.036  1.00  0.00     0.293 HD
ENDBRANCH   8  26
TORSDOF 6
ENDMDL
MODEL 9
REMARK VINA RESULT:    -6.770      3.778      8.357
REMARK INTER + INTRA:          -7.634
REMARK INTER:                  -7.303
REMARK INTRA:                  -0.331
REMARK UNBOUND:                 0.521
REMARK SMILES O=c1c(O)c(-c2ccc(O)c(O)c2)oc2cc(O)cc(O)c12
REMARK SMILES IDX 5 1 3 2 2 3 1 4 22 5 20 6 19 7 17 8 16 9 15 10 14 11 6 12
REMARK SMILES IDX 7 13 8 14 9 15 13 16 11 17 10 18 12 20 4 22 21 24 18 26
REMARK H PARENT 10 19 12 21 4 23 21 25 18 27
REMARK Flexibility Score: inf
ROOT
ATOM      1  C   UNL     1     -96.826  88.179 207.868  1.00  0.00     0.180 A 
ATOM      2  C   UNL     1     -96.287  87.068 208.542  1.00  0.00     0.208 A 
ATOM      3  C   UNL     1     -96.800  85.791 208.268  1.00  0.00     0.238 A 
ATOM      4  O   UNL     1     -96.366  84.812 208.929  1.00  0.00    -0.285 OA
ATOM      5  C   UNL     1     -97.806  85.631 207.284  1.00  0.00     0.111 A 
ATOM      6  C   UNL     1     -98.368  84.378 206.893  1.00  0.00     0.134 A 
ATOM      7  C   UNL     1     -99.433  84.352 205.984  1.00  0.00     0.093 A 
ATOM      8  C   UNL     1     -99.914  85.528 205.403  1.00  0.00     0.123 A 
ATOM      9  C   UNL     1     -99.336  86.750 205.737  1.00  0.00     0.094 A 
ATOM     10  C   UNL     1     -98.298  86.813 206.669  1.00  0.00     0.146 A 
ATOM     11  O   UNL     1     -97.791  88.001 206.974  1.00  0.00    -0.452 OA
ENDROOT
BRANCH   1  12
ATOM     12  C   UNL     1     -96.347  89.558 208.113  1.00  0.00     0.025 A 
ATOM     13  C   UNL     1     -95.328  90.088 207.307  1.00  0.00     0.016 A 
ATOM     14  C   UNL     1     -94.875  91.395 207.506  1.00  0.00     0.051 A 
ATOM     15  C   UNL     1     -95.443  92.196 208.502  1.00  0.00     0.157 A 
ATOM     16  C   UNL     1     -96.931  90.372 209.100  1.00  0.00     0.062 A 
ATOM     17  C   UNL     1     -96.479  91.685 209.300  1.00  0.00     0.158 A 
BRANCH  15  18
ATOM     18  O   UNL     1     -94.969  93.495 208.678  1.00  0.00    -0.504 OA
ATOM     19  H   UNL     1     -94.072  93.686 209.110  1.00  0.00     0.293 HD
ENDBRANCH  15  18
BRANCH  17  20
ATOM     20  O   UNL     1     -97.060  92.483 210.285  1.00  0.00    -0.504 OA
ATOM     21  H   UNL     1     -96.843  92.358 211.267  1.00  0.00     0.293 HD
ENDBRANCH  17  20
ENDBRANCH   1  12
BRANCH   2  22
ATOM     22  O   UNL     1     -95.242  87.239 209.453  1.00  0.00    -0.502 OA
ATOM     23  H   UNL     1     -94.269  87.128 209.192  1.00  0.00     0.293 HD
ENDBRANCH   2  22
BRANCH   6  24
ATOM     24  O   UNL     1     -97.906  83.137 207.344  1.00  0.00    -0.507 OA
ATOM     25  H   UNL     1     -97.154  83.005 208.002  1.00  0.00     0.293 HD
ENDBRANCH   6  24
BRANCH   8  26
ATOM     26  O   UNL     1    -100.963  85.491 204.487  1.00  0.00    -0.508 OA
ATOM     27  H   UNL     1    -101.929  85.454 204.789  1.00  0.00     0.293 HD
ENDBRANCH   8  26
TORSDOF 6
ENDMDL
