MODEL 1
REMARK VINA RESULT:    18.078      0.000      0.000
REMARK INTER + INTRA:          46.043
REMARK INTER:                  45.557
REMARK INTRA:                   0.486
REMARK UNBOUND:                 0.486
REMARK SMILES CCCCCCCCCCCCCCCCCCCCCCCCCCCC(=O)[O-]
REMARK SMILES IDX 15 1 16 2 17 3 18 4 19 5 20 6 21 7 22 8 23 9 24 10 25 11
REMARK SMILES IDX 26 12 27 13 28 14 29 15 30 16 14 17 13 18 12 19 11 20 10 21
REMARK SMILES IDX 9 22 8 23 7 24 6 25 5 26 4 27 3 28 2 29 1 30
REMARK H PARENT
REMARK Flexibility Score: inf
ROOT
ATOM      1  C   UNL     1     -14.749  30.561 -18.643  1.00  0.00     0.000 C 
ENDROOT
BRANCH   1   2
ATOM      2  C   UNL     1     -13.830  30.231 -17.456  1.00  0.00     0.000 C 
BRANCH   2   3
ATOM      3  C   UNL     1     -12.549  29.496 -17.887  1.00  0.00     0.000 C 
BRANCH   3   4
ATOM      4  C   UNL     1     -12.804  28.451 -18.996  1.00  0.00     0.000 C 
BRANCH   4   5
ATOM      5  C   UNL     1     -11.667  27.426 -19.168  1.00  0.00     0.000 C 
BRANCH   5   6
ATOM      6  C   UNL     1     -12.019  26.198 -20.026  1.00  0.00     0.000 C 
BRANCH   6   7
ATOM      7  C   UNL     1     -13.349  25.504 -19.662  1.00  0.00     0.000 C 
BRANCH   7   8
ATOM      8  C   UNL     1     -13.654  24.215 -20.453  1.00  0.00     0.000 C 
BRANCH   8   9
ATOM      9  C   UNL     1     -13.623  22.922 -19.620  1.00  0.00     0.000 C 
BRANCH   9  10
ATOM     10  C   UNL     1     -14.210  21.715 -20.372  1.00  0.00     0.000 C 
BRANCH  10  11
ATOM     11  C   UNL     1     -15.053  20.808 -19.456  1.00  0.00     0.000 C 
BRANCH  11  12
ATOM     12  C   UNL     1     -16.002  19.868 -20.223  1.00  0.00     0.006 C 
BRANCH  12  13
ATOM     13  C   UNL     1     -17.320  19.633 -19.474  1.00  0.00     0.053 C 
BRANCH  13  14
ATOM     14  C   UNL     1     -17.338  18.273 -18.848  1.00  0.00     0.041 C 
ATOM     15  O   UNL     1     -17.497  17.249 -19.564  1.00  0.00    -0.550 OA
ATOM     16  O   UNL     1     -17.187  18.136 -17.473  1.00  0.00    -0.550 OA
ENDBRANCH  13  14
ENDBRANCH  12  13
ENDBRANCH  11  12
ENDBRANCH  10  11
ENDBRANCH   9  10
ENDBRANCH   8   9
ENDBRANCH   7   8
ENDBRANCH   6   7
ENDBRANCH   5   6
ENDBRANCH   4   5
ENDBRANCH   3   4
ENDBRANCH   2   3
ENDBRANCH   1   2
BRANCH   1  17
ATOM     17  C   UNL     1     -14.978  32.073 -18.813  1.00  0.00     0.000 C 
BRANCH  17  18
ATOM     18  C   UNL     1     -16.012  32.397 -19.905  1.00  0.00     0.000 C 
BRANCH  18  19
ATOM     19  C   UNL     1     -15.975  33.848 -20.428  1.00  0.00     0.000 C 
BRANCH  19  20
ATOM     20  C   UNL     1     -17.342  34.553 -20.492  1.00  0.00     0.000 C 
BRANCH  20  21
ATOM     21  C   UNL     1     -18.475  33.612 -20.925  1.00  0.00     0.000 C 
BRANCH  21  22
ATOM     22  C   UNL     1     -19.844  34.184 -20.540  1.00  0.00    -0.000 C 
BRANCH  22  23
ATOM     23  C   UNL     1     -19.688  35.471 -19.720  1.00  0.00    -0.000 C 
BRANCH  23  24
ATOM     24  C   UNL     1     -20.135  35.257 -18.265  1.00  0.00    -0.000 C 
BRANCH  24  25
ATOM     25  C   UNL     1     -18.953  35.135 -17.292  1.00  0.00    -0.000 C 
BRANCH  25  26
ATOM     26  C   UNL     1     -17.595  35.075 -18.010  1.00  0.00    -0.000 C 
BRANCH  26  27
ATOM     27  C   UNL     1     -16.467  35.580 -17.099  1.00  0.00    -0.000 C 
BRANCH  27  28
ATOM     28  C   UNL     1     -15.234  36.046 -17.888  1.00  0.00    -0.000 C 
BRANCH  28  29
ATOM     29  C   UNL     1     -13.917  35.552 -17.273  1.00  0.00    -0.003 C 
ATOM     30  C   UNL     1     -13.593  34.132 -17.729  1.00  0.00     0.004 C 
ENDBRANCH  28  29
ENDBRANCH  27  28
ENDBRANCH  26  27
ENDBRANCH  25  26
ENDBRANCH  24  25
ENDBRANCH  23  24
ENDBRANCH  22  23
ENDBRANCH  21  22
ENDBRANCH  20  21
ENDBRANCH  19  20
ENDBRANCH  18  19
ENDBRANCH  17  18
ENDBRANCH   1  17
TORSDOF 26
ENDMDL
MODEL 2
REMARK VINA RESULT:    18.330      4.933     12.337
REMARK INTER + INTRA:          46.678
REMARK INTER:                  47.683
REMARK INTRA:                  -1.005
REMARK UNBOUND:                 0.486
REMARK SMILES CCCCCCCCCCCCCCCCCCCCCCCCCCCC(=O)[O-]
REMARK SMILES IDX 15 1 16 2 17 3 18 4 19 5 20 6 21 7 22 8 23 9 24 10 25 11
REMARK SMILES IDX 26 12 27 13 28 14 29 15 30 16 14 17 13 18 12 19 11 20 10 21
REMARK SMILES IDX 9 22 8 23 7 24 6 25 5 26 4 27 3 28 2 29 1 30
REMARK H PARENT
REMARK Flexibility Score: inf
ROOT
ATOM      1  C   UNL     1     -12.974  28.978 -17.119  1.00  0.00     0.000 C 
ENDROOT
BRANCH   1   2
ATOM      2  C   UNL     1     -14.019  30.026 -17.534  1.00  0.00     0.000 C 
BRANCH   2   3
ATOM      3  C   UNL     1     -13.465  31.047 -18.543  1.00  0.00     0.000 C 
BRANCH   3   4
ATOM      4  C   UNL     1     -14.525  31.506 -19.569  1.00  0.00     0.000 C 
BRANCH   4   5
ATOM      5  C   UNL     1     -15.598  32.445 -18.986  1.00  0.00     0.000 C 
BRANCH   5   6
ATOM      6  C   UNL     1     -15.061  33.587 -18.106  1.00  0.00     0.000 C 
BRANCH   6   7
ATOM      7  C   UNL     1     -14.903  34.946 -18.821  1.00  0.00     0.000 C 
BRANCH   7   8
ATOM      8  C   UNL     1     -16.224  35.655 -19.182  1.00  0.00     0.000 C 
BRANCH   8   9
ATOM      9  C   UNL     1     -16.961  35.070 -20.399  1.00  0.00     0.000 C 
BRANCH   9  10
ATOM     10  C   UNL     1     -18.409  35.576 -20.519  1.00  0.00     0.000 C 
BRANCH  10  11
ATOM     11  C   UNL     1     -19.431  34.424 -20.545  1.00  0.00     0.000 C 
BRANCH  11  12
ATOM     12  C   UNL     1     -20.479  34.503 -19.419  1.00  0.00     0.006 C 
BRANCH  12  13
ATOM     13  C   UNL     1     -20.536  35.893 -18.772  1.00  0.00     0.053 C 
BRANCH  13  14
ATOM     14  C   UNL     1     -19.860  35.885 -17.437  1.00  0.00     0.041 C 
ATOM     15  O   UNL     1     -20.520  36.124 -16.391  1.00  0.00    -0.550 OA
ATOM     16  O   UNL     1     -18.498  35.620 -17.347  1.00  0.00    -0.550 OA
ENDBRANCH  13  14
ENDBRANCH  12  13
ENDBRANCH  11  12
ENDBRANCH  10  11
ENDBRANCH   9  10
ENDBRANCH   8   9
ENDBRANCH   7   8
ENDBRANCH   6   7
ENDBRANCH   5   6
ENDBRANCH   4   5
ENDBRANCH   3   4
ENDBRANCH   2   3
ENDBRANCH   1   2
BRANCH   1  17
ATOM     17  C   UNL     1     -13.284  28.337 -15.756  1.00  0.00     0.000 C 
BRANCH  17  18
ATOM     18  C   UNL     1     -12.318  27.192 -15.405  1.00  0.00     0.000 C 
BRANCH  18  19
ATOM     19  C   UNL     1     -10.896  27.338 -15.985  1.00  0.00     0.000 C 
BRANCH  19  20
ATOM     20  C   UNL     1     -10.046  26.055 -15.957  1.00  0.00     0.000 C 
BRANCH  20  21
ATOM     21  C   UNL     1     -10.171  25.231 -17.245  1.00  0.00     0.000 C 
BRANCH  21  22
ATOM     22  C   UNL     1     -10.909  26.019 -18.334  1.00  0.00    -0.000 C 
BRANCH  22  23
ATOM     23  C   UNL     1     -10.732  25.354 -19.705  1.00  0.00    -0.000 C 
BRANCH  23  24
ATOM     24  C   UNL     1     -11.684  24.158 -19.867  1.00  0.00    -0.000 C 
BRANCH  24  25
ATOM     25  C   UNL     1     -13.040  24.555 -20.469  1.00  0.00    -0.000 C 
BRANCH  25  26
ATOM     26  C   UNL     1     -14.216  24.285 -19.517  1.00  0.00    -0.000 C 
BRANCH  26  27
ATOM     27  C   UNL     1     -14.404  22.779 -19.287  1.00  0.00    -0.000 C 
BRANCH  27  28
ATOM     28  C   UNL     1     -14.636  22.006 -20.595  1.00  0.00    -0.000 C 
BRANCH  28  29
ATOM     29  C   UNL     1     -14.750  20.491 -20.374  1.00  0.00    -0.003 C 
ATOM     30  C   UNL     1     -16.175  20.095 -19.997  1.00  0.00     0.004 C 
ENDBRANCH  28  29
ENDBRANCH  27  28
ENDBRANCH  26  27
ENDBRANCH  25  26
ENDBRANCH  24  25
ENDBRANCH  23  24
ENDBRANCH  22  23
ENDBRANCH  21  22
ENDBRANCH  20  21
ENDBRANCH  19  20
ENDBRANCH  18  19
ENDBRANCH  17  18
ENDBRANCH   1  17
TORSDOF 26
ENDMDL
MODEL 3
REMARK VINA RESULT:    18.679      7.249     14.389
REMARK INTER + INTRA:          47.557
REMARK INTER:                  46.762
REMARK INTRA:                   0.796
REMARK UNBOUND:                 0.486
REMARK SMILES CCCCCCCCCCCCCCCCCCCCCCCCCCCC(=O)[O-]
REMARK SMILES IDX 15 1 16 2 17 3 18 4 19 5 20 6 21 7 22 8 23 9 24 10 25 11
REMARK SMILES IDX 26 12 27 13 28 14 29 15 30 16 14 17 13 18 12 19 11 20 10 21
REMARK SMILES IDX 9 22 8 23 7 24 6 25 5 26 4 27 3 28 2 29 1 30
REMARK H PARENT
REMARK Flexibility Score: inf
ROOT
ATOM      1  C   UNL     1     -11.535  27.536 -15.675  1.00  0.00     0.000 C 
ENDROOT
BRANCH   1   2
ATOM      2  C   UNL     1     -12.888  27.690 -16.388  1.00  0.00     0.000 C 
BRANCH   2   3
ATOM      3  C   UNL     1     -13.295  29.162 -16.573  1.00  0.00     0.000 C 
BRANCH   3   4
ATOM      4  C   UNL     1     -14.826  29.352 -16.657  1.00  0.00     0.000 C 
BRANCH   4   5
ATOM      5  C   UNL     1     -15.291  30.188 -17.864  1.00  0.00     0.000 C 
BRANCH   5   6
ATOM      6  C   UNL     1     -14.235  31.148 -18.440  1.00  0.00     0.000 C 
BRANCH   6   7
ATOM      7  C   UNL     1     -14.720  32.030 -19.611  1.00  0.00     0.000 C 
BRANCH   7   8
ATOM      8  C   UNL     1     -15.574  33.248 -19.205  1.00  0.00     0.000 C 
BRANCH   8   9
ATOM      9  C   UNL     1     -14.862  34.264 -18.296  1.00  0.00     0.000 C 
BRANCH   9  10
ATOM     10  C   UNL     1     -15.325  35.711 -18.542  1.00  0.00     0.000 C 
BRANCH  10  11
ATOM     11  C   UNL     1     -16.846  35.811 -18.756  1.00  0.00     0.000 C 
BRANCH  11  12
ATOM     12  C   UNL     1     -17.274  35.657 -20.228  1.00  0.00     0.006 C 
BRANCH  12  13
ATOM     13  C   UNL     1     -18.772  35.918 -20.430  1.00  0.00     0.053 C 
BRANCH  13  14
ATOM     14  C   UNL     1     -19.587  35.076 -19.498  1.00  0.00     0.041 C 
ATOM     15  O   UNL     1     -20.716  35.474 -19.107  1.00  0.00    -0.550 OA
ATOM     16  O   UNL     1     -19.096  33.853 -19.055  1.00  0.00    -0.550 OA
ENDBRANCH  13  14
ENDBRANCH  12  13
ENDBRANCH  11  12
ENDBRANCH  10  11
ENDBRANCH   9  10
ENDBRANCH   8   9
ENDBRANCH   7   8
ENDBRANCH   6   7
ENDBRANCH   5   6
ENDBRANCH   4   5
ENDBRANCH   3   4
ENDBRANCH   2   3
ENDBRANCH   1   2
BRANCH   1  17
ATOM     17  C   UNL     1     -10.584  26.574 -16.407  1.00  0.00     0.000 C 
BRANCH  17  18
ATOM     18  C   UNL     1      -9.590  25.884 -15.457  1.00  0.00     0.000 C 
BRANCH  18  19
ATOM     19  C   UNL     1      -8.104  26.044 -15.839  1.00  0.00     0.000 C 
BRANCH  19  20
ATOM     20  C   UNL     1      -7.102  25.638 -14.744  1.00  0.00     0.000 C 
BRANCH  20  21
ATOM     21  C   UNL     1      -6.786  24.136 -14.757  1.00  0.00     0.000 C 
BRANCH  21  22
ATOM     22  C   UNL     1      -5.405  23.857 -14.152  1.00  0.00    -0.000 C 
BRANCH  22  23
ATOM     23  C   UNL     1      -5.535  23.191 -12.776  1.00  0.00    -0.000 C 
BRANCH  23  24
ATOM     24  C   UNL     1      -5.164  21.702 -12.846  1.00  0.00    -0.000 C 
BRANCH  24  25
ATOM     25  C   UNL     1      -6.189  20.871 -13.633  1.00  0.00    -0.000 C 
BRANCH  25  26
ATOM     26  C   UNL     1      -6.237  21.243 -15.124  1.00  0.00    -0.000 C 
BRANCH  26  27
ATOM     27  C   UNL     1      -4.836  21.194 -15.749  1.00  0.00    -0.000 C 
BRANCH  27  28
ATOM     28  C   UNL     1      -4.873  20.935 -17.263  1.00  0.00    -0.000 C 
BRANCH  28  29
ATOM     29  C   UNL     1      -4.561  19.475 -17.621  1.00  0.00    -0.003 C 
ATOM     30  C   UNL     1      -5.839  18.644 -17.713  1.00  0.00     0.004 C 
ENDBRANCH  28  29
ENDBRANCH  27  28
ENDBRANCH  26  27
ENDBRANCH  25  26
ENDBRANCH  24  25
ENDBRANCH  23  24
ENDBRANCH  22  23
ENDBRANCH  21  22
ENDBRANCH  20  21
ENDBRANCH  19  20
ENDBRANCH  18  19
ENDBRANCH  17  18
ENDBRANCH   1  17
TORSDOF 26
ENDMDL
MODEL 4
REMARK VINA RESULT:    19.255      8.302     15.150
REMARK INTER + INTRA:          49.009
REMARK INTER:                  49.948
REMARK INTRA:                  -0.940
REMARK UNBOUND:                 0.486
REMARK SMILES CCCCCCCCCCCCCCCCCCCCCCCCCCCC(=O)[O-]
REMARK SMILES IDX 15 1 16 2 17 3 18 4 19 5 20 6 21 7 22 8 23 9 24 10 25 11
REMARK SMILES IDX 26 12 27 13 28 14 29 15 30 16 14 17 13 18 12 19 11 20 10 21
REMARK SMILES IDX 9 22 8 23 7 24 6 25 5 26 4 27 3 28 2 29 1 30
REMARK H PARENT
REMARK Flexibility Score: inf
ROOT
ATOM      1  C   UNL     1     -10.647  25.994 -15.338  1.00  0.00     0.000 C 
ENDROOT
BRANCH   1   2
ATOM      2  C   UNL     1     -10.809  27.419 -15.890  1.00  0.00     0.000 C 
BRANCH   2   3
ATOM      3  C   UNL     1     -12.218  27.679 -16.451  1.00  0.00     0.000 C 
BRANCH   3   4
ATOM      4  C   UNL     1     -13.096  28.516 -15.494  1.00  0.00     0.000 C 
BRANCH   4   5
ATOM      5  C   UNL     1     -13.991  29.549 -16.205  1.00  0.00     0.000 C 
BRANCH   5   6
ATOM      6  C   UNL     1     -13.453  30.066 -17.550  1.00  0.00     0.000 C 
BRANCH   6   7
ATOM      7  C   UNL     1     -14.524  30.311 -18.634  1.00  0.00     0.000 C 
BRANCH   7   8
ATOM      8  C   UNL     1     -14.462  31.692 -19.317  1.00  0.00     0.000 C 
BRANCH   8   9
ATOM      9  C   UNL     1     -14.954  32.866 -18.452  1.00  0.00     0.000 C 
BRANCH   9  10
ATOM     10  C   UNL     1     -14.959  34.204 -19.210  1.00  0.00     0.000 C 
BRANCH  10  11
ATOM     11  C   UNL     1     -16.115  35.122 -18.770  1.00  0.00     0.000 C 
BRANCH  11  12
ATOM     12  C   UNL     1     -17.099  35.461 -19.905  1.00  0.00     0.006 C 
BRANCH  12  13
ATOM     13  C   UNL     1     -18.423  34.697 -19.776  1.00  0.00     0.053 C 
BRANCH  13  14
ATOM     14  C   UNL     1     -19.283  35.302 -18.710  1.00  0.00     0.041 C 
ATOM     15  O   UNL     1     -20.510  35.493 -18.918  1.00  0.00    -0.550 OA
ATOM     16  O   UNL     1     -18.726  35.663 -17.488  1.00  0.00    -0.550 OA
ENDBRANCH  13  14
ENDBRANCH  12  13
ENDBRANCH  11  12
ENDBRANCH  10  11
ENDBRANCH   9  10
ENDBRANCH   8   9
ENDBRANCH   7   8
ENDBRANCH   6   7
ENDBRANCH   5   6
ENDBRANCH   4   5
ENDBRANCH   3   4
ENDBRANCH   2   3
ENDBRANCH   1   2
BRANCH   1  17
ATOM     17  C   UNL     1      -9.611  25.168 -16.120  1.00  0.00     0.000 C 
BRANCH  17  18
ATOM     18  C   UNL     1      -8.223  25.831 -16.149  1.00  0.00     0.000 C 
BRANCH  18  19
ATOM     19  C   UNL     1      -7.503  25.896 -14.786  1.00  0.00     0.000 C 
BRANCH  19  20
ATOM     20  C   UNL     1      -6.275  24.979 -14.654  1.00  0.00     0.000 C 
BRANCH  20  21
ATOM     21  C   UNL     1      -6.642  23.489 -14.676  1.00  0.00     0.000 C 
BRANCH  21  22
ATOM     22  C   UNL     1      -5.499  22.631 -14.118  1.00  0.00    -0.000 C 
BRANCH  22  23
ATOM     23  C   UNL     1      -6.042  21.343 -13.486  1.00  0.00    -0.000 C 
BRANCH  23  24
ATOM     24  C   UNL     1      -5.611  21.225 -12.015  1.00  0.00    -0.000 C 
BRANCH  24  25
ATOM     25  C   UNL     1      -6.602  20.411 -11.170  1.00  0.00    -0.000 C 
BRANCH  25  26
ATOM     26  C   UNL     1      -5.938  19.225 -10.452  1.00  0.00    -0.000 C 
BRANCH  26  27
ATOM     27  C   UNL     1      -6.540  17.892 -10.918  1.00  0.00    -0.000 C 
BRANCH  27  28
ATOM     28  C   UNL     1      -6.282  17.616 -12.407  1.00  0.00    -0.000 C 
BRANCH  28  29
ATOM     29  C   UNL     1      -6.080  16.123 -12.705  1.00  0.00    -0.003 C 
ATOM     30  C   UNL     1      -4.765  15.880 -13.442  1.00  0.00     0.004 C 
ENDBRANCH  28  29
ENDBRANCH  27  28
ENDBRANCH  26  27
ENDBRANCH  25  26
ENDBRANCH  24  25
ENDBRANCH  23  24
ENDBRANCH  22  23
ENDBRANCH  21  22
ENDBRANCH  20  21
ENDBRANCH  19  20
ENDBRANCH  18  19
ENDBRANCH  17  18
ENDBRANCH   1  17
TORSDOF 26
ENDMDL
MODEL 5
REMARK VINA RESULT:    19.528      6.582      7.512
REMARK INTER + INTRA:          49.695
REMARK INTER:                  47.667
REMARK INTRA:                   2.029
REMARK UNBOUND:                 0.486
REMARK SMILES CCCCCCCCCCCCCCCCCCCCCCCCCCCC(=O)[O-]
REMARK SMILES IDX 15 1 16 2 17 3 18 4 19 5 20 6 21 7 22 8 23 9 24 10 25 11
REMARK SMILES IDX 26 12 27 13 28 14 29 15 30 16 14 17 13 18 12 19 11 20 10 21
REMARK SMILES IDX 9 22 8 23 7 24 6 25 5 26 4 27 3 28 2 29 1 30
REMARK H PARENT
REMARK Flexibility Score: inf
ROOT
ATOM      1  C   UNL     1     -12.625  27.759 -16.572  1.00  0.00     0.000 C 
ENDROOT
BRANCH   1   2
ATOM      2  C   UNL     1     -11.230  27.743 -15.928  1.00  0.00     0.000 C 
BRANCH   2   3
ATOM      3  C   UNL     1     -10.793  26.332 -15.498  1.00  0.00     0.000 C 
BRANCH   3   4
ATOM      4  C   UNL     1      -9.429  25.921 -16.097  1.00  0.00     0.000 C 
BRANCH   4   5
ATOM      5  C   UNL     1      -8.239  26.110 -15.138  1.00  0.00     0.000 C 
BRANCH   5   6
ATOM      6  C   UNL     1      -7.088  25.105 -15.318  1.00  0.00     0.000 C 
BRANCH   6   7
ATOM      7  C   UNL     1      -6.992  24.015 -14.229  1.00  0.00     0.000 C 
BRANCH   7   8
ATOM      8  C   UNL     1      -5.755  23.100 -14.324  1.00  0.00     0.000 C 
BRANCH   8   9
ATOM      9  C   UNL     1      -6.038  21.604 -14.102  1.00  0.00     0.000 C 
BRANCH   9  10
ATOM     10  C   UNL     1      -5.752  21.151 -12.659  1.00  0.00     0.000 C 
BRANCH  10  11
ATOM     11  C   UNL     1      -5.788  19.619 -12.507  1.00  0.00     0.000 C 
BRANCH  11  12
ATOM     12  C   UNL     1      -6.880  18.941 -13.355  1.00  0.00     0.006 C 
BRANCH  12  13
ATOM     13  C   UNL     1      -6.873  17.414 -13.202  1.00  0.00     0.053 C 
BRANCH  13  14
ATOM     14  C   UNL     1      -6.072  17.006 -12.004  1.00  0.00     0.041 C 
ATOM     15  O   UNL     1      -5.278  16.032 -12.075  1.00  0.00    -0.550 OA
ATOM     16  O   UNL     1      -6.209  17.698 -10.806  1.00  0.00    -0.550 OA
ENDBRANCH  13  14
ENDBRANCH  12  13
ENDBRANCH  11  12
ENDBRANCH  10  11
ENDBRANCH   9  10
ENDBRANCH   8   9
ENDBRANCH   7   8
ENDBRANCH   6   7
ENDBRANCH   5   6
ENDBRANCH   4   5
ENDBRANCH   3   4
ENDBRANCH   2   3
ENDBRANCH   1   2
BRANCH   1  17
ATOM     17  C   UNL     1     -13.629  28.626 -15.793  1.00  0.00     0.000 C 
BRANCH  17  18
ATOM     18  C   UNL     1     -13.645  30.089 -16.270  1.00  0.00     0.000 C 
BRANCH  18  19
ATOM     19  C   UNL     1     -13.626  30.275 -17.801  1.00  0.00     0.000 C 
BRANCH  19  20
ATOM     20  C   UNL     1     -14.878  30.947 -18.392  1.00  0.00     0.000 C 
BRANCH  20  21
ATOM     21  C   UNL     1     -14.544  32.182 -19.241  1.00  0.00     0.000 C 
BRANCH  21  22
ATOM     22  C   UNL     1     -15.592  32.395 -20.340  1.00  0.00    -0.000 C 
BRANCH  22  23
ATOM     23  C   UNL     1     -16.315  33.735 -20.153  1.00  0.00    -0.000 C 
BRANCH  23  24
ATOM     24  C   UNL     1     -17.814  33.603 -20.465  1.00  0.00    -0.000 C 
BRANCH  24  25
ATOM     25  C   UNL     1     -18.634  34.797 -19.955  1.00  0.00    -0.000 C 
BRANCH  25  26
ATOM     26  C   UNL     1     -18.176  35.287 -18.573  1.00  0.00    -0.000 C 
BRANCH  26  27
ATOM     27  C   UNL     1     -16.678  35.026 -18.365  1.00  0.00    -0.000 C 
BRANCH  27  28
ATOM     28  C   UNL     1     -15.997  36.125 -17.533  1.00  0.00    -0.000 C 
BRANCH  28  29
ATOM     29  C   UNL     1     -14.465  36.032 -17.572  1.00  0.00    -0.003 C 
ATOM     30  C   UNL     1     -14.003  34.585 -17.722  1.00  0.00     0.004 C 
ENDBRANCH  28  29
ENDBRANCH  27  28
ENDBRANCH  26  27
ENDBRANCH  25  26
ENDBRANCH  24  25
ENDBRANCH  23  24
ENDBRANCH  22  23
ENDBRANCH  21  22
ENDBRANCH  20  21
ENDBRANCH  19  20
ENDBRANCH  18  19
ENDBRANCH  17  18
ENDBRANCH   1  17
TORSDOF 26
ENDMDL
MODEL 6
REMARK VINA RESULT:    19.685      6.117      7.701
REMARK INTER + INTRA:          50.091
REMARK INTER:                  50.292
REMARK INTRA:                  -0.201
REMARK UNBOUND:                 0.486
REMARK SMILES CCCCCCCCCCCCCCCCCCCCCCCCCCCC(=O)[O-]
REMARK SMILES IDX 15 1 16 2 17 3 18 4 19 5 20 6 21 7 22 8 23 9 24 10 25 11
REMARK SMILES IDX 26 12 27 13 28 14 29 15 30 16 14 17 13 18 12 19 11 20 10 21
REMARK SMILES IDX 9 22 8 23 7 24 6 25 5 26 4 27 3 28 2 29 1 30
REMARK H PARENT
REMARK Flexibility Score: inf
ROOT
ATOM      1  C   UNL     1     -12.365  27.859 -17.016  1.00  0.00     0.000 C 
ENDROOT
BRANCH   1   2
ATOM      2  C   UNL     1     -11.146  27.294 -16.270  1.00  0.00     0.000 C 
BRANCH   2   3
ATOM      3  C   UNL     1     -10.753  25.888 -16.758  1.00  0.00     0.000 C 
BRANCH   3   4
ATOM      4  C   UNL     1      -9.417  25.400 -16.157  1.00  0.00     0.000 C 
BRANCH   4   5
ATOM      5  C   UNL     1      -8.499  26.533 -15.661  1.00  0.00     0.000 C 
BRANCH   5   6
ATOM      6  C   UNL     1      -7.348  26.088 -14.742  1.00  0.00     0.000 C 
BRANCH   6   7
ATOM      7  C   UNL     1      -6.928  24.609 -14.887  1.00  0.00     0.000 C 
BRANCH   7   8
ATOM      8  C   UNL     1      -5.743  24.174 -14.001  1.00  0.00     0.000 C 
BRANCH   8   9
ATOM      9  C   UNL     1      -5.235  22.744 -14.255  1.00  0.00     0.000 C 
BRANCH   9  10
ATOM     10  C   UNL     1      -5.661  21.756 -13.155  1.00  0.00     0.000 C 
BRANCH  10  11
ATOM     11  C   UNL     1      -6.461  20.565 -13.715  1.00  0.00     0.000 C 
BRANCH  11  12
ATOM     12  C   UNL     1      -5.804  19.903 -14.941  1.00  0.00     0.006 C 
BRANCH  12  13
ATOM     13  C   UNL     1      -5.820  20.815 -16.174  1.00  0.00     0.053 C 
BRANCH  13  14
ATOM     14  C   UNL     1      -4.848  20.330 -17.205  1.00  0.00     0.041 C 
ATOM     15  O   UNL     1      -5.233  19.560 -18.124  1.00  0.00    -0.550 OA
ATOM     16  O   UNL     1      -3.516  20.722 -17.146  1.00  0.00    -0.550 OA
ENDBRANCH  13  14
ENDBRANCH  12  13
ENDBRANCH  11  12
ENDBRANCH  10  11
ENDBRANCH   9  10
ENDBRANCH   8   9
ENDBRANCH   7   8
ENDBRANCH   6   7
ENDBRANCH   5   6
ENDBRANCH   4   5
ENDBRANCH   3   4
ENDBRANCH   2   3
ENDBRANCH   1   2
BRANCH   1  17
ATOM     17  C   UNL     1     -13.492  28.298 -16.066  1.00  0.00     0.000 C 
BRANCH  17  18
ATOM     18  C   UNL     1     -13.792  29.804 -16.156  1.00  0.00     0.000 C 
BRANCH  18  19
ATOM     19  C   UNL     1     -13.642  30.415 -17.565  1.00  0.00     0.000 C 
BRANCH  19  20
ATOM     20  C   UNL     1     -14.957  30.580 -18.347  1.00  0.00     0.000 C 
BRANCH  20  21
ATOM     21  C   UNL     1     -14.947  31.804 -19.273  1.00  0.00     0.000 C 
BRANCH  21  22
ATOM     22  C   UNL     1     -14.297  33.011 -18.585  1.00  0.00    -0.000 C 
BRANCH  22  23
ATOM     23  C   UNL     1     -15.200  34.247 -18.682  1.00  0.00    -0.000 C 
BRANCH  23  24
ATOM     24  C   UNL     1     -15.949  34.281 -20.023  1.00  0.00    -0.000 C 
BRANCH  24  25
ATOM     25  C   UNL     1     -17.052  35.350 -20.060  1.00  0.00    -0.000 C 
BRANCH  25  26
ATOM     26  C   UNL     1     -18.129  35.058 -21.116  1.00  0.00    -0.000 C 
BRANCH  26  27
ATOM     27  C   UNL     1     -19.447  35.765 -20.770  1.00  0.00    -0.000 C 
BRANCH  27  28
ATOM     28  C   UNL     1     -20.193  35.088 -19.609  1.00  0.00    -0.000 C 
BRANCH  28  29
ATOM     29  C   UNL     1     -19.891  35.741 -18.252  1.00  0.00    -0.003 C 
ATOM     30  C   UNL     1     -18.716  35.057 -17.559  1.00  0.00     0.004 C 
ENDBRANCH  28  29
ENDBRANCH  27  28
ENDBRANCH  26  27
ENDBRANCH  25  26
ENDBRANCH  24  25
ENDBRANCH  23  24
ENDBRANCH  22  23
ENDBRANCH  21  22
ENDBRANCH  20  21
ENDBRANCH  19  20
ENDBRANCH  18  19
ENDBRANCH  17  18
ENDBRANCH   1  17
TORSDOF 26
ENDMDL
MODEL 7
REMARK VINA RESULT:    20.369      1.931      3.897
REMARK INTER + INTRA:          51.814
REMARK INTER:                  51.026
REMARK INTRA:                   0.789
REMARK UNBOUND:                 0.486
REMARK SMILES CCCCCCCCCCCCCCCCCCCCCCCCCCCC(=O)[O-]
REMARK SMILES IDX 15 1 16 2 17 3 18 4 19 5 20 6 21 7 22 8 23 9 24 10 25 11
REMARK SMILES IDX 26 12 27 13 28 14 29 15 30 16 14 17 13 18 12 19 11 20 10 21
REMARK SMILES IDX 9 22 8 23 7 24 6 25 5 26 4 27 3 28 2 29 1 30
REMARK H PARENT
REMARK Flexibility Score: inf
ROOT
ATOM      1  C   UNL     1     -13.935  28.428 -16.940  1.00  0.00     0.000 C 
ENDROOT
BRANCH   1   2
ATOM      2  C   UNL     1     -12.443  28.120 -16.736  1.00  0.00     0.000 C 
BRANCH   2   3
ATOM      3  C   UNL     1     -11.633  28.228 -18.041  1.00  0.00     0.000 C 
BRANCH   3   4
ATOM      4  C   UNL     1     -12.503  28.020 -19.301  1.00  0.00     0.000 C 
BRANCH   4   5
ATOM      5  C   UNL     1     -11.703  27.633 -20.560  1.00  0.00     0.000 C 
BRANCH   5   6
ATOM      6  C   UNL     1     -10.209  27.351 -20.324  1.00  0.00     0.000 C 
BRANCH   6   7
ATOM      7  C   UNL     1      -9.668  26.075 -21.004  1.00  0.00     0.000 C 
BRANCH   7   8
ATOM      8  C   UNL     1      -9.988  24.756 -20.273  1.00  0.00     0.000 C 
BRANCH   8   9
ATOM      9  C   UNL     1     -11.221  24.004 -20.804  1.00  0.00     0.000 C 
BRANCH   9  10
ATOM     10  C   UNL     1     -12.536  24.494 -20.172  1.00  0.00     0.000 C 
BRANCH  10  11
ATOM     11  C   UNL     1     -13.757  23.699 -20.671  1.00  0.00     0.000 C 
BRANCH  11  12
ATOM     12  C   UNL     1     -14.570  23.042 -19.539  1.00  0.00     0.006 C 
BRANCH  12  13
ATOM     13  C   UNL     1     -14.249  21.550 -19.382  1.00  0.00     0.053 C 
BRANCH  13  14
ATOM     14  C   UNL     1     -15.064  20.730 -20.334  1.00  0.00     0.041 C 
ATOM     15  O   UNL     1     -14.566  19.710 -20.878  1.00  0.00    -0.550 OA
ATOM     16  O   UNL     1     -16.373  21.098 -20.625  1.00  0.00    -0.550 OA
ENDBRANCH  13  14
ENDBRANCH  12  13
ENDBRANCH  11  12
ENDBRANCH  10  11
ENDBRANCH   9  10
ENDBRANCH   8   9
ENDBRANCH   7   8
ENDBRANCH   6   7
ENDBRANCH   5   6
ENDBRANCH   4   5
ENDBRANCH   3   4
ENDBRANCH   2   3
ENDBRANCH   1   2
BRANCH   1  17
ATOM     17  C   UNL     1     -14.378  29.718 -16.229  1.00  0.00     0.000 C 
BRANCH  17  18
ATOM     18  C   UNL     1     -14.383  30.939 -17.165  1.00  0.00     0.000 C 
BRANCH  18  19
ATOM     19  C   UNL     1     -14.789  30.642 -18.623  1.00  0.00     0.000 C 
BRANCH  19  20
ATOM     20  C   UNL     1     -14.861  31.874 -19.543  1.00  0.00     0.000 C 
BRANCH  20  21
ATOM     21  C   UNL     1     -15.100  33.178 -18.771  1.00  0.00     0.000 C 
BRANCH  21  22
ATOM     22  C   UNL     1     -15.085  34.388 -19.714  1.00  0.00    -0.000 C 
BRANCH  22  23
ATOM     23  C   UNL     1     -16.499  34.712 -20.211  1.00  0.00    -0.000 C 
BRANCH  23  24
ATOM     24  C   UNL     1     -17.039  35.988 -19.548  1.00  0.00    -0.000 C 
BRANCH  24  25
ATOM     25  C   UNL     1     -18.574  36.055 -19.551  1.00  0.00    -0.000 C 
BRANCH  25  26
ATOM     26  C   UNL     1     -19.177  35.943 -18.142  1.00  0.00    -0.000 C 
BRANCH  26  27
ATOM     27  C   UNL     1     -20.413  35.032 -18.143  1.00  0.00    -0.000 C 
BRANCH  27  28
ATOM     28  C   UNL     1     -20.367  33.975 -19.257  1.00  0.00    -0.000 C 
BRANCH  28  29
ATOM     29  C   UNL     1     -20.505  34.588 -20.659  1.00  0.00    -0.003 C 
ATOM     30  C   UNL     1     -20.900  36.060 -20.581  1.00  0.00     0.004 C 
ENDBRANCH  28  29
ENDBRANCH  27  28
ENDBRANCH  26  27
ENDBRANCH  25  26
ENDBRANCH  24  25
ENDBRANCH  23  24
ENDBRANCH  22  23
ENDBRANCH  21  22
ENDBRANCH  20  21
ENDBRANCH  19  20
ENDBRANCH  18  19
ENDBRANCH  17  18
ENDBRANCH   1  17
TORSDOF 26
ENDMDL
