MODEL 1
REMARK VINA RESULT:    -4.104      0.000      0.000
REMARK INTER + INTRA:          -7.299
REMARK INTER:                  -6.502
REMARK INTRA:                  -0.797
REMARK UNBOUND:                -0.797
REMARK SMILES CCCCCCCCCCCC(=O)[O-]
REMARK SMILES IDX 7 1 8 2 9 3 10 4 11 5 12 6 13 7 14 8 6 9 5 10 4 11 3 12 2 13
REMARK SMILES IDX 1 14
REMARK H PARENT
REMARK Flexibility Score: inf
ROOT
ATOM      1  C   UNL     1      30.501   8.738  49.003  1.00  0.00     0.000 C 
ENDROOT
BRANCH   1   2
ATOM      2  C   UNL     1      29.998   7.714  50.035  1.00  0.00     0.000 C 
BRANCH   2   3
ATOM      3  C   UNL     1      29.452   6.436  49.380  1.00  0.00     0.000 C 
BRANCH   3   4
ATOM      4  C   UNL     1      29.936   6.258  47.932  1.00  0.00     0.006 C 
BRANCH   4   5
ATOM      5  C   UNL     1      31.046   5.206  47.853  1.00  0.00     0.053 C 
BRANCH   5   6
ATOM      6  C   UNL     1      32.380   5.862  47.673  1.00  0.00     0.041 C 
ATOM      7  O   UNL     1      32.753   6.234  46.530  1.00  0.00    -0.550 OA
ATOM      8  O   UNL     1      33.188   6.107  48.777  1.00  0.00    -0.550 OA
ENDBRANCH   5   6
ENDBRANCH   4   5
ENDBRANCH   3   4
ENDBRANCH   2   3
ENDBRANCH   1   2
BRANCH   1   9
ATOM      9  C   UNL     1      31.907   9.277  49.327  1.00  0.00     0.000 C 
BRANCH   9  10
ATOM     10  C   UNL     1      32.586  10.068  48.193  1.00  0.00    -0.000 C 
BRANCH  10  11
ATOM     11  C   UNL     1      33.777   9.321  47.570  1.00  0.00    -0.000 C 
BRANCH  11  12
ATOM     12  C   UNL     1      34.517  10.164  46.519  1.00  0.00    -0.000 C 
BRANCH  12  13
ATOM     13  C   UNL     1      35.149   9.308  45.410  1.00  0.00    -0.003 C 
ATOM     14  C   UNL     1      34.380   9.454  44.100  1.00  0.00     0.004 C 
ENDBRANCH  12  13
ENDBRANCH  11  12
ENDBRANCH  10  11
ENDBRANCH   9  10
ENDBRANCH   1   9
TORSDOF 10
ENDMDL
MODEL 2
REMARK VINA RESULT:    -4.074      1.999      5.087
REMARK INTER + INTRA:          -7.252
REMARK INTER:                  -6.333
REMARK INTRA:                  -0.919
REMARK UNBOUND:                -0.797
REMARK SMILES CCCCCCCCCCCC(=O)[O-]
REMARK SMILES IDX 7 1 8 2 9 3 10 4 11 5 12 6 13 7 14 8 6 9 5 10 4 11 3 12 2 13
REMARK SMILES IDX 1 14
REMARK H PARENT
REMARK Flexibility Score: inf
ROOT
ATOM      1  C   UNL     1      31.679   9.949  48.757  1.00  0.00     0.000 C 
ENDROOT
BRANCH   1   2
ATOM      2  C   UNL     1      32.874   9.496  47.901  1.00  0.00     0.000 C 
BRANCH   2   3
ATOM      3  C   UNL     1      34.087  10.430  48.041  1.00  0.00     0.000 C 
BRANCH   3   4
ATOM      4  C   UNL     1      34.875  10.580  46.731  1.00  0.00     0.006 C 
BRANCH   4   5
ATOM      5  C   UNL     1      34.832   9.284  45.916  1.00  0.00     0.053 C 
BRANCH   5   6
ATOM      6  C   UNL     1      34.359   9.557  44.522  1.00  0.00     0.041 C 
ATOM      7  O   UNL     1      34.148  10.739  44.145  1.00  0.00    -0.550 OA
ATOM      8  O   UNL     1      34.198   8.508  43.625  1.00  0.00    -0.550 OA
ENDBRANCH   5   6
ENDBRANCH   4   5
ENDBRANCH   3   4
ENDBRANCH   2   3
ENDBRANCH   1   2
BRANCH   1   9
ATOM      9  C   UNL     1      31.202   8.865  49.743  1.00  0.00     0.000 C 
BRANCH   9  10
ATOM     10  C   UNL     1      29.868   8.188  49.381  1.00  0.00    -0.000 C 
BRANCH  10  11
ATOM     11  C   UNL     1      29.983   6.658  49.271  1.00  0.00    -0.000 C 
BRANCH  11  12
ATOM     12  C   UNL     1      29.943   6.167  47.814  1.00  0.00    -0.000 C 
BRANCH  12  13
ATOM     13  C   UNL     1      31.309   6.266  47.118  1.00  0.00    -0.003 C 
ATOM     14  C   UNL     1      32.419   5.709  48.006  1.00  0.00     0.004 C 
ENDBRANCH  12  13
ENDBRANCH  11  12
ENDBRANCH  10  11
ENDBRANCH   9  10
ENDBRANCH   1   9
TORSDOF 10
ENDMDL
MODEL 3
REMARK VINA RESULT:    -4.004     17.680     18.854
REMARK INTER + INTRA:          -7.142
REMARK INTER:                  -5.972
REMARK INTRA:                  -1.170
REMARK UNBOUND:                -0.797
REMARK SMILES CCCCCCCCCCCC(=O)[O-]
REMARK SMILES IDX 7 1 8 2 9 3 10 4 11 5 12 6 13 7 14 8 6 9 5 10 4 11 3 12 2 13
REMARK SMILES IDX 1 14
REMARK H PARENT
REMARK Flexibility Score: inf
ROOT
ATOM      1  C   UNL     1      21.266  13.398  34.757  1.00  0.00     0.000 C 
ENDROOT
BRANCH   1   2
ATOM      2  C   UNL     1      20.512  12.303  35.531  1.00  0.00     0.000 C 
BRANCH   2   3
ATOM      3  C   UNL     1      19.079  12.720  35.897  1.00  0.00     0.000 C 
BRANCH   3   4
ATOM      4  C   UNL     1      18.323  11.631  36.674  1.00  0.00     0.006 C 
BRANCH   4   5
ATOM      5  C   UNL     1      18.417  10.282  35.954  1.00  0.00     0.053 C 
BRANCH   5   6
ATOM      6  C   UNL     1      18.305   9.156  36.934  1.00  0.00     0.041 C 
ATOM      7  O   UNL     1      18.212   9.396  38.166  1.00  0.00    -0.550 OA
ATOM      8  O   UNL     1      18.255   7.843  36.481  1.00  0.00    -0.550 OA
ENDBRANCH   5   6
ENDBRANCH   4   5
ENDBRANCH   3   4
ENDBRANCH   2   3
ENDBRANCH   1   2
BRANCH   1   9
ATOM      9  C   UNL     1      20.327  14.453  34.142  1.00  0.00     0.000 C 
BRANCH   9  10
ATOM     10  C   UNL     1      20.254  14.451  32.604  1.00  0.00    -0.000 C 
BRANCH  10  11
ATOM     11  C   UNL     1      21.346  13.585  31.953  1.00  0.00    -0.000 C 
BRANCH  11  12
ATOM     12  C   UNL     1      20.764  12.474  31.063  1.00  0.00    -0.000 C 
BRANCH  12  13
ATOM     13  C   UNL     1      19.817  11.537  31.827  1.00  0.00    -0.003 C 
ATOM     14  C   UNL     1      20.587  10.395  32.484  1.00  0.00     0.004 C 
ENDBRANCH  12  13
ENDBRANCH  11  12
ENDBRANCH  10  11
ENDBRANCH   9  10
ENDBRANCH   1   9
TORSDOF 10
ENDMDL
MODEL 4
REMARK VINA RESULT:    -3.982     18.496     19.833
REMARK INTER + INTRA:          -7.107
REMARK INTER:                  -5.838
REMARK INTRA:                  -1.269
REMARK UNBOUND:                -0.797
REMARK SMILES CCCCCCCCCCCC(=O)[O-]
REMARK SMILES IDX 7 1 8 2 9 3 10 4 11 5 12 6 13 7 14 8 6 9 5 10 4 11 3 12 2 13
REMARK SMILES IDX 1 14
REMARK H PARENT
REMARK Flexibility Score: inf
ROOT
ATOM      1  C   UNL     1      18.093  13.031  35.898  1.00  0.00     0.000 C 
ENDROOT
BRANCH   1   2
ATOM      2  C   UNL     1      19.420  13.677  35.463  1.00  0.00     0.000 C 
BRANCH   2   3
ATOM      3  C   UNL     1      19.492  13.909  33.945  1.00  0.00     0.000 C 
BRANCH   3   4
ATOM      4  C   UNL     1      20.935  13.988  33.424  1.00  0.00     0.006 C 
BRANCH   4   5
ATOM      5  C   UNL     1      20.960  14.067  31.895  1.00  0.00     0.053 C 
BRANCH   5   6
ATOM      6  C   UNL     1      20.316  15.334  31.425  1.00  0.00     0.041 C 
ATOM      7  O   UNL     1      19.371  15.293  30.594  1.00  0.00    -0.550 OA
ATOM      8  O   UNL     1      20.728  16.556  31.942  1.00  0.00    -0.550 OA
ENDBRANCH   5   6
ENDBRANCH   4   5
ENDBRANCH   3   4
ENDBRANCH   2   3
ENDBRANCH   1   2
BRANCH   1   9
ATOM      9  C   UNL     1      18.289  11.855  36.873  1.00  0.00     0.000 C 
BRANCH   9  10
ATOM     10  C   UNL     1      18.204  10.454  36.240  1.00  0.00    -0.000 C 
BRANCH  10  11
ATOM     11  C   UNL     1      19.562   9.734  36.191  1.00  0.00    -0.000 C 
BRANCH  11  12
ATOM     12  C   UNL     1      20.440  10.210  35.023  1.00  0.00    -0.000 C 
BRANCH  12  13
ATOM     13  C   UNL     1      19.671  10.286  33.695  1.00  0.00    -0.003 C 
ATOM     14  C   UNL     1      20.629  10.403  32.513  1.00  0.00     0.004 C 
ENDBRANCH  12  13
ENDBRANCH  11  12
ENDBRANCH  10  11
ENDBRANCH   9  10
ENDBRANCH   1   9
TORSDOF 10
ENDMDL
MODEL 5
REMARK VINA RESULT:    -3.968     18.088     19.779
REMARK INTER + INTRA:          -7.084
REMARK INTER:                  -6.016
REMARK INTRA:                  -1.068
REMARK UNBOUND:                -0.797
REMARK SMILES CCCCCCCCCCCC(=O)[O-]
REMARK SMILES IDX 7 1 8 2 9 3 10 4 11 5 12 6 13 7 14 8 6 9 5 10 4 11 3 12 2 13
REMARK SMILES IDX 1 14
REMARK H PARENT
REMARK Flexibility Score: inf
ROOT
ATOM      1  C   UNL     1      20.879  10.490  31.713  1.00  0.00     0.000 C 
ENDROOT
BRANCH   1   2
ATOM      2  C   UNL     1      21.158  11.718  30.829  1.00  0.00     0.000 C 
BRANCH   2   3
ATOM      3  C   UNL     1      20.483  12.992  31.361  1.00  0.00     0.000 C 
BRANCH   3   4
ATOM      4  C   UNL     1      21.244  13.619  32.540  1.00  0.00     0.006 C 
BRANCH   4   5
ATOM      5  C   UNL     1      20.389  14.680  33.239  1.00  0.00     0.053 C 
BRANCH   5   6
ATOM      6  C   UNL     1      19.455  14.039  34.219  1.00  0.00     0.041 C 
ATOM      7  O   UNL     1      18.281  13.744  33.874  1.00  0.00    -0.550 OA
ATOM      8  O   UNL     1      19.899  13.724  35.497  1.00  0.00    -0.550 OA
ENDBRANCH   5   6
ENDBRANCH   4   5
ENDBRANCH   3   4
ENDBRANCH   2   3
ENDBRANCH   1   2
BRANCH   1   9
ATOM      9  C   UNL     1      19.406  10.388  32.153  1.00  0.00     0.000 C 
BRANCH   9  10
ATOM     10  C   UNL     1      19.178  10.287  33.672  1.00  0.00    -0.000 C 
BRANCH  10  11
ATOM     11  C   UNL     1      20.461  10.524  34.487  1.00  0.00    -0.000 C 
BRANCH  11  12
ATOM     12  C   UNL     1      20.389   9.903  35.892  1.00  0.00    -0.000 C 
BRANCH  12  13
ATOM     13  C   UNL     1      18.980   9.409  36.251  1.00  0.00    -0.003 C 
ATOM     14  C   UNL     1      19.043   8.188  37.165  1.00  0.00     0.004 C 
ENDBRANCH  12  13
ENDBRANCH  11  12
ENDBRANCH  10  11
ENDBRANCH   9  10
ENDBRANCH   1   9
TORSDOF 10
ENDMDL
MODEL 6
REMARK VINA RESULT:    -3.963     17.952     19.515
REMARK INTER + INTRA:          -7.076
REMARK INTER:                  -5.924
REMARK INTRA:                  -1.152
REMARK UNBOUND:                -0.797
REMARK SMILES CCCCCCCCCCCC(=O)[O-]
REMARK SMILES IDX 7 1 8 2 9 3 10 4 11 5 12 6 13 7 14 8 6 9 5 10 4 11 3 12 2 13
REMARK SMILES IDX 1 14
REMARK H PARENT
REMARK Flexibility Score: inf
ROOT
ATOM      1  C   UNL     1      19.817  13.750  35.121  1.00  0.00     0.000 C 
ENDROOT
BRANCH   1   2
ATOM      2  C   UNL     1      20.157  14.471  33.805  1.00  0.00     0.000 C 
BRANCH   2   3
ATOM      3  C   UNL     1      21.260  13.755  33.009  1.00  0.00     0.000 C 
BRANCH   3   4
ATOM      4  C   UNL     1      20.740  13.128  31.706  1.00  0.00     0.006 C 
BRANCH   4   5
ATOM      5  C   UNL     1      20.679  11.602  31.821  1.00  0.00     0.053 C 
BRANCH   5   6
ATOM      6  C   UNL     1      19.271  11.149  32.051  1.00  0.00     0.041 C 
ATOM      7  O   UNL     1      19.022   9.932  32.253  1.00  0.00    -0.550 OA
ATOM      8  O   UNL     1      18.240  12.080  32.091  1.00  0.00    -0.550 OA
ENDBRANCH   5   6
ENDBRANCH   4   5
ENDBRANCH   3   4
ENDBRANCH   2   3
ENDBRANCH   1   2
BRANCH   1   9
ATOM      9  C   UNL     1      20.817  12.631  35.469  1.00  0.00     0.000 C 
BRANCH   9  10
ATOM     10  C   UNL     1      20.218  11.215  35.545  1.00  0.00    -0.000 C 
BRANCH  10  11
ATOM     11  C   UNL     1      18.695  11.218  35.755  1.00  0.00    -0.000 C 
BRANCH  11  12
ATOM     12  C   UNL     1      18.276  10.496  37.047  1.00  0.00    -0.000 C 
BRANCH  12  13
ATOM     13  C   UNL     1      17.943   9.014  36.816  1.00  0.00    -0.003 C 
ATOM     14  C   UNL     1      19.050   8.113  37.355  1.00  0.00     0.004 C 
ENDBRANCH  12  13
ENDBRANCH  11  12
ENDBRANCH  10  11
ENDBRANCH   9  10
ENDBRANCH   1   9
TORSDOF 10
ENDMDL
MODEL 7
REMARK VINA RESULT:    -3.962     18.376     19.693
REMARK INTER + INTRA:          -7.075
REMARK INTER:                  -5.923
REMARK INTRA:                  -1.152
REMARK UNBOUND:                -0.797
REMARK SMILES CCCCCCCCCCCC(=O)[O-]
REMARK SMILES IDX 7 1 8 2 9 3 10 4 11 5 12 6 13 7 14 8 6 9 5 10 4 11 3 12 2 13
REMARK SMILES IDX 1 14
REMARK H PARENT
REMARK Flexibility Score: inf
ROOT
ATOM      1  C   UNL     1      20.363  10.483  35.514  1.00  0.00     0.000 C 
ENDROOT
BRANCH   1   2
ATOM      2  C   UNL     1      20.883  11.927  35.619  1.00  0.00     0.000 C 
BRANCH   2   3
ATOM      3  C   UNL     1      19.750  12.965  35.589  1.00  0.00     0.000 C 
BRANCH   3   4
ATOM      4  C   UNL     1      19.979  14.064  34.539  1.00  0.00     0.006 C 
BRANCH   4   5
ATOM      5  C   UNL     1      21.149  13.704  33.619  1.00  0.00     0.053 C 
BRANCH   5   6
ATOM      6  C   UNL     1      20.971  14.335  32.273  1.00  0.00     0.041 C 
ATOM      7  O   UNL     1      21.357  13.735  31.236  1.00  0.00    -0.550 OA
ATOM      8  O   UNL     1      20.334  15.565  32.161  1.00  0.00    -0.550 OA
ENDBRANCH   5   6
ENDBRANCH   4   5
ENDBRANCH   3   4
ENDBRANCH   2   3
ENDBRANCH   1   2
BRANCH   1   9
ATOM      9  C   UNL     1      18.948  10.397  34.910  1.00  0.00     0.000 C 
BRANCH   9  10
ATOM     10  C   UNL     1      18.876   9.823  33.483  1.00  0.00    -0.000 C 
BRANCH  10  11
ATOM     11  C   UNL     1      19.421  10.791  32.419  1.00  0.00    -0.000 C 
BRANCH  11  12
ATOM     12  C   UNL     1      20.806  10.374  31.896  1.00  0.00    -0.000 C 
BRANCH  12  13
ATOM     13  C   UNL     1      20.780   9.960  30.417  1.00  0.00    -0.003 C 
ATOM     14  C   UNL     1      21.974   9.073  30.074  1.00  0.00     0.004 C 
ENDBRANCH  12  13
ENDBRANCH  11  12
ENDBRANCH  10  11
ENDBRANCH   9  10
ENDBRANCH   1   9
TORSDOF 10
ENDMDL
MODEL 8
REMARK VINA RESULT:    -3.941     18.417     19.721
REMARK INTER + INTRA:          -7.041
REMARK INTER:                  -5.676
REMARK INTRA:                  -1.366
REMARK UNBOUND:                -0.797
REMARK SMILES CCCCCCCCCCCC(=O)[O-]
REMARK SMILES IDX 7 1 8 2 9 3 10 4 11 5 12 6 13 7 14 8 6 9 5 10 4 11 3 12 2 13
REMARK SMILES IDX 1 14
REMARK H PARENT
REMARK Flexibility Score: inf
ROOT
ATOM      1  C   UNL     1      20.843  10.516  31.916  1.00  0.00     0.000 C 
ENDROOT
BRANCH   1   2
ATOM      2  C   UNL     1      19.378  10.246  32.303  1.00  0.00     0.000 C 
BRANCH   2   3
ATOM      3  C   UNL     1      19.003  10.864  33.659  1.00  0.00     0.000 C 
BRANCH   3   4
ATOM      4  C   UNL     1      20.138  10.764  34.691  1.00  0.00     0.006 C 
BRANCH   4   5
ATOM      5  C   UNL     1      20.194  12.021  35.564  1.00  0.00     0.053 C 
BRANCH   5   6
ATOM      6  C   UNL     1      18.933  12.165  36.357  1.00  0.00     0.041 C 
ATOM      7  O   UNL     1      18.316  13.263  36.373  1.00  0.00    -0.550 OA
ATOM      8  O   UNL     1      18.413  11.072  37.041  1.00  0.00    -0.550 OA
ENDBRANCH   5   6
ENDBRANCH   4   5
ENDBRANCH   3   4
ENDBRANCH   2   3
ENDBRANCH   1   2
BRANCH   1   9
ATOM      9  C   UNL     1      20.982  11.283  30.588  1.00  0.00     0.000 C 
BRANCH   9  10
ATOM     10  C   UNL     1      21.571  12.701  30.706  1.00  0.00    -0.000 C 
BRANCH  10  11
ATOM     11  C   UNL     1      21.368  13.320  32.099  1.00  0.00    -0.000 C 
BRANCH  11  12
ATOM     12  C   UNL     1      20.709  14.708  32.038  1.00  0.00    -0.000 C 
BRANCH  12  13
ATOM     13  C   UNL     1      19.903  15.039  33.303  1.00  0.00    -0.003 C 
ATOM     14  C   UNL     1      18.461  14.554  33.177  1.00  0.00     0.004 C 
ENDBRANCH  12  13
ENDBRANCH  11  12
ENDBRANCH  10  11
ENDBRANCH   9  10
ENDBRANCH   1   9
TORSDOF 10
ENDMDL
MODEL 9
REMARK VINA RESULT:    -3.907      2.096      5.431
REMARK INTER + INTRA:          -6.987
REMARK INTER:                  -5.943
REMARK INTRA:                  -1.044
REMARK UNBOUND:                -0.797
REMARK SMILES CCCCCCCCCCCC(=O)[O-]
REMARK SMILES IDX 7 1 8 2 9 3 10 4 11 5 12 6 13 7 14 8 6 9 5 10 4 11 3 12 2 13
REMARK SMILES IDX 1 14
REMARK H PARENT
REMARK Flexibility Score: inf
ROOT
ATOM      1  C   UNL     1      31.873   9.055  49.095  1.00  0.00     0.000 C 
ENDROOT
BRANCH   1   2
ATOM      2  C   UNL     1      32.485   9.912  47.973  1.00  0.00     0.000 C 
BRANCH   2   3
ATOM      3  C   UNL     1      33.920  10.362  48.292  1.00  0.00     0.000 C 
BRANCH   3   4
ATOM      4  C   UNL     1      34.808  10.442  47.040  1.00  0.00     0.006 C 
BRANCH   4   5
ATOM      5  C   UNL     1      34.578   9.233  46.130  1.00  0.00     0.053 C 
BRANCH   5   6
ATOM      6  C   UNL     1      34.387   9.673  44.712  1.00  0.00     0.041 C 
ATOM      7  O   UNL     1      34.271  10.896  44.438  1.00  0.00    -0.550 OA
ATOM      8  O   UNL     1      34.385   8.734  43.687  1.00  0.00    -0.550 OA
ENDBRANCH   5   6
ENDBRANCH   4   5
ENDBRANCH   3   4
ENDBRANCH   2   3
ENDBRANCH   1   2
BRANCH   1   9
ATOM      9  C   UNL     1      32.631   7.733  49.322  1.00  0.00     0.000 C 
BRANCH   9  10
ATOM     10  C   UNL     1      32.672   6.783  48.111  1.00  0.00    -0.000 C 
BRANCH  10  11
ATOM     11  C   UNL     1      31.295   6.587  47.455  1.00  0.00    -0.000 C 
BRANCH  11  12
ATOM     12  C   UNL     1      30.480   5.463  48.117  1.00  0.00    -0.000 C 
BRANCH  12  13
ATOM     13  C   UNL     1      29.102   5.938  48.604  1.00  0.00    -0.003 C 
ATOM     14  C   UNL     1      29.209   6.635  49.957  1.00  0.00     0.004 C 
ENDBRANCH  12  13
ENDBRANCH  11  12
ENDBRANCH  10  11
ENDBRANCH   9  10
ENDBRANCH   1   9
TORSDOF 10
ENDMDL
