MODEL 1
REMARK VINA RESULT:    -3.439      0.000      0.000
REMARK INTER + INTRA:         -13.128
REMARK INTER:                  -8.666
REMARK INTRA:                  -4.462
REMARK UNBOUND:                -4.462
REMARK SMILES CCCCCCCCCCCCCCCCCCCCCCCCCCCC(=O)[O-]
REMARK SMILES IDX 15 1 16 2 17 3 18 4 19 5 20 6 21 7 22 8 23 9 24 10 25 11
REMARK SMILES IDX 26 12 27 13 28 14 29 15 30 16 14 17 13 18 12 19 11 20 10 21
REMARK SMILES IDX 9 22 8 23 7 24 6 25 5 26 4 27 3 28 2 29 1 30
REMARK H PARENT
REMARK Flexibility Score: inf
ROOT
ATOM      1  C   UNL     1       6.293   4.090  -5.496  1.00  0.00     0.000 C 
ENDROOT
BRANCH   1   2
ATOM      2  C   UNL     1       7.241   3.321  -4.555  1.00  0.00     0.000 C 
BRANCH   2   3
ATOM      3  C   UNL     1       8.504   2.766  -5.249  1.00  0.00     0.000 C 
BRANCH   3   4
ATOM      4  C   UNL     1       8.321   1.327  -5.761  1.00  0.00     0.000 C 
BRANCH   4   5
ATOM      5  C   UNL     1       8.732   1.170  -7.241  1.00  0.00     0.000 C 
BRANCH   5   6
ATOM      6  C   UNL     1       9.213   2.484  -7.886  1.00  0.00     0.000 C 
BRANCH   6   7
ATOM      7  C   UNL     1       8.376   2.957  -9.089  1.00  0.00     0.000 C 
BRANCH   7   8
ATOM      8  C   UNL     1       7.045   2.204  -9.303  1.00  0.00     0.000 C 
BRANCH   8   9
ATOM      9  C   UNL     1       6.202   2.682 -10.500  1.00  0.00     0.000 C 
BRANCH   9  10
ATOM     10  C   UNL     1       4.783   3.158 -10.135  1.00  0.00     0.000 C 
BRANCH  10  11
ATOM     11  C   UNL     1       3.751   2.009 -10.040  1.00  0.00     0.000 C 
BRANCH  11  12
ATOM     12  C   UNL     1       4.149   0.757 -10.840  1.00  0.00     0.006 C 
BRANCH  12  13
ATOM     13  C   UNL     1       3.291  -0.463 -10.474  1.00  0.00     0.053 C 
BRANCH  13  14
ATOM     14  C   UNL     1       4.132  -1.518  -9.827  1.00  0.00     0.041 C 
ATOM     15  O   UNL     1       5.277  -1.237  -9.386  1.00  0.00    -0.550 OA
ATOM     16  O   UNL     1       3.630  -2.805  -9.670  1.00  0.00    -0.550 OA
ENDBRANCH  13  14
ENDBRANCH  12  13
ENDBRANCH  11  12
ENDBRANCH  10  11
ENDBRANCH   9  10
ENDBRANCH   8   9
ENDBRANCH   7   8
ENDBRANCH   6   7
ENDBRANCH   5   6
ENDBRANCH   4   5
ENDBRANCH   3   4
ENDBRANCH   2   3
ENDBRANCH   1   2
BRANCH   1  17
ATOM     17  C   UNL     1       6.985   5.008  -6.518  1.00  0.00     0.000 C 
BRANCH  17  18
ATOM     18  C   UNL     1       6.758   6.518  -6.301  1.00  0.00     0.000 C 
BRANCH  18  19
ATOM     19  C   UNL     1       6.001   7.232  -7.435  1.00  0.00     0.000 C 
BRANCH  19  20
ATOM     20  C   UNL     1       5.784   6.329  -8.663  1.00  0.00     0.000 C 
BRANCH  20  21
ATOM     21  C   UNL     1       5.319   7.127  -9.900  1.00  0.00     0.000 C 
BRANCH  21  22
ATOM     22  C   UNL     1       6.236   6.959 -11.125  1.00  0.00    -0.000 C 
BRANCH  22  23
ATOM     23  C   UNL     1       7.402   5.987 -10.872  1.00  0.00    -0.000 C 
BRANCH  23  24
ATOM     24  C   UNL     1       8.743   6.717 -10.649  1.00  0.00    -0.000 C 
BRANCH  24  25
ATOM     25  C   UNL     1       9.340   6.505  -9.243  1.00  0.00    -0.000 C 
BRANCH  25  26
ATOM     26  C   UNL     1       9.683   7.799  -8.480  1.00  0.00    -0.000 C 
BRANCH  26  27
ATOM     27  C   UNL     1       9.288   9.105  -9.195  1.00  0.00    -0.000 C 
BRANCH  27  28
ATOM     28  C   UNL     1       8.549  10.091  -8.274  1.00  0.00    -0.000 C 
BRANCH  28  29
ATOM     29  C   UNL     1       7.584  11.006  -9.044  1.00  0.00    -0.003 C 
ATOM     30  C   UNL     1       7.537  12.428  -8.482  1.00  0.00     0.004 C 
ENDBRANCH  28  29
ENDBRANCH  27  28
ENDBRANCH  26  27
ENDBRANCH  25  26
ENDBRANCH  24  25
ENDBRANCH  23  24
ENDBRANCH  22  23
ENDBRANCH  21  22
ENDBRANCH  20  21
ENDBRANCH  19  20
ENDBRANCH  18  19
ENDBRANCH  17  18
ENDBRANCH   1  17
TORSDOF 26
ENDMDL
MODEL 2
REMARK VINA RESULT:    -3.366      2.286      5.828
REMARK INTER + INTRA:         -12.945
REMARK INTER:                  -9.684
REMARK INTRA:                  -3.262
REMARK UNBOUND:                -4.462
REMARK SMILES CCCCCCCCCCCCCCCCCCCCCCCCCCCC(=O)[O-]
REMARK SMILES IDX 15 1 16 2 17 3 18 4 19 5 20 6 21 7 22 8 23 9 24 10 25 11
REMARK SMILES IDX 26 12 27 13 28 14 29 15 30 16 14 17 13 18 12 19 11 20 10 21
REMARK SMILES IDX 9 22 8 23 7 24 6 25 5 26 4 27 3 28 2 29 1 30
REMARK H PARENT
REMARK Flexibility Score: inf
ROOT
ATOM      1  C   UNL     1       4.006   4.406  -9.851  1.00  0.00     0.000 C 
ENDROOT
BRANCH   1   2
ATOM      2  C   UNL     1       4.330   2.925  -9.572  1.00  0.00     0.000 C 
BRANCH   2   3
ATOM      3  C   UNL     1       5.801   2.665  -9.180  1.00  0.00     0.000 C 
BRANCH   3   4
ATOM      4  C   UNL     1       6.588   1.922 -10.273  1.00  0.00     0.000 C 
BRANCH   4   5
ATOM      5  C   UNL     1       6.634   0.397 -10.034  1.00  0.00     0.000 C 
BRANCH   5   6
ATOM      6  C   UNL     1       5.468  -0.363 -10.695  1.00  0.00     0.000 C 
BRANCH   6   7
ATOM      7  C   UNL     1       4.472  -1.001  -9.709  1.00  0.00     0.000 C 
BRANCH   7   8
ATOM      8  C   UNL     1       3.332  -1.816 -10.358  1.00  0.00     0.000 C 
BRANCH   8   9
ATOM      9  C   UNL     1       3.120  -3.228  -9.781  1.00  0.00     0.000 C 
BRANCH   9  10
ATOM     10  C   UNL     1       2.766  -4.301 -10.828  1.00  0.00     0.000 C 
BRANCH  10  11
ATOM     11  C   UNL     1       3.903  -5.320 -11.075  1.00  0.00     0.000 C 
BRANCH  11  12
ATOM     12  C   UNL     1       4.936  -5.380  -9.937  1.00  0.00     0.006 C 
BRANCH  12  13
ATOM     13  C   UNL     1       6.322  -5.819 -10.431  1.00  0.00     0.053 C 
BRANCH  13  14
ATOM     14  C   UNL     1       7.277  -4.667 -10.401  1.00  0.00     0.041 C 
ATOM     15  O   UNL     1       8.430  -4.784 -10.894  1.00  0.00    -0.550 OA
ATOM     16  O   UNL     1       6.876  -3.447  -9.869  1.00  0.00    -0.550 OA
ENDBRANCH  13  14
ENDBRANCH  12  13
ENDBRANCH  11  12
ENDBRANCH  10  11
ENDBRANCH   9  10
ENDBRANCH   8   9
ENDBRANCH   7   8
ENDBRANCH   6   7
ENDBRANCH   5   6
ENDBRANCH   4   5
ENDBRANCH   3   4
ENDBRANCH   2   3
ENDBRANCH   1   2
BRANCH   1  17
ATOM     17  C   UNL     1       4.648   4.990 -11.121  1.00  0.00     0.000 C 
BRANCH  17  18
ATOM     18  C   UNL     1       5.979   5.738 -10.898  1.00  0.00     0.000 C 
BRANCH  18  19
ATOM     19  C   UNL     1       5.842   7.138 -10.273  1.00  0.00     0.000 C 
BRANCH  19  20
ATOM     20  C   UNL     1       7.203   7.794  -9.981  1.00  0.00     0.000 C 
BRANCH  20  21
ATOM     21  C   UNL     1       7.271   8.391  -8.559  1.00  0.00     0.000 C 
BRANCH  21  22
ATOM     22  C   UNL     1       7.851   7.425  -7.510  1.00  0.00    -0.000 C 
BRANCH  22  23
ATOM     23  C   UNL     1       6.766   6.754  -6.650  1.00  0.00    -0.000 C 
BRANCH  23  24
ATOM     24  C   UNL     1       6.396   5.345  -7.159  1.00  0.00    -0.000 C 
BRANCH  24  25
ATOM     25  C   UNL     1       5.965   4.375  -6.041  1.00  0.00    -0.000 C 
BRANCH  25  26
ATOM     26  C   UNL     1       7.015   4.143  -4.937  1.00  0.00    -0.000 C 
BRANCH  26  27
ATOM     27  C   UNL     1       8.200   3.245  -5.341  1.00  0.00    -0.000 C 
BRANCH  27  28
ATOM     28  C   UNL     1       7.766   1.822  -5.732  1.00  0.00    -0.000 C 
BRANCH  28  29
ATOM     29  C   UNL     1       8.588   1.256  -6.900  1.00  0.00    -0.003 C 
ATOM     30  C   UNL     1       9.381   2.331  -7.644  1.00  0.00     0.004 C 
ENDBRANCH  28  29
ENDBRANCH  27  28
ENDBRANCH  26  27
ENDBRANCH  25  26
ENDBRANCH  24  25
ENDBRANCH  23  24
ENDBRANCH  22  23
ENDBRANCH  21  22
ENDBRANCH  20  21
ENDBRANCH  19  20
ENDBRANCH  18  19
ENDBRANCH  17  18
ENDBRANCH   1  17
TORSDOF 26
ENDMDL
MODEL 3
REMARK VINA RESULT:    -3.335      1.893      2.363
REMARK INTER + INTRA:         -12.865
REMARK INTER:                  -9.684
REMARK INTRA:                  -3.181
REMARK UNBOUND:                -4.462
REMARK SMILES CCCCCCCCCCCCCCCCCCCCCCCCCCCC(=O)[O-]
REMARK SMILES IDX 15 1 16 2 17 3 18 4 19 5 20 6 21 7 22 8 23 9 24 10 25 11
REMARK SMILES IDX 26 12 27 13 28 14 29 15 30 16 14 17 13 18 12 19 11 20 10 21
REMARK SMILES IDX 9 22 8 23 7 24 6 25 5 26 4 27 3 28 2 29 1 30
REMARK H PARENT
REMARK Flexibility Score: inf
ROOT
ATOM      1  C   UNL     1       7.975   2.844  -4.387  1.00  0.00     0.000 C 
ENDROOT
BRANCH   1   2
ATOM      2  C   UNL     1       9.508   2.813  -4.549  1.00  0.00     0.000 C 
BRANCH   2   3
ATOM      3  C   UNL     1      10.073   1.426  -4.928  1.00  0.00     0.000 C 
BRANCH   3   4
ATOM      4  C   UNL     1       9.259   0.732  -6.033  1.00  0.00     0.000 C 
BRANCH   4   5
ATOM      5  C   UNL     1       9.965   0.783  -7.406  1.00  0.00     0.000 C 
BRANCH   5   6
ATOM      6  C   UNL     1       9.580   2.015  -8.247  1.00  0.00     0.000 C 
BRANCH   6   7
ATOM      7  C   UNL     1       9.238   1.711  -9.717  1.00  0.00     0.000 C 
BRANCH   7   8
ATOM      8  C   UNL     1       8.336   0.478  -9.944  1.00  0.00     0.000 C 
BRANCH   8   9
ATOM      9  C   UNL     1       6.861   0.657  -9.539  1.00  0.00     0.000 C 
BRANCH   9  10
ATOM     10  C   UNL     1       5.847   0.029 -10.515  1.00  0.00     0.000 C 
BRANCH  10  11
ATOM     11  C   UNL     1       4.949  -1.048  -9.863  1.00  0.00     0.000 C 
BRANCH  11  12
ATOM     12  C   UNL     1       5.342  -2.488 -10.235  1.00  0.00     0.006 C 
BRANCH  12  13
ATOM     13  C   UNL     1       4.237  -3.207 -11.022  1.00  0.00     0.053 C 
BRANCH  13  14
ATOM     14  C   UNL     1       3.586  -4.253 -10.172  1.00  0.00     0.041 C 
ATOM     15  O   UNL     1       4.285  -5.111  -9.573  1.00  0.00    -0.550 OA
ATOM     16  O   UNL     1       2.206  -4.251 -10.006  1.00  0.00    -0.550 OA
ENDBRANCH  13  14
ENDBRANCH  12  13
ENDBRANCH  11  12
ENDBRANCH  10  11
ENDBRANCH   9  10
ENDBRANCH   8   9
ENDBRANCH   7   8
ENDBRANCH   6   7
ENDBRANCH   5   6
ENDBRANCH   4   5
ENDBRANCH   3   4
ENDBRANCH   2   3
ENDBRANCH   1   2
BRANCH   1  17
ATOM     17  C   UNL     1       7.256   3.961  -5.163  1.00  0.00     0.000 C 
BRANCH  17  18
ATOM     18  C   UNL     1       5.895   3.565  -5.772  1.00  0.00     0.000 C 
BRANCH  18  19
ATOM     19  C   UNL     1       5.959   3.017  -7.209  1.00  0.00     0.000 C 
BRANCH  19  20
ATOM     20  C   UNL     1       5.749   4.111  -8.271  1.00  0.00     0.000 C 
BRANCH  20  21
ATOM     21  C   UNL     1       7.077   4.570  -8.908  1.00  0.00     0.000 C 
BRANCH  21  22
ATOM     22  C   UNL     1       7.047   4.602 -10.447  1.00  0.00    -0.000 C 
BRANCH  22  23
ATOM     23  C   UNL     1       8.159   5.478 -11.050  1.00  0.00    -0.000 C 
BRANCH  23  24
ATOM     24  C   UNL     1       9.224   5.881 -10.009  1.00  0.00    -0.000 C 
BRANCH  24  25
ATOM     25  C   UNL     1       9.287   7.398  -9.742  1.00  0.00    -0.000 C 
BRANCH  25  26
ATOM     26  C   UNL     1       8.817   7.833  -8.340  1.00  0.00    -0.000 C 
BRANCH  26  27
ATOM     27  C   UNL     1       9.572   9.035  -7.741  1.00  0.00    -0.000 C 
BRANCH  27  28
ATOM     28  C   UNL     1       8.629  10.103  -7.160  1.00  0.00    -0.000 C 
BRANCH  28  29
ATOM     29  C   UNL     1       7.296  10.189  -7.920  1.00  0.00    -0.003 C 
ATOM     30  C   UNL     1       7.344  11.165  -9.096  1.00  0.00     0.004 C 
ENDBRANCH  28  29
ENDBRANCH  27  28
ENDBRANCH  26  27
ENDBRANCH  25  26
ENDBRANCH  24  25
ENDBRANCH  23  24
ENDBRANCH  22  23
ENDBRANCH  21  22
ENDBRANCH  20  21
ENDBRANCH  19  20
ENDBRANCH  18  19
ENDBRANCH  17  18
ENDBRANCH   1  17
TORSDOF 26
ENDMDL
MODEL 4
REMARK VINA RESULT:    -3.181      1.777      3.128
REMARK INTER + INTRA:         -12.479
REMARK INTER:                  -8.582
REMARK INTRA:                  -3.898
REMARK UNBOUND:                -4.462
REMARK SMILES CCCCCCCCCCCCCCCCCCCCCCCCCCCC(=O)[O-]
REMARK SMILES IDX 15 1 16 2 17 3 18 4 19 5 20 6 21 7 22 8 23 9 24 10 25 11
REMARK SMILES IDX 26 12 27 13 28 14 29 15 30 16 14 17 13 18 12 19 11 20 10 21
REMARK SMILES IDX 9 22 8 23 7 24 6 25 5 26 4 27 3 28 2 29 1 30
REMARK H PARENT
REMARK Flexibility Score: inf
ROOT
ATOM      1  C   UNL     1       8.727   2.125  -4.391  1.00  0.00     0.000 C 
ENDROOT
BRANCH   1   2
ATOM      2  C   UNL     1      10.124   1.535  -4.669  1.00  0.00     0.000 C 
BRANCH   2   3
ATOM      3  C   UNL     1      10.125   0.368  -5.681  1.00  0.00     0.000 C 
BRANCH   3   4
ATOM      4  C   UNL     1       9.175   0.606  -6.867  1.00  0.00     0.000 C 
BRANCH   4   5
ATOM      5  C   UNL     1       9.879   1.291  -8.058  1.00  0.00     0.000 C 
BRANCH   5   6
ATOM      6  C   UNL     1       9.232   2.628  -8.467  1.00  0.00     0.000 C 
BRANCH   6   7
ATOM      7  C   UNL     1       8.782   2.705  -9.938  1.00  0.00     0.000 C 
BRANCH   7   8
ATOM      8  C   UNL     1       8.353   1.362 -10.568  1.00  0.00     0.000 C 
BRANCH   8   9
ATOM      9  C   UNL     1       7.056   0.754 -10.003  1.00  0.00     0.000 C 
BRANCH   9  10
ATOM     10  C   UNL     1       6.014   0.361 -11.068  1.00  0.00     0.000 C 
BRANCH  10  11
ATOM     11  C   UNL     1       4.657  -0.079 -10.472  1.00  0.00     0.000 C 
BRANCH  11  12
ATOM     12  C   UNL     1       4.715  -1.428  -9.735  1.00  0.00     0.006 C 
BRANCH  12  13
ATOM     13  C   UNL     1       4.870  -2.611 -10.701  1.00  0.00     0.053 C 
BRANCH  13  14
ATOM     14  C   UNL     1       5.896  -3.573 -10.190  1.00  0.00     0.041 C 
ATOM     15  O   UNL     1       7.094  -3.210 -10.052  1.00  0.00    -0.550 OA
ATOM     16  O   UNL     1       5.520  -4.859  -9.824  1.00  0.00    -0.550 OA
ENDBRANCH  13  14
ENDBRANCH  12  13
ENDBRANCH  11  12
ENDBRANCH  10  11
ENDBRANCH   9  10
ENDBRANCH   8   9
ENDBRANCH   7   8
ENDBRANCH   6   7
ENDBRANCH   5   6
ENDBRANCH   4   5
ENDBRANCH   3   4
ENDBRANCH   2   3
ENDBRANCH   1   2
BRANCH   1  17
ATOM     17  C   UNL     1       8.530   3.584  -4.840  1.00  0.00     0.000 C 
BRANCH  17  18
ATOM     18  C   UNL     1       7.073   4.089  -4.803  1.00  0.00     0.000 C 
BRANCH  18  19
ATOM     19  C   UNL     1       6.087   3.297  -5.680  1.00  0.00     0.000 C 
BRANCH  19  20
ATOM     20  C   UNL     1       5.451   4.158  -6.786  1.00  0.00     0.000 C 
BRANCH  20  21
ATOM     21  C   UNL     1       5.783   3.634  -8.199  1.00  0.00     0.000 C 
BRANCH  21  22
ATOM     22  C   UNL     1       4.551   3.146  -8.983  1.00  0.00    -0.000 C 
BRANCH  22  23
ATOM     23  C   UNL     1       4.281   3.976 -10.250  1.00  0.00    -0.000 C 
BRANCH  23  24
ATOM     24  C   UNL     1       4.889   5.391 -10.172  1.00  0.00    -0.000 C 
BRANCH  24  25
ATOM     25  C   UNL     1       6.258   5.518 -10.870  1.00  0.00    -0.000 C 
BRANCH  25  26
ATOM     26  C   UNL     1       6.869   6.933 -10.855  1.00  0.00    -0.000 C 
BRANCH  26  27
ATOM     27  C   UNL     1       8.342   7.004 -10.412  1.00  0.00    -0.000 C 
BRANCH  27  28
ATOM     28  C   UNL     1       8.605   6.265  -9.088  1.00  0.00    -0.000 C 
BRANCH  28  29
ATOM     29  C   UNL     1       7.809   6.857  -7.915  1.00  0.00    -0.003 C 
ATOM     30  C   UNL     1       8.015   8.365  -7.759  1.00  0.00     0.004 C 
ENDBRANCH  28  29
ENDBRANCH  27  28
ENDBRANCH  26  27
ENDBRANCH  25  26
ENDBRANCH  24  25
ENDBRANCH  23  24
ENDBRANCH  22  23
ENDBRANCH  21  22
ENDBRANCH  20  21
ENDBRANCH  19  20
ENDBRANCH  18  19
ENDBRANCH  17  18
ENDBRANCH   1  17
TORSDOF 26
ENDMDL
MODEL 5
REMARK VINA RESULT:    -3.116      3.521      8.878
REMARK INTER + INTRA:         -12.315
REMARK INTER:                  -8.966
REMARK INTRA:                  -3.349
REMARK UNBOUND:                -4.462
REMARK SMILES CCCCCCCCCCCCCCCCCCCCCCCCCCCC(=O)[O-]
REMARK SMILES IDX 15 1 16 2 17 3 18 4 19 5 20 6 21 7 22 8 23 9 24 10 25 11
REMARK SMILES IDX 26 12 27 13 28 14 29 15 30 16 14 17 13 18 12 19 11 20 10 21
REMARK SMILES IDX 9 22 8 23 7 24 6 25 5 26 4 27 3 28 2 29 1 30
REMARK H PARENT
REMARK Flexibility Score: inf
ROOT
ATOM      1  C   UNL     1       6.900   2.405  -5.688  1.00  0.00     0.000 C 
ENDROOT
BRANCH   1   2
ATOM      2  C   UNL     1       6.188   3.692  -6.148  1.00  0.00     0.000 C 
BRANCH   2   3
ATOM      3  C   UNL     1       6.812   4.991  -5.592  1.00  0.00     0.000 C 
BRANCH   3   4
ATOM      4  C   UNL     1       6.060   6.255  -6.040  1.00  0.00     0.000 C 
BRANCH   4   5
ATOM      5  C   UNL     1       6.816   7.032  -7.140  1.00  0.00     0.000 C 
BRANCH   5   6
ATOM      6  C   UNL     1       6.074   7.061  -8.490  1.00  0.00     0.000 C 
BRANCH   6   7
ATOM      7  C   UNL     1       6.094   5.731  -9.266  1.00  0.00     0.000 C 
BRANCH   7   8
ATOM      8  C   UNL     1       6.816   5.773 -10.630  1.00  0.00     0.000 C 
BRANCH   8   9
ATOM      9  C   UNL     1       8.354   5.737 -10.564  1.00  0.00     0.000 C 
BRANCH   9  10
ATOM     10  C   UNL     1       9.031   7.120 -10.601  1.00  0.00     0.000 C 
BRANCH  10  11
ATOM     11  C   UNL     1       9.684   7.523  -9.257  1.00  0.00     0.000 C 
BRANCH  11  12
ATOM     12  C   UNL     1       9.582   9.026  -8.949  1.00  0.00     0.006 C 
BRANCH  12  13
ATOM     13  C   UNL     1       8.890   9.806 -10.076  1.00  0.00     0.053 C 
BRANCH  13  14
ATOM     14  C   UNL     1       7.592  10.376  -9.596  1.00  0.00     0.041 C 
ATOM     15  O   UNL     1       6.695  10.696 -10.421  1.00  0.00    -0.550 OA
ATOM     16  O   UNL     1       7.355  10.512  -8.234  1.00  0.00    -0.550 OA
ENDBRANCH  13  14
ENDBRANCH  12  13
ENDBRANCH  11  12
ENDBRANCH  10  11
ENDBRANCH   9  10
ENDBRANCH   8   9
ENDBRANCH   7   8
ENDBRANCH   6   7
ENDBRANCH   5   6
ENDBRANCH   4   5
ENDBRANCH   3   4
ENDBRANCH   2   3
ENDBRANCH   1   2
BRANCH   1  17
ATOM     17  C   UNL     1       8.343   2.236  -6.195  1.00  0.00     0.000 C 
BRANCH  17  18
ATOM     18  C   UNL     1       8.545   2.511  -7.699  1.00  0.00     0.000 C 
BRANCH  18  19
ATOM     19  C   UNL     1       9.029   1.303  -8.521  1.00  0.00     0.000 C 
BRANCH  19  20
ATOM     20  C   UNL     1       8.158   1.042  -9.763  1.00  0.00     0.000 C 
BRANCH  20  21
ATOM     21  C   UNL     1       7.201   2.215 -10.062  1.00  0.00     0.000 C 
BRANCH  21  22
ATOM     22  C   UNL     1       5.768   1.991  -9.547  1.00  0.00    -0.000 C 
BRANCH  22  23
ATOM     23  C   UNL     1       4.764   1.702 -10.678  1.00  0.00    -0.000 C 
BRANCH  23  24
ATOM     24  C   UNL     1       4.690   0.203 -11.035  1.00  0.00    -0.000 C 
BRANCH  24  25
ATOM     25  C   UNL     1       3.288  -0.410 -10.854  1.00  0.00    -0.000 C 
BRANCH  25  26
ATOM     26  C   UNL     1       3.191  -1.512  -9.781  1.00  0.00    -0.000 C 
BRANCH  26  27
ATOM     27  C   UNL     1       2.780  -2.901 -10.305  1.00  0.00    -0.000 C 
BRANCH  27  28
ATOM     28  C   UNL     1       3.862  -3.970 -10.077  1.00  0.00    -0.000 C 
BRANCH  28  29
ATOM     29  C   UNL     1       5.136  -3.703 -10.895  1.00  0.00    -0.003 C 
ATOM     30  C   UNL     1       6.416  -4.014 -10.118  1.00  0.00     0.004 C 
ENDBRANCH  28  29
ENDBRANCH  27  28
ENDBRANCH  26  27
ENDBRANCH  25  26
ENDBRANCH  24  25
ENDBRANCH  23  24
ENDBRANCH  22  23
ENDBRANCH  21  22
ENDBRANCH  20  21
ENDBRANCH  19  20
ENDBRANCH  18  19
ENDBRANCH  17  18
ENDBRANCH   1  17
TORSDOF 26
ENDMDL
MODEL 6
REMARK VINA RESULT:    -3.106      4.151      8.460
REMARK INTER + INTRA:         -12.289
REMARK INTER:                  -8.141
REMARK INTRA:                  -4.147
REMARK UNBOUND:                -4.462
REMARK SMILES CCCCCCCCCCCCCCCCCCCCCCCCCCCC(=O)[O-]
REMARK SMILES IDX 15 1 16 2 17 3 18 4 19 5 20 6 21 7 22 8 23 9 24 10 25 11
REMARK SMILES IDX 26 12 27 13 28 14 29 15 30 16 14 17 13 18 12 19 11 20 10 21
REMARK SMILES IDX 9 22 8 23 7 24 6 25 5 26 4 27 3 28 2 29 1 30
REMARK H PARENT
REMARK Flexibility Score: inf
ROOT
ATOM      1  C   UNL     1       7.018   4.857  -5.646  1.00  0.00     0.000 C 
ENDROOT
BRANCH   1   2
ATOM      2  C   UNL     1       6.378   6.163  -6.156  1.00  0.00     0.000 C 
BRANCH   2   3
ATOM      3  C   UNL     1       7.129   6.813  -7.339  1.00  0.00     0.000 C 
BRANCH   3   4
ATOM      4  C   UNL     1       6.247   6.979  -8.588  1.00  0.00     0.000 C 
BRANCH   4   5
ATOM      5  C   UNL     1       6.940   6.469  -9.871  1.00  0.00     0.000 C 
BRANCH   5   6
ATOM      6  C   UNL     1       6.865   7.464 -11.045  1.00  0.00     0.000 C 
BRANCH   6   7
ATOM      7  C   UNL     1       7.294   8.902 -10.700  1.00  0.00     0.000 C 
BRANCH   7   8
ATOM      8  C   UNL     1       8.737   9.275 -11.103  1.00  0.00     0.000 C 
BRANCH   8   9
ATOM      9  C   UNL     1       9.644   9.745  -9.950  1.00  0.00     0.000 C 
BRANCH   9  10
ATOM     10  C   UNL     1       9.068   9.502  -8.542  1.00  0.00     0.000 C 
BRANCH  10  11
ATOM     11  C   UNL     1       8.271  10.704  -7.984  1.00  0.00     0.000 C 
BRANCH  11  12
ATOM     12  C   UNL     1       8.998  12.051  -8.140  1.00  0.00     0.006 C 
BRANCH  12  13
ATOM     13  C   UNL     1       8.087  13.139  -8.726  1.00  0.00     0.053 C 
BRANCH  13  14
ATOM     14  C   UNL     1       8.351  13.312 -10.188  1.00  0.00     0.041 C 
ATOM     15  O   UNL     1       9.261  14.088 -10.582  1.00  0.00    -0.550 OA
ATOM     16  O   UNL     1       7.622  12.579 -11.117  1.00  0.00    -0.550 OA
ENDBRANCH  13  14
ENDBRANCH  12  13
ENDBRANCH  11  12
ENDBRANCH  10  11
ENDBRANCH   9  10
ENDBRANCH   8   9
ENDBRANCH   7   8
ENDBRANCH   6   7
ENDBRANCH   5   6
ENDBRANCH   4   5
ENDBRANCH   3   4
ENDBRANCH   2   3
ENDBRANCH   1   2
BRANCH   1  17
ATOM     17  C   UNL     1       6.043   3.685  -5.440  1.00  0.00     0.000 C 
BRANCH  17  18
ATOM     18  C   UNL     1       5.260   3.256  -6.697  1.00  0.00     0.000 C 
BRANCH  18  19
ATOM     19  C   UNL     1       6.079   3.238  -8.000  1.00  0.00     0.000 C 
BRANCH  19  20
ATOM     20  C   UNL     1       5.202   3.394  -9.255  1.00  0.00     0.000 C 
BRANCH  20  21
ATOM     21  C   UNL     1       5.218   2.129 -10.139  1.00  0.00     0.000 C 
BRANCH  21  22
ATOM     22  C   UNL     1       5.828   0.897  -9.446  1.00  0.00    -0.000 C 
BRANCH  22  23
ATOM     23  C   UNL     1       7.113   0.399 -10.131  1.00  0.00    -0.000 C 
BRANCH  23  24
ATOM     24  C   UNL     1       7.800   1.497 -10.969  1.00  0.00    -0.000 C 
BRANCH  24  25
ATOM     25  C   UNL     1       9.308   1.642 -10.685  1.00  0.00    -0.000 C 
BRANCH  25  26
ATOM     26  C   UNL     1       9.728   2.986 -10.058  1.00  0.00    -0.000 C 
BRANCH  26  27
ATOM     27  C   UNL     1       9.366   3.154  -8.571  1.00  0.00    -0.000 C 
BRANCH  27  28
ATOM     28  C   UNL     1       9.569   1.865  -7.756  1.00  0.00    -0.000 C 
BRANCH  28  29
ATOM     29  C   UNL     1       9.366   2.083  -6.249  1.00  0.00    -0.003 C 
ATOM     30  C   UNL     1       8.649   0.914  -5.571  1.00  0.00     0.004 C 
ENDBRANCH  28  29
ENDBRANCH  27  28
ENDBRANCH  26  27
ENDBRANCH  25  26
ENDBRANCH  24  25
ENDBRANCH  23  24
ENDBRANCH  22  23
ENDBRANCH  21  22
ENDBRANCH  20  21
ENDBRANCH  19  20
ENDBRANCH  18  19
ENDBRANCH  17  18
ENDBRANCH   1  17
TORSDOF 26
ENDMDL
MODEL 7
REMARK VINA RESULT:    -3.100      3.494      7.856
REMARK INTER + INTRA:         -12.273
REMARK INTER:                  -8.487
REMARK INTRA:                  -3.786
REMARK UNBOUND:                -4.462
REMARK SMILES CCCCCCCCCCCCCCCCCCCCCCCCCCCC(=O)[O-]
REMARK SMILES IDX 15 1 16 2 17 3 18 4 19 5 20 6 21 7 22 8 23 9 24 10 25 11
REMARK SMILES IDX 26 12 27 13 28 14 29 15 30 16 14 17 13 18 12 19 11 20 10 21
REMARK SMILES IDX 9 22 8 23 7 24 6 25 5 26 4 27 3 28 2 29 1 30
REMARK H PARENT
REMARK Flexibility Score: inf
ROOT
ATOM      1  C   UNL     1       4.581   2.224  -9.346  1.00  0.00     0.000 C 
ENDROOT
BRANCH   1   2
ATOM      2  C   UNL     1       3.722   3.444  -9.733  1.00  0.00     0.000 C 
BRANCH   2   3
ATOM      3  C   UNL     1       4.050   4.028 -11.125  1.00  0.00     0.000 C 
BRANCH   3   4
ATOM      4  C   UNL     1       5.314   4.905 -11.122  1.00  0.00     0.000 C 
BRANCH   4   5
ATOM      5  C   UNL     1       4.993   6.400 -10.896  1.00  0.00     0.000 C 
BRANCH   5   6
ATOM      6  C   UNL     1       5.720   7.006  -9.680  1.00  0.00     0.000 C 
BRANCH   6   7
ATOM      7  C   UNL     1       6.581   6.010  -8.881  1.00  0.00     0.000 C 
BRANCH   7   8
ATOM      8  C   UNL     1       8.099   6.289  -8.898  1.00  0.00     0.000 C 
BRANCH   8   9
ATOM      9  C   UNL     1       8.716   6.494 -10.294  1.00  0.00     0.000 C 
BRANCH   9  10
ATOM     10  C   UNL     1       9.565   7.771 -10.438  1.00  0.00     0.000 C 
BRANCH  10  11
ATOM     11  C   UNL     1       8.981   8.989  -9.683  1.00  0.00     0.000 C 
BRANCH  11  12
ATOM     12  C   UNL     1       7.980   9.808 -10.515  1.00  0.00     0.006 C 
BRANCH  12  13
ATOM     13  C   UNL     1       7.210  10.825  -9.661  1.00  0.00     0.053 C 
BRANCH  13  14
ATOM     14  C   UNL     1       7.536  10.646  -8.211  1.00  0.00     0.041 C 
ATOM     15  O   UNL     1       6.780   9.964  -7.469  1.00  0.00    -0.550 OA
ATOM     16  O   UNL     1       8.701  11.194  -7.690  1.00  0.00    -0.550 OA
ENDBRANCH  13  14
ENDBRANCH  12  13
ENDBRANCH  11  12
ENDBRANCH  10  11
ENDBRANCH   9  10
ENDBRANCH   8   9
ENDBRANCH   7   8
ENDBRANCH   6   7
ENDBRANCH   5   6
ENDBRANCH   4   5
ENDBRANCH   3   4
ENDBRANCH   2   3
ENDBRANCH   1   2
BRANCH   1  17
ATOM     17  C   UNL     1       5.020   1.331 -10.520  1.00  0.00     0.000 C 
BRANCH  17  18
ATOM     18  C   UNL     1       6.467   0.804 -10.436  1.00  0.00     0.000 C 
BRANCH  18  19
ATOM     19  C   UNL     1       7.551   1.806 -10.875  1.00  0.00     0.000 C 
BRANCH  19  20
ATOM     20  C   UNL     1       8.060   2.676  -9.712  1.00  0.00     0.000 C 
BRANCH  20  21
ATOM     21  C   UNL     1       9.590   2.581  -9.537  1.00  0.00     0.000 C 
BRANCH  21  22
ATOM     22  C   UNL     1      10.086   1.166  -9.189  1.00  0.00    -0.000 C 
BRANCH  22  23
ATOM     23  C   UNL     1       9.646   0.704  -7.788  1.00  0.00    -0.000 C 
BRANCH  23  24
ATOM     24  C   UNL     1       9.935   1.760  -6.700  1.00  0.00    -0.000 C 
BRANCH  24  25
ATOM     25  C   UNL     1       8.992   1.672  -5.484  1.00  0.00    -0.000 C 
BRANCH  25  26
ATOM     26  C   UNL     1       9.062   2.871  -4.518  1.00  0.00    -0.000 C 
BRANCH  26  27
ATOM     27  C   UNL     1       7.705   3.519  -4.182  1.00  0.00    -0.000 C 
BRANCH  27  28
ATOM     28  C   UNL     1       7.259   4.551  -5.232  1.00  0.00    -0.000 C 
BRANCH  28  29
ATOM     29  C   UNL     1       6.183   3.999  -6.181  1.00  0.00    -0.003 C 
ATOM     30  C   UNL     1       5.271   2.971  -5.510  1.00  0.00     0.004 C 
ENDBRANCH  28  29
ENDBRANCH  27  28
ENDBRANCH  26  27
ENDBRANCH  25  26
ENDBRANCH  24  25
ENDBRANCH  23  24
ENDBRANCH  22  23
ENDBRANCH  21  22
ENDBRANCH  20  21
ENDBRANCH  19  20
ENDBRANCH  18  19
ENDBRANCH  17  18
ENDBRANCH   1  17
TORSDOF 26
ENDMDL
MODEL 8
REMARK VINA RESULT:    -3.002      3.529      7.960
REMARK INTER + INTRA:         -12.028
REMARK INTER:                  -8.165
REMARK INTRA:                  -3.864
REMARK UNBOUND:                -4.462
REMARK SMILES CCCCCCCCCCCCCCCCCCCCCCCCCCCC(=O)[O-]
REMARK SMILES IDX 15 1 16 2 17 3 18 4 19 5 20 6 21 7 22 8 23 9 24 10 25 11
REMARK SMILES IDX 26 12 27 13 28 14 29 15 30 16 14 17 13 18 12 19 11 20 10 21
REMARK SMILES IDX 9 22 8 23 7 24 6 25 5 26 4 27 3 28 2 29 1 30
REMARK H PARENT
REMARK Flexibility Score: inf
ROOT
ATOM      1  C   UNL     1       5.985   3.972  -5.693  1.00  0.00     0.000 C 
ENDROOT
BRANCH   1   2
ATOM      2  C   UNL     1       6.868   2.837  -5.139  1.00  0.00     0.000 C 
BRANCH   2   3
ATOM      3  C   UNL     1       8.133   2.556  -5.980  1.00  0.00     0.000 C 
BRANCH   3   4
ATOM      4  C   UNL     1       7.830   1.784  -7.275  1.00  0.00     0.000 C 
BRANCH   4   5
ATOM      5  C   UNL     1       9.112   1.276  -7.972  1.00  0.00     0.000 C 
BRANCH   5   6
ATOM      6  C   UNL     1       8.869   0.767  -9.406  1.00  0.00     0.000 C 
BRANCH   6   7
ATOM      7  C   UNL     1       9.529   1.612 -10.511  1.00  0.00     0.000 C 
BRANCH   7   8
ATOM      8  C   UNL     1       8.736   2.864 -10.947  1.00  0.00     0.000 C 
BRANCH   8   9
ATOM      9  C   UNL     1       9.572   4.145 -11.125  1.00  0.00     0.000 C 
BRANCH   9  10
ATOM     10  C   UNL     1       9.405   5.180  -9.996  1.00  0.00     0.000 C 
BRANCH  10  11
ATOM     11  C   UNL     1       9.047   6.596 -10.506  1.00  0.00     0.000 C 
BRANCH  11  12
ATOM     12  C   UNL     1       9.213   7.695  -9.442  1.00  0.00     0.006 C 
BRANCH  12  13
ATOM     13  C   UNL     1       7.932   8.520  -9.254  1.00  0.00     0.053 C 
BRANCH  13  14
ATOM     14  C   UNL     1       8.023   9.353  -8.015  1.00  0.00     0.041 C 
ATOM     15  O   UNL     1       9.054   9.309  -7.293  1.00  0.00    -0.550 OA
ATOM     16  O   UNL     1       6.985  10.215  -7.680  1.00  0.00    -0.550 OA
ENDBRANCH  13  14
ENDBRANCH  12  13
ENDBRANCH  11  12
ENDBRANCH  10  11
ENDBRANCH   9  10
ENDBRANCH   8   9
ENDBRANCH   7   8
ENDBRANCH   6   7
ENDBRANCH   5   6
ENDBRANCH   4   5
ENDBRANCH   3   4
ENDBRANCH   2   3
ENDBRANCH   1   2
BRANCH   1  17
ATOM     17  C   UNL     1       6.711   5.305  -5.946  1.00  0.00     0.000 C 
BRANCH  17  18
ATOM     18  C   UNL     1       6.672   5.806  -7.404  1.00  0.00     0.000 C 
BRANCH  18  19
ATOM     19  C   UNL     1       6.159   4.780  -8.431  1.00  0.00     0.000 C 
BRANCH  19  20
ATOM     20  C   UNL     1       5.671   5.438  -9.734  1.00  0.00     0.000 C 
BRANCH  20  21
ATOM     21  C   UNL     1       5.354   4.398 -10.829  1.00  0.00     0.000 C 
BRANCH  21  22
ATOM     22  C   UNL     1       3.914   3.857 -10.770  1.00  0.00    -0.000 C 
BRANCH  22  23
ATOM     23  C   UNL     1       3.850   2.319 -10.788  1.00  0.00    -0.000 C 
BRANCH  23  24
ATOM     24  C   UNL     1       4.997   1.671  -9.985  1.00  0.00    -0.000 C 
BRANCH  24  25
ATOM     25  C   UNL     1       5.552   0.383 -10.624  1.00  0.00    -0.000 C 
BRANCH  25  26
ATOM     26  C   UNL     1       4.928  -0.926 -10.101  1.00  0.00    -0.000 C 
BRANCH  26  27
ATOM     27  C   UNL     1       5.130  -2.155 -11.008  1.00  0.00    -0.000 C 
BRANCH  27  28
ATOM     28  C   UNL     1       5.133  -3.480 -10.226  1.00  0.00    -0.000 C 
BRANCH  28  29
ATOM     29  C   UNL     1       6.537  -4.094 -10.114  1.00  0.00    -0.003 C 
ATOM     30  C   UNL     1       6.508  -5.577  -9.740  1.00  0.00     0.004 C 
ENDBRANCH  28  29
ENDBRANCH  27  28
ENDBRANCH  26  27
ENDBRANCH  25  26
ENDBRANCH  24  25
ENDBRANCH  23  24
ENDBRANCH  22  23
ENDBRANCH  21  22
ENDBRANCH  20  21
ENDBRANCH  19  20
ENDBRANCH  18  19
ENDBRANCH  17  18
ENDBRANCH   1  17
TORSDOF 26
ENDMDL
