MODEL 1
REMARK VINA RESULT:    -5.094      0.000      0.000
REMARK INTER + INTRA:         -14.282
REMARK INTER:                 -11.051
REMARK INTRA:                  -3.232
REMARK UNBOUND:                -3.232
REMARK SMILES CCCCCCCCCCCCCCCCCCCCCC(=O)[O-]
REMARK SMILES IDX 12 1 11 2 10 3 9 4 8 5 7 6 6 7 5 8 4 9 3 10 2 11 1 12 13 13
REMARK SMILES IDX 14 14 15 15 16 16 17 17 18 18 19 19 20 20 21 21 22 22 23 23
REMARK SMILES IDX 24 24
REMARK H PARENT
REMARK Flexibility Score: inf
ROOT
ATOM      1  C   UNL     1      22.261  11.783  31.969  1.00  0.00     0.000 C 
ENDROOT
BRANCH   1   2
ATOM      2  C   UNL     1      21.160  10.910  32.591  1.00  0.00     0.000 C 
BRANCH   2   3
ATOM      3  C   UNL     1      19.824  11.115  31.868  1.00  0.00     0.000 C 
BRANCH   3   4
ATOM      4  C   UNL     1      19.735  12.523  31.260  1.00  0.00    -0.000 C 
BRANCH   4   5
ATOM      5  C   UNL     1      19.118  13.544  32.227  1.00  0.00    -0.000 C 
BRANCH   5   6
ATOM      6  C   UNL     1      20.168  14.492  32.832  1.00  0.00    -0.000 C 
BRANCH   6   7
ATOM      7  C   UNL     1      20.453  14.194  34.316  1.00  0.00    -0.000 C 
BRANCH   7   8
ATOM      8  C   UNL     1      19.413  13.294  35.013  1.00  0.00    -0.000 C 
BRANCH   8   9
ATOM      9  C   UNL     1      19.991  12.249  35.986  1.00  0.00    -0.000 C 
BRANCH   9  10
ATOM     10  C   UNL     1      19.303  10.878  35.868  1.00  0.00    -0.000 C 
BRANCH  10  11
ATOM     11  C   UNL     1      20.301   9.712  35.948  1.00  0.00    -0.003 C 
ATOM     12  C   UNL     1      19.702   8.461  36.592  1.00  0.00     0.004 C 
ENDBRANCH  10  11
ENDBRANCH   9  10
ENDBRANCH   8   9
ENDBRANCH   7   8
ENDBRANCH   6   7
ENDBRANCH   5   6
ENDBRANCH   4   5
ENDBRANCH   3   4
ENDBRANCH   2   3
ENDBRANCH   1   2
BRANCH   1  13
ATOM     13  C   UNL     1      23.313  12.232  32.997  1.00  0.00     0.000 C 
BRANCH  13  14
ATOM     14  C   UNL     1      23.198  11.474  34.331  1.00  0.00     0.000 C 
BRANCH  14  15
ATOM     15  C   UNL     1      23.540  12.361  35.540  1.00  0.00     0.000 C 
BRANCH  15  16
ATOM     16  C   UNL     1      25.039  12.328  35.889  1.00  0.00     0.000 C 
BRANCH  16  17
ATOM     17  C   UNL     1      25.753  11.080  35.339  1.00  0.00     0.000 C 
BRANCH  17  18
ATOM     18  C   UNL     1      27.202  11.309  34.872  1.00  0.00     0.000 C 
BRANCH  18  19
ATOM     19  C   UNL     1      27.612  12.789  34.903  1.00  0.00     0.000 C 
BRANCH  19  20
ATOM     20  C   UNL     1      27.697  13.364  33.481  1.00  0.00     0.006 C 
BRANCH  20  21
ATOM     21  C   UNL     1      26.980  12.478  32.452  1.00  0.00     0.053 C 
BRANCH  21  22
ATOM     22  C   UNL     1      27.912  12.007  31.380  1.00  0.00     0.041 C 
ATOM     23  O   UNL     1      27.813  10.841  30.919  1.00  0.00    -0.550 OA
ATOM     24  O   UNL     1      28.870  12.870  30.862  1.00  0.00    -0.550 OA
ENDBRANCH  21  22
ENDBRANCH  20  21
ENDBRANCH  19  20
ENDBRANCH  18  19
ENDBRANCH  17  18
ENDBRANCH  16  17
ENDBRANCH  15  16
ENDBRANCH  14  15
ENDBRANCH  13  14
ENDBRANCH   1  13
TORSDOF 20
ENDMDL
MODEL 2
REMARK VINA RESULT:    -4.948      1.463      2.672
REMARK INTER + INTRA:         -13.964
REMARK INTER:                 -11.043
REMARK INTRA:                  -2.921
REMARK UNBOUND:                -3.232
REMARK SMILES CCCCCCCCCCCCCCCCCCCCCC(=O)[O-]
REMARK SMILES IDX 12 1 11 2 10 3 9 4 8 5 7 6 6 7 5 8 4 9 3 10 2 11 1 12 13 13
REMARK SMILES IDX 14 14 15 15 16 16 17 17 18 18 19 19 20 20 21 21 22 22 23 23
REMARK SMILES IDX 24 24
REMARK H PARENT
REMARK Flexibility Score: inf
ROOT
ATOM      1  C   UNL     1      20.506  13.732  35.268  1.00  0.00     0.000 C 
ENDROOT
BRANCH   1   2
ATOM      2  C   UNL     1      19.419  12.933  36.004  1.00  0.00     0.000 C 
BRANCH   2   3
ATOM      3  C   UNL     1      18.241  12.623  35.074  1.00  0.00     0.000 C 
BRANCH   3   4
ATOM      4  C   UNL     1      18.360  13.397  33.753  1.00  0.00    -0.000 C 
BRANCH   4   5
ATOM      5  C   UNL     1      18.495  12.470  32.536  1.00  0.00    -0.000 C 
BRANCH   5   6
ATOM      6  C   UNL     1      18.470  10.981  32.923  1.00  0.00    -0.000 C 
BRANCH   6   7
ATOM      7  C   UNL     1      19.808  10.271  32.645  1.00  0.00    -0.000 C 
BRANCH   7   8
ATOM      8  C   UNL     1      20.406   9.510  33.847  1.00  0.00    -0.000 C 
BRANCH   8   9
ATOM      9  C   UNL     1      19.386   9.023  34.893  1.00  0.00    -0.000 C 
BRANCH   9  10
ATOM     10  C   UNL     1      19.865   9.238  36.339  1.00  0.00    -0.000 C 
BRANCH  10  11
ATOM     11  C   UNL     1      19.419   8.107  37.279  1.00  0.00    -0.003 C 
ATOM     12  C   UNL     1      18.368   7.192  36.649  1.00  0.00     0.004 C 
ENDBRANCH  10  11
ENDBRANCH   9  10
ENDBRANCH   8   9
ENDBRANCH   7   8
ENDBRANCH   6   7
ENDBRANCH   5   6
ENDBRANCH   4   5
ENDBRANCH   3   4
ENDBRANCH   2   3
ENDBRANCH   1   2
BRANCH   1  13
ATOM     13  C   UNL     1      21.650  12.843  34.755  1.00  0.00     0.000 C 
BRANCH  13  14
ATOM     14  C   UNL     1      22.258  11.964  35.861  1.00  0.00     0.000 C 
BRANCH  14  15
ATOM     15  C   UNL     1      23.431  11.108  35.353  1.00  0.00     0.000 C 
BRANCH  15  16
ATOM     16  C   UNL     1      24.205  11.790  34.211  1.00  0.00     0.000 C 
BRANCH  16  17
ATOM     17  C   UNL     1      25.592  12.295  34.649  1.00  0.00     0.000 C 
BRANCH  17  18
ATOM     18  C   UNL     1      26.628  11.193  34.935  1.00  0.00     0.000 C 
BRANCH  18  19
ATOM     19  C   UNL     1      27.980  11.452  34.254  1.00  0.00     0.000 C 
BRANCH  19  20
ATOM     20  C   UNL     1      27.921  12.716  33.382  1.00  0.00     0.006 C 
BRANCH  20  21
ATOM     21  C   UNL     1      28.325  12.436  31.927  1.00  0.00     0.053 C 
BRANCH  21  22
ATOM     22  C   UNL     1      27.271  11.661  31.198  1.00  0.00     0.041 C 
ATOM     23  O   UNL     1      26.104  12.120  31.091  1.00  0.00    -0.550 OA
ATOM     24  O   UNL     1      27.588  10.446  30.605  1.00  0.00    -0.550 OA
ENDBRANCH  21  22
ENDBRANCH  20  21
ENDBRANCH  19  20
ENDBRANCH  18  19
ENDBRANCH  17  18
ENDBRANCH  16  17
ENDBRANCH  15  16
ENDBRANCH  14  15
ENDBRANCH  13  14
ENDBRANCH   1  13
TORSDOF 20
ENDMDL
MODEL 3
REMARK VINA RESULT:    -4.931      1.131      3.302
REMARK INTER + INTRA:         -13.928
REMARK INTER:                 -10.947
REMARK INTRA:                  -2.981
REMARK UNBOUND:                -3.232
REMARK SMILES CCCCCCCCCCCCCCCCCCCCCC(=O)[O-]
REMARK SMILES IDX 12 1 11 2 10 3 9 4 8 5 7 6 6 7 5 8 4 9 3 10 2 11 1 12 13 13
REMARK SMILES IDX 14 14 15 15 16 16 17 17 18 18 19 19 20 20 21 21 22 22 23 23
REMARK SMILES IDX 24 24
REMARK H PARENT
REMARK Flexibility Score: inf
ROOT
ATOM      1  C   UNL     1      21.933  10.405  35.543  1.00  0.00     0.000 C 
ENDROOT
BRANCH   1   2
ATOM      2  C   UNL     1      20.604   9.643  35.421  1.00  0.00     0.000 C 
BRANCH   2   3
ATOM      3  C   UNL     1      19.437  10.609  35.184  1.00  0.00     0.000 C 
BRANCH   3   4
ATOM      4  C   UNL     1      19.374  11.682  36.282  1.00  0.00    -0.000 C 
BRANCH   4   5
ATOM      5  C   UNL     1      19.178  13.095  35.714  1.00  0.00    -0.000 C 
BRANCH   5   6
ATOM      6  C   UNL     1      20.511  13.806  35.424  1.00  0.00    -0.000 C 
BRANCH   6   7
ATOM      7  C   UNL     1      20.591  14.358  33.988  1.00  0.00    -0.000 C 
BRANCH   7   8
ATOM      8  C   UNL     1      19.376  14.033  33.095  1.00  0.00    -0.000 C 
BRANCH   8   9
ATOM      9  C   UNL     1      19.706  13.715  31.624  1.00  0.00    -0.000 C 
BRANCH   9  10
ATOM     10  C   UNL     1      20.683  12.536  31.473  1.00  0.00    -0.000 C 
BRANCH  10  11
ATOM     11  C   UNL     1      21.989  12.943  30.772  1.00  0.00    -0.003 C 
ATOM     12  C   UNL     1      22.786  11.743  30.260  1.00  0.00     0.004 C 
ENDBRANCH  10  11
ENDBRANCH   9  10
ENDBRANCH   8   9
ENDBRANCH   7   8
ENDBRANCH   6   7
ENDBRANCH   5   6
ENDBRANCH   4   5
ENDBRANCH   3   4
ENDBRANCH   2   3
ENDBRANCH   1   2
BRANCH   1  13
ATOM     13  C   UNL     1      22.353  11.078  34.226  1.00  0.00     0.000 C 
BRANCH  13  14
ATOM     14  C   UNL     1      23.608  11.954  34.384  1.00  0.00     0.000 C 
BRANCH  14  15
ATOM     15  C   UNL     1      24.335  11.704  35.716  1.00  0.00     0.000 C 
BRANCH  15  16
ATOM     16  C   UNL     1      25.037  12.965  36.250  1.00  0.00     0.000 C 
BRANCH  16  17
ATOM     17  C   UNL     1      26.303  13.327  35.452  1.00  0.00     0.000 C 
BRANCH  17  18
ATOM     18  C   UNL     1      27.412  12.260  35.469  1.00  0.00     0.000 C 
BRANCH  18  19
ATOM     19  C   UNL     1      28.032  12.020  34.085  1.00  0.00     0.000 C 
BRANCH  19  20
ATOM     20  C   UNL     1      26.988  11.463  33.105  1.00  0.00     0.006 C 
BRANCH  20  21
ATOM     21  C   UNL     1      26.910  12.282  31.810  1.00  0.00     0.053 C 
BRANCH  21  22
ATOM     22  C   UNL     1      28.031  11.950  30.875  1.00  0.00     0.041 C 
ATOM     23  O   UNL     1      28.926  12.799  30.629  1.00  0.00    -0.550 OA
ATOM     24  O   UNL     1      28.108  10.687  30.303  1.00  0.00    -0.550 OA
ENDBRANCH  21  22
ENDBRANCH  20  21
ENDBRANCH  19  20
ENDBRANCH  18  19
ENDBRANCH  17  18
ENDBRANCH  16  17
ENDBRANCH  15  16
ENDBRANCH  14  15
ENDBRANCH  13  14
ENDBRANCH   1  13
TORSDOF 20
ENDMDL
MODEL 4
REMARK VINA RESULT:    -4.909      1.112      2.909
REMARK INTER + INTRA:         -13.880
REMARK INTER:                 -10.258
REMARK INTRA:                  -3.623
REMARK UNBOUND:                -3.232
REMARK SMILES CCCCCCCCCCCCCCCCCCCCCC(=O)[O-]
REMARK SMILES IDX 12 1 11 2 10 3 9 4 8 5 7 6 6 7 5 8 4 9 3 10 2 11 1 12 13 13
REMARK SMILES IDX 14 14 15 15 16 16 17 17 18 18 19 19 20 20 21 21 22 22 23 23
REMARK SMILES IDX 24 24
REMARK H PARENT
REMARK Flexibility Score: inf
ROOT
ATOM      1  C   UNL     1      20.211  11.039  35.909  1.00  0.00     0.000 C 
ENDROOT
BRANCH   1   2
ATOM      2  C   UNL     1      18.989  11.204  34.992  1.00  0.00     0.000 C 
BRANCH   2   3
ATOM      3  C   UNL     1      18.674  12.686  34.759  1.00  0.00     0.000 C 
BRANCH   3   4
ATOM      4  C   UNL     1      19.784  13.583  35.326  1.00  0.00    -0.000 C 
BRANCH   4   5
ATOM      5  C   UNL     1      20.602  14.275  34.226  1.00  0.00    -0.000 C 
BRANCH   5   6
ATOM      6  C   UNL     1      19.908  14.223  32.854  1.00  0.00    -0.000 C 
BRANCH   6   7
ATOM      7  C   UNL     1      20.788  13.579  31.766  1.00  0.00    -0.000 C 
BRANCH   7   8
ATOM      8  C   UNL     1      21.817  12.551  32.282  1.00  0.00    -0.000 C 
BRANCH   8   9
ATOM      9  C   UNL     1      21.441  11.074  32.061  1.00  0.00    -0.000 C 
BRANCH   9  10
ATOM     10  C   UNL     1      20.421  10.882  30.924  1.00  0.00    -0.000 C 
BRANCH  10  11
ATOM     11  C   UNL     1      19.148  10.159  31.395  1.00  0.00    -0.003 C 
ATOM     12  C   UNL     1      19.447   8.908  32.221  1.00  0.00     0.004 C 
ENDBRANCH  10  11
ENDBRANCH   9  10
ENDBRANCH   8   9
ENDBRANCH   7   8
ENDBRANCH   6   7
ENDBRANCH   5   6
ENDBRANCH   4   5
ENDBRANCH   3   4
ENDBRANCH   2   3
ENDBRANCH   1   2
BRANCH   1  13
ATOM     13  C   UNL     1      21.212   9.998  35.382  1.00  0.00     0.000 C 
BRANCH  13  14
ATOM     14  C   UNL     1      22.675  10.404  35.633  1.00  0.00     0.000 C 
BRANCH  14  15
ATOM     15  C   UNL     1      22.826  11.910  35.912  1.00  0.00     0.000 C 
BRANCH  15  16
ATOM     16  C   UNL     1      24.018  12.530  35.162  1.00  0.00     0.000 C 
BRANCH  16  17
ATOM     17  C   UNL     1      24.882  11.480  34.440  1.00  0.00     0.000 C 
BRANCH  17  18
ATOM     18  C   UNL     1      26.212  11.139  35.135  1.00  0.00     0.000 C 
BRANCH  18  19
ATOM     19  C   UNL     1      27.115  12.365  35.334  1.00  0.00     0.000 C 
BRANCH  19  20
ATOM     20  C   UNL     1      27.454  13.020  33.986  1.00  0.00     0.006 C 
BRANCH  20  21
ATOM     21  C   UNL     1      28.401  12.156  33.142  1.00  0.00     0.053 C 
BRANCH  21  22
ATOM     22  C   UNL     1      27.984  12.117  31.704  1.00  0.00     0.041 C 
ATOM     23  O   UNL     1      26.951  11.486  31.360  1.00  0.00    -0.550 OA
ATOM     24  O   UNL     1      28.716  12.810  30.749  1.00  0.00    -0.550 OA
ENDBRANCH  21  22
ENDBRANCH  20  21
ENDBRANCH  19  20
ENDBRANCH  18  19
ENDBRANCH  17  18
ENDBRANCH  16  17
ENDBRANCH  15  16
ENDBRANCH  14  15
ENDBRANCH  13  14
ENDBRANCH   1  13
TORSDOF 20
ENDMDL
MODEL 5
REMARK VINA RESULT:    -4.802      3.147      7.502
REMARK INTER + INTRA:         -13.649
REMARK INTER:                 -10.666
REMARK INTRA:                  -2.983
REMARK UNBOUND:                -3.232
REMARK SMILES CCCCCCCCCCCCCCCCCCCCCC(=O)[O-]
REMARK SMILES IDX 12 1 11 2 10 3 9 4 8 5 7 6 6 7 5 8 4 9 3 10 2 11 1 12 13 13
REMARK SMILES IDX 14 14 15 15 16 16 17 17 18 18 19 19 20 20 21 21 22 22 23 23
REMARK SMILES IDX 24 24
REMARK H PARENT
REMARK Flexibility Score: inf
ROOT
ATOM      1  C   UNL     1      21.410   9.661  35.470  1.00  0.00     0.000 C 
ENDROOT
BRANCH   1   2
ATOM      2  C   UNL     1      22.003  11.014  35.894  1.00  0.00     0.000 C 
BRANCH   2   3
ATOM      3  C   UNL     1      23.445  11.162  35.395  1.00  0.00     0.000 C 
BRANCH   3   4
ATOM      4  C   UNL     1      24.072  12.472  35.894  1.00  0.00    -0.000 C 
BRANCH   4   5
ATOM      5  C   UNL     1      25.571  12.567  35.574  1.00  0.00    -0.000 C 
BRANCH   5   6
ATOM      6  C   UNL     1      26.056  11.420  34.670  1.00  0.00    -0.000 C 
BRANCH   6   7
ATOM      7  C   UNL     1      27.563  11.142  34.819  1.00  0.00    -0.000 C 
BRANCH   7   8
ATOM      8  C   UNL     1      28.471  11.925  33.848  1.00  0.00    -0.000 C 
BRANCH   8   9
ATOM      9  C   UNL     1      27.735  12.722  32.755  1.00  0.00    -0.000 C 
BRANCH   9  10
ATOM     10  C   UNL     1      27.906  12.110  31.353  1.00  0.00    -0.000 C 
BRANCH  10  11
ATOM     11  C   UNL     1      26.570  11.977  30.605  1.00  0.00    -0.003 C 
ATOM     12  C   UNL     1      25.408  12.643  31.342  1.00  0.00     0.004 C 
ENDBRANCH  10  11
ENDBRANCH   9  10
ENDBRANCH   8   9
ENDBRANCH   7   8
ENDBRANCH   6   7
ENDBRANCH   5   6
ENDBRANCH   4   5
ENDBRANCH   3   4
ENDBRANCH   2   3
ENDBRANCH   1   2
BRANCH   1  13
ATOM     13  C   UNL     1      19.873   9.656  35.486  1.00  0.00     0.000 C 
BRANCH  13  14
ATOM     14  C   UNL     1      19.266   9.882  34.090  1.00  0.00     0.000 C 
BRANCH  14  15
ATOM     15  C   UNL     1      20.167   9.345  32.965  1.00  0.00     0.000 C 
BRANCH  15  16
ATOM     16  C   UNL     1      20.449  10.401  31.881  1.00  0.00     0.000 C 
BRANCH  16  17
ATOM     17  C   UNL     1      21.745  11.191  32.139  1.00  0.00     0.000 C 
BRANCH  17  18
ATOM     18  C   UNL     1      21.546  12.679  32.476  1.00  0.00     0.000 C 
BRANCH  18  19
ATOM     19  C   UNL     1      20.196  13.227  31.989  1.00  0.00     0.000 C 
BRANCH  19  20
ATOM     20  C   UNL     1      19.577  14.169  33.033  1.00  0.00     0.006 C 
BRANCH  20  21
ATOM     21  C   UNL     1      18.737  13.413  34.071  1.00  0.00     0.053 C 
BRANCH  21  22
ATOM     22  C   UNL     1      19.357  13.468  35.433  1.00  0.00     0.041 C 
ATOM     23  O   UNL     1      20.507  13.955  35.588  1.00  0.00    -0.550 OA
ATOM     24  O   UNL     1      18.650  13.013  36.538  1.00  0.00    -0.550 OA
ENDBRANCH  21  22
ENDBRANCH  20  21
ENDBRANCH  19  20
ENDBRANCH  18  19
ENDBRANCH  17  18
ENDBRANCH  16  17
ENDBRANCH  15  16
ENDBRANCH  14  15
ENDBRANCH  13  14
ENDBRANCH   1  13
TORSDOF 20
ENDMDL
MODEL 6
REMARK VINA RESULT:    -4.773      1.685      3.660
REMARK INTER + INTRA:         -13.586
REMARK INTER:                 -10.886
REMARK INTRA:                  -2.700
REMARK UNBOUND:                -3.232
REMARK SMILES CCCCCCCCCCCCCCCCCCCCCC(=O)[O-]
REMARK SMILES IDX 12 1 11 2 10 3 9 4 8 5 7 6 6 7 5 8 4 9 3 10 2 11 1 12 13 13
REMARK SMILES IDX 14 14 15 15 16 16 17 17 18 18 19 19 20 20 21 21 22 22 23 23
REMARK SMILES IDX 24 24
REMARK H PARENT
REMARK Flexibility Score: inf
ROOT
ATOM      1  C   UNL     1      23.553  10.778  35.681  1.00  0.00     0.000 C 
ENDROOT
BRANCH   1   2
ATOM      2  C   UNL     1      22.036  10.654  35.893  1.00  0.00     0.000 C 
BRANCH   2   3
ATOM      3  C   UNL     1      21.344  10.155  34.620  1.00  0.00     0.000 C 
BRANCH   3   4
ATOM      4  C   UNL     1      19.819  10.310  34.721  1.00  0.00    -0.000 C 
BRANCH   4   5
ATOM      5  C   UNL     1      19.397  11.241  35.868  1.00  0.00    -0.000 C 
BRANCH   5   6
ATOM      6  C   UNL     1      18.941  12.623  35.369  1.00  0.00    -0.000 C 
BRANCH   6   7
ATOM      7  C   UNL     1      20.024  13.705  35.542  1.00  0.00    -0.000 C 
BRANCH   7   8
ATOM      8  C   UNL     1      20.842  14.020  34.272  1.00  0.00    -0.000 C 
BRANCH   8   9
ATOM      9  C   UNL     1      20.290  13.418  32.966  1.00  0.00    -0.000 C 
BRANCH   9  10
ATOM     10  C   UNL     1      21.369  12.693  32.142  1.00  0.00    -0.000 C 
BRANCH  10  11
ATOM     11  C   UNL     1      21.406  13.168  30.680  1.00  0.00    -0.003 C 
ATOM     12  C   UNL     1      20.704  14.510  30.473  1.00  0.00     0.004 C 
ENDBRANCH  10  11
ENDBRANCH   9  10
ENDBRANCH   8   9
ENDBRANCH   7   8
ENDBRANCH   6   7
ENDBRANCH   5   6
ENDBRANCH   4   5
ENDBRANCH   3   4
ENDBRANCH   2   3
ENDBRANCH   1   2
BRANCH   1  13
ATOM     13  C   UNL     1      23.986  12.208  35.317  1.00  0.00     0.000 C 
BRANCH  13  14
ATOM     14  C   UNL     1      25.174  12.699  36.162  1.00  0.00     0.000 C 
BRANCH  14  15
ATOM     15  C   UNL     1      26.031  13.739  35.419  1.00  0.00     0.000 C 
BRANCH  15  16
ATOM     16  C   UNL     1      27.487  13.276  35.230  1.00  0.00     0.000 C 
BRANCH  16  17
ATOM     17  C   UNL     1      27.600  11.770  34.931  1.00  0.00     0.000 C 
BRANCH  17  18
ATOM     18  C   UNL     1      28.119  11.422  33.524  1.00  0.00     0.000 C 
BRANCH  18  19
ATOM     19  C   UNL     1      28.320  12.660  32.638  1.00  0.00     0.000 C 
BRANCH  19  20
ATOM     20  C   UNL     1      28.185  12.297  31.151  1.00  0.00     0.006 C 
BRANCH  20  21
ATOM     21  C   UNL     1      26.806  11.711  30.818  1.00  0.00     0.053 C 
BRANCH  21  22
ATOM     22  C   UNL     1      25.714  12.716  31.018  1.00  0.00     0.041 C 
ATOM     23  O   UNL     1      24.901  12.589  31.971  1.00  0.00    -0.550 OA
ATOM     24  O   UNL     1      25.615  13.814  30.174  1.00  0.00    -0.550 OA
ENDBRANCH  21  22
ENDBRANCH  20  21
ENDBRANCH  19  20
ENDBRANCH  18  19
ENDBRANCH  17  18
ENDBRANCH  16  17
ENDBRANCH  15  16
ENDBRANCH  14  15
ENDBRANCH  13  14
ENDBRANCH   1  13
TORSDOF 20
ENDMDL
MODEL 7
REMARK VINA RESULT:    -4.764      2.191      3.393
REMARK INTER + INTRA:         -13.565
REMARK INTER:                 -10.922
REMARK INTRA:                  -2.643
REMARK UNBOUND:                -3.232
REMARK SMILES CCCCCCCCCCCCCCCCCCCCCC(=O)[O-]
REMARK SMILES IDX 12 1 11 2 10 3 9 4 8 5 7 6 6 7 5 8 4 9 3 10 2 11 1 12 13 13
REMARK SMILES IDX 14 14 15 15 16 16 17 17 18 18 19 19 20 20 21 21 22 22 23 23
REMARK SMILES IDX 24 24
REMARK H PARENT
REMARK Flexibility Score: inf
ROOT
ATOM      1  C   UNL     1      23.135  12.151  32.431  1.00  0.00     0.000 C 
ENDROOT
BRANCH   1   2
ATOM      2  C   UNL     1      22.249  11.916  31.198  1.00  0.00     0.000 C 
BRANCH   2   3
ATOM      3  C   UNL     1      20.785  12.255  31.502  1.00  0.00     0.000 C 
BRANCH   3   4
ATOM      4  C   UNL     1      20.629  13.733  31.892  1.00  0.00    -0.000 C 
BRANCH   4   5
ATOM      5  C   UNL     1      19.801  13.920  33.172  1.00  0.00    -0.000 C 
BRANCH   5   6
ATOM      6  C   UNL     1      20.667  14.305  34.384  1.00  0.00    -0.000 C 
BRANCH   6   7
ATOM      7  C   UNL     1      20.526  13.313  35.554  1.00  0.00    -0.000 C 
BRANCH   7   8
ATOM      8  C   UNL     1      21.373  12.029  35.428  1.00  0.00    -0.000 C 
BRANCH   8   9
ATOM      9  C   UNL     1      20.607  10.779  34.956  1.00  0.00    -0.000 C 
BRANCH   9  10
ATOM     10  C   UNL     1      20.741   9.595  35.930  1.00  0.00    -0.000 C 
BRANCH  10  11
ATOM     11  C   UNL     1      19.451   8.763  36.022  1.00  0.00    -0.003 C 
ATOM     12  C   UNL     1      19.270   8.099  37.387  1.00  0.00     0.004 C 
ENDBRANCH  10  11
ENDBRANCH   9  10
ENDBRANCH   8   9
ENDBRANCH   7   8
ENDBRANCH   6   7
ENDBRANCH   5   6
ENDBRANCH   4   5
ENDBRANCH   3   4
ENDBRANCH   2   3
ENDBRANCH   1   2
BRANCH   1  13
ATOM     13  C   UNL     1      24.593  12.471  32.062  1.00  0.00     0.000 C 
BRANCH  13  14
ATOM     14  C   UNL     1      24.763  12.816  30.572  1.00  0.00     0.000 C 
BRANCH  14  15
ATOM     15  C   UNL     1      26.238  13.012  30.180  1.00  0.00     0.000 C 
BRANCH  15  16
ATOM     16  C   UNL     1      27.136  11.864  30.672  1.00  0.00     0.000 C 
BRANCH  16  17
ATOM     17  C   UNL     1      28.288  12.350  31.570  1.00  0.00     0.000 C 
BRANCH  17  18
ATOM     18  C   UNL     1      28.129  12.028  33.067  1.00  0.00     0.000 C 
BRANCH  18  19
ATOM     19  C   UNL     1      27.850  13.275  33.920  1.00  0.00     0.000 C 
BRANCH  19  20
ATOM     20  C   UNL     1      27.123  12.899  35.219  1.00  0.00     0.006 C 
BRANCH  20  21
ATOM     21  C   UNL     1      26.390  11.555  35.107  1.00  0.00     0.053 C 
BRANCH  21  22
ATOM     22  C   UNL     1      25.104  11.559  35.874  1.00  0.00     0.041 C 
ATOM     23  O   UNL     1      24.506  10.478  36.117  1.00  0.00    -0.550 OA
ATOM     24  O   UNL     1      24.583  12.753  36.353  1.00  0.00    -0.550 OA
ENDBRANCH  21  22
ENDBRANCH  20  21
ENDBRANCH  19  20
ENDBRANCH  18  19
ENDBRANCH  17  18
ENDBRANCH  16  17
ENDBRANCH  15  16
ENDBRANCH  14  15
ENDBRANCH  13  14
ENDBRANCH   1  13
TORSDOF 20
ENDMDL
MODEL 8
REMARK VINA RESULT:    -4.746      3.116      7.211
REMARK INTER + INTRA:         -13.528
REMARK INTER:                 -10.325
REMARK INTRA:                  -3.202
REMARK UNBOUND:                -3.232
REMARK SMILES CCCCCCCCCCCCCCCCCCCCCC(=O)[O-]
REMARK SMILES IDX 12 1 11 2 10 3 9 4 8 5 7 6 6 7 5 8 4 9 3 10 2 11 1 12 13 13
REMARK SMILES IDX 14 14 15 15 16 16 17 17 18 18 19 19 20 20 21 21 22 22 23 23
REMARK SMILES IDX 24 24
REMARK H PARENT
REMARK Flexibility Score: inf
ROOT
ATOM      1  C   UNL     1      20.577   9.905  35.364  1.00  0.00     0.000 C 
ENDROOT
BRANCH   1   2
ATOM      2  C   UNL     1      21.900  10.503  35.870  1.00  0.00     0.000 C 
BRANCH   2   3
ATOM      3  C   UNL     1      22.696  11.125  34.717  1.00  0.00     0.000 C 
BRANCH   3   4
ATOM      4  C   UNL     1      23.294  12.480  35.126  1.00  0.00    -0.000 C 
BRANCH   4   5
ATOM      5  C   UNL     1      24.601  12.332  35.919  1.00  0.00    -0.000 C 
BRANCH   5   6
ATOM      6  C   UNL     1      25.373  11.052  35.552  1.00  0.00    -0.000 C 
BRANCH   6   7
ATOM      7  C   UNL     1      26.659  11.341  34.756  1.00  0.00    -0.000 C 
BRANCH   7   8
ATOM      8  C   UNL     1      27.279  12.733  34.998  1.00  0.00    -0.000 C 
BRANCH   8   9
ATOM      9  C   UNL     1      27.307  13.664  33.772  1.00  0.00    -0.000 C 
BRANCH   9  10
ATOM     10  C   UNL     1      26.656  13.033  32.528  1.00  0.00    -0.000 C 
BRANCH  10  11
ATOM     11  C   UNL     1      27.688  12.654  31.455  1.00  0.00    -0.003 C 
ATOM     12  C   UNL     1      27.710  11.155  31.155  1.00  0.00     0.004 C 
ENDBRANCH  10  11
ENDBRANCH   9  10
ENDBRANCH   8   9
ENDBRANCH   7   8
ENDBRANCH   6   7
ENDBRANCH   5   6
ENDBRANCH   4   5
ENDBRANCH   3   4
ENDBRANCH   2   3
ENDBRANCH   1   2
BRANCH   1  13
ATOM     13  C   UNL     1      19.506  10.975  35.100  1.00  0.00     0.000 C 
BRANCH  13  14
ATOM     14  C   UNL     1      19.391  11.993  36.249  1.00  0.00     0.000 C 
BRANCH  14  15
ATOM     15  C   UNL     1      19.693  13.430  35.791  1.00  0.00     0.000 C 
BRANCH  15  16
ATOM     16  C   UNL     1      19.287  13.680  34.328  1.00  0.00     0.000 C 
BRANCH  16  17
ATOM     17  C   UNL     1      20.438  14.251  33.478  1.00  0.00     0.000 C 
BRANCH  17  18
ATOM     18  C   UNL     1      20.900  13.351  32.318  1.00  0.00     0.000 C 
BRANCH  18  19
ATOM     19  C   UNL     1      19.775  12.464  31.765  1.00  0.00     0.000 C 
BRANCH  19  20
ATOM     20  C   UNL     1      20.347  11.326  30.905  1.00  0.00     0.006 C 
BRANCH  20  21
ATOM     21  C   UNL     1      20.515  10.025  31.700  1.00  0.00     0.053 C 
BRANCH  21  22
ATOM     22  C   UNL     1      19.299   9.156  31.607  1.00  0.00     0.041 C 
ATOM     23  O   UNL     1      18.912   8.495  32.605  1.00  0.00    -0.550 OA
ATOM     24  O   UNL     1      18.570   9.106  30.426  1.00  0.00    -0.550 OA
ENDBRANCH  21  22
ENDBRANCH  20  21
ENDBRANCH  19  20
ENDBRANCH  18  19
ENDBRANCH  17  18
ENDBRANCH  16  17
ENDBRANCH  15  16
ENDBRANCH  14  15
ENDBRANCH  13  14
ENDBRANCH   1  13
TORSDOF 20
ENDMDL
MODEL 9
REMARK VINA RESULT:    -4.695      3.036      7.283
REMARK INTER + INTRA:         -13.417
REMARK INTER:                 -10.079
REMARK INTRA:                  -3.338
REMARK UNBOUND:                -3.232
REMARK SMILES CCCCCCCCCCCCCCCCCCCCCC(=O)[O-]
REMARK SMILES IDX 12 1 11 2 10 3 9 4 8 5 7 6 6 7 5 8 4 9 3 10 2 11 1 12 13 13
REMARK SMILES IDX 14 14 15 15 16 16 17 17 18 18 19 19 20 20 21 21 22 22 23 23
REMARK SMILES IDX 24 24
REMARK H PARENT
REMARK Flexibility Score: inf
ROOT
ATOM      1  C   UNL     1      23.019  11.441  34.204  1.00  0.00     0.000 C 
ENDROOT
BRANCH   1   2
ATOM      2  C   UNL     1      23.783  12.243  33.138  1.00  0.00     0.000 C 
BRANCH   2   3
ATOM      3  C   UNL     1      23.029  12.238  31.803  1.00  0.00     0.000 C 
BRANCH   3   4
ATOM      4  C   UNL     1      23.963  12.598  30.638  1.00  0.00    -0.000 C 
BRANCH   4   5
ATOM      5  C   UNL     1      25.433  12.700  31.071  1.00  0.00    -0.000 C 
BRANCH   5   6
ATOM      6  C   UNL     1      26.360  11.810  30.226  1.00  0.00    -0.000 C 
BRANCH   6   7
ATOM      7  C   UNL     1      27.663  11.441  30.960  1.00  0.00    -0.000 C 
BRANCH   7   8
ATOM      8  C   UNL     1      28.253  12.559  31.845  1.00  0.00    -0.000 C 
BRANCH   8   9
ATOM      9  C   UNL     1      28.369  12.222  33.343  1.00  0.00    -0.000 C 
BRANCH   9  10
ATOM     10  C   UNL     1      27.662  13.252  34.242  1.00  0.00    -0.000 C 
BRANCH  10  11
ATOM     11  C   UNL     1      26.633  12.602  35.181  1.00  0.00    -0.003 C 
ATOM     12  C   UNL     1      26.624  11.076  35.087  1.00  0.00     0.004 C 
ENDBRANCH  10  11
ENDBRANCH   9  10
ENDBRANCH   8   9
ENDBRANCH   7   8
ENDBRANCH   6   7
ENDBRANCH   5   6
ENDBRANCH   4   5
ENDBRANCH   3   4
ENDBRANCH   2   3
ENDBRANCH   1   2
BRANCH   1  13
ATOM     13  C   UNL     1      22.662  12.285  35.438  1.00  0.00     0.000 C 
BRANCH  13  14
ATOM     14  C   UNL     1      21.168  12.648  35.495  1.00  0.00     0.000 C 
BRANCH  14  15
ATOM     15  C   UNL     1      20.821  13.847  34.596  1.00  0.00     0.000 C 
BRANCH  15  16
ATOM     16  C   UNL     1      19.438  13.707  33.935  1.00  0.00     0.000 C 
BRANCH  16  17
ATOM     17  C   UNL     1      19.477  12.876  32.639  1.00  0.00     0.000 C 
BRANCH  17  18
ATOM     18  C   UNL     1      18.941  11.439  32.769  1.00  0.00     0.000 C 
BRANCH  18  19
ATOM     19  C   UNL     1      19.954  10.380  32.312  1.00  0.00     0.000 C 
BRANCH  19  20
ATOM     20  C   UNL     1      20.074   9.253  33.349  1.00  0.00     0.006 C 
BRANCH  20  21
ATOM     21  C   UNL     1      19.273   9.549  34.624  1.00  0.00     0.053 C 
BRANCH  21  22
ATOM     22  C   UNL     1      19.974   9.047  35.849  1.00  0.00     0.041 C 
ATOM     23  O   UNL     1      21.230   9.086  35.923  1.00  0.00    -0.550 OA
ATOM     24  O   UNL     1      19.238   8.569  36.925  1.00  0.00    -0.550 OA
ENDBRANCH  21  22
ENDBRANCH  20  21
ENDBRANCH  19  20
ENDBRANCH  18  19
ENDBRANCH  17  18
ENDBRANCH  16  17
ENDBRANCH  15  16
ENDBRANCH  14  15
ENDBRANCH  13  14
ENDBRANCH   1  13
TORSDOF 20
ENDMDL
