MODEL 1
REMARK VINA RESULT:    -3.824      0.000      0.000
REMARK INTER + INTRA:          -4.760
REMARK INTER:                  -4.495
REMARK INTRA:                  -0.265
REMARK UNBOUND:                -0.265
REMARK SMILES O=c1cc(-c2ccc(O)c(O)c2)oc2cc(O)cc(O)c12
REMARK SMILES IDX 4 1 3 2 2 3 1 4 21 5 19 6 18 7 16 8 15 9 14 10 13 11 5 12
REMARK SMILES IDX 6 13 7 14 8 15 12 16 10 17 9 18 11 20 20 22 17 24
REMARK H PARENT 9 19 11 21 20 23 17 25
REMARK Flexibility Score: inf
ROOT
ATOM      1  C   UNL     1      26.158  37.427  24.057  1.00  0.00     0.138 A 
ATOM      2  C   UNL     1      26.417  38.244  22.948  1.00  0.00     0.100 A 
ATOM      3  C   UNL     1      26.582  37.665  21.689  1.00  0.00     0.197 A 
ATOM      4  O   UNL     1      26.752  38.429  20.703  1.00  0.00    -0.289 OA
ATOM      5  C   UNL     1      26.519  36.259  21.548  1.00  0.00     0.107 A 
ATOM      6  C   UNL     1      26.713  35.556  20.320  1.00  0.00     0.134 A 
ATOM      7  C   UNL     1      26.511  34.171  20.279  1.00  0.00     0.093 A 
ATOM      8  C   UNL     1      26.181  33.456  21.433  1.00  0.00     0.123 A 
ATOM      9  C   UNL     1      26.044  34.126  22.646  1.00  0.00     0.094 A 
ATOM     10  C   UNL     1      26.204  35.512  22.714  1.00  0.00     0.146 A 
ATOM     11  O   UNL     1      26.048  36.114  23.888  1.00  0.00    -0.456 OA
ENDROOT
BRANCH   1  12
ATOM     12  C   UNL     1      25.974  37.989  25.419  1.00  0.00     0.021 A 
ATOM     13  C   UNL     1      27.023  37.908  26.349  1.00  0.00     0.016 A 
ATOM     14  C   UNL     1      26.878  38.436  27.634  1.00  0.00     0.051 A 
ATOM     15  C   UNL     1      25.687  39.063  28.010  1.00  0.00     0.157 A 
ATOM     16  C   UNL     1      24.780  38.634  25.798  1.00  0.00     0.062 A 
ATOM     17  C   UNL     1      24.634  39.167  27.088  1.00  0.00     0.158 A 
BRANCH  15  18
ATOM     18  O   UNL     1      25.570  39.579  29.301  1.00  0.00    -0.504 OA
ATOM     19  H   UNL     1      25.489  40.573  29.477  1.00  0.00     0.293 HD
ENDBRANCH  15  18
BRANCH  17  20
ATOM     20  O   UNL     1      23.447  39.801  27.453  1.00  0.00    -0.504 OA
ATOM     21  H   UNL     1      23.392  40.807  27.562  1.00  0.00     0.293 HD
ENDBRANCH  17  20
ENDBRANCH   1  12
BRANCH   6  22
ATOM     22  O   UNL     1      27.125  36.162  19.129  1.00  0.00    -0.507 OA
ATOM     23  H   UNL     1      28.037  36.563  18.972  1.00  0.00     0.293 HD
ENDBRANCH   6  22
BRANCH   8  24
ATOM     24  O   UNL     1      25.998  32.076  21.385  1.00  0.00    -0.508 OA
ATOM     25  H   UNL     1      25.934  31.579  20.504  1.00  0.00     0.293 HD
ENDBRANCH   8  24
TORSDOF 5
ENDMDL
MODEL 2
REMARK VINA RESULT:    -1.709      1.609      3.109
REMARK INTER + INTRA:          -2.273
REMARK INTER:                  -1.976
REMARK INTRA:                  -0.297
REMARK UNBOUND:                -0.265
REMARK SMILES O=c1cc(-c2ccc(O)c(O)c2)oc2cc(O)cc(O)c12
REMARK SMILES IDX 4 1 3 2 2 3 1 4 21 5 19 6 18 7 16 8 15 9 14 10 13 11 5 12
REMARK SMILES IDX 6 13 7 14 8 15 12 16 10 17 9 18 11 20 20 22 17 24
REMARK H PARENT 9 19 11 21 20 23 17 25
REMARK Flexibility Score: inf
ROOT
ATOM      1  C   UNL     1      26.959  36.569  24.882  1.00  0.00     0.138 A 
ATOM      2  C   UNL     1      27.028  35.175  25.015  1.00  0.00     0.100 A 
ATOM      3  C   UNL     1      26.997  34.371  23.875  1.00  0.00     0.197 A 
ATOM      4  O   UNL     1      27.123  33.127  24.023  1.00  0.00    -0.289 OA
ATOM      5  C   UNL     1      26.866  34.966  22.598  1.00  0.00     0.107 A 
ATOM      6  C   UNL     1      26.783  34.243  21.370  1.00  0.00     0.134 A 
ATOM      7  C   UNL     1      26.773  34.943  20.157  1.00  0.00     0.093 A 
ATOM      8  C   UNL     1      26.781  36.340  20.130  1.00  0.00     0.123 A 
ATOM      9  C   UNL     1      26.806  37.054  21.326  1.00  0.00     0.094 A 
ATOM     10  C   UNL     1      26.853  36.385  22.551  1.00  0.00     0.146 A 
ATOM     11  O   UNL     1      26.893  37.104  23.668  1.00  0.00    -0.456 OA
ENDROOT
BRANCH   1  12
ATOM     12  C   UNL     1      26.987  37.472  26.060  1.00  0.00     0.021 A 
ATOM     13  C   UNL     1      26.921  38.862  25.868  1.00  0.00     0.016 A 
ATOM     14  C   UNL     1      26.938  39.732  26.961  1.00  0.00     0.051 A 
ATOM     15  C   UNL     1      27.011  39.231  28.264  1.00  0.00     0.157 A 
ATOM     16  C   UNL     1      27.047  36.970  27.375  1.00  0.00     0.062 A 
ATOM     17  C   UNL     1      27.062  37.844  28.473  1.00  0.00     0.158 A 
BRANCH  15  18
ATOM     18  O   UNL     1      27.028  40.125  29.334  1.00  0.00    -0.504 OA
ATOM     19  H   UNL     1      27.105  41.126  29.197  1.00  0.00     0.293 HD
ENDBRANCH  15  18
BRANCH  17  20
ATOM     20  O   UNL     1      27.124  37.336  29.770  1.00  0.00    -0.504 OA
ATOM     21  H   UNL     1      27.390  37.917  30.557  1.00  0.00     0.293 HD
ENDBRANCH  17  20
ENDBRANCH   1  12
BRANCH   6  22
ATOM     22  O   UNL     1      26.685  32.850  21.288  1.00  0.00    -0.507 OA
ATOM     23  H   UNL     1      25.836  32.324  21.427  1.00  0.00     0.293 HD
ENDBRANCH   6  22
BRANCH   8  24
ATOM     24  O   UNL     1      26.754  37.027  18.919  1.00  0.00    -0.508 OA
ATOM     25  H   UNL     1      26.104  36.777  18.182  1.00  0.00     0.293 HD
ENDBRANCH   8  24
TORSDOF 5
ENDMDL
MODEL 3
REMARK VINA RESULT:    -1.672      1.308      7.046
REMARK INTER + INTRA:          -2.230
REMARK INTER:                  -1.959
REMARK INTRA:                  -0.271
REMARK UNBOUND:                -0.265
REMARK SMILES O=c1cc(-c2ccc(O)c(O)c2)oc2cc(O)cc(O)c12
REMARK SMILES IDX 4 1 3 2 2 3 1 4 21 5 19 6 18 7 16 8 15 9 14 10 13 11 5 12
REMARK SMILES IDX 6 13 7 14 8 15 12 16 10 17 9 18 11 20 20 22 17 24
REMARK H PARENT 9 19 11 21 20 23 17 25
REMARK Flexibility Score: inf
ROOT
ATOM      1  C   UNL     1      25.571  37.203  24.247  1.00  0.00     0.138 A 
ATOM      2  C   UNL     1      24.600  38.212  24.195  1.00  0.00     0.100 A 
ATOM      3  C   UNL     1      24.271  38.914  25.356  1.00  0.00     0.197 A 
ATOM      4  O   UNL     1      23.441  39.856  25.264  1.00  0.00    -0.289 OA
ATOM      5  C   UNL     1      24.897  38.581  26.580  1.00  0.00     0.107 A 
ATOM      6  C   UNL     1      24.611  39.201  27.834  1.00  0.00     0.134 A 
ATOM      7  C   UNL     1      25.378  38.870  28.958  1.00  0.00     0.093 A 
ATOM      8  C   UNL     1      26.379  37.897  28.887  1.00  0.00     0.123 A 
ATOM      9  C   UNL     1      26.627  37.247  27.681  1.00  0.00     0.094 A 
ATOM     10  C   UNL     1      25.904  37.581  26.533  1.00  0.00     0.146 A 
ATOM     11  O   UNL     1      26.184  36.948  25.398  1.00  0.00    -0.456 OA
ENDROOT
BRANCH   1  12
ATOM     12  C   UNL     1      25.959  36.425  23.044  1.00  0.00     0.021 A 
ATOM     13  C   UNL     1      25.918  35.021  23.085  1.00  0.00     0.016 A 
ATOM     14  C   UNL     1      26.271  34.266  21.964  1.00  0.00     0.051 A 
ATOM     15  C   UNL     1      26.660  34.898  20.780  1.00  0.00     0.157 A 
ATOM     16  C   UNL     1      26.339  37.058  21.844  1.00  0.00     0.062 A 
ATOM     17  C   UNL     1      26.692  36.301  20.717  1.00  0.00     0.158 A 
BRANCH  15  18
ATOM     18  O   UNL     1      27.009  34.118  19.677  1.00  0.00    -0.504 OA
ATOM     19  H   UNL     1      27.900  33.640  19.618  1.00  0.00     0.293 HD
ENDBRANCH  15  18
BRANCH  17  20
ATOM     20  O   UNL     1      27.068  36.938  19.536  1.00  0.00    -0.504 OA
ATOM     21  H   UNL     1      27.111  37.948  19.466  1.00  0.00     0.293 HD
ENDBRANCH  17  20
ENDBRANCH   1  12
BRANCH   6  22
ATOM     22  O   UNL     1      23.579  40.123  28.032  1.00  0.00    -0.507 OA
ATOM     23  H   UNL     1      23.711  41.107  28.208  1.00  0.00     0.293 HD
ENDBRANCH   6  22
BRANCH   8  24
ATOM     24  O   UNL     1      27.125  37.562  30.015  1.00  0.00    -0.508 OA
ATOM     25  H   UNL     1      26.948  36.709  30.533  1.00  0.00     0.293 HD
ENDBRANCH   8  24
TORSDOF 5
ENDMDL
