MODEL 1
REMARK VINA RESULT:     0.026      0.000      0.000
REMARK INTER + INTRA:          -1.667
REMARK INTER:                   0.059
REMARK INTRA:                  -1.726
REMARK UNBOUND:                -1.726
REMARK SMILES CCCCCCCCCCCCCCCCCCCCCCCC(=O)[O-]
REMARK SMILES IDX 13 1 14 2 15 3 16 4 17 5 18 6 19 7 20 8 21 9 22 10 23 11
REMARK SMILES IDX 24 12 25 13 26 14 12 15 11 16 10 17 9 18 8 19 7 20 6 21 5 22
REMARK SMILES IDX 4 23 3 24 2 25 1 26
REMARK H PARENT
REMARK Flexibility Score: inf
ROOT
ATOM      1  C   UNL     1     -21.433   2.261  11.447  1.00  0.00     0.000 C 
ENDROOT
BRANCH   1   2
ATOM      2  C   UNL     1     -22.158   1.395  10.401  1.00  0.00     0.000 C 
BRANCH   2   3
ATOM      3  C   UNL     1     -22.657   2.209   9.197  1.00  0.00     0.000 C 
BRANCH   3   4
ATOM      4  C   UNL     1     -21.825   3.482   8.959  1.00  0.00     0.000 C 
BRANCH   4   5
ATOM      5  C   UNL     1     -22.685   4.669   8.495  1.00  0.00     0.000 C 
BRANCH   5   6
ATOM      6  C   UNL     1     -22.025   6.024   8.791  1.00  0.00     0.000 C 
BRANCH   6   7
ATOM      7  C   UNL     1     -20.741   5.846   9.611  1.00  0.00     0.000 C 
BRANCH   7   8
ATOM      8  C   UNL     1     -19.653   6.817   9.139  1.00  0.00     0.000 C 
BRANCH   8   9
ATOM      9  C   UNL     1     -18.413   6.742  10.040  1.00  0.00     0.000 C 
BRANCH   9  10
ATOM     10  C   UNL     1     -17.192   7.470   9.448  1.00  0.00     0.006 C 
BRANCH  10  11
ATOM     11  C   UNL     1     -17.143   8.975   9.768  1.00  0.00     0.053 C 
BRANCH  11  12
ATOM     12  C   UNL     1     -15.750   9.463  10.032  1.00  0.00     0.041 C 
ATOM     13  O   UNL     1     -15.001   9.794   9.076  1.00  0.00    -0.550 OA
ATOM     14  O   UNL     1     -15.274   9.539  11.334  1.00  0.00    -0.550 OA
ENDBRANCH  11  12
ENDBRANCH  10  11
ENDBRANCH   9  10
ENDBRANCH   8   9
ENDBRANCH   7   8
ENDBRANCH   6   7
ENDBRANCH   5   6
ENDBRANCH   4   5
ENDBRANCH   3   4
ENDBRANCH   2   3
ENDBRANCH   1   2
BRANCH   1  15
ATOM     15  C   UNL     1     -21.620   1.735  12.880  1.00  0.00     0.000 C 
BRANCH  15  16
ATOM     16  C   UNL     1     -22.127   0.283  12.913  1.00  0.00     0.000 C 
BRANCH  16  17
ATOM     17  C   UNL     1     -21.434  -0.558  13.997  1.00  0.00     0.000 C 
BRANCH  17  18
ATOM     18  C   UNL     1     -20.797  -1.843  13.436  1.00  0.00    -0.000 C 
BRANCH  18  19
ATOM     19  C   UNL     1     -21.261  -2.148  12.002  1.00  0.00    -0.000 C 
BRANCH  19  20
ATOM     20  C   UNL     1     -20.181  -1.833  10.957  1.00  0.00    -0.000 C 
BRANCH  20  21
ATOM     21  C   UNL     1     -20.795  -1.677   9.560  1.00  0.00    -0.000 C 
BRANCH  21  22
ATOM     22  C   UNL     1     -20.360  -2.821   8.638  1.00  0.00    -0.000 C 
BRANCH  22  23
ATOM     23  C   UNL     1     -20.620  -2.473   7.164  1.00  0.00    -0.000 C 
BRANCH  23  24
ATOM     24  C   UNL     1     -21.348  -1.122   7.001  1.00  0.00    -0.000 C 
BRANCH  24  25
ATOM     25  C   UNL     1     -20.534  -0.073   6.226  1.00  0.00    -0.003 C 
ATOM     26  C   UNL     1     -20.622   1.325   6.834  1.00  0.00     0.004 C 
ENDBRANCH  24  25
ENDBRANCH  23  24
ENDBRANCH  22  23
ENDBRANCH  21  22
ENDBRANCH  20  21
ENDBRANCH  19  20
ENDBRANCH  18  19
ENDBRANCH  17  18
ENDBRANCH  16  17
ENDBRANCH  15  16
ENDBRANCH   1  15
TORSDOF 22
ENDMDL
MODEL 2
REMARK VINA RESULT:     0.056      5.542      7.987
REMARK INTER + INTRA:          -1.598
REMARK INTER:                  -0.805
REMARK INTRA:                  -0.793
REMARK UNBOUND:                -1.726
REMARK SMILES CCCCCCCCCCCCCCCCCCCCCCCC(=O)[O-]
REMARK SMILES IDX 13 1 14 2 15 3 16 4 17 5 18 6 19 7 20 8 21 9 22 10 23 11
REMARK SMILES IDX 24 12 25 13 26 14 12 15 11 16 10 17 9 18 8 19 7 20 6 21 5 22
REMARK SMILES IDX 4 23 3 24 2 25 1 26
REMARK H PARENT
REMARK Flexibility Score: inf
ROOT
ATOM      1  C   UNL     1     -21.243  -1.229   8.140  1.00  0.00     0.000 C 
ENDROOT
BRANCH   1   2
ATOM      2  C   UNL     1     -21.017  -1.011   6.633  1.00  0.00     0.000 C 
BRANCH   2   3
ATOM      3  C   UNL     1     -21.402   0.403   6.173  1.00  0.00     0.000 C 
BRANCH   3   4
ATOM      4  C   UNL     1     -20.677   1.501   6.969  1.00  0.00     0.000 C 
BRANCH   4   5
ATOM      5  C   UNL     1     -21.584   2.706   7.270  1.00  0.00     0.000 C 
BRANCH   5   6
ATOM      6  C   UNL     1     -22.216   2.630   8.669  1.00  0.00     0.000 C 
BRANCH   6   7
ATOM      7  C   UNL     1     -21.817   1.334   9.386  1.00  0.00     0.000 C 
BRANCH   7   8
ATOM      8  C   UNL     1     -22.354   1.318  10.822  1.00  0.00     0.000 C 
BRANCH   8   9
ATOM      9  C   UNL     1     -21.439   2.111  11.766  1.00  0.00     0.000 C 
BRANCH   9  10
ATOM     10  C   UNL     1     -21.611   1.715  13.244  1.00  0.00     0.006 C 
BRANCH  10  11
ATOM     11  C   UNL     1     -22.246   0.329  13.453  1.00  0.00     0.053 C 
BRANCH  11  12
ATOM     12  C   UNL     1     -21.224  -0.747  13.667  1.00  0.00     0.041 C 
ATOM     13  O   UNL     1     -20.571  -0.799  14.742  1.00  0.00    -0.550 OA
ATOM     14  O   UNL     1     -20.982  -1.686  12.672  1.00  0.00    -0.550 OA
ENDBRANCH  11  12
ENDBRANCH  10  11
ENDBRANCH   9  10
ENDBRANCH   8   9
ENDBRANCH   7   8
ENDBRANCH   6   7
ENDBRANCH   5   6
ENDBRANCH   4   5
ENDBRANCH   3   4
ENDBRANCH   2   3
ENDBRANCH   1   2
BRANCH   1  15
ATOM     15  C   UNL     1     -20.193  -2.165   8.765  1.00  0.00     0.000 C 
BRANCH  15  16
ATOM     16  C   UNL     1     -20.679  -3.622   8.851  1.00  0.00     0.000 C 
BRANCH  16  17
ATOM     17  C   UNL     1     -19.661  -4.617   8.272  1.00  0.00     0.000 C 
BRANCH  17  18
ATOM     18  C   UNL     1     -20.209  -6.054   8.201  1.00  0.00    -0.000 C 
BRANCH  18  19
ATOM     19  C   UNL     1     -21.651  -6.104   7.670  1.00  0.00    -0.000 C 
BRANCH  19  20
ATOM     20  C   UNL     1     -22.664  -6.491   8.758  1.00  0.00    -0.000 C 
BRANCH  20  21
ATOM     21  C   UNL     1     -23.437  -7.757   8.367  1.00  0.00    -0.000 C 
BRANCH  21  22
ATOM     22  C   UNL     1     -24.938  -7.471   8.253  1.00  0.00    -0.000 C 
BRANCH  22  23
ATOM     23  C   UNL     1     -25.632  -8.503   7.351  1.00  0.00    -0.000 C 
BRANCH  23  24
ATOM     24  C   UNL     1     -26.330  -9.614   8.163  1.00  0.00    -0.000 C 
BRANCH  24  25
ATOM     25  C   UNL     1     -27.629 -10.125   7.517  1.00  0.00    -0.003 C 
ATOM     26  C   UNL     1     -27.616 -10.040   5.992  1.00  0.00     0.004 C 
ENDBRANCH  24  25
ENDBRANCH  23  24
ENDBRANCH  22  23
ENDBRANCH  21  22
ENDBRANCH  20  21
ENDBRANCH  19  20
ENDBRANCH  18  19
ENDBRANCH  17  18
ENDBRANCH  16  17
ENDBRANCH  15  16
ENDBRANCH   1  15
TORSDOF 22
ENDMDL
MODEL 3
REMARK VINA RESULT:     0.071      0.685      4.076
REMARK INTER + INTRA:          -1.563
REMARK INTER:                   0.306
REMARK INTRA:                  -1.869
REMARK UNBOUND:                -1.726
REMARK SMILES CCCCCCCCCCCCCCCCCCCCCCCC(=O)[O-]
REMARK SMILES IDX 13 1 14 2 15 3 16 4 17 5 18 6 19 7 20 8 21 9 22 10 23 11
REMARK SMILES IDX 24 12 25 13 26 14 12 15 11 16 10 17 9 18 8 19 7 20 6 21 5 22
REMARK SMILES IDX 4 23 3 24 2 25 1 26
REMARK H PARENT
REMARK Flexibility Score: inf
ROOT
ATOM      1  C   UNL     1     -21.564   0.940   6.209  1.00  0.00     0.000 C 
ENDROOT
BRANCH   1   2
ATOM      2  C   UNL     1     -21.139   2.041   7.196  1.00  0.00     0.000 C 
BRANCH   2   3
ATOM      3  C   UNL     1     -21.777   1.875   8.584  1.00  0.00     0.000 C 
BRANCH   3   4
ATOM      4  C   UNL     1     -22.500   3.147   9.058  1.00  0.00     0.000 C 
BRANCH   4   5
ATOM      5  C   UNL     1     -22.094   4.391   8.250  1.00  0.00     0.000 C 
BRANCH   5   6
ATOM      6  C   UNL     1     -21.979   5.649   9.125  1.00  0.00     0.000 C 
BRANCH   6   7
ATOM      7  C   UNL     1     -20.639   5.684   9.870  1.00  0.00     0.000 C 
BRANCH   7   8
ATOM      8  C   UNL     1     -19.696   6.720   9.247  1.00  0.00     0.000 C 
BRANCH   8   9
ATOM      9  C   UNL     1     -18.368   6.794  10.014  1.00  0.00     0.000 C 
BRANCH   9  10
ATOM     10  C   UNL     1     -17.251   7.495   9.219  1.00  0.00     0.006 C 
BRANCH  10  11
ATOM     11  C   UNL     1     -17.120   9.000   9.516  1.00  0.00     0.053 C 
BRANCH  11  12
ATOM     12  C   UNL     1     -15.750   9.375   9.997  1.00  0.00     0.041 C 
ATOM     13  O   UNL     1     -15.459   9.286  11.218  1.00  0.00    -0.550 OA
ATOM     14  O   UNL     1     -14.799   9.838   9.098  1.00  0.00    -0.550 OA
ENDBRANCH  11  12
ENDBRANCH  10  11
ENDBRANCH   9  10
ENDBRANCH   8   9
ENDBRANCH   7   8
ENDBRANCH   6   7
ENDBRANCH   5   6
ENDBRANCH   4   5
ENDBRANCH   3   4
ENDBRANCH   2   3
ENDBRANCH   1   2
BRANCH   1  15
ATOM     15  C   UNL     1     -20.636  -0.287   6.259  1.00  0.00     0.000 C 
BRANCH  15  16
ATOM     16  C   UNL     1     -21.322  -1.519   6.875  1.00  0.00     0.000 C 
BRANCH  16  17
ATOM     17  C   UNL     1     -20.316  -2.515   7.473  1.00  0.00     0.000 C 
BRANCH  17  18
ATOM     18  C   UNL     1     -20.605  -2.838   8.950  1.00  0.00    -0.000 C 
BRANCH  18  19
ATOM     19  C   UNL     1     -20.625  -1.578   9.832  1.00  0.00    -0.000 C 
BRANCH  19  20
ATOM     20  C   UNL     1     -20.233  -1.874  11.287  1.00  0.00    -0.000 C 
BRANCH  20  21
ATOM     21  C   UNL     1     -21.452  -2.316  12.106  1.00  0.00    -0.000 C 
BRANCH  21  22
ATOM     22  C   UNL     1     -21.292  -1.931  13.581  1.00  0.00    -0.000 C 
BRANCH  22  23
ATOM     23  C   UNL     1     -22.134  -0.692  13.924  1.00  0.00    -0.000 C 
BRANCH  23  24
ATOM     24  C   UNL     1     -21.270   0.578  14.073  1.00  0.00    -0.000 C 
BRANCH  24  25
ATOM     25  C   UNL     1     -21.375   1.538  12.875  1.00  0.00    -0.003 C 
ATOM     26  C   UNL     1     -22.487   1.161  11.898  1.00  0.00     0.004 C 
ENDBRANCH  24  25
ENDBRANCH  23  24
ENDBRANCH  22  23
ENDBRANCH  21  22
ENDBRANCH  20  21
ENDBRANCH  19  20
ENDBRANCH  18  19
ENDBRANCH  17  18
ENDBRANCH  16  17
ENDBRANCH  15  16
ENDBRANCH   1  15
TORSDOF 22
ENDMDL
MODEL 4
REMARK VINA RESULT:     0.080      2.880      8.676
REMARK INTER + INTRA:          -1.542
REMARK INTER:                   0.127
REMARK INTRA:                  -1.670
REMARK UNBOUND:                -1.726
REMARK SMILES CCCCCCCCCCCCCCCCCCCCCCCC(=O)[O-]
REMARK SMILES IDX 13 1 14 2 15 3 16 4 17 5 18 6 19 7 20 8 21 9 22 10 23 11
REMARK SMILES IDX 24 12 25 13 26 14 12 15 11 16 10 17 9 18 8 19 7 20 6 21 5 22
REMARK SMILES IDX 4 23 3 24 2 25 1 26
REMARK H PARENT
REMARK Flexibility Score: inf
ROOT
ATOM      1  C   UNL     1     -21.448   0.925   6.153  1.00  0.00     0.000 C 
ENDROOT
BRANCH   1   2
ATOM      2  C   UNL     1     -20.676  -0.407   6.139  1.00  0.00     0.000 C 
BRANCH   2   3
ATOM      3  C   UNL     1     -21.411  -1.528   6.889  1.00  0.00     0.000 C 
BRANCH   3   4
ATOM      4  C   UNL     1     -20.484  -2.700   7.255  1.00  0.00     0.000 C 
BRANCH   4   5
ATOM      5  C   UNL     1     -20.334  -2.879   8.775  1.00  0.00     0.000 C 
BRANCH   5   6
ATOM      6  C   UNL     1     -20.920  -1.699   9.567  1.00  0.00     0.000 C 
BRANCH   6   7
ATOM      7  C   UNL     1     -20.299  -1.610  10.967  1.00  0.00     0.000 C 
BRANCH   7   8
ATOM      8  C   UNL     1     -21.169  -2.340  11.997  1.00  0.00     0.000 C 
BRANCH   8   9
ATOM      9  C   UNL     1     -21.025  -1.711  13.390  1.00  0.00     0.000 C 
BRANCH   9  10
ATOM     10  C   UNL     1     -22.158  -0.723  13.725  1.00  0.00     0.006 C 
BRANCH  10  11
ATOM     11  C   UNL     1     -21.695   0.739  13.860  1.00  0.00     0.053 C 
BRANCH  11  12
ATOM     12  C   UNL     1     -21.701   1.469  12.550  1.00  0.00     0.041 C 
ATOM     13  O   UNL     1     -22.345   1.011  11.570  1.00  0.00    -0.550 OA
ATOM     14  O   UNL     1     -20.982   2.648  12.407  1.00  0.00    -0.550 OA
ENDBRANCH  11  12
ENDBRANCH  10  11
ENDBRANCH   9  10
ENDBRANCH   8   9
ENDBRANCH   7   8
ENDBRANCH   6   7
ENDBRANCH   5   6
ENDBRANCH   4   5
ENDBRANCH   3   4
ENDBRANCH   2   3
ENDBRANCH   1   2
BRANCH   1  15
ATOM     15  C   UNL     1     -20.937   1.891   7.236  1.00  0.00     0.000 C 
BRANCH  15  16
ATOM     16  C   UNL     1     -21.718   1.764   8.555  1.00  0.00     0.000 C 
BRANCH  16  17
ATOM     17  C   UNL     1     -22.567   3.008   8.859  1.00  0.00     0.000 C 
BRANCH  17  18
ATOM     18  C   UNL     1     -22.100   4.252   8.081  1.00  0.00    -0.000 C 
BRANCH  18  19
ATOM     19  C   UNL     1     -22.264   5.546   8.895  1.00  0.00    -0.000 C 
BRANCH  19  20
ATOM     20  C   UNL     1     -21.055   5.826   9.801  1.00  0.00    -0.000 C 
BRANCH  20  21
ATOM     21  C   UNL     1     -19.926   6.507   9.017  1.00  0.00    -0.000 C 
BRANCH  21  22
ATOM     22  C   UNL     1     -18.731   6.810   9.928  1.00  0.00    -0.000 C 
BRANCH  22  23
ATOM     23  C   UNL     1     -18.107   8.172   9.586  1.00  0.00    -0.000 C 
BRANCH  23  24
ATOM     24  C   UNL     1     -16.576   8.086   9.409  1.00  0.00    -0.000 C 
BRANCH  24  25
ATOM     25  C   UNL     1     -15.865   9.445   9.524  1.00  0.00    -0.003 C 
ATOM     26  C   UNL     1     -15.349   9.736  10.932  1.00  0.00     0.004 C 
ENDBRANCH  24  25
ENDBRANCH  23  24
ENDBRANCH  22  23
ENDBRANCH  21  22
ENDBRANCH  20  21
ENDBRANCH  19  20
ENDBRANCH  18  19
ENDBRANCH  17  18
ENDBRANCH  16  17
ENDBRANCH  15  16
ENDBRANCH   1  15
TORSDOF 22
ENDMDL
MODEL 5
REMARK VINA RESULT:     0.109      7.183     11.647
REMARK INTER + INTRA:          -1.476
REMARK INTER:                  -0.609
REMARK INTRA:                  -0.867
REMARK UNBOUND:                -1.726
REMARK SMILES CCCCCCCCCCCCCCCCCCCCCCCC(=O)[O-]
REMARK SMILES IDX 13 1 14 2 15 3 16 4 17 5 18 6 19 7 20 8 21 9 22 10 23 11
REMARK SMILES IDX 24 12 25 13 26 14 12 15 11 16 10 17 9 18 8 19 7 20 6 21 5 22
REMARK SMILES IDX 4 23 3 24 2 25 1 26
REMARK H PARENT
REMARK Flexibility Score: inf
ROOT
ATOM      1  C   UNL     1     -20.737  -0.009   6.066  1.00  0.00     0.000 C 
ENDROOT
BRANCH   1   2
ATOM      2  C   UNL     1     -21.413  -1.121   6.889  1.00  0.00     0.000 C 
BRANCH   2   3
ATOM      3  C   UNL     1     -20.602  -2.426   6.905  1.00  0.00     0.000 C 
BRANCH   3   4
ATOM      4  C   UNL     1     -20.670  -3.147   8.262  1.00  0.00     0.000 C 
BRANCH   4   5
ATOM      5  C   UNL     1     -19.627  -4.271   8.385  1.00  0.00     0.000 C 
BRANCH   5   6
ATOM      6  C   UNL     1     -20.187  -5.640   7.969  1.00  0.00     0.000 C 
BRANCH   6   7
ATOM      7  C   UNL     1     -21.524  -5.925   8.665  1.00  0.00     0.000 C 
BRANCH   7   8
ATOM      8  C   UNL     1     -22.350  -6.938   7.864  1.00  0.00     0.000 C 
BRANCH   8   9
ATOM      9  C   UNL     1     -23.666  -7.270   8.580  1.00  0.00     0.000 C 
BRANCH   9  10
ATOM     10  C   UNL     1     -24.346  -8.540   8.034  1.00  0.00     0.006 C 
BRANCH  10  11
ATOM     11  C   UNL     1     -25.781  -8.314   7.526  1.00  0.00     0.053 C 
BRANCH  11  12
ATOM     12  C   UNL     1     -26.696  -9.454   7.858  1.00  0.00     0.041 C 
ATOM     13  O   UNL     1     -27.301 -10.072   6.942  1.00  0.00    -0.550 OA
ATOM     14  O   UNL     1     -26.895  -9.825   9.181  1.00  0.00    -0.550 OA
ENDBRANCH  11  12
ENDBRANCH  10  11
ENDBRANCH   9  10
ENDBRANCH   8   9
ENDBRANCH   7   8
ENDBRANCH   6   7
ENDBRANCH   5   6
ENDBRANCH   4   5
ENDBRANCH   3   4
ENDBRANCH   2   3
ENDBRANCH   1   2
BRANCH   1  15
ATOM     15  C   UNL     1     -20.424   1.240   6.907  1.00  0.00     0.000 C 
BRANCH  15  16
ATOM     16  C   UNL     1     -21.682   2.065   7.228  1.00  0.00     0.000 C 
BRANCH  16  17
ATOM     17  C   UNL     1     -21.775   2.444   8.714  1.00  0.00     0.000 C 
BRANCH  17  18
ATOM     18  C   UNL     1     -21.879   1.216   9.636  1.00  0.00    -0.000 C 
BRANCH  18  19
ATOM     19  C   UNL     1     -22.568   1.544  10.972  1.00  0.00    -0.000 C 
BRANCH  19  20
ATOM     20  C   UNL     1     -21.563   1.861  12.088  1.00  0.00    -0.000 C 
BRANCH  20  21
ATOM     21  C   UNL     1     -21.974   1.192  13.406  1.00  0.00    -0.000 C 
BRANCH  21  22
ATOM     22  C   UNL     1     -21.077  -0.011  13.715  1.00  0.00    -0.000 C 
BRANCH  22  23
ATOM     23  C   UNL     1     -21.907  -1.295  13.869  1.00  0.00    -0.000 C 
BRANCH  23  24
ATOM     24  C   UNL     1     -21.586  -2.334  12.773  1.00  0.00    -0.000 C 
BRANCH  24  25
ATOM     25  C   UNL     1     -20.364  -1.965  11.914  1.00  0.00    -0.003 C 
ATOM     26  C   UNL     1     -20.730  -1.592  10.479  1.00  0.00     0.004 C 
ENDBRANCH  24  25
ENDBRANCH  23  24
ENDBRANCH  22  23
ENDBRANCH  21  22
ENDBRANCH  20  21
ENDBRANCH  19  20
ENDBRANCH  18  19
ENDBRANCH  17  18
ENDBRANCH  16  17
ENDBRANCH  15  16
ENDBRANCH   1  15
TORSDOF 22
ENDMDL
MODEL 6
REMARK VINA RESULT:     0.190      4.769      7.255
REMARK INTER + INTRA:          -1.291
REMARK INTER:                   0.401
REMARK INTRA:                  -1.691
REMARK UNBOUND:                -1.726
REMARK SMILES CCCCCCCCCCCCCCCCCCCCCCCC(=O)[O-]
REMARK SMILES IDX 13 1 14 2 15 3 16 4 17 5 18 6 19 7 20 8 21 9 22 10 23 11
REMARK SMILES IDX 24 12 25 13 26 14 12 15 11 16 10 17 9 18 8 19 7 20 6 21 5 22
REMARK SMILES IDX 4 23 3 24 2 25 1 26
REMARK H PARENT
REMARK Flexibility Score: inf
ROOT
ATOM      1  C   UNL     1     -21.426  -2.355  11.919  1.00  0.00     0.000 C 
ENDROOT
BRANCH   1   2
ATOM      2  C   UNL     1     -21.185  -1.938  13.382  1.00  0.00     0.000 C 
BRANCH   2   3
ATOM      3  C   UNL     1     -22.127  -0.815  13.842  1.00  0.00     0.000 C 
BRANCH   3   4
ATOM      4  C   UNL     1     -21.367   0.420  14.355  1.00  0.00     0.000 C 
BRANCH   4   5
ATOM      5  C   UNL     1     -21.410   1.593  13.361  1.00  0.00     0.000 C 
BRANCH   5   6
ATOM      6  C   UNL     1     -22.156   1.237  12.066  1.00  0.00     0.000 C 
BRANCH   6   7
ATOM      7  C   UNL     1     -21.520   1.931  10.854  1.00  0.00     0.000 C 
BRANCH   7   8
ATOM      8  C   UNL     1     -22.473   1.912   9.653  1.00  0.00     0.000 C 
BRANCH   8   9
ATOM      9  C   UNL     1     -22.184   3.078   8.697  1.00  0.00     0.000 C 
BRANCH   9  10
ATOM     10  C   UNL     1     -21.783   2.614   7.285  1.00  0.00     0.006 C 
BRANCH  10  11
ATOM     11  C   UNL     1     -20.794   1.434   7.269  1.00  0.00     0.053 C 
BRANCH  11  12
ATOM     12  C   UNL     1     -21.102   0.438   6.192  1.00  0.00     0.041 C 
ATOM     13  O   UNL     1     -22.183   0.509   5.551  1.00  0.00    -0.550 OA
ATOM     14  O   UNL     1     -20.202  -0.580   5.907  1.00  0.00    -0.550 OA
ENDBRANCH  11  12
ENDBRANCH  10  11
ENDBRANCH   9  10
ENDBRANCH   8   9
ENDBRANCH   7   8
ENDBRANCH   6   7
ENDBRANCH   5   6
ENDBRANCH   4   5
ENDBRANCH   3   4
ENDBRANCH   2   3
ENDBRANCH   1   2
BRANCH   1  15
ATOM     15  C   UNL     1     -20.297  -1.894  10.981  1.00  0.00     0.000 C 
BRANCH  15  16
ATOM     16  C   UNL     1     -20.831  -1.257   9.687  1.00  0.00     0.000 C 
BRANCH  16  17
ATOM     17  C   UNL     1     -20.653  -2.170   8.464  1.00  0.00     0.000 C 
BRANCH  17  18
ATOM     18  C   UNL     1     -19.836  -3.436   8.780  1.00  0.00    -0.000 C 
BRANCH  18  19
ATOM     19  C   UNL     1     -20.056  -4.548   7.741  1.00  0.00    -0.000 C 
BRANCH  19  20
ATOM     20  C   UNL     1     -20.244  -5.928   8.389  1.00  0.00    -0.000 C 
BRANCH  20  21
ATOM     21  C   UNL     1     -21.684  -6.112   8.884  1.00  0.00    -0.000 C 
BRANCH  21  22
ATOM     22  C   UNL     1     -22.490  -6.985   7.917  1.00  0.00    -0.000 C 
BRANCH  22  23
ATOM     23  C   UNL     1     -23.928  -7.187   8.421  1.00  0.00    -0.000 C 
BRANCH  23  24
ATOM     24  C   UNL     1     -24.494  -8.570   8.035  1.00  0.00    -0.000 C 
BRANCH  24  25
ATOM     25  C   UNL     1     -25.983  -8.540   7.650  1.00  0.00    -0.003 C 
ATOM     26  C   UNL     1     -26.717  -9.836   7.988  1.00  0.00     0.004 C 
ENDBRANCH  24  25
ENDBRANCH  23  24
ENDBRANCH  22  23
ENDBRANCH  21  22
ENDBRANCH  20  21
ENDBRANCH  19  20
ENDBRANCH  18  19
ENDBRANCH  17  18
ENDBRANCH  16  17
ENDBRANCH  15  16
ENDBRANCH   1  15
TORSDOF 22
ENDMDL
MODEL 7
REMARK VINA RESULT:     0.193      5.298      7.976
REMARK INTER + INTRA:          -1.284
REMARK INTER:                   0.146
REMARK INTRA:                  -1.430
REMARK UNBOUND:                -1.726
REMARK SMILES CCCCCCCCCCCCCCCCCCCCCCCC(=O)[O-]
REMARK SMILES IDX 13 1 14 2 15 3 16 4 17 5 18 6 19 7 20 8 21 9 22 10 23 11
REMARK SMILES IDX 24 12 25 13 26 14 12 15 11 16 10 17 9 18 8 19 7 20 6 21 5 22
REMARK SMILES IDX 4 23 3 24 2 25 1 26
REMARK H PARENT
REMARK Flexibility Score: inf
ROOT
ATOM      1  C   UNL     1     -20.374  -0.722   6.408  1.00  0.00     0.000 C 
ENDROOT
BRANCH   1   2
ATOM      2  C   UNL     1     -21.389   0.280   5.829  1.00  0.00     0.000 C 
BRANCH   2   3
ATOM      3  C   UNL     1     -21.373   1.632   6.559  1.00  0.00     0.000 C 
BRANCH   3   4
ATOM      4  C   UNL     1     -21.426   1.478   8.088  1.00  0.00     0.000 C 
BRANCH   4   5
ATOM      5  C   UNL     1     -22.210   2.613   8.768  1.00  0.00     0.000 C 
BRANCH   5   6
ATOM      6  C   UNL     1     -23.032   2.122   9.969  1.00  0.00     0.000 C 
BRANCH   6   7
ATOM      7  C   UNL     1     -22.172   1.279  10.920  1.00  0.00     0.000 C 
BRANCH   7   8
ATOM      8  C   UNL     1     -21.505   2.163  11.980  1.00  0.00     0.000 C 
BRANCH   8   9
ATOM      9  C   UNL     1     -21.457   1.457  13.342  1.00  0.00     0.000 C 
BRANCH   9  10
ATOM     10  C   UNL     1     -22.332   0.191  13.395  1.00  0.00     0.006 C 
BRANCH  10  11
ATOM     11  C   UNL     1     -21.594  -1.062  13.900  1.00  0.00     0.053 C 
BRANCH  11  12
ATOM     12  C   UNL     1     -21.266  -2.022  12.797  1.00  0.00     0.041 C 
ATOM     13  O   UNL     1     -20.454  -1.697  11.891  1.00  0.00    -0.550 OA
ATOM     14  O   UNL     1     -21.869  -3.272  12.759  1.00  0.00    -0.550 OA
ENDBRANCH  11  12
ENDBRANCH  10  11
ENDBRANCH   9  10
ENDBRANCH   8   9
ENDBRANCH   7   8
ENDBRANCH   6   7
ENDBRANCH   5   6
ENDBRANCH   4   5
ENDBRANCH   3   4
ENDBRANCH   2   3
ENDBRANCH   1   2
BRANCH   1  15
ATOM     15  C   UNL     1     -21.053  -1.897   7.132  1.00  0.00     0.000 C 
BRANCH  15  16
ATOM     16  C   UNL     1     -20.785  -1.891   8.647  1.00  0.00     0.000 C 
BRANCH  16  17
ATOM     17  C   UNL     1     -20.291  -3.251   9.163  1.00  0.00     0.000 C 
BRANCH  17  18
ATOM     18  C   UNL     1     -19.612  -4.093   8.068  1.00  0.00    -0.000 C 
BRANCH  18  19
ATOM     19  C   UNL     1     -20.078  -5.559   8.085  1.00  0.00    -0.000 C 
BRANCH  19  20
ATOM     20  C   UNL     1     -21.496  -5.718   8.652  1.00  0.00    -0.000 C 
BRANCH  20  21
ATOM     21  C   UNL     1     -22.251  -6.847   7.941  1.00  0.00    -0.000 C 
BRANCH  21  22
ATOM     22  C   UNL     1     -23.574  -7.155   8.649  1.00  0.00    -0.000 C 
BRANCH  22  23
ATOM     23  C   UNL     1     -24.220  -8.431   8.086  1.00  0.00    -0.000 C 
BRANCH  23  24
ATOM     24  C   UNL     1     -25.714  -8.233   7.754  1.00  0.00    -0.000 C 
BRANCH  24  25
ATOM     25  C   UNL     1     -26.487  -9.552   7.585  1.00  0.00    -0.003 C 
ATOM     26  C   UNL     1     -27.161 -10.022   8.873  1.00  0.00     0.004 C 
ENDBRANCH  24  25
ENDBRANCH  23  24
ENDBRANCH  22  23
ENDBRANCH  21  22
ENDBRANCH  20  21
ENDBRANCH  19  20
ENDBRANCH  18  19
ENDBRANCH  17  18
ENDBRANCH  16  17
ENDBRANCH  15  16
ENDBRANCH   1  15
TORSDOF 22
ENDMDL
MODEL 8
REMARK VINA RESULT:     0.264      3.206      9.007
REMARK INTER + INTRA:          -1.122
REMARK INTER:                   0.606
REMARK INTRA:                  -1.728
REMARK UNBOUND:                -1.726
REMARK SMILES CCCCCCCCCCCCCCCCCCCCCCCC(=O)[O-]
REMARK SMILES IDX 13 1 14 2 15 3 16 4 17 5 18 6 19 7 20 8 21 9 22 10 23 11
REMARK SMILES IDX 24 12 25 13 26 14 12 15 11 16 10 17 9 18 8 19 7 20 6 21 5 22
REMARK SMILES IDX 4 23 3 24 2 25 1 26
REMARK H PARENT
REMARK Flexibility Score: inf
ROOT
ATOM      1  C   UNL     1     -21.828   1.953  10.112  1.00  0.00     0.000 C 
ENDROOT
BRANCH   1   2
ATOM      2  C   UNL     1     -22.430   1.373  11.405  1.00  0.00     0.000 C 
BRANCH   2   3
ATOM      3  C   UNL     1     -21.483   1.494  12.609  1.00  0.00     0.000 C 
BRANCH   3   4
ATOM      4  C   UNL     1     -21.783   0.456  13.703  1.00  0.00     0.000 C 
BRANCH   4   5
ATOM      5  C   UNL     1     -20.834  -0.753  13.643  1.00  0.00     0.000 C 
BRANCH   5   6
ATOM      6  C   UNL     1     -21.395  -1.899  12.786  1.00  0.00     0.000 C 
BRANCH   6   7
ATOM      7  C   UNL     1     -20.430  -2.265  11.652  1.00  0.00     0.000 C 
BRANCH   7   8
ATOM      8  C   UNL     1     -20.863  -1.609  10.335  1.00  0.00     0.000 C 
BRANCH   8   9
ATOM      9  C   UNL     1     -20.305  -2.372   9.126  1.00  0.00     0.000 C 
BRANCH   9  10
ATOM     10  C   UNL     1     -20.783  -1.799   7.779  1.00  0.00     0.006 C 
BRANCH  10  11
ATOM     11  C   UNL     1     -21.410  -0.397   7.881  1.00  0.00     0.053 C 
BRANCH  11  12
ATOM     12  C   UNL     1     -21.082   0.469   6.702  1.00  0.00     0.041 C 
ATOM     13  O   UNL     1     -21.647   0.275   5.594  1.00  0.00    -0.550 OA
ATOM     14  O   UNL     1     -20.139   1.482   6.822  1.00  0.00    -0.550 OA
ENDBRANCH  11  12
ENDBRANCH  10  11
ENDBRANCH   9  10
ENDBRANCH   8   9
ENDBRANCH   7   8
ENDBRANCH   6   7
ENDBRANCH   5   6
ENDBRANCH   4   5
ENDBRANCH   3   4
ENDBRANCH   2   3
ENDBRANCH   1   2
BRANCH   1  15
ATOM     15  C   UNL     1     -22.810   2.871   9.364  1.00  0.00     0.000 C 
BRANCH  15  16
ATOM     16  C   UNL     1     -22.124   3.690   8.257  1.00  0.00     0.000 C 
BRANCH  16  17
ATOM     17  C   UNL     1     -22.391   5.198   8.388  1.00  0.00     0.000 C 
BRANCH  17  18
ATOM     18  C   UNL     1     -21.133   5.993   8.781  1.00  0.00    -0.000 C 
BRANCH  18  19
ATOM     19  C   UNL     1     -20.515   5.496  10.098  1.00  0.00    -0.000 C 
BRANCH  19  20
ATOM     20  C   UNL     1     -19.340   6.369  10.561  1.00  0.00    -0.000 C 
BRANCH  20  21
ATOM     21  C   UNL     1     -18.889   7.322   9.447  1.00  0.00    -0.000 C 
BRANCH  21  22
ATOM     22  C   UNL     1     -17.366   7.490   9.450  1.00  0.00    -0.000 C 
BRANCH  22  23
ATOM     23  C   UNL     1     -16.972   8.975   9.453  1.00  0.00    -0.000 C 
BRANCH  23  24
ATOM     24  C   UNL     1     -15.442   9.175   9.455  1.00  0.00    -0.000 C 
BRANCH  24  25
ATOM     25  C   UNL     1     -14.947  10.125  10.558  1.00  0.00    -0.003 C 
ATOM     26  C   UNL     1     -14.979   9.497  11.950  1.00  0.00     0.004 C 
ENDBRANCH  24  25
ENDBRANCH  23  24
ENDBRANCH  22  23
ENDBRANCH  21  22
ENDBRANCH  20  21
ENDBRANCH  19  20
ENDBRANCH  18  19
ENDBRANCH  17  18
ENDBRANCH  16  17
ENDBRANCH  15  16
ENDBRANCH   1  15
TORSDOF 22
ENDMDL
MODEL 9
REMARK VINA RESULT:     0.407      3.709     10.231
REMARK INTER + INTRA:          -0.796
REMARK INTER:                  -0.069
REMARK INTRA:                  -0.727
REMARK UNBOUND:                -1.726
REMARK SMILES CCCCCCCCCCCCCCCCCCCCCCCC(=O)[O-]
REMARK SMILES IDX 13 1 14 2 15 3 16 4 17 5 18 6 19 7 20 8 21 9 22 10 23 11
REMARK SMILES IDX 24 12 25 13 26 14 12 15 11 16 10 17 9 18 8 19 7 20 6 21 5 22
REMARK SMILES IDX 4 23 3 24 2 25 1 26
REMARK H PARENT
REMARK Flexibility Score: inf
ROOT
ATOM      1  C   UNL     1     -22.285   3.979   8.376  1.00  0.00     0.000 C 
ENDROOT
BRANCH   1   2
ATOM      2  C   UNL     1     -22.450   2.782   9.330  1.00  0.00     0.000 C 
BRANCH   2   3
ATOM      3  C   UNL     1     -21.960   1.461   8.718  1.00  0.00     0.000 C 
BRANCH   3   4
ATOM      4  C   UNL     1     -21.301   1.657   7.342  1.00  0.00     0.000 C 
BRANCH   4   5
ATOM      5  C   UNL     1     -20.823   0.332   6.724  1.00  0.00     0.000 C 
BRANCH   5   6
ATOM      6  C   UNL     1     -21.265  -0.891   7.543  1.00  0.00     0.000 C 
BRANCH   6   7
ATOM      7  C   UNL     1     -20.327  -1.128   8.734  1.00  0.00     0.000 C 
BRANCH   7   8
ATOM      8  C   UNL     1     -20.486  -2.553   9.278  1.00  0.00     0.000 C 
BRANCH   8   9
ATOM      9  C   UNL     1     -21.265  -2.557  10.600  1.00  0.00     0.000 C 
BRANCH   9  10
ATOM     10  C   UNL     1     -20.463  -1.968  11.775  1.00  0.00     0.006 C 
BRANCH  10  11
ATOM     11  C   UNL     1     -21.211  -1.990  13.120  1.00  0.00     0.053 C 
BRANCH  11  12
ATOM     12  C   UNL     1     -21.465  -0.615  13.661  1.00  0.00     0.041 C 
ATOM     13  O   UNL     1     -22.212   0.185  13.039  1.00  0.00    -0.550 OA
ATOM     14  O   UNL     1     -20.864  -0.210  14.845  1.00  0.00    -0.550 OA
ENDBRANCH  11  12
ENDBRANCH  10  11
ENDBRANCH   9  10
ENDBRANCH   8   9
ENDBRANCH   7   8
ENDBRANCH   6   7
ENDBRANCH   5   6
ENDBRANCH   4   5
ENDBRANCH   3   4
ENDBRANCH   2   3
ENDBRANCH   1   2
BRANCH   1  15
ATOM     15  C   UNL     1     -21.908   5.275   9.114  1.00  0.00     0.000 C 
BRANCH  15  16
ATOM     16  C   UNL     1     -20.626   5.918   8.558  1.00  0.00     0.000 C 
BRANCH  16  17
ATOM     17  C   UNL     1     -20.036   6.972   9.509  1.00  0.00     0.000 C 
BRANCH  17  18
ATOM     18  C   UNL     1     -18.498   6.933   9.560  1.00  0.00    -0.000 C 
BRANCH  18  19
ATOM     19  C   UNL     1     -17.877   8.339   9.531  1.00  0.00    -0.000 C 
BRANCH  19  20
ATOM     20  C   UNL     1     -16.351   8.310   9.704  1.00  0.00    -0.000 C 
BRANCH  20  21
ATOM     21  C   UNL     1     -15.765   9.727   9.664  1.00  0.00    -0.000 C 
BRANCH  21  22
ATOM     22  C   UNL     1     -14.654   9.892  10.706  1.00  0.00    -0.000 C 
BRANCH  22  23
ATOM     23  C   UNL     1     -15.239  10.122  12.108  1.00  0.00    -0.000 C 
BRANCH  23  24
ATOM     24  C   UNL     1     -14.168  10.015  13.214  1.00  0.00    -0.000 C 
BRANCH  24  25
ATOM     25  C   UNL     1     -12.727  10.123  12.689  1.00  0.00    -0.003 C 
ATOM     26  C   UNL     1     -11.674   9.862  13.764  1.00  0.00     0.004 C 
ENDBRANCH  24  25
ENDBRANCH  23  24
ENDBRANCH  22  23
ENDBRANCH  21  22
ENDBRANCH  20  21
ENDBRANCH  19  20
ENDBRANCH  18  19
ENDBRANCH  17  18
ENDBRANCH  16  17
ENDBRANCH  15  16
ENDBRANCH   1  15
TORSDOF 22
ENDMDL
