MODEL 1
REMARK VINA RESULT:    -5.372      0.000      0.000
REMARK INTER + INTRA:          -5.686
REMARK INTER:                  -5.686
REMARK INTRA:                   0.000
REMARK UNBOUND:                 0.000
REMARK SMILES O=c1ccc2cc(O)c(O)cc2o1
REMARK SMILES IDX 4 1 3 2 2 3 1 4 13 5 12 6 11 7 9 8 7 9 6 10 5 11 8 12 10 14
REMARK H PARENT 8 13 10 15
REMARK Flexibility Score: inf
ROOT
ATOM      1  C   UNL     1      13.103  -8.729  16.337  1.00  0.00     0.019 A 
ATOM      2  C   UNL     1      12.999  -8.841  17.723  1.00  0.00     0.094 A 
ATOM      3  C   UNL     1      14.156  -9.071  18.474  1.00  0.00     0.336 A 
ATOM      4  O   UNL     1      14.083  -9.176  19.726  1.00  0.00    -0.246 OA
ATOM      5  O   UNL     1      15.338  -9.183  17.872  1.00  0.00    -0.423 OA
ATOM      6  C   UNL     1      15.482  -9.084  16.553  1.00  0.00     0.142 A 
ATOM      7  C   UNL     1      16.749  -9.210  15.976  1.00  0.00     0.098 A 
ATOM      8  C   UNL     1      16.907  -9.106  14.586  1.00  0.00     0.161 A 
ATOM      9  C   UNL     1      15.786  -8.873  13.768  1.00  0.00     0.158 A 
ATOM     10  C   UNL     1      14.515  -8.746  14.343  1.00  0.00     0.062 A 
ATOM     11  C   UNL     1      14.358  -8.850  15.731  1.00  0.00     0.022 A 
ENDROOT
BRANCH   9  12
ATOM     12  O   UNL     1      15.914  -8.766  12.384  1.00  0.00    -0.504 OA
ATOM     13  H   UNL     1      15.283  -9.237  11.747  1.00  0.00     0.293 HD
ENDBRANCH   9  12
BRANCH   8  14
ATOM     14  O   UNL     1      18.172  -9.232  14.015  1.00  0.00    -0.504 OA
ATOM     15  H   UNL     1      18.673  -8.429  13.651  1.00  0.00     0.293 HD
ENDBRANCH   8  14
TORSDOF 2
ENDMDL
MODEL 2
REMARK VINA RESULT:    -5.351     15.304     15.738
REMARK INTER + INTRA:          -5.664
REMARK INTER:                  -5.664
REMARK INTRA:                   0.000
REMARK UNBOUND:                 0.000
REMARK SMILES O=c1ccc2cc(O)c(O)cc2o1
REMARK SMILES IDX 4 1 3 2 2 3 1 4 13 5 12 6 11 7 9 8 7 9 6 10 5 11 8 12 10 14
REMARK H PARENT 8 13 10 15
REMARK Flexibility Score: inf
ROOT
ATOM      1  C   UNL     1      14.714   7.000  14.193  1.00  0.00     0.019 A 
ATOM      2  C   UNL     1      14.378   5.904  13.399  1.00  0.00     0.094 A 
ATOM      3  C   UNL     1      15.022   4.682  13.621  1.00  0.00     0.336 A 
ATOM      4  O   UNL     1      14.732   3.681  12.914  1.00  0.00    -0.246 OA
ATOM      5  O   UNL     1      15.942   4.570  14.577  1.00  0.00    -0.423 OA
ATOM      6  C   UNL     1      16.293   5.590  15.356  1.00  0.00     0.142 A 
ATOM      7  C   UNL     1      17.266   5.412  16.343  1.00  0.00     0.098 A 
ATOM      8  C   UNL     1      17.640   6.484  17.168  1.00  0.00     0.161 A 
ATOM      9  C   UNL     1      17.033   7.742  17.002  1.00  0.00     0.158 A 
ATOM     10  C   UNL     1      16.058   7.923  16.013  1.00  0.00     0.062 A 
ATOM     11  C   UNL     1      15.685   6.853  15.190  1.00  0.00     0.022 A 
ENDROOT
BRANCH   9  12
ATOM     12  O   UNL     1      17.387   8.824  17.807  1.00  0.00    -0.504 OA
ATOM     13  H   UNL     1      17.474   9.764  17.438  1.00  0.00     0.293 HD
ENDBRANCH   9  12
BRANCH   8  14
ATOM     14  O   UNL     1      18.611   6.303  18.151  1.00  0.00    -0.504 OA
ATOM     15  H   UNL     1      19.090   7.089  18.576  1.00  0.00     0.293 HD
ENDBRANCH   8  14
TORSDOF 2
ENDMDL
MODEL 3
REMARK VINA RESULT:    -5.336     16.650     17.202
REMARK INTER + INTRA:          -5.648
REMARK INTER:                  -5.648
REMARK INTRA:                   0.000
REMARK UNBOUND:                 0.000
REMARK SMILES O=c1ccc2cc(O)c(O)cc2o1
REMARK SMILES IDX 4 1 3 2 2 3 1 4 13 5 12 6 11 7 9 8 7 9 6 10 5 11 8 12 10 14
REMARK H PARENT 8 13 10 15
REMARK Flexibility Score: inf
ROOT
ATOM      1  C   UNL     1      13.557   7.241  15.852  1.00  0.00     0.019 A 
ATOM      2  C   UNL     1      13.703   7.533  14.497  1.00  0.00     0.094 A 
ATOM      3  C   UNL     1      14.942   7.987  14.030  1.00  0.00     0.336 A 
ATOM      4  O   UNL     1      15.094   8.256  12.810  1.00  0.00    -0.246 OA
ATOM      5  O   UNL     1      15.964   8.136  14.870  1.00  0.00    -0.423 OA
ATOM      6  C   UNL     1      15.867   7.870  16.170  1.00  0.00     0.142 A 
ATOM      7  C   UNL     1      16.975   8.046  17.004  1.00  0.00     0.098 A 
ATOM      8  C   UNL     1      16.879   7.766  18.375  1.00  0.00     0.161 A 
ATOM      9  C   UNL     1      15.664   7.305  18.914  1.00  0.00     0.158 A 
ATOM     10  C   UNL     1      14.552   7.128  18.081  1.00  0.00     0.062 A 
ATOM     11  C   UNL     1      14.648   7.407  16.712  1.00  0.00     0.022 A 
ENDROOT
BRANCH   9  12
ATOM     12  O   UNL     1      15.541   7.020  20.274  1.00  0.00    -0.504 OA
ATOM     13  H   UNL     1      14.827   7.449  20.851  1.00  0.00     0.293 HD
ENDBRANCH   9  12
BRANCH   8  14
ATOM     14  O   UNL     1      17.986   7.943  19.203  1.00  0.00    -0.504 OA
ATOM     15  H   UNL     1      18.931   7.801  18.865  1.00  0.00     0.293 HD
ENDBRANCH   8  14
TORSDOF 2
ENDMDL
MODEL 4
REMARK VINA RESULT:    -5.177     15.362     15.875
REMARK INTER + INTRA:          -5.479
REMARK INTER:                  -5.479
REMARK INTRA:                   0.000
REMARK UNBOUND:                 0.000
REMARK SMILES O=c1ccc2cc(O)c(O)cc2o1
REMARK SMILES IDX 4 1 3 2 2 3 1 4 13 5 12 6 11 7 9 8 7 9 6 10 5 11 8 12 10 14
REMARK H PARENT 8 13 10 15
REMARK Flexibility Score: inf
ROOT
ATOM      1  C   UNL     1      14.671   5.664  13.554  1.00  0.00     0.019 A 
ATOM      2  C   UNL     1      14.400   6.808  12.804  1.00  0.00     0.094 A 
ATOM      3  C   UNL     1      15.068   7.997  13.115  1.00  0.00     0.336 A 
ATOM      4  O   UNL     1      14.837   9.041  12.450  1.00  0.00    -0.246 OA
ATOM      5  O   UNL     1      15.949   8.033  14.113  1.00  0.00    -0.423 OA
ATOM      6  C   UNL     1      16.236   6.965  14.853  1.00  0.00     0.142 A 
ATOM      7  C   UNL     1      17.170   7.063  15.889  1.00  0.00     0.098 A 
ATOM      8  C   UNL     1      17.477   5.941  16.672  1.00  0.00     0.161 A 
ATOM      9  C   UNL     1      16.844   4.711  16.415  1.00  0.00     0.158 A 
ATOM     10  C   UNL     1      15.908   4.610  15.378  1.00  0.00     0.062 A 
ATOM     11  C   UNL     1      15.601   5.731  14.596  1.00  0.00     0.022 A 
ENDROOT
BRANCH   9  12
ATOM     12  O   UNL     1      17.131   3.580  17.179  1.00  0.00    -0.504 OA
ATOM     13  H   UNL     1      17.755   2.853  16.850  1.00  0.00     0.293 HD
ENDBRANCH   9  12
BRANCH   8  14
ATOM     14  O   UNL     1      18.409   6.043  17.704  1.00  0.00    -0.504 OA
ATOM     15  H   UNL     1      18.932   5.237  18.029  1.00  0.00     0.293 HD
ENDBRANCH   8  14
TORSDOF 2
ENDMDL
MODEL 5
REMARK VINA RESULT:    -5.134      1.306      2.307
REMARK INTER + INTRA:          -5.435
REMARK INTER:                  -5.435
REMARK INTRA:                   0.000
REMARK UNBOUND:                 0.000
REMARK SMILES O=c1ccc2cc(O)c(O)cc2o1
REMARK SMILES IDX 4 1 3 2 2 3 1 4 13 5 12 6 11 7 9 8 7 9 6 10 5 11 8 12 10 14
REMARK H PARENT 8 13 10 15
REMARK Flexibility Score: inf
ROOT
ATOM      1  C   UNL     1      15.049  -9.244  17.785  1.00  0.00     0.019 A 
ATOM      2  C   UNL     1      13.790  -8.939  18.301  1.00  0.00     0.094 A 
ATOM      3  C   UNL     1      12.821  -8.397  17.450  1.00  0.00     0.336 A 
ATOM      4  O   UNL     1      11.678  -8.115  17.897  1.00  0.00    -0.246 OA
ATOM      5  O   UNL     1      13.099  -8.177  16.166  1.00  0.00    -0.423 OA
ATOM      6  C   UNL     1      14.287  -8.453  15.634  1.00  0.00     0.142 A 
ATOM      7  C   UNL     1      14.521  -8.200  14.280  1.00  0.00     0.098 A 
ATOM      8  C   UNL     1      15.771  -8.490  13.712  1.00  0.00     0.161 A 
ATOM      9  C   UNL     1      16.793  -9.037  14.509  1.00  0.00     0.158 A 
ATOM     10  C   UNL     1      16.561  -9.292  15.866  1.00  0.00     0.062 A 
ATOM     11  C   UNL     1      15.313  -9.003  16.433  1.00  0.00     0.022 A 
ENDROOT
BRANCH   9  12
ATOM     12  O   UNL     1      18.045  -9.334  13.970  1.00  0.00    -0.504 OA
ATOM     13  H   UNL     1      18.320  -9.024  13.045  1.00  0.00     0.293 HD
ENDBRANCH   9  12
BRANCH   8  14
ATOM     14  O   UNL     1      16.001  -8.236  12.361  1.00  0.00    -0.504 OA
ATOM     15  H   UNL     1      15.983  -7.294  11.987  1.00  0.00     0.293 HD
ENDBRANCH   8  14
TORSDOF 2
ENDMDL
MODEL 6
REMARK VINA RESULT:    -5.121     16.454     16.600
REMARK INTER + INTRA:          -5.420
REMARK INTER:                  -5.420
REMARK INTRA:                   0.000
REMARK UNBOUND:                 0.000
REMARK SMILES O=c1ccc2cc(O)c(O)cc2o1
REMARK SMILES IDX 4 1 3 2 2 3 1 4 13 5 12 6 11 7 9 8 7 9 6 10 5 11 8 12 10 14
REMARK H PARENT 8 13 10 15
REMARK Flexibility Score: inf
ROOT
ATOM      1  C   UNL     1      15.959   7.000  19.257  1.00  0.00     0.019 A 
ATOM      2  C   UNL     1      14.759   7.295  19.902  1.00  0.00     0.094 A 
ATOM      3  C   UNL     1      13.672   7.742  19.143  1.00  0.00     0.336 A 
ATOM      4  O   UNL     1      12.580   8.014  19.708  1.00  0.00    -0.246 OA
ATOM      5  O   UNL     1      13.785   7.883  17.824  1.00  0.00    -0.423 OA
ATOM      6  C   UNL     1      14.912   7.614  17.169  1.00  0.00     0.142 A 
ATOM      7  C   UNL     1      14.971   7.781  15.783  1.00  0.00     0.098 A 
ATOM      8  C   UNL     1      16.156   7.498  15.087  1.00  0.00     0.161 A 
ATOM      9  C   UNL     1      17.289   7.043  15.786  1.00  0.00     0.158 A 
ATOM     10  C   UNL     1      17.232   6.874  17.175  1.00  0.00     0.062 A 
ATOM     11  C   UNL     1      16.049   7.157  17.870  1.00  0.00     0.022 A 
ENDROOT
BRANCH   9  12
ATOM     12  O   UNL     1      18.479   6.755  15.118  1.00  0.00    -0.504 OA
ATOM     13  H   UNL     1      19.125   6.049  15.451  1.00  0.00     0.293 HD
ENDBRANCH   9  12
BRANCH   8  14
ATOM     14  O   UNL     1      16.211   7.667  13.704  1.00  0.00    -0.504 OA
ATOM     15  H   UNL     1      15.493   8.176  13.202  1.00  0.00     0.293 HD
ENDBRANCH   8  14
TORSDOF 2
ENDMDL
MODEL 7
REMARK VINA RESULT:    -5.105      2.697      3.345
REMARK INTER + INTRA:          -5.403
REMARK INTER:                  -5.403
REMARK INTRA:                   0.000
REMARK UNBOUND:                 0.000
REMARK SMILES O=c1ccc2cc(O)c(O)cc2o1
REMARK SMILES IDX 4 1 3 2 2 3 1 4 13 5 12 6 11 7 9 8 7 9 6 10 5 11 8 12 10 14
REMARK H PARENT 8 13 10 15
REMARK Flexibility Score: inf
ROOT
ATOM      1  C   UNL     1      14.689  -9.207  18.479  1.00  0.00     0.019 A 
ATOM      2  C   UNL     1      13.534  -9.009  19.235  1.00  0.00     0.094 A 
ATOM      3  C   UNL     1      13.030  -7.711  19.376  1.00  0.00     0.336 A 
ATOM      4  O   UNL     1      11.989  -7.511  20.055  1.00  0.00    -0.246 OA
ATOM      5  O   UNL     1      13.646  -6.683  18.795  1.00  0.00    -0.423 OA
ATOM      6  C   UNL     1      14.750  -6.828  18.066  1.00  0.00     0.142 A 
ATOM      7  C   UNL     1      15.353  -5.712  17.481  1.00  0.00     0.098 A 
ATOM      8  C   UNL     1      16.516  -5.859  16.710  1.00  0.00     0.161 A 
ATOM      9  C   UNL     1      17.079  -7.135  16.526  1.00  0.00     0.158 A 
ATOM     10  C   UNL     1      16.476  -8.256  17.111  1.00  0.00     0.062 A 
ATOM     11  C   UNL     1      15.315  -8.109  17.880  1.00  0.00     0.022 A 
ENDROOT
BRANCH   9  12
ATOM     12  O   UNL     1      18.235  -7.310  15.765  1.00  0.00    -0.504 OA
ATOM     13  H   UNL     1      19.106  -7.623  16.176  1.00  0.00     0.293 HD
ENDBRANCH   9  12
BRANCH   8  14
ATOM     14  O   UNL     1      17.115  -4.743  16.128  1.00  0.00    -0.504 OA
ATOM     15  H   UNL     1      16.603  -4.131  15.502  1.00  0.00     0.293 HD
ENDBRANCH   8  14
TORSDOF 2
ENDMDL
MODEL 8
REMARK VINA RESULT:    -5.104     16.492     17.020
REMARK INTER + INTRA:          -5.402
REMARK INTER:                  -5.402
REMARK INTRA:                   0.000
REMARK UNBOUND:                 0.000
REMARK SMILES O=c1ccc2cc(O)c(O)cc2o1
REMARK SMILES IDX 4 1 3 2 2 3 1 4 13 5 12 6 11 7 9 8 7 9 6 10 5 11 8 12 10 14
REMARK H PARENT 8 13 10 15
REMARK Flexibility Score: inf
ROOT
ATOM      1  C   UNL     1      15.868   8.003  14.818  1.00  0.00     0.019 A 
ATOM      2  C   UNL     1      14.777   7.697  14.005  1.00  0.00     0.094 A 
ATOM      3  C   UNL     1      13.626   7.156  14.588  1.00  0.00     0.336 A 
ATOM      4  O   UNL     1      12.631   6.873  13.871  1.00  0.00    -0.246 OA
ATOM      5  O   UNL     1      13.576   6.938  15.901  1.00  0.00    -0.423 OA
ATOM      6  C   UNL     1      14.594   7.215  16.712  1.00  0.00     0.142 A 
ATOM      7  C   UNL     1      14.484   6.963  18.082  1.00  0.00     0.098 A 
ATOM      8  C   UNL     1      15.553   7.253  18.943  1.00  0.00     0.161 A 
ATOM      9  C   UNL     1      16.742   7.800  18.425  1.00  0.00     0.158 A 
ATOM     10  C   UNL     1      16.855   8.054  17.052  1.00  0.00     0.062 A 
ATOM     11  C   UNL     1      15.787   7.763  16.193  1.00  0.00     0.022 A 
ENDROOT
BRANCH   9  12
ATOM     12  O   UNL     1      17.820   8.098  19.258  1.00  0.00    -0.504 OA
ATOM     13  H   UNL     1      18.014   9.042  19.571  1.00  0.00     0.293 HD
ENDBRANCH   9  12
BRANCH   8  14
ATOM     14  O   UNL     1      15.440   7.001  20.309  1.00  0.00    -0.504 OA
ATOM     15  H   UNL     1      14.957   7.642  20.929  1.00  0.00     0.293 HD
ENDBRANCH   8  14
TORSDOF 2
ENDMDL
MODEL 9
REMARK VINA RESULT:    -5.033      2.003      4.194
REMARK INTER + INTRA:          -5.327
REMARK INTER:                  -5.327
REMARK INTRA:                   0.000
REMARK UNBOUND:                 0.000
REMARK SMILES O=c1ccc2cc(O)c(O)cc2o1
REMARK SMILES IDX 4 1 3 2 2 3 1 4 13 5 12 6 11 7 9 8 7 9 6 10 5 11 8 12 10 14
REMARK H PARENT 8 13 10 15
REMARK Flexibility Score: inf
ROOT
ATOM      1  C   UNL     1      15.396  -8.462  12.454  1.00  0.00     0.019 A 
ATOM      2  C   UNL     1      14.163  -8.957  12.030  1.00  0.00     0.094 A 
ATOM      3  C   UNL     1      13.236  -9.380  12.988  1.00  0.00     0.336 A 
ATOM      4  O   UNL     1      12.118  -9.831  12.625  1.00  0.00    -0.246 OA
ATOM      5  O   UNL     1      13.529  -9.311  14.285  1.00  0.00    -0.423 OA
ATOM      6  C   UNL     1      14.693  -8.846  14.732  1.00  0.00     0.142 A 
ATOM      7  C   UNL     1      14.945  -8.798  16.106  1.00  0.00     0.098 A 
ATOM      8  C   UNL     1      16.170  -8.308  16.584  1.00  0.00     0.161 A 
ATOM      9  C   UNL     1      17.149  -7.864  15.677  1.00  0.00     0.158 A 
ATOM     10  C   UNL     1      16.900  -7.911  14.299  1.00  0.00     0.062 A 
ATOM     11  C   UNL     1      15.677  -8.400  13.823  1.00  0.00     0.022 A 
ENDROOT
BRANCH   9  12
ATOM     12  O   UNL     1      18.376  -7.373  16.124  1.00  0.00    -0.504 OA
ATOM     13  H   UNL     1      18.972  -6.800  15.539  1.00  0.00     0.293 HD
ENDBRANCH   9  12
BRANCH   8  14
ATOM     14  O   UNL     1      16.417  -8.261  17.954  1.00  0.00    -0.504 OA
ATOM     15  H   UNL     1      17.356  -8.158  18.322  1.00  0.00     0.293 HD
ENDBRANCH   8  14
TORSDOF 2
ENDMDL
