MODEL 1
REMARK VINA RESULT:    -5.092      0.000      0.000
REMARK INTER + INTRA:         -17.375
REMARK INTER:                 -13.428
REMARK INTRA:                  -3.947
REMARK UNBOUND:                -3.947
REMARK SMILES CCCCCCCCCCCCCCCCCCCCCCCCCCCCCC(=O)[O-]
REMARK SMILES IDX 16 1 17 2 18 3 19 4 20 5 21 6 22 7 23 8 24 9 25 10 26 11
REMARK SMILES IDX 27 12 28 13 29 14 30 15 31 16 32 17 15 18 14 19 13 20 12 21
REMARK SMILES IDX 11 22 10 23 9 24 8 25 7 26 6 27 5 28 4 29 3 30 2 31 1 32
REMARK H PARENT
REMARK Flexibility Score: inf
ROOT
ATOM      1  C   UNL     1      -6.248  27.624 -19.620  1.00  0.00     0.000 C 
ENDROOT
BRANCH   1   2
ATOM      2  C   UNL     1      -5.479  26.295 -19.722  1.00  0.00     0.000 C 
BRANCH   2   3
ATOM      3  C   UNL     1      -4.003  26.496 -20.102  1.00  0.00     0.000 C 
BRANCH   3   4
ATOM      4  C   UNL     1      -3.215  27.297 -19.050  1.00  0.00     0.000 C 
BRANCH   4   5
ATOM      5  C   UNL     1      -2.837  28.735 -19.463  1.00  0.00     0.000 C 
BRANCH   5   6
ATOM      6  C   UNL     1      -3.096  29.083 -20.939  1.00  0.00     0.000 C 
BRANCH   6   7
ATOM      7  C   UNL     1      -3.681  30.490 -21.130  1.00  0.00     0.000 C 
BRANCH   7   8
ATOM      8  C   UNL     1      -4.661  30.519 -22.307  1.00  0.00     0.000 C 
BRANCH   8   9
ATOM      9  C   UNL     1      -5.003  29.100 -22.776  1.00  0.00     0.000 C 
BRANCH   9  10
ATOM     10  C   UNL     1      -6.512  28.947 -23.015  1.00  0.00     0.000 C 
BRANCH  10  11
ATOM     11  C   UNL     1      -6.833  28.324 -24.390  1.00  0.00     0.000 C 
BRANCH  11  12
ATOM     12  C   UNL     1      -8.274  27.792 -24.511  1.00  0.00     0.000 C 
BRANCH  12  13
ATOM     13  C   UNL     1      -8.817  27.707 -25.950  1.00  0.00     0.006 C 
BRANCH  13  14
ATOM     14  C   UNL     1      -7.739  27.481 -27.023  1.00  0.00     0.053 C 
BRANCH  14  15
ATOM     15  C   UNL     1      -8.037  26.283 -27.870  1.00  0.00     0.041 C 
ATOM     16  O   UNL     1      -9.221  26.033 -28.221  1.00  0.00    -0.550 OA
ATOM     17  O   UNL     1      -7.013  25.420 -28.240  1.00  0.00    -0.550 OA
ENDBRANCH  14  15
ENDBRANCH  13  14
ENDBRANCH  12  13
ENDBRANCH  11  12
ENDBRANCH  10  11
ENDBRANCH   9  10
ENDBRANCH   8   9
ENDBRANCH   7   8
ENDBRANCH   6   7
ENDBRANCH   5   6
ENDBRANCH   4   5
ENDBRANCH   3   4
ENDBRANCH   2   3
ENDBRANCH   1   2
BRANCH   1  18
ATOM     18  C   UNL     1      -6.761  27.906 -18.197  1.00  0.00     0.000 C 
BRANCH  18  19
ATOM     19  C   UNL     1      -6.766  29.406 -17.859  1.00  0.00     0.000 C 
BRANCH  19  20
ATOM     20  C   UNL     1      -6.579  30.295 -19.101  1.00  0.00     0.000 C 
BRANCH  20  21
ATOM     21  C   UNL     1      -6.866  31.778 -18.815  1.00  0.00     0.000 C 
BRANCH  21  22
ATOM     22  C   UNL     1      -6.131  32.722 -19.784  1.00  0.00     0.000 C 
BRANCH  22  23
ATOM     23  C   UNL     1      -6.107  34.177 -19.288  1.00  0.00     0.000 C 
BRANCH  23  24
ATOM     24  C   UNL     1      -5.905  35.190 -20.430  1.00  0.00    -0.000 C 
BRANCH  24  25
ATOM     25  C   UNL     1      -4.814  34.752 -21.420  1.00  0.00    -0.000 C 
BRANCH  25  26
ATOM     26  C   UNL     1      -3.401  34.831 -20.822  1.00  0.00    -0.000 C 
BRANCH  26  27
ATOM     27  C   UNL     1      -2.424  33.932 -21.591  1.00  0.00    -0.000 C 
BRANCH  27  28
ATOM     28  C   UNL     1      -1.155  33.671 -20.764  1.00  0.00    -0.000 C 
BRANCH  28  29
ATOM     29  C   UNL     1      -1.345  32.560 -19.718  1.00  0.00    -0.000 C 
BRANCH  29  30
ATOM     30  C   UNL     1      -0.105  31.662 -19.579  1.00  0.00    -0.000 C 
BRANCH  30  31
ATOM     31  C   UNL     1       1.209  32.447 -19.721  1.00  0.00    -0.003 C 
ATOM     32  C   UNL     1       2.253  32.051 -18.678  1.00  0.00     0.004 C 
ENDBRANCH  30  31
ENDBRANCH  29  30
ENDBRANCH  28  29
ENDBRANCH  27  28
ENDBRANCH  26  27
ENDBRANCH  25  26
ENDBRANCH  24  25
ENDBRANCH  23  24
ENDBRANCH  22  23
ENDBRANCH  21  22
ENDBRANCH  20  21
ENDBRANCH  19  20
ENDBRANCH  18  19
ENDBRANCH   1  18
TORSDOF 28
ENDMDL
MODEL 2
REMARK VINA RESULT:    -4.862      3.849      9.776
REMARK INTER + INTRA:         -16.767
REMARK INTER:                 -13.939
REMARK INTRA:                  -2.829
REMARK UNBOUND:                -3.947
REMARK SMILES CCCCCCCCCCCCCCCCCCCCCCCCCCCCCC(=O)[O-]
REMARK SMILES IDX 16 1 17 2 18 3 19 4 20 5 21 6 22 7 23 8 24 9 25 10 26 11
REMARK SMILES IDX 27 12 28 13 29 14 30 15 31 16 32 17 15 18 14 19 13 20 12 21
REMARK SMILES IDX 11 22 10 23 9 24 8 25 7 26 6 27 5 28 4 29 3 30 2 31 1 32
REMARK H PARENT
REMARK Flexibility Score: inf
ROOT
ATOM      1  C   UNL     1      -6.246  28.798 -23.477  1.00  0.00     0.000 C 
ENDROOT
BRANCH   1   2
ATOM      2  C   UNL     1      -5.783  28.502 -22.040  1.00  0.00     0.000 C 
BRANCH   2   3
ATOM      3  C   UNL     1      -4.295  28.826 -21.822  1.00  0.00     0.000 C 
BRANCH   3   4
ATOM      4  C   UNL     1      -4.069  30.224 -21.219  1.00  0.00     0.000 C 
BRANCH   4   5
ATOM      5  C   UNL     1      -3.118  30.272 -20.005  1.00  0.00     0.000 C 
BRANCH   5   6
ATOM      6  C   UNL     1      -2.057  31.385 -20.046  1.00  0.00     0.000 C 
BRANCH   6   7
ATOM      7  C   UNL     1      -2.241  32.345 -21.231  1.00  0.00     0.000 C 
BRANCH   7   8
ATOM      8  C   UNL     1      -1.436  33.632 -21.022  1.00  0.00     0.000 C 
BRANCH   8   9
ATOM      9  C   UNL     1      -2.352  34.861 -21.021  1.00  0.00     0.000 C 
BRANCH   9  10
ATOM     10  C   UNL     1      -3.276  34.859 -19.794  1.00  0.00     0.000 C 
BRANCH  10  11
ATOM     11  C   UNL     1      -4.728  35.242 -20.147  1.00  0.00     0.000 C 
BRANCH  11  12
ATOM     12  C   UNL     1      -5.622  34.036 -20.494  1.00  0.00     0.000 C 
BRANCH  12  13
ATOM     13  C   UNL     1      -5.709  32.954 -19.401  1.00  0.00     0.006 C 
BRANCH  13  14
ATOM     14  C   UNL     1      -6.739  31.848 -19.684  1.00  0.00     0.053 C 
BRANCH  14  15
ATOM     15  C   UNL     1      -6.863  30.894 -18.536  1.00  0.00     0.041 C 
ATOM     16  O   UNL     1      -7.122  31.323 -17.380  1.00  0.00    -0.550 OA
ATOM     17  O   UNL     1      -6.652  29.535 -18.735  1.00  0.00    -0.550 OA
ENDBRANCH  14  15
ENDBRANCH  13  14
ENDBRANCH  12  13
ENDBRANCH  11  12
ENDBRANCH  10  11
ENDBRANCH   9  10
ENDBRANCH   8   9
ENDBRANCH   7   8
ENDBRANCH   6   7
ENDBRANCH   5   6
ENDBRANCH   4   5
ENDBRANCH   3   4
ENDBRANCH   2   3
ENDBRANCH   1   2
BRANCH   1  18
ATOM     18  C   UNL     1      -7.739  28.493 -23.694  1.00  0.00     0.000 C 
BRANCH  18  19
ATOM     19  C   UNL     1      -8.009  27.801 -25.041  1.00  0.00     0.000 C 
BRANCH  19  20
ATOM     20  C   UNL     1      -6.770  27.775 -25.954  1.00  0.00     0.000 C 
BRANCH  20  21
ATOM     21  C   UNL     1      -7.137  27.695 -27.445  1.00  0.00     0.000 C 
BRANCH  21  22
ATOM     22  C   UNL     1      -7.120  26.253 -27.983  1.00  0.00     0.000 C 
BRANCH  22  23
ATOM     23  C   UNL     1      -8.367  25.917 -28.817  1.00  0.00     0.000 C 
BRANCH  23  24
ATOM     24  C   UNL     1      -9.581  25.550 -27.946  1.00  0.00    -0.000 C 
BRANCH  24  25
ATOM     25  C   UNL     1      -9.187  24.761 -26.688  1.00  0.00    -0.000 C 
BRANCH  25  26
ATOM     26  C   UNL     1     -10.257  23.744 -26.263  1.00  0.00    -0.000 C 
BRANCH  26  27
ATOM     27  C   UNL     1      -9.617  22.487 -25.660  1.00  0.00    -0.000 C 
BRANCH  27  28
ATOM     28  C   UNL     1     -10.226  22.169 -24.285  1.00  0.00    -0.000 C 
BRANCH  28  29
ATOM     29  C   UNL     1      -9.415  22.766 -23.123  1.00  0.00    -0.000 C 
BRANCH  29  30
ATOM     30  C   UNL     1     -10.308  23.276 -21.980  1.00  0.00    -0.000 C 
BRANCH  30  31
ATOM     31  C   UNL     1      -9.970  22.621 -20.632  1.00  0.00    -0.003 C 
ATOM     32  C   UNL     1      -8.530  22.881 -20.190  1.00  0.00     0.004 C 
ENDBRANCH  30  31
ENDBRANCH  29  30
ENDBRANCH  28  29
ENDBRANCH  27  28
ENDBRANCH  26  27
ENDBRANCH  25  26
ENDBRANCH  24  25
ENDBRANCH  23  24
ENDBRANCH  22  23
ENDBRANCH  21  22
ENDBRANCH  20  21
ENDBRANCH  19  20
ENDBRANCH  18  19
ENDBRANCH   1  18
TORSDOF 28
ENDMDL
MODEL 3
REMARK VINA RESULT:    -4.852      3.687      9.075
REMARK INTER + INTRA:         -16.742
REMARK INTER:                 -13.004
REMARK INTRA:                  -3.737
REMARK UNBOUND:                -3.947
REMARK SMILES CCCCCCCCCCCCCCCCCCCCCCCCCCCCCC(=O)[O-]
REMARK SMILES IDX 16 1 17 2 18 3 19 4 20 5 21 6 22 7 23 8 24 9 25 10 26 11
REMARK SMILES IDX 27 12 28 13 29 14 30 15 31 16 32 17 15 18 14 19 13 20 12 21
REMARK SMILES IDX 11 22 10 23 9 24 8 25 7 26 6 27 5 28 4 29 3 30 2 31 1 32
REMARK H PARENT
REMARK Flexibility Score: inf
ROOT
ATOM      1  C   UNL     1      -4.323  28.249 -20.953  1.00  0.00     0.000 C 
ENDROOT
BRANCH   1   2
ATOM      2  C   UNL     1      -3.321  28.635 -19.851  1.00  0.00     0.000 C 
BRANCH   2   3
ATOM      3  C   UNL     1      -3.112  30.155 -19.751  1.00  0.00     0.000 C 
BRANCH   3   4
ATOM      4  C   UNL     1      -1.627  30.560 -19.777  1.00  0.00     0.000 C 
BRANCH   4   5
ATOM      5  C   UNL     1      -1.359  32.078 -19.837  1.00  0.00     0.000 C 
BRANCH   5   6
ATOM      6  C   UNL     1      -1.184  32.658 -21.251  1.00  0.00     0.000 C 
BRANCH   6   7
ATOM      7  C   UNL     1      -2.282  33.665 -21.626  1.00  0.00     0.000 C 
BRANCH   7   8
ATOM      8  C   UNL     1      -3.570  32.942 -22.034  1.00  0.00     0.000 C 
BRANCH   8   9
ATOM      9  C   UNL     1      -4.799  33.605 -21.401  1.00  0.00     0.000 C 
BRANCH   9  10
ATOM     10  C   UNL     1      -4.774  33.464 -19.872  1.00  0.00     0.000 C 
BRANCH  10  11
ATOM     11  C   UNL     1      -6.034  32.762 -19.323  1.00  0.00     0.000 C 
BRANCH  11  12
ATOM     12  C   UNL     1      -6.610  31.690 -20.268  1.00  0.00     0.000 C 
BRANCH  12  13
ATOM     13  C   UNL     1      -6.838  30.309 -19.624  1.00  0.00     0.006 C 
BRANCH  13  14
ATOM     14  C   UNL     1      -6.706  30.294 -18.092  1.00  0.00     0.053 C 
BRANCH  14  15
ATOM     15  C   UNL     1      -6.776  28.904 -17.540  1.00  0.00     0.041 C 
ATOM     16  O   UNL     1      -6.841  28.719 -16.296  1.00  0.00    -0.550 OA
ATOM     17  O   UNL     1      -6.728  27.811 -18.397  1.00  0.00    -0.550 OA
ENDBRANCH  14  15
ENDBRANCH  13  14
ENDBRANCH  12  13
ENDBRANCH  11  12
ENDBRANCH  10  11
ENDBRANCH   9  10
ENDBRANCH   8   9
ENDBRANCH   7   8
ENDBRANCH   6   7
ENDBRANCH   5   6
ENDBRANCH   4   5
ENDBRANCH   3   4
ENDBRANCH   2   3
ENDBRANCH   1   2
BRANCH   1  18
ATOM     18  C   UNL     1      -4.040  28.960 -22.289  1.00  0.00     0.000 C 
BRANCH  18  19
ATOM     19  C   UNL     1      -5.326  29.289 -23.065  1.00  0.00     0.000 C 
BRANCH  19  20
ATOM     20  C   UNL     1      -6.516  28.409 -22.644  1.00  0.00     0.000 C 
BRANCH  20  21
ATOM     21  C   UNL     1      -7.624  28.364 -23.708  1.00  0.00     0.000 C 
BRANCH  21  22
ATOM     22  C   UNL     1      -7.087  28.019 -25.109  1.00  0.00     0.000 C 
BRANCH  22  23
ATOM     23  C   UNL     1      -8.204  27.638 -26.094  1.00  0.00     0.000 C 
BRANCH  23  24
ATOM     24  C   UNL     1      -7.661  27.070 -27.417  1.00  0.00    -0.000 C 
BRANCH  24  25
ATOM     25  C   UNL     1      -8.233  25.681 -27.741  1.00  0.00    -0.000 C 
BRANCH  25  26
ATOM     26  C   UNL     1      -9.416  25.299 -26.837  1.00  0.00    -0.000 C 
BRANCH  26  27
ATOM     27  C   UNL     1      -9.361  23.815 -26.453  1.00  0.00    -0.000 C 
BRANCH  27  28
ATOM     28  C   UNL     1     -10.653  23.386 -25.738  1.00  0.00    -0.000 C 
BRANCH  28  29
ATOM     29  C   UNL     1     -10.385  22.535 -24.486  1.00  0.00    -0.000 C 
BRANCH  29  30
ATOM     30  C   UNL     1      -8.928  22.632 -24.006  1.00  0.00    -0.000 C 
BRANCH  30  31
ATOM     31  C   UNL     1      -8.824  22.945 -22.505  1.00  0.00    -0.003 C 
ATOM     32  C   UNL     1     -10.178  22.919 -21.797  1.00  0.00     0.004 C 
ENDBRANCH  30  31
ENDBRANCH  29  30
ENDBRANCH  28  29
ENDBRANCH  27  28
ENDBRANCH  26  27
ENDBRANCH  25  26
ENDBRANCH  24  25
ENDBRANCH  23  24
ENDBRANCH  22  23
ENDBRANCH  21  22
ENDBRANCH  20  21
ENDBRANCH  19  20
ENDBRANCH  18  19
ENDBRANCH   1  18
TORSDOF 28
ENDMDL
MODEL 4
REMARK VINA RESULT:    -4.833      2.970      6.207
REMARK INTER + INTRA:         -16.690
REMARK INTER:                 -13.551
REMARK INTRA:                  -3.139
REMARK UNBOUND:                -3.947
REMARK SMILES CCCCCCCCCCCCCCCCCCCCCCCCCCCCCC(=O)[O-]
REMARK SMILES IDX 16 1 17 2 18 3 19 4 20 5 21 6 22 7 23 8 24 9 25 10 26 11
REMARK SMILES IDX 27 12 28 13 29 14 30 15 31 16 32 17 15 18 14 19 13 20 12 21
REMARK SMILES IDX 11 22 10 23 9 24 8 25 7 26 6 27 5 28 4 29 3 30 2 31 1 32
REMARK H PARENT
REMARK Flexibility Score: inf
ROOT
ATOM      1  C   UNL     1      -4.395  30.334 -22.027  1.00  0.00     0.000 C 
ENDROOT
BRANCH   1   2
ATOM      2  C   UNL     1      -4.889  29.028 -22.671  1.00  0.00     0.000 C 
BRANCH   2   3
ATOM      3  C   UNL     1      -6.378  29.085 -23.052  1.00  0.00     0.000 C 
BRANCH   3   4
ATOM      4  C   UNL     1      -6.716  28.225 -24.283  1.00  0.00     0.000 C 
BRANCH   4   5
ATOM      5  C   UNL     1      -8.205  27.848 -24.434  1.00  0.00     0.000 C 
BRANCH   5   6
ATOM      6  C   UNL     1      -8.732  27.829 -25.879  1.00  0.00     0.000 C 
BRANCH   6   7
ATOM      7  C   UNL     1      -7.632  27.560 -26.916  1.00  0.00     0.000 C 
BRANCH   7   8
ATOM      8  C   UNL     1      -8.020  26.397 -27.835  1.00  0.00     0.000 C 
BRANCH   8   9
ATOM      9  C   UNL     1      -9.376  25.805 -27.434  1.00  0.00     0.000 C 
BRANCH   9  10
ATOM     10  C   UNL     1      -9.239  24.322 -27.056  1.00  0.00     0.000 C 
BRANCH  10  11
ATOM     11  C   UNL     1      -9.542  24.062 -25.566  1.00  0.00     0.000 C 
BRANCH  11  12
ATOM     12  C   UNL     1      -9.332  22.597 -25.136  1.00  0.00     0.000 C 
BRANCH  12  13
ATOM     13  C   UNL     1      -9.903  22.238 -23.750  1.00  0.00     0.006 C 
BRANCH  13  14
ATOM     14  C   UNL     1      -9.811  23.370 -22.713  1.00  0.00     0.053 C 
BRANCH  14  15
ATOM     15  C   UNL     1      -9.501  22.848 -21.344  1.00  0.00     0.041 C 
ATOM     16  O   UNL     1      -8.411  23.143 -20.785  1.00  0.00    -0.550 OA
ATOM     17  O   UNL     1     -10.397  22.003 -20.702  1.00  0.00    -0.550 OA
ENDBRANCH  14  15
ENDBRANCH  13  14
ENDBRANCH  12  13
ENDBRANCH  11  12
ENDBRANCH  10  11
ENDBRANCH   9  10
ENDBRANCH   8   9
ENDBRANCH   7   8
ENDBRANCH   6   7
ENDBRANCH   5   6
ENDBRANCH   4   5
ENDBRANCH   3   4
ENDBRANCH   2   3
ENDBRANCH   1   2
BRANCH   1  18
ATOM     18  C   UNL     1      -3.276  30.102 -20.995  1.00  0.00     0.000 C 
BRANCH  18  19
ATOM     19  C   UNL     1      -2.889  31.388 -20.246  1.00  0.00     0.000 C 
BRANCH  19  20
ATOM     20  C   UNL     1      -1.757  32.164 -20.943  1.00  0.00     0.000 C 
BRANCH  20  21
ATOM     21  C   UNL     1      -2.281  33.162 -21.988  1.00  0.00     0.000 C 
BRANCH  21  22
ATOM     22  C   UNL     1      -3.005  34.362 -21.351  1.00  0.00     0.000 C 
BRANCH  22  23
ATOM     23  C   UNL     1      -4.466  34.484 -21.813  1.00  0.00     0.000 C 
BRANCH  23  24
ATOM     24  C   UNL     1      -5.452  34.606 -20.638  1.00  0.00    -0.000 C 
BRANCH  24  25
ATOM     25  C   UNL     1      -5.478  33.346 -19.757  1.00  0.00    -0.000 C 
BRANCH  25  26
ATOM     26  C   UNL     1      -6.899  32.954 -19.323  1.00  0.00    -0.000 C 
BRANCH  26  27
ATOM     27  C   UNL     1      -6.872  31.767 -18.352  1.00  0.00    -0.000 C 
BRANCH  27  28
ATOM     28  C   UNL     1      -6.180  30.552 -18.991  1.00  0.00    -0.000 C 
BRANCH  28  29
ATOM     29  C   UNL     1      -6.572  29.224 -18.322  1.00  0.00    -0.000 C 
BRANCH  29  30
ATOM     30  C   UNL     1      -5.545  28.109 -18.574  1.00  0.00    -0.000 C 
BRANCH  30  31
ATOM     31  C   UNL     1      -5.906  27.241 -19.790  1.00  0.00    -0.003 C 
ATOM     32  C   UNL     1      -4.816  26.227 -20.139  1.00  0.00     0.004 C 
ENDBRANCH  30  31
ENDBRANCH  29  30
ENDBRANCH  28  29
ENDBRANCH  27  28
ENDBRANCH  26  27
ENDBRANCH  25  26
ENDBRANCH  24  25
ENDBRANCH  23  24
ENDBRANCH  22  23
ENDBRANCH  21  22
ENDBRANCH  20  21
ENDBRANCH  19  20
ENDBRANCH  18  19
ENDBRANCH   1  18
TORSDOF 28
ENDMDL
MODEL 5
REMARK VINA RESULT:    -4.826      1.873      4.132
REMARK INTER + INTRA:         -16.672
REMARK INTER:                 -12.597
REMARK INTRA:                  -4.075
REMARK UNBOUND:                -3.947
REMARK SMILES CCCCCCCCCCCCCCCCCCCCCCCCCCCCCC(=O)[O-]
REMARK SMILES IDX 16 1 17 2 18 3 19 4 20 5 21 6 22 7 23 8 24 9 25 10 26 11
REMARK SMILES IDX 27 12 28 13 29 14 30 15 31 16 32 17 15 18 14 19 13 20 12 21
REMARK SMILES IDX 11 22 10 23 9 24 8 25 7 26 6 27 5 28 4 29 3 30 2 31 1 32
REMARK H PARENT
REMARK Flexibility Score: inf
ROOT
ATOM      1  C   UNL     1      -3.095  27.936 -20.533  1.00  0.00     0.000 C 
ENDROOT
BRANCH   1   2
ATOM      2  C   UNL     1      -2.835  29.142 -19.614  1.00  0.00     0.000 C 
BRANCH   2   3
ATOM      3  C   UNL     1      -3.551  30.415 -20.096  1.00  0.00     0.000 C 
BRANCH   3   4
ATOM      4  C   UNL     1      -3.813  30.418 -21.612  1.00  0.00     0.000 C 
BRANCH   4   5
ATOM      5  C   UNL     1      -5.296  30.296 -22.025  1.00  0.00     0.000 C 
BRANCH   5   6
ATOM      6  C   UNL     1      -5.608  29.166 -23.021  1.00  0.00     0.000 C 
BRANCH   6   7
ATOM      7  C   UNL     1      -7.006  28.563 -22.824  1.00  0.00     0.000 C 
BRANCH   7   8
ATOM      8  C   UNL     1      -7.564  28.033 -24.149  1.00  0.00     0.000 C 
BRANCH   8   9
ATOM      9  C   UNL     1      -6.622  28.359 -25.315  1.00  0.00     0.000 C 
BRANCH   9  10
ATOM     10  C   UNL     1      -6.964  27.517 -26.552  1.00  0.00     0.000 C 
BRANCH  10  11
ATOM     11  C   UNL     1      -8.359  26.865 -26.457  1.00  0.00     0.000 C 
BRANCH  11  12
ATOM     12  C   UNL     1      -8.610  25.775 -27.516  1.00  0.00     0.000 C 
BRANCH  12  13
ATOM     13  C   UNL     1      -9.619  24.686 -27.104  1.00  0.00     0.006 C 
BRANCH  13  14
ATOM     14  C   UNL     1      -9.342  24.052 -25.730  1.00  0.00     0.053 C 
BRANCH  14  15
ATOM     15  C   UNL     1      -9.996  22.712 -25.592  1.00  0.00     0.041 C 
ATOM     16  O   UNL     1      -9.779  21.810 -26.444  1.00  0.00    -0.550 OA
ATOM     17  O   UNL     1     -10.878  22.473 -24.545  1.00  0.00    -0.550 OA
ENDBRANCH  14  15
ENDBRANCH  13  14
ENDBRANCH  12  13
ENDBRANCH  11  12
ENDBRANCH  10  11
ENDBRANCH   9  10
ENDBRANCH   8   9
ENDBRANCH   7   8
ENDBRANCH   6   7
ENDBRANCH   5   6
ENDBRANCH   4   5
ENDBRANCH   3   4
ENDBRANCH   2   3
ENDBRANCH   1   2
BRANCH   1  18
ATOM     18  C   UNL     1      -3.248  26.617 -19.754  1.00  0.00     0.000 C 
BRANCH  18  19
ATOM     19  C   UNL     1      -4.548  25.874 -20.105  1.00  0.00     0.000 C 
BRANCH  19  20
ATOM     20  C   UNL     1      -5.757  26.818 -20.232  1.00  0.00     0.000 C 
BRANCH  20  21
ATOM     21  C   UNL     1      -6.252  27.331 -18.870  1.00  0.00     0.000 C 
BRANCH  21  22
ATOM     22  C   UNL     1      -6.625  28.824 -18.899  1.00  0.00     0.000 C 
BRANCH  22  23
ATOM     23  C   UNL     1      -6.668  29.451 -17.496  1.00  0.00     0.000 C 
BRANCH  23  24
ATOM     24  C   UNL     1      -7.242  30.879 -17.501  1.00  0.00    -0.000 C 
BRANCH  24  25
ATOM     25  C   UNL     1      -6.741  31.711 -18.693  1.00  0.00    -0.000 C 
BRANCH  25  26
ATOM     26  C   UNL     1      -6.528  33.191 -18.338  1.00  0.00    -0.000 C 
BRANCH  26  27
ATOM     27  C   UNL     1      -6.523  34.066 -19.597  1.00  0.00    -0.000 C 
BRANCH  27  28
ATOM     28  C   UNL     1      -5.448  33.593 -20.589  1.00  0.00    -0.000 C 
BRANCH  28  29
ATOM     29  C   UNL     1      -4.245  34.548 -20.662  1.00  0.00    -0.000 C 
BRANCH  29  30
ATOM     30  C   UNL     1      -3.088  34.111 -19.750  1.00  0.00    -0.000 C 
BRANCH  30  31
ATOM     31  C   UNL     1      -1.891  33.559 -20.541  1.00  0.00    -0.003 C 
ATOM     32  C   UNL     1      -0.748  33.093 -19.640  1.00  0.00     0.004 C 
ENDBRANCH  30  31
ENDBRANCH  29  30
ENDBRANCH  28  29
ENDBRANCH  27  28
ENDBRANCH  26  27
ENDBRANCH  25  26
ENDBRANCH  24  25
ENDBRANCH  23  24
ENDBRANCH  22  23
ENDBRANCH  21  22
ENDBRANCH  20  21
ENDBRANCH  19  20
ENDBRANCH  18  19
ENDBRANCH   1  18
TORSDOF 28
ENDMDL
MODEL 6
REMARK VINA RESULT:    -4.819      3.561      8.348
REMARK INTER + INTRA:         -16.654
REMARK INTER:                 -12.641
REMARK INTRA:                  -4.012
REMARK UNBOUND:                -3.947
REMARK SMILES CCCCCCCCCCCCCCCCCCCCCCCCCCCCCC(=O)[O-]
REMARK SMILES IDX 16 1 17 2 18 3 19 4 20 5 21 6 22 7 23 8 24 9 25 10 26 11
REMARK SMILES IDX 27 12 28 13 29 14 30 15 31 16 32 17 15 18 14 19 13 20 12 21
REMARK SMILES IDX 11 22 10 23 9 24 8 25 7 26 6 27 5 28 4 29 3 30 2 31 1 32
REMARK H PARENT
REMARK Flexibility Score: inf
ROOT
ATOM      1  C   UNL     1      -6.188  27.637 -19.549  1.00  0.00     0.000 C 
ENDROOT
BRANCH   1   2
ATOM      2  C   UNL     1      -6.752  27.737 -18.121  1.00  0.00     0.000 C 
BRANCH   2   3
ATOM      3  C   UNL     1      -6.931  29.193 -17.659  1.00  0.00     0.000 C 
BRANCH   3   4
ATOM      4  C   UNL     1      -6.899  30.200 -18.822  1.00  0.00     0.000 C 
BRANCH   4   5
ATOM      5  C   UNL     1      -6.567  31.655 -18.426  1.00  0.00     0.000 C 
BRANCH   5   6
ATOM      6  C   UNL     1      -6.770  32.699 -19.537  1.00  0.00     0.000 C 
BRANCH   6   7
ATOM      7  C   UNL     1      -5.466  33.400 -19.946  1.00  0.00     0.000 C 
BRANCH   7   8
ATOM      8  C   UNL     1      -5.734  34.847 -20.374  1.00  0.00     0.000 C 
BRANCH   8   9
ATOM      9  C   UNL     1      -4.967  35.194 -21.656  1.00  0.00     0.000 C 
BRANCH   9  10
ATOM     10  C   UNL     1      -4.046  34.039 -22.077  1.00  0.00     0.000 C 
BRANCH  10  11
ATOM     11  C   UNL     1      -2.602  34.507 -22.357  1.00  0.00     0.000 C 
BRANCH  11  12
ATOM     12  C   UNL     1      -1.621  33.355 -22.646  1.00  0.00     0.000 C 
BRANCH  12  13
ATOM     13  C   UNL     1      -0.315  33.393 -21.829  1.00  0.00     0.006 C 
BRANCH  13  14
ATOM     14  C   UNL     1      -0.289  32.431 -20.630  1.00  0.00     0.053 C 
BRANCH  14  15
ATOM     15  C   UNL     1       1.110  32.117 -20.196  1.00  0.00     0.041 C 
ATOM     16  O   UNL     1       1.972  31.766 -21.045  1.00  0.00    -0.550 OA
ATOM     17  O   UNL     1       1.450  32.173 -18.851  1.00  0.00    -0.550 OA
ENDBRANCH  14  15
ENDBRANCH  13  14
ENDBRANCH  12  13
ENDBRANCH  11  12
ENDBRANCH  10  11
ENDBRANCH   9  10
ENDBRANCH   8   9
ENDBRANCH   7   8
ENDBRANCH   6   7
ENDBRANCH   5   6
ENDBRANCH   4   5
ENDBRANCH   3   4
ENDBRANCH   2   3
ENDBRANCH   1   2
BRANCH   1  18
ATOM     18  C   UNL     1      -5.296  26.399 -19.750  1.00  0.00     0.000 C 
BRANCH  18  19
ATOM     19  C   UNL     1      -3.827  26.770 -20.019  1.00  0.00     0.000 C 
BRANCH  19  20
ATOM     20  C   UNL     1      -3.262  27.752 -18.978  1.00  0.00     0.000 C 
BRANCH  20  21
ATOM     21  C   UNL     1      -2.535  28.943 -19.624  1.00  0.00     0.000 C 
BRANCH  21  22
ATOM     22  C   UNL     1      -3.464  30.146 -19.864  1.00  0.00     0.000 C 
BRANCH  22  23
ATOM     23  C   UNL     1      -3.551  30.541 -21.347  1.00  0.00     0.000 C 
BRANCH  23  24
ATOM     24  C   UNL     1      -4.954  30.317 -21.939  1.00  0.00    -0.000 C 
BRANCH  24  25
ATOM     25  C   UNL     1      -5.126  28.910 -22.533  1.00  0.00    -0.000 C 
BRANCH  25  26
ATOM     26  C   UNL     1      -5.936  28.910 -23.838  1.00  0.00    -0.000 C 
BRANCH  26  27
ATOM     27  C   UNL     1      -7.289  28.214 -23.649  1.00  0.00    -0.000 C 
BRANCH  27  28
ATOM     28  C   UNL     1      -7.990  28.000 -25.001  1.00  0.00    -0.000 C 
BRANCH  28  29
ATOM     29  C   UNL     1      -7.015  27.591 -26.117  1.00  0.00    -0.000 C 
BRANCH  29  30
ATOM     30  C   UNL     1      -7.657  27.648 -27.512  1.00  0.00    -0.000 C 
BRANCH  30  31
ATOM     31  C   UNL     1      -7.865  26.253 -28.122  1.00  0.00    -0.003 C 
ATOM     32  C   UNL     1      -8.825  25.386 -27.308  1.00  0.00     0.004 C 
ENDBRANCH  30  31
ENDBRANCH  29  30
ENDBRANCH  28  29
ENDBRANCH  27  28
ENDBRANCH  26  27
ENDBRANCH  25  26
ENDBRANCH  24  25
ENDBRANCH  23  24
ENDBRANCH  22  23
ENDBRANCH  21  22
ENDBRANCH  20  21
ENDBRANCH  19  20
ENDBRANCH  18  19
ENDBRANCH   1  18
TORSDOF 28
ENDMDL
MODEL 7
REMARK VINA RESULT:    -4.809      2.036      3.490
REMARK INTER + INTRA:         -16.629
REMARK INTER:                 -13.300
REMARK INTRA:                  -3.329
REMARK UNBOUND:                -3.947
REMARK SMILES CCCCCCCCCCCCCCCCCCCCCCCCCCCCCC(=O)[O-]
REMARK SMILES IDX 16 1 17 2 18 3 19 4 20 5 21 6 22 7 23 8 24 9 25 10 26 11
REMARK SMILES IDX 27 12 28 13 29 14 30 15 31 16 32 17 15 18 14 19 13 20 12 21
REMARK SMILES IDX 11 22 10 23 9 24 8 25 7 26 6 27 5 28 4 29 3 30 2 31 1 32
REMARK H PARENT
REMARK Flexibility Score: inf
ROOT
ATOM      1  C   UNL     1      -5.889  27.421 -19.458  1.00  0.00     0.000 C 
ENDROOT
BRANCH   1   2
ATOM      2  C   UNL     1      -4.466  27.192 -19.996  1.00  0.00     0.000 C 
BRANCH   2   3
ATOM      3  C   UNL     1      -3.838  28.476 -20.564  1.00  0.00     0.000 C 
BRANCH   3   4
ATOM      4  C   UNL     1      -4.050  28.628 -22.081  1.00  0.00     0.000 C 
BRANCH   4   5
ATOM      5  C   UNL     1      -5.321  29.399 -22.495  1.00  0.00     0.000 C 
BRANCH   5   6
ATOM      6  C   UNL     1      -6.551  28.524 -22.793  1.00  0.00     0.000 C 
BRANCH   6   7
ATOM      7  C   UNL     1      -6.899  28.468 -24.288  1.00  0.00     0.000 C 
BRANCH   7   8
ATOM      8  C   UNL     1      -8.137  27.598 -24.529  1.00  0.00     0.000 C 
BRANCH   8   9
ATOM      9  C   UNL     1      -8.690  27.806 -25.944  1.00  0.00     0.000 C 
BRANCH   9  10
ATOM     10  C   UNL     1      -7.588  27.630 -26.998  1.00  0.00     0.000 C 
BRANCH  10  11
ATOM     11  C   UNL     1      -7.739  26.318 -27.797  1.00  0.00     0.000 C 
BRANCH  11  12
ATOM     12  C   UNL     1      -9.085  25.605 -27.572  1.00  0.00     0.000 C 
BRANCH  12  13
ATOM     13  C   UNL     1      -8.981  24.200 -26.947  1.00  0.00     0.006 C 
BRANCH  13  14
ATOM     14  C   UNL     1      -9.738  24.039 -25.618  1.00  0.00     0.053 C 
BRANCH  14  15
ATOM     15  C   UNL     1     -10.642  22.845 -25.632  1.00  0.00     0.041 C 
ATOM     16  O   UNL     1     -10.202  21.721 -25.991  1.00  0.00    -0.550 OA
ATOM     17  O   UNL     1     -11.981  22.982 -25.287  1.00  0.00    -0.550 OA
ENDBRANCH  14  15
ENDBRANCH  13  14
ENDBRANCH  12  13
ENDBRANCH  11  12
ENDBRANCH  10  11
ENDBRANCH   9  10
ENDBRANCH   8   9
ENDBRANCH   7   8
ENDBRANCH   6   7
ENDBRANCH   5   6
ENDBRANCH   4   5
ENDBRANCH   3   4
ENDBRANCH   2   3
ENDBRANCH   1   2
BRANCH   1  18
ATOM     18  C   UNL     1      -5.983  28.645 -18.530  1.00  0.00     0.000 C 
BRANCH  18  19
ATOM     19  C   UNL     1      -6.777  29.802 -19.159  1.00  0.00     0.000 C 
BRANCH  19  20
ATOM     20  C   UNL     1      -6.135  31.176 -18.898  1.00  0.00     0.000 C 
BRANCH  20  21
ATOM     21  C   UNL     1      -6.263  32.126 -20.099  1.00  0.00     0.000 C 
BRANCH  21  22
ATOM     22  C   UNL     1      -5.712  33.533 -19.803  1.00  0.00     0.000 C 
BRANCH  22  23
ATOM     23  C   UNL     1      -4.390  33.817 -20.536  1.00  0.00     0.000 C 
BRANCH  23  24
ATOM     24  C   UNL     1      -4.082  32.776 -21.628  1.00  0.00    -0.000 C 
BRANCH  24  25
ATOM     25  C   UNL     1      -2.699  32.129 -21.451  1.00  0.00    -0.000 C 
BRANCH  25  26
ATOM     26  C   UNL     1      -2.097  32.382 -20.060  1.00  0.00    -0.000 C 
BRANCH  26  27
ATOM     27  C   UNL     1      -0.848  31.521 -19.833  1.00  0.00    -0.000 C 
BRANCH  27  28
ATOM     28  C   UNL     1       0.266  32.339 -19.161  1.00  0.00    -0.000 C 
BRANCH  28  29
ATOM     29  C   UNL     1       1.673  31.895 -19.593  1.00  0.00    -0.000 C 
BRANCH  29  30
ATOM     30  C   UNL     1       1.897  32.032 -21.108  1.00  0.00    -0.000 C 
BRANCH  30  31
ATOM     31  C   UNL     1       1.582  33.445 -21.623  1.00  0.00    -0.003 C 
ATOM     32  C   UNL     1       2.839  34.251 -21.952  1.00  0.00     0.004 C 
ENDBRANCH  30  31
ENDBRANCH  29  30
ENDBRANCH  28  29
ENDBRANCH  27  28
ENDBRANCH  26  27
ENDBRANCH  25  26
ENDBRANCH  24  25
ENDBRANCH  23  24
ENDBRANCH  22  23
ENDBRANCH  21  22
ENDBRANCH  20  21
ENDBRANCH  19  20
ENDBRANCH  18  19
ENDBRANCH   1  18
TORSDOF 28
ENDMDL
MODEL 8
REMARK VINA RESULT:    -4.803      3.054      5.094
REMARK INTER + INTRA:         -16.613
REMARK INTER:                 -13.861
REMARK INTRA:                  -2.752
REMARK UNBOUND:                -3.947
REMARK SMILES CCCCCCCCCCCCCCCCCCCCCCCCCCCCCC(=O)[O-]
REMARK SMILES IDX 16 1 17 2 18 3 19 4 20 5 21 6 22 7 23 8 24 9 25 10 26 11
REMARK SMILES IDX 27 12 28 13 29 14 30 15 31 16 32 17 15 18 14 19 13 20 12 21
REMARK SMILES IDX 11 22 10 23 9 24 8 25 7 26 6 27 5 28 4 29 3 30 2 31 1 32
REMARK H PARENT
REMARK Flexibility Score: inf
ROOT
ATOM      1  C   UNL     1      -4.736  28.910 -21.776  1.00  0.00     0.000 C 
ENDROOT
BRANCH   1   2
ATOM      2  C   UNL     1      -5.515  29.031 -23.097  1.00  0.00     0.000 C 
BRANCH   2   3
ATOM      3  C   UNL     1      -7.031  28.857 -22.904  1.00  0.00     0.000 C 
BRANCH   3   4
ATOM      4  C   UNL     1      -7.694  28.061 -24.043  1.00  0.00     0.000 C 
BRANCH   4   5
ATOM      5  C   UNL     1      -6.950  28.101 -25.394  1.00  0.00     0.000 C 
BRANCH   5   6
ATOM      6  C   UNL     1      -7.783  27.672 -26.614  1.00  0.00     0.000 C 
BRANCH   6   7
ATOM      7  C   UNL     1      -6.984  26.829 -27.619  1.00  0.00     0.000 C 
BRANCH   7   8
ATOM      8  C   UNL     1      -7.877  25.772 -28.278  1.00  0.00     0.000 C 
BRANCH   8   9
ATOM      9  C   UNL     1      -9.265  25.740 -27.628  1.00  0.00     0.000 C 
BRANCH   9  10
ATOM     10  C   UNL     1      -9.591  24.337 -27.095  1.00  0.00     0.000 C 
BRANCH  10  11
ATOM     11  C   UNL     1      -9.260  24.182 -25.596  1.00  0.00     0.000 C 
BRANCH  11  12
ATOM     12  C   UNL     1      -9.588  22.788 -25.028  1.00  0.00     0.000 C 
BRANCH  12  13
ATOM     13  C   UNL     1      -9.155  22.563 -23.566  1.00  0.00     0.006 C 
BRANCH  13  14
ATOM     14  C   UNL     1     -10.035  23.278 -22.527  1.00  0.00     0.053 C 
BRANCH  14  15
ATOM     15  C   UNL     1      -9.602  22.974 -21.126  1.00  0.00     0.041 C 
ATOM     16  O   UNL     1      -8.378  22.860 -20.851  1.00  0.00    -0.550 OA
ATOM     17  O   UNL     1     -10.552  22.777 -20.132  1.00  0.00    -0.550 OA
ENDBRANCH  14  15
ENDBRANCH  13  14
ENDBRANCH  12  13
ENDBRANCH  11  12
ENDBRANCH  10  11
ENDBRANCH   9  10
ENDBRANCH   8   9
ENDBRANCH   7   8
ENDBRANCH   6   7
ENDBRANCH   5   6
ENDBRANCH   4   5
ENDBRANCH   3   4
ENDBRANCH   2   3
ENDBRANCH   1   2
BRANCH   1  18
ATOM     18  C   UNL     1      -5.219  27.735 -20.906  1.00  0.00     0.000 C 
BRANCH  18  19
ATOM     19  C   UNL     1      -5.299  28.100 -19.415  1.00  0.00     0.000 C 
BRANCH  19  20
ATOM     20  C   UNL     1      -6.622  28.794 -19.043  1.00  0.00     0.000 C 
BRANCH  20  21
ATOM     21  C   UNL     1      -6.432  30.276 -18.681  1.00  0.00     0.000 C 
BRANCH  21  22
ATOM     22  C   UNL     1      -6.723  31.216 -19.865  1.00  0.00     0.000 C 
BRANCH  22  23
ATOM     23  C   UNL     1      -6.584  32.701 -19.489  1.00  0.00     0.000 C 
BRANCH  23  24
ATOM     24  C   UNL     1      -5.385  33.377 -20.176  1.00  0.00    -0.000 C 
BRANCH  24  25
ATOM     25  C   UNL     1      -4.296  32.373 -20.585  1.00  0.00    -0.000 C 
BRANCH  25  26
ATOM     26  C   UNL     1      -3.996  32.400 -22.091  1.00  0.00    -0.000 C 
BRANCH  26  27
ATOM     27  C   UNL     1      -2.777  33.279 -22.397  1.00  0.00    -0.000 C 
BRANCH  27  28
ATOM     28  C   UNL     1      -1.923  33.488 -21.135  1.00  0.00    -0.000 C 
BRANCH  28  29
ATOM     29  C   UNL     1      -0.616  32.680 -21.162  1.00  0.00    -0.000 C 
BRANCH  29  30
ATOM     30  C   UNL     1      -0.135  32.288 -19.755  1.00  0.00    -0.000 C 
BRANCH  30  31
ATOM     31  C   UNL     1       1.395  32.169 -19.669  1.00  0.00    -0.003 C 
ATOM     32  C   UNL     1       2.040  31.817 -21.009  1.00  0.00     0.004 C 
ENDBRANCH  30  31
ENDBRANCH  29  30
ENDBRANCH  28  29
ENDBRANCH  27  28
ENDBRANCH  26  27
ENDBRANCH  25  26
ENDBRANCH  24  25
ENDBRANCH  23  24
ENDBRANCH  22  23
ENDBRANCH  21  22
ENDBRANCH  20  21
ENDBRANCH  19  20
ENDBRANCH  18  19
ENDBRANCH   1  18
TORSDOF 28
ENDMDL
MODEL 9
REMARK VINA RESULT:    -4.675      1.904      3.293
REMARK INTER + INTRA:         -16.276
REMARK INTER:                 -12.727
REMARK INTRA:                  -3.549
REMARK UNBOUND:                -3.947
REMARK SMILES CCCCCCCCCCCCCCCCCCCCCCCCCCCCCC(=O)[O-]
REMARK SMILES IDX 16 1 17 2 18 3 19 4 20 5 21 6 22 7 23 8 24 9 25 10 26 11
REMARK SMILES IDX 27 12 28 13 29 14 30 15 31 16 32 17 15 18 14 19 13 20 12 21
REMARK SMILES IDX 11 22 10 23 9 24 8 25 7 26 6 27 5 28 4 29 3 30 2 31 1 32
REMARK H PARENT
REMARK Flexibility Score: inf
ROOT
ATOM      1  C   UNL     1      -5.758  27.205 -19.566  1.00  0.00     0.000 C 
ENDROOT
BRANCH   1   2
ATOM      2  C   UNL     1      -4.242  27.420 -19.415  1.00  0.00     0.000 C 
BRANCH   2   3
ATOM      3  C   UNL     1      -3.569  27.817 -20.740  1.00  0.00     0.000 C 
BRANCH   3   4
ATOM      4  C   UNL     1      -3.773  29.300 -21.096  1.00  0.00     0.000 C 
BRANCH   4   5
ATOM      5  C   UNL     1      -4.464  29.564 -22.450  1.00  0.00     0.000 C 
BRANCH   5   6
ATOM      6  C   UNL     1      -6.001  29.573 -22.411  1.00  0.00     0.000 C 
BRANCH   6   7
ATOM      7  C   UNL     1      -6.619  28.227 -22.819  1.00  0.00     0.000 C 
BRANCH   7   8
ATOM      8  C   UNL     1      -7.675  28.419 -23.912  1.00  0.00     0.000 C 
BRANCH   8   9
ATOM      9  C   UNL     1      -7.127  28.016 -25.286  1.00  0.00     0.000 C 
BRANCH   9  10
ATOM     10  C   UNL     1      -8.260  27.566 -26.221  1.00  0.00     0.000 C 
BRANCH  10  11
ATOM     11  C   UNL     1      -7.752  26.689 -27.384  1.00  0.00     0.000 C 
BRANCH  11  12
ATOM     12  C   UNL     1      -8.793  25.676 -27.899  1.00  0.00     0.000 C 
BRANCH  12  13
ATOM     13  C   UNL     1      -9.698  25.064 -26.812  1.00  0.00     0.006 C 
BRANCH  13  14
ATOM     14  C   UNL     1      -9.340  23.618 -26.429  1.00  0.00     0.053 C 
BRANCH  14  15
ATOM     15  C   UNL     1     -10.156  23.129 -25.272  1.00  0.00     0.041 C 
ATOM     16  O   UNL     1      -9.588  22.720 -24.224  1.00  0.00    -0.550 OA
ATOM     17  O   UNL     1     -11.541  23.088 -25.365  1.00  0.00    -0.550 OA
ENDBRANCH  14  15
ENDBRANCH  13  14
ENDBRANCH  12  13
ENDBRANCH  11  12
ENDBRANCH  10  11
ENDBRANCH   9  10
ENDBRANCH   8   9
ENDBRANCH   7   8
ENDBRANCH   6   7
ENDBRANCH   5   6
ENDBRANCH   4   5
ENDBRANCH   3   4
ENDBRANCH   2   3
ENDBRANCH   1   2
BRANCH   1  18
ATOM     18  C   UNL     1      -6.582  28.122 -18.644  1.00  0.00     0.000 C 
BRANCH  18  19
ATOM     19  C   UNL     1      -6.099  29.582 -18.682  1.00  0.00     0.000 C 
BRANCH  19  20
ATOM     20  C   UNL     1      -6.942  30.510 -17.788  1.00  0.00     0.000 C 
BRANCH  20  21
ATOM     21  C   UNL     1      -7.017  31.946 -18.332  1.00  0.00     0.000 C 
BRANCH  21  22
ATOM     22  C   UNL     1      -6.497  32.061 -19.776  1.00  0.00     0.000 C 
BRANCH  22  23
ATOM     23  C   UNL     1      -5.576  33.275 -19.978  1.00  0.00     0.000 C 
BRANCH  23  24
ATOM     24  C   UNL     1      -6.109  34.545 -19.292  1.00  0.00    -0.000 C 
BRANCH  24  25
ATOM     25  C   UNL     1      -5.594  35.833 -19.954  1.00  0.00    -0.000 C 
BRANCH  25  26
ATOM     26  C   UNL     1      -5.789  35.838 -21.478  1.00  0.00    -0.000 C 
BRANCH  26  27
ATOM     27  C   UNL     1      -4.441  35.896 -22.207  1.00  0.00    -0.000 C 
BRANCH  27  28
ATOM     28  C   UNL     1      -4.405  34.894 -23.373  1.00  0.00    -0.000 C 
BRANCH  28  29
ATOM     29  C   UNL     1      -3.750  33.558 -22.988  1.00  0.00    -0.000 C 
BRANCH  29  30
ATOM     30  C   UNL     1      -2.516  33.742 -22.089  1.00  0.00    -0.000 C 
BRANCH  30  31
ATOM     31  C   UNL     1      -2.048  32.422 -21.455  1.00  0.00    -0.003 C 
ATOM     32  C   UNL     1      -1.894  32.515 -19.937  1.00  0.00     0.004 C 
ENDBRANCH  30  31
ENDBRANCH  29  30
ENDBRANCH  28  29
ENDBRANCH  27  28
ENDBRANCH  26  27
ENDBRANCH  25  26
ENDBRANCH  24  25
ENDBRANCH  23  24
ENDBRANCH  22  23
ENDBRANCH  21  22
ENDBRANCH  20  21
ENDBRANCH  19  20
ENDBRANCH  18  19
ENDBRANCH   1  18
TORSDOF 28
ENDMDL
