MODEL 1
REMARK VINA RESULT:    -4.697      0.000      0.000
REMARK INTER + INTRA:          -6.155
REMARK INTER:                  -5.795
REMARK INTRA:                  -0.360
REMARK UNBOUND:                -0.360
REMARK SMILES Oc1cc(O)c2cc(O)c(-c3cc(O)c(O)c(O)c3)[o+]c2c1
REMARK SMILES IDX 10 1 20 2 21 3 22 4 2 5 3 6 4 7 6 8 7 9 8 10 11 11 12 12
REMARK SMILES IDX 13 13 19 14 15 15 17 16 14 17 16 19 18 21 9 23 1 25 5 27
REMARK H PARENT 14 18 16 20 18 22 9 24 1 26 5 28
REMARK Flexibility Score: inf
ROOT
ATOM      1  C   UNL     1     101.033 101.049 103.012  1.00  0.00     0.402 A 
ATOM      2  O   UNL     1     101.684  99.998 102.521  1.00  0.00    -0.202 OA
ATOM      3  C   UNL     1     103.000  99.841 102.624  1.00  0.00     0.368 A 
ATOM      4  C   UNL     1     103.593  98.700 102.078  1.00  0.00     0.162 A 
ATOM      5  C   UNL     1     104.974  98.508 102.174  1.00  0.00     0.128 A 
ATOM      6  C   UNL     1     105.765  99.460 102.821  1.00  0.00     0.093 A 
ATOM      7  C   UNL     1     105.195 100.612 103.377  1.00  0.00     0.136 A 
ATOM      8  C   UNL     1     103.793 100.813 103.279  1.00  0.00     0.125 A 
ATOM      9  C   UNL     1     103.138 101.943 103.795  1.00  0.00     0.078 A 
ATOM     10  C   UNL     1     101.752 102.073 103.656  1.00  0.00     0.223 A 
ENDROOT
BRANCH   1  11
ATOM     11  C   UNL     1      99.564 101.104 102.843  1.00  0.00     0.091 A 
ATOM     12  C   UNL     1      98.700 100.407 103.706  1.00  0.00     0.068 A 
ATOM     13  C   UNL     1      97.311 100.454 103.515  1.00  0.00     0.162 A 
ATOM     14  C   UNL     1      99.019 101.822 101.765  1.00  0.00     0.068 A 
ATOM     15  C   UNL     1      96.777 101.195 102.446  1.00  0.00     0.200 A 
ATOM     16  C   UNL     1      97.633 101.873 101.571  1.00  0.00     0.162 A 
BRANCH  13  17
ATOM     17  O   UNL     1      96.463  99.765 104.380  1.00  0.00    -0.504 OA
ATOM     18  H   UNL     1      95.463  99.930 104.387  1.00  0.00     0.293 HD
ENDBRANCH  13  17
BRANCH  15  19
ATOM     19  O   UNL     1      95.398 101.259 102.239  1.00  0.00    -0.502 OA
ATOM     20  H   UNL     1      94.751 101.488 102.984  1.00  0.00     0.293 HD
ENDBRANCH  15  19
BRANCH  16  21
ATOM     21  O   UNL     1      97.098 102.599 100.509  1.00  0.00    -0.504 OA
ATOM     22  H   UNL     1      96.973 102.185  99.592  1.00  0.00     0.293 HD
ENDBRANCH  16  21
ENDBRANCH   1  11
BRANCH  10  23
ATOM     23  O   UNL     1     101.107 103.218 104.124  1.00  0.00    -0.500 OA
ATOM     24  H   UNL     1     100.933 103.365 105.111  1.00  0.00     0.294 HD
ENDBRANCH  10  23
BRANCH   5  25
ATOM     25  O   UNL     1     105.573  97.372 101.632  1.00  0.00    -0.507 OA
ATOM     26  H   UNL     1     106.580  97.290 101.558  1.00  0.00     0.293 HD
ENDBRANCH   5  25
BRANCH   7  27
ATOM     27  O   UNL     1     106.054 101.514 104.009  1.00  0.00    -0.507 OA
ATOM     28  H   UNL     1     106.756 101.254 104.688  1.00  0.00     0.293 HD
ENDBRANCH   7  27
TORSDOF 7
ENDMDL
MODEL 2
REMARK VINA RESULT:    -4.602      9.774     11.944
REMARK INTER + INTRA:          -6.038
REMARK INTER:                  -5.718
REMARK INTRA:                  -0.320
REMARK UNBOUND:                -0.360
REMARK SMILES Oc1cc(O)c2cc(O)c(-c3cc(O)c(O)c(O)c3)[o+]c2c1
REMARK SMILES IDX 10 1 20 2 21 3 22 4 2 5 3 6 4 7 6 8 7 9 8 10 11 11 12 12
REMARK SMILES IDX 13 13 19 14 15 15 17 16 14 17 16 19 18 21 9 23 1 25 5 27
REMARK H PARENT 14 18 16 20 18 22 9 24 1 26 5 28
REMARK Flexibility Score: inf
ROOT
ATOM      1  C   UNL     1      98.835 109.264 108.687  1.00  0.00     0.402 A 
ATOM      2  O   UNL     1      98.093 110.240 108.171  1.00  0.00    -0.202 OA
ATOM      3  C   UNL     1      98.609 111.307 107.568  1.00  0.00     0.368 A 
ATOM      4  C   UNL     1      97.747 112.279 107.054  1.00  0.00     0.162 A 
ATOM      5  C   UNL     1      98.261 113.409 106.413  1.00  0.00     0.128 A 
ATOM      6  C   UNL     1      99.644 113.568 106.284  1.00  0.00     0.093 A 
ATOM      7  C   UNL     1     100.528 112.607 106.791  1.00  0.00     0.136 A 
ATOM      8  C   UNL     1     100.011 111.459 107.445  1.00  0.00     0.125 A 
ATOM      9  C   UNL     1     100.822 110.453 107.995  1.00  0.00     0.078 A 
ATOM     10  C   UNL     1     100.238 109.352 108.629  1.00  0.00     0.223 A 
ENDROOT
BRANCH   1  11
ATOM     11  C   UNL     1      98.143 108.121 109.325  1.00  0.00     0.091 A 
ATOM     12  C   UNL     1      98.113 106.853 108.719  1.00  0.00     0.068 A 
ATOM     13  C   UNL     1      97.433 105.788 109.328  1.00  0.00     0.162 A 
ATOM     14  C   UNL     1      97.453 108.318 110.532  1.00  0.00     0.068 A 
ATOM     15  C   UNL     1      96.765 105.991 110.548  1.00  0.00     0.200 A 
ATOM     16  C   UNL     1      96.773 107.257 111.145  1.00  0.00     0.162 A 
BRANCH  13  17
ATOM     17  O   UNL     1      97.414 104.533 108.723  1.00  0.00    -0.504 OA
ATOM     18  H   UNL     1      97.156 104.416 107.749  1.00  0.00     0.293 HD
ENDBRANCH  13  17
BRANCH  15  19
ATOM     19  O   UNL     1      96.084 104.946 111.175  1.00  0.00    -0.502 OA
ATOM     20  H   UNL     1      95.125 105.037 111.486  1.00  0.00     0.293 HD
ENDBRANCH  15  19
BRANCH  16  21
ATOM     21  O   UNL     1      96.103 107.454 112.351  1.00  0.00    -0.504 OA
ATOM     22  H   UNL     1      96.506 108.010 113.098  1.00  0.00     0.293 HD
ENDBRANCH  16  21
ENDBRANCH   1  11
BRANCH  10  23
ATOM     23  O   UNL     1     101.044 108.377 109.220  1.00  0.00    -0.500 OA
ATOM     24  H   UNL     1     101.591 107.730 108.664  1.00  0.00     0.294 HD
ENDBRANCH  10  23
BRANCH   5  25
ATOM     25  O   UNL     1      97.409 114.383 105.897  1.00  0.00    -0.507 OA
ATOM     26  H   UNL     1      96.946 115.055 106.499  1.00  0.00     0.293 HD
ENDBRANCH   5  25
BRANCH   7  27
ATOM     27  O   UNL     1     101.895 112.839 106.619  1.00  0.00    -0.507 OA
ATOM     28  H   UNL     1     102.412 113.572 107.083  1.00  0.00     0.293 HD
ENDBRANCH   7  27
TORSDOF 7
ENDMDL
MODEL 3
REMARK VINA RESULT:    -4.590      9.914     12.134
REMARK INTER + INTRA:          -6.023
REMARK INTER:                  -5.639
REMARK INTRA:                  -0.384
REMARK UNBOUND:                -0.360
REMARK SMILES Oc1cc(O)c2cc(O)c(-c3cc(O)c(O)c(O)c3)[o+]c2c1
REMARK SMILES IDX 10 1 20 2 21 3 22 4 2 5 3 6 4 7 6 8 7 9 8 10 11 11 12 12
REMARK SMILES IDX 13 13 19 14 15 15 17 16 14 17 16 19 18 21 9 23 1 25 5 27
REMARK H PARENT 14 18 16 20 18 22 9 24 1 26 5 28
REMARK Flexibility Score: inf
ROOT
ATOM      1  C   UNL     1      98.038 109.554 108.632  1.00  0.00     0.402 A 
ATOM      2  O   UNL     1      99.195 110.051 108.205  1.00  0.00    -0.202 OA
ATOM      3  C   UNL     1      99.293 111.185 107.518  1.00  0.00     0.368 A 
ATOM      4  C   UNL     1     100.554 111.629 107.115  1.00  0.00     0.162 A 
ATOM      5  C   UNL     1     100.687 112.819 106.395  1.00  0.00     0.128 A 
ATOM      6  C   UNL     1      99.552 113.571 106.079  1.00  0.00     0.093 A 
ATOM      7  C   UNL     1      98.276 113.149 106.474  1.00  0.00     0.136 A 
ATOM      8  C   UNL     1      98.137 111.939 107.202  1.00  0.00     0.125 A 
ATOM      9  C   UNL     1      96.897 111.431 107.625  1.00  0.00     0.078 A 
ATOM     10  C   UNL     1      96.839 110.228 108.336  1.00  0.00     0.223 A 
ENDROOT
BRANCH   1  11
ATOM     11  C   UNL     1      98.060 108.285 109.396  1.00  0.00     0.091 A 
ATOM     12  C   UNL     1      98.186 108.276 110.796  1.00  0.00     0.068 A 
ATOM     13  C   UNL     1      98.228 107.064 111.500  1.00  0.00     0.162 A 
ATOM     14  C   UNL     1      98.011 107.063 108.706  1.00  0.00     0.068 A 
ATOM     15  C   UNL     1      98.155 105.846 110.801  1.00  0.00     0.200 A 
ATOM     16  C   UNL     1      98.051 105.849 109.405  1.00  0.00     0.162 A 
BRANCH  13  17
ATOM     17  O   UNL     1      98.346 107.065 112.888  1.00  0.00    -0.504 OA
ATOM     18  H   UNL     1      98.704 107.870 113.390  1.00  0.00     0.293 HD
ENDBRANCH  13  17
BRANCH  15  19
ATOM     19  O   UNL     1      98.191 104.627 111.479  1.00  0.00    -0.502 OA
ATOM     20  H   UNL     1      97.721 104.490 112.366  1.00  0.00     0.293 HD
ENDBRANCH  15  19
BRANCH  16  21
ATOM     21  O   UNL     1      97.987 104.639 108.716  1.00  0.00    -0.504 OA
ATOM     22  H   UNL     1      97.313 104.486 107.974  1.00  0.00     0.293 HD
ENDBRANCH  16  21
ENDBRANCH   1  11
BRANCH  10  23
ATOM     23  O   UNL     1      95.604 109.698 108.714  1.00  0.00    -0.500 OA
ATOM     24  H   UNL     1      95.117 110.023 109.541  1.00  0.00     0.294 HD
ENDBRANCH  10  23
BRANCH   5  25
ATOM     25  O   UNL     1     101.941 113.268 105.989  1.00  0.00    -0.507 OA
ATOM     26  H   UNL     1     102.596 113.676 106.647  1.00  0.00     0.293 HD
ENDBRANCH   5  25
BRANCH   7  27
ATOM     27  O   UNL     1      97.193 113.958 106.121  1.00  0.00    -0.507 OA
ATOM     28  H   UNL     1      96.524 113.733 105.398  1.00  0.00     0.293 HD
ENDBRANCH   7  27
TORSDOF 7
ENDMDL
MODEL 4
REMARK VINA RESULT:    -4.562      9.969     11.860
REMARK INTER + INTRA:          -5.988
REMARK INTER:                  -5.701
REMARK INTRA:                  -0.287
REMARK UNBOUND:                -0.360
REMARK SMILES Oc1cc(O)c2cc(O)c(-c3cc(O)c(O)c(O)c3)[o+]c2c1
REMARK SMILES IDX 10 1 20 2 21 3 22 4 2 5 3 6 4 7 6 8 7 9 8 10 11 11 12 12
REMARK SMILES IDX 13 13 19 14 15 15 17 16 14 17 16 19 18 21 9 23 1 25 5 27
REMARK H PARENT 14 18 16 20 18 22 9 24 1 26 5 28
REMARK Flexibility Score: inf
ROOT
ATOM      1  C   UNL     1      98.789 110.036 108.602  1.00  0.00     0.402 A 
ATOM      2  O   UNL     1      98.094 108.922 108.394  1.00  0.00    -0.202 OA
ATOM      3  C   UNL     1      98.381 107.762 108.977  1.00  0.00     0.368 A 
ATOM      4  C   UNL     1      97.588 106.646 108.697  1.00  0.00     0.162 A 
ATOM      5  C   UNL     1      97.865 105.416 109.298  1.00  0.00     0.128 A 
ATOM      6  C   UNL     1      98.939 105.301 110.185  1.00  0.00     0.093 A 
ATOM      7  C   UNL     1      99.747 106.405 110.483  1.00  0.00     0.136 A 
ATOM      8  C   UNL     1      99.471 107.656 109.873  1.00  0.00     0.125 A 
ATOM      9  C   UNL     1     100.236 108.812 110.101  1.00  0.00     0.078 A 
ATOM     10  C   UNL     1      99.905 110.009 109.459  1.00  0.00     0.223 A 
ENDROOT
BRANCH   1  11
ATOM     11  C   UNL     1      98.365 111.269 107.901  1.00  0.00     0.091 A 
ATOM     12  C   UNL     1      99.120 111.808 106.845  1.00  0.00     0.068 A 
ATOM     13  C   UNL     1      98.713 112.989 106.208  1.00  0.00     0.162 A 
ATOM     14  C   UNL     1      97.214 111.947 108.333  1.00  0.00     0.068 A 
ATOM     15  C   UNL     1      97.547 113.648 106.634  1.00  0.00     0.200 A 
ATOM     16  C   UNL     1      96.802 113.127 107.699  1.00  0.00     0.162 A 
BRANCH  13  17
ATOM     17  O   UNL     1      99.466 113.512 105.158  1.00  0.00    -0.504 OA
ATOM     18  H   UNL     1      99.253 113.293 104.191  1.00  0.00     0.293 HD
ENDBRANCH  13  17
BRANCH  15  19
ATOM     19  O   UNL     1      97.120 114.822 106.013  1.00  0.00    -0.502 OA
ATOM     20  H   UNL     1      96.189 114.919 105.624  1.00  0.00     0.293 HD
ENDBRANCH  15  19
BRANCH  16  21
ATOM     21  O   UNL     1      95.650 113.788 108.122  1.00  0.00    -0.504 OA
ATOM     22  H   UNL     1      95.355 113.772 109.092  1.00  0.00     0.293 HD
ENDBRANCH  16  21
ENDBRANCH   1  11
BRANCH  10  23
ATOM     23  O   UNL     1     100.694 111.145 109.647  1.00  0.00    -0.500 OA
ATOM     24  H   UNL     1     101.148 111.336 110.532  1.00  0.00     0.294 HD
ENDBRANCH  10  23
BRANCH   5  25
ATOM     25  O   UNL     1      97.080 104.298 109.024  1.00  0.00    -0.507 OA
ATOM     26  H   UNL     1      96.940 103.568 109.713  1.00  0.00     0.293 HD
ENDBRANCH   5  25
BRANCH   7  27
ATOM     27  O   UNL     1     100.799 106.208 111.382  1.00  0.00    -0.507 OA
ATOM     28  H   UNL     1     101.777 106.241 111.132  1.00  0.00     0.293 HD
ENDBRANCH   7  27
TORSDOF 7
ENDMDL
MODEL 5
REMARK VINA RESULT:    -4.539      2.240      6.660
REMARK INTER + INTRA:          -5.960
REMARK INTER:                  -5.592
REMARK INTRA:                  -0.368
REMARK UNBOUND:                -0.360
REMARK SMILES Oc1cc(O)c2cc(O)c(-c3cc(O)c(O)c(O)c3)[o+]c2c1
REMARK SMILES IDX 10 1 20 2 21 3 22 4 2 5 3 6 4 7 6 8 7 9 8 10 11 11 12 12
REMARK SMILES IDX 13 13 19 14 15 15 17 16 14 17 16 19 18 21 9 23 1 25 5 27
REMARK H PARENT 14 18 16 20 18 22 9 24 1 26 5 28
REMARK Flexibility Score: inf
ROOT
ATOM      1  C   UNL     1     101.712 101.162 103.039  1.00  0.00     0.402 A 
ATOM      2  O   UNL     1     101.419  99.947 102.586  1.00  0.00    -0.202 OA
ATOM      3  C   UNL     1     100.242  99.359 102.782  1.00  0.00     0.368 A 
ATOM      4  C   UNL     1     100.027  98.079 102.264  1.00  0.00     0.162 A 
ATOM      5  C   UNL     1      98.799  97.439 102.452  1.00  0.00     0.128 A 
ATOM      6  C   UNL     1      97.781  98.083 103.160  1.00  0.00     0.093 A 
ATOM      7  C   UNL     1      97.971  99.366 103.687  1.00  0.00     0.136 A 
ATOM      8  C   UNL     1      99.217 100.019 103.501  1.00  0.00     0.125 A 
ATOM      9  C   UNL     1      99.502 101.298 104.007  1.00  0.00     0.078 A 
ATOM     10  C   UNL     1     100.756 101.875 103.787  1.00  0.00     0.223 A 
ENDROOT
BRANCH   1  11
ATOM     11  C   UNL     1     103.055 101.713 102.747  1.00  0.00     0.091 A 
ATOM     12  C   UNL     1     103.257 102.640 101.710  1.00  0.00     0.068 A 
ATOM     13  C   UNL     1     104.540 103.133 101.435  1.00  0.00     0.162 A 
ATOM     14  C   UNL     1     104.161 101.260 103.483  1.00  0.00     0.068 A 
ATOM     15  C   UNL     1     105.638 102.690 102.193  1.00  0.00     0.200 A 
ATOM     16  C   UNL     1     105.446 101.750 103.213  1.00  0.00     0.162 A 
BRANCH  13  17
ATOM     17  O   UNL     1     104.729 104.057 100.409  1.00  0.00    -0.504 OA
ATOM     18  H   UNL     1     104.769 103.772  99.437  1.00  0.00     0.293 HD
ENDBRANCH  13  17
BRANCH  15  19
ATOM     19  O   UNL     1     106.924 103.169 101.940  1.00  0.00    -0.502 OA
ATOM     20  H   UNL     1     107.285 103.273 101.000  1.00  0.00     0.293 HD
ENDBRANCH  15  19
BRANCH  16  21
ATOM     21  O   UNL     1     106.539 101.308 103.957  1.00  0.00    -0.504 OA
ATOM     22  H   UNL     1     106.541 100.400 104.408  1.00  0.00     0.293 HD
ENDBRANCH  16  21
ENDBRANCH   1  11
BRANCH  10  23
ATOM     23  O   UNL     1     101.057 103.125 104.331  1.00  0.00    -0.500 OA
ATOM     24  H   UNL     1     101.097 103.273 105.332  1.00  0.00     0.294 HD
ENDBRANCH  10  23
BRANCH   5  25
ATOM     25  O   UNL     1      98.577  96.163 101.939  1.00  0.00    -0.507 OA
ATOM     26  H   UNL     1      99.326  95.623 101.520  1.00  0.00     0.293 HD
ENDBRANCH   5  25
BRANCH   7  27
ATOM     27  O   UNL     1      96.902  99.942 104.380  1.00  0.00    -0.507 OA
ATOM     28  H   UNL     1      96.844 100.919 104.629  1.00  0.00     0.293 HD
ENDBRANCH   7  27
TORSDOF 7
ENDMDL
MODEL 6
REMARK VINA RESULT:    -4.451      9.486     11.547
REMARK INTER + INTRA:          -5.852
REMARK INTER:                  -5.678
REMARK INTRA:                  -0.174
REMARK UNBOUND:                -0.360
REMARK SMILES Oc1cc(O)c2cc(O)c(-c3cc(O)c(O)c(O)c3)[o+]c2c1
REMARK SMILES IDX 10 1 20 2 21 3 22 4 2 5 3 6 4 7 6 8 7 9 8 10 11 11 12 12
REMARK SMILES IDX 13 13 19 14 15 15 17 16 14 17 16 19 18 21 9 23 1 25 5 27
REMARK H PARENT 14 18 16 20 18 22 9 24 1 26 5 28
REMARK Flexibility Score: inf
ROOT
ATOM      1  C   UNL     1      99.294 109.432 108.979  1.00  0.00     0.402 A 
ATOM      2  O   UNL     1      98.662 108.324 108.601  1.00  0.00    -0.202 OA
ATOM      3  C   UNL     1      98.658 107.204 109.318  1.00  0.00     0.368 A 
ATOM      4  C   UNL     1      97.962 106.092 108.838  1.00  0.00     0.162 A 
ATOM      5  C   UNL     1      97.938 104.904 109.573  1.00  0.00     0.128 A 
ATOM      6  C   UNL     1      98.612 104.828 110.795  1.00  0.00     0.093 A 
ATOM      7  C   UNL     1      99.315 105.929 111.298  1.00  0.00     0.136 A 
ATOM      8  C   UNL     1      99.345 107.137 110.554  1.00  0.00     0.125 A 
ATOM      9  C   UNL     1     100.036 108.286 110.974  1.00  0.00     0.078 A 
ATOM     10  C   UNL     1     100.023 109.439 110.183  1.00  0.00     0.223 A 
ENDROOT
BRANCH   1  11
ATOM     11  C   UNL     1      99.217 110.618 108.098  1.00  0.00     0.091 A 
ATOM     12  C   UNL     1      97.985 111.217 107.782  1.00  0.00     0.068 A 
ATOM     13  C   UNL     1      97.930 112.327 106.927  1.00  0.00     0.162 A 
ATOM     14  C   UNL     1     100.391 111.125 107.517  1.00  0.00     0.068 A 
ATOM     15  C   UNL     1      99.114 112.840 106.370  1.00  0.00     0.200 A 
ATOM     16  C   UNL     1     100.342 112.235 106.663  1.00  0.00     0.162 A 
BRANCH  13  17
ATOM     17  O   UNL     1      96.704 112.917 106.625  1.00  0.00    -0.504 OA
ATOM     18  H   UNL     1      96.140 112.603 105.844  1.00  0.00     0.293 HD
ENDBRANCH  13  17
BRANCH  15  19
ATOM     19  O   UNL     1      99.085 113.946 105.519  1.00  0.00    -0.502 OA
ATOM     20  H   UNL     1      98.223 114.426 105.289  1.00  0.00     0.293 HD
ENDBRANCH  15  19
BRANCH  16  21
ATOM     21  O   UNL     1     101.512 112.743 106.102  1.00  0.00    -0.504 OA
ATOM     22  H   UNL     1     101.496 113.525 105.458  1.00  0.00     0.293 HD
ENDBRANCH  16  21
ENDBRANCH   1  11
BRANCH  10  23
ATOM     23  O   UNL     1     100.750 110.564 110.575  1.00  0.00    -0.500 OA
ATOM     24  H   UNL     1     101.416 111.010 109.955  1.00  0.00     0.294 HD
ENDBRANCH  10  23
BRANCH   5  25
ATOM     25  O   UNL     1      97.246 103.791 109.101  1.00  0.00    -0.507 OA
ATOM     26  H   UNL     1      96.643 103.246 109.707  1.00  0.00     0.293 HD
ENDBRANCH   5  25
BRANCH   7  27
ATOM     27  O   UNL     1      99.960 105.773 112.528  1.00  0.00    -0.507 OA
ATOM     28  H   UNL     1      99.492 105.781 113.423  1.00  0.00     0.293 HD
ENDBRANCH   7  27
TORSDOF 7
ENDMDL
MODEL 7
REMARK VINA RESULT:    -4.409      9.456     12.488
REMARK INTER + INTRA:          -5.799
REMARK INTER:                  -5.418
REMARK INTRA:                  -0.382
REMARK UNBOUND:                -0.360
REMARK SMILES Oc1cc(O)c2cc(O)c(-c3cc(O)c(O)c(O)c3)[o+]c2c1
REMARK SMILES IDX 10 1 20 2 21 3 22 4 2 5 3 6 4 7 6 8 7 9 8 10 11 11 12 12
REMARK SMILES IDX 13 13 19 14 15 15 17 16 14 17 16 19 18 21 9 23 1 25 5 27
REMARK H PARENT 14 18 16 20 18 22 9 24 1 26 5 28
REMARK Flexibility Score: inf
ROOT
ATOM      1  C   UNL     1     107.722  97.395 109.875  1.00  0.00     0.402 A 
ATOM      2  O   UNL     1     107.370  98.469 110.576  1.00  0.00    -0.202 OA
ATOM      3  C   UNL     1     106.130  98.687 111.004  1.00  0.00     0.368 A 
ATOM      4  C   UNL     1     105.857  99.845 111.736  1.00  0.00     0.162 A 
ATOM      5  C   UNL     1     104.564 100.098 112.201  1.00  0.00     0.128 A 
ATOM      6  C   UNL     1     103.539  99.187 111.934  1.00  0.00     0.093 A 
ATOM      7  C   UNL     1     103.786  98.019 111.204  1.00  0.00     0.136 A 
ATOM      8  C   UNL     1     105.098  97.759 110.727  1.00  0.00     0.125 A 
ATOM      9  C   UNL     1     105.434  96.622 109.975  1.00  0.00     0.078 A 
ATOM     10  C   UNL     1     106.749  96.437 109.535  1.00  0.00     0.223 A 
ENDROOT
BRANCH   1  11
ATOM     11  C   UNL     1     109.138  97.261 109.464  1.00  0.00     0.091 A 
ATOM     12  C   UNL     1     110.086  96.640 110.295  1.00  0.00     0.068 A 
ATOM     13  C   UNL     1     111.428  96.543 109.897  1.00  0.00     0.162 A 
ATOM     14  C   UNL     1     109.557  97.813 108.243  1.00  0.00     0.068 A 
ATOM     15  C   UNL     1     111.831  97.080 108.662  1.00  0.00     0.200 A 
ATOM     16  C   UNL     1     110.895  97.718 107.839  1.00  0.00     0.162 A 
BRANCH  13  17
ATOM     17  O   UNL     1     112.359  95.920 110.725  1.00  0.00    -0.504 OA
ATOM     18  H   UNL     1     112.277  94.941 110.976  1.00  0.00     0.293 HD
ENDBRANCH  13  17
BRANCH  15  19
ATOM     19  O   UNL     1     113.160  96.992 108.243  1.00  0.00    -0.502 OA
ATOM     20  H   UNL     1     113.830  97.731 108.417  1.00  0.00     0.293 HD
ENDBRANCH  15  19
BRANCH  16  21
ATOM     21  O   UNL     1     111.303  98.254 106.619  1.00  0.00    -0.504 OA
ATOM     22  H   UNL     1     110.650  98.724 106.002  1.00  0.00     0.293 HD
ENDBRANCH  16  21
ENDBRANCH   1  11
BRANCH  10  23
ATOM     23  O   UNL     1     107.074  95.332 108.746  1.00  0.00    -0.500 OA
ATOM     24  H   UNL     1     107.305  94.435 109.156  1.00  0.00     0.294 HD
ENDBRANCH  10  23
BRANCH   5  25
ATOM     25  O   UNL     1     104.284 101.251 112.932  1.00  0.00    -0.507 OA
ATOM     26  H   UNL     1     104.265 101.243 113.946  1.00  0.00     0.293 HD
ENDBRANCH   5  25
BRANCH   7  27
ATOM     27  O   UNL     1     102.708  97.158 110.982  1.00  0.00    -0.507 OA
ATOM     28  H   UNL     1     102.724  96.164 111.164  1.00  0.00     0.293 HD
ENDBRANCH   7  27
TORSDOF 7
ENDMDL
MODEL 8
REMARK VINA RESULT:    -4.401     10.436     12.018
REMARK INTER + INTRA:          -5.790
REMARK INTER:                  -5.428
REMARK INTRA:                  -0.362
REMARK UNBOUND:                -0.360
REMARK SMILES Oc1cc(O)c2cc(O)c(-c3cc(O)c(O)c(O)c3)[o+]c2c1
REMARK SMILES IDX 10 1 20 2 21 3 22 4 2 5 3 6 4 7 6 8 7 9 8 10 11 11 12 12
REMARK SMILES IDX 13 13 19 14 15 15 17 16 14 17 16 19 18 21 9 23 1 25 5 27
REMARK H PARENT 14 18 16 20 18 22 9 24 1 26 5 28
REMARK Flexibility Score: inf
ROOT
ATOM      1  C   UNL     1     102.265 111.581 108.262  1.00  0.00     0.402 A 
ATOM      2  O   UNL     1     102.339 110.260 108.396  1.00  0.00    -0.202 OA
ATOM      3  C   UNL     1     103.400 109.636 108.899  1.00  0.00     0.368 A 
ATOM      4  C   UNL     1     103.383 108.243 109.003  1.00  0.00     0.162 A 
ATOM      5  C   UNL     1     104.483 107.561 109.530  1.00  0.00     0.128 A 
ATOM      6  C   UNL     1     105.605 108.276 109.957  1.00  0.00     0.093 A 
ATOM      7  C   UNL     1     105.647 109.673 109.864  1.00  0.00     0.136 A 
ATOM      8  C   UNL     1     104.533 110.369 109.327  1.00  0.00     0.125 A 
ATOM      9  C   UNL     1     104.492 111.766 109.183  1.00  0.00     0.078 A 
ATOM     10  C   UNL     1     103.360 112.381 108.640  1.00  0.00     0.223 A 
ENDROOT
BRANCH   1  11
ATOM     11  C   UNL     1     101.025 112.159 107.698  1.00  0.00     0.091 A 
ATOM     12  C   UNL     1      99.889 112.377 108.497  1.00  0.00     0.068 A 
ATOM     13  C   UNL     1      98.715 112.904 107.938  1.00  0.00     0.162 A 
ATOM     14  C   UNL     1     100.959 112.445 106.324  1.00  0.00     0.068 A 
ATOM     15  C   UNL     1      98.668 113.208 106.566  1.00  0.00     0.200 A 
ATOM     16  C   UNL     1      99.789 112.973 105.762  1.00  0.00     0.162 A 
BRANCH  13  17
ATOM     17  O   UNL     1      97.597 113.123 108.740  1.00  0.00    -0.504 OA
ATOM     18  H   UNL     1      97.077 112.354 109.149  1.00  0.00     0.293 HD
ENDBRANCH  13  17
BRANCH  15  19
ATOM     19  O   UNL     1      97.513 113.737 105.989  1.00  0.00    -0.502 OA
ATOM     20  H   UNL     1      97.443 113.921 104.995  1.00  0.00     0.293 HD
ENDBRANCH  15  19
BRANCH  16  21
ATOM     21  O   UNL     1      99.735 113.269 104.401  1.00  0.00    -0.504 OA
ATOM     22  H   UNL     1      98.866 113.534 103.950  1.00  0.00     0.293 HD
ENDBRANCH  16  21
ENDBRANCH   1  11
BRANCH  10  23
ATOM     23  O   UNL     1     103.338 113.764 108.451  1.00  0.00    -0.500 OA
ATOM     24  H   UNL     1     104.164 114.274 108.160  1.00  0.00     0.294 HD
ENDBRANCH  10  23
BRANCH   5  25
ATOM     25  O   UNL     1     104.474 106.172 109.637  1.00  0.00    -0.507 OA
ATOM     26  H   UNL     1     104.553 105.578 108.820  1.00  0.00     0.293 HD
ENDBRANCH   5  25
BRANCH   7  27
ATOM     27  O   UNL     1     106.804 110.313 110.315  1.00  0.00    -0.507 OA
ATOM     28  H   UNL     1     106.862 111.297 110.536  1.00  0.00     0.293 HD
ENDBRANCH   7  27
TORSDOF 7
ENDMDL
MODEL 9
REMARK VINA RESULT:    -4.380      5.129      8.442
REMARK INTER + INTRA:          -5.764
REMARK INTER:                  -5.441
REMARK INTRA:                  -0.322
REMARK UNBOUND:                -0.360
REMARK SMILES Oc1cc(O)c2cc(O)c(-c3cc(O)c(O)c(O)c3)[o+]c2c1
REMARK SMILES IDX 10 1 20 2 21 3 22 4 2 5 3 6 4 7 6 8 7 9 8 10 11 11 12 12
REMARK SMILES IDX 13 13 19 14 15 15 17 16 14 17 16 19 18 21 9 23 1 25 5 27
REMARK H PARENT 14 18 16 20 18 22 9 24 1 26 5 28
REMARK Flexibility Score: inf
ROOT
ATOM      1  C   UNL     1     106.536 104.241 102.328  1.00  0.00     0.402 A 
ATOM      2  O   UNL     1     105.671 104.900 101.561  1.00  0.00    -0.202 OA
ATOM      3  C   UNL     1     105.771 106.199 101.299  1.00  0.00     0.368 A 
ATOM      4  C   UNL     1     104.814 106.802 100.479  1.00  0.00     0.162 A 
ATOM      5  C   UNL     1     104.896 108.166 100.184  1.00  0.00     0.128 A 
ATOM      6  C   UNL     1     105.942 108.929 100.710  1.00  0.00     0.093 A 
ATOM      7  C   UNL     1     106.914 108.348 101.534  1.00  0.00     0.136 A 
ATOM      8  C   UNL     1     106.833 106.965 101.838  1.00  0.00     0.125 A 
ATOM      9  C   UNL     1     107.754 106.301 102.666  1.00  0.00     0.078 A 
ATOM     10  C   UNL     1     107.605 104.935 102.924  1.00  0.00     0.223 A 
ENDROOT
BRANCH   1  11
ATOM     11  C   UNL     1     106.323 102.791 102.538  1.00  0.00     0.091 A 
ATOM     12  C   UNL     1     107.159 101.834 101.938  1.00  0.00     0.068 A 
ATOM     13  C   UNL     1     106.927 100.464 102.130  1.00  0.00     0.162 A 
ATOM     14  C   UNL     1     105.230 102.358 103.306  1.00  0.00     0.068 A 
ATOM     15  C   UNL     1     105.844 100.042 102.920  1.00  0.00     0.200 A 
ATOM     16  C   UNL     1     104.995 100.991 103.503  1.00  0.00     0.162 A 
BRANCH  13  17
ATOM     17  O   UNL     1     107.766  99.523 101.537  1.00  0.00    -0.504 OA
ATOM     18  H   UNL     1     108.082  98.701 102.039  1.00  0.00     0.293 HD
ENDBRANCH  13  17
BRANCH  15  19
ATOM     19  O   UNL     1     105.595  98.685 103.129  1.00  0.00    -0.502 OA
ATOM     20  H   UNL     1     106.338  97.996 103.136  1.00  0.00     0.293 HD
ENDBRANCH  15  19
BRANCH  16  21
ATOM     21  O   UNL     1     103.917 100.567 104.278  1.00  0.00    -0.504 OA
ATOM     22  H   UNL     1     103.689  99.584 104.378  1.00  0.00     0.293 HD
ENDBRANCH  16  21
ENDBRANCH   1  11
BRANCH  10  23
ATOM     23  O   UNL     1     108.491 104.286 103.786  1.00  0.00    -0.500 OA
ATOM     24  H   UNL     1     108.194 103.934 104.688  1.00  0.00     0.294 HD
ENDBRANCH  10  23
BRANCH   5  25
ATOM     25  O   UNL     1     103.946 108.775  99.367  1.00  0.00    -0.507 OA
ATOM     26  H   UNL     1     104.211 109.255  98.514  1.00  0.00     0.293 HD
ENDBRANCH   5  25
BRANCH   7  27
ATOM     27  O   UNL     1     107.927 109.180 102.017  1.00  0.00    -0.507 OA
ATOM     28  H   UNL     1     108.618 109.634 101.437  1.00  0.00     0.293 HD
ENDBRANCH   7  27
TORSDOF 7
ENDMDL
