MODEL 1
REMARK VINA RESULT:    -3.501      0.000      0.000
REMARK INTER + INTRA:          -6.841
REMARK INTER:                  -5.548
REMARK INTRA:                  -1.292
REMARK UNBOUND:                -1.292
REMARK SMILES CCCCCCCCCCCC(=O)[O-]
REMARK SMILES IDX 7 1 8 2 9 3 10 4 11 5 12 6 13 7 14 8 6 9 5 10 4 11 3 12 2 13
REMARK SMILES IDX 1 14
REMARK H PARENT
REMARK Flexibility Score: inf
ROOT
ATOM      1  C   UNL     1     -23.636  31.119 -41.506  1.00  0.00     0.000 C 
ENDROOT
BRANCH   1   2
ATOM      2  C   UNL     1     -23.051  29.711 -41.726  1.00  0.00     0.000 C 
BRANCH   2   3
ATOM      3  C   UNL     1     -21.921  29.663 -42.777  1.00  0.00     0.000 C 
BRANCH   3   4
ATOM      4  C   UNL     1     -21.016  30.903 -42.725  1.00  0.00     0.006 C 
BRANCH   4   5
ATOM      5  C   UNL     1     -19.582  30.521 -42.345  1.00  0.00     0.053 C 
BRANCH   5   6
ATOM      6  C   UNL     1     -18.651  31.663 -42.601  1.00  0.00     0.041 C 
ATOM      7  O   UNL     1     -18.427  32.047 -43.779  1.00  0.00    -0.550 OA
ATOM      8  O   UNL     1     -18.067  32.337 -41.535  1.00  0.00    -0.550 OA
ENDBRANCH   5   6
ENDBRANCH   4   5
ENDBRANCH   3   4
ENDBRANCH   2   3
ENDBRANCH   1   2
BRANCH   1   9
ATOM      9  C   UNL     1     -23.458  31.689 -40.086  1.00  0.00     0.000 C 
BRANCH   9  10
ATOM     10  C   UNL     1     -22.488  30.905 -39.181  1.00  0.00    -0.000 C 
BRANCH  10  11
ATOM     11  C   UNL     1     -21.095  31.551 -39.097  1.00  0.00    -0.000 C 
BRANCH  11  12
ATOM     12  C   UNL     1     -21.083  33.012 -39.585  1.00  0.00    -0.000 C 
BRANCH  12  13
ATOM     13  C   UNL     1     -20.917  34.068 -38.476  1.00  0.00    -0.003 C 
ATOM     14  C   UNL     1     -22.232  34.427 -37.787  1.00  0.00     0.004 C 
ENDBRANCH  12  13
ENDBRANCH  11  12
ENDBRANCH  10  11
ENDBRANCH   9  10
ENDBRANCH   1   9
TORSDOF 10
ENDMDL
MODEL 2
REMARK VINA RESULT:    -3.435      2.794      4.823
REMARK INTER + INTRA:          -6.735
REMARK INTER:                  -5.060
REMARK INTRA:                  -1.675
REMARK UNBOUND:                -1.292
REMARK SMILES CCCCCCCCCCCC(=O)[O-]
REMARK SMILES IDX 7 1 8 2 9 3 10 4 11 5 12 6 13 7 14 8 6 9 5 10 4 11 3 12 2 13
REMARK SMILES IDX 1 14
REMARK H PARENT
REMARK Flexibility Score: inf
ROOT
ATOM      1  C   UNL     1     -20.390  30.009 -40.777  1.00  0.00     0.000 C 
ENDROOT
BRANCH   1   2
ATOM      2  C   UNL     1     -20.029  31.216 -39.890  1.00  0.00     0.000 C 
BRANCH   2   3
ATOM      3  C   UNL     1     -20.218  32.580 -40.588  1.00  0.00     0.000 C 
BRANCH   3   4
ATOM      4  C   UNL     1     -20.724  33.667 -39.629  1.00  0.00     0.006 C 
BRANCH   4   5
ATOM      5  C   UNL     1     -20.945  33.100 -38.223  1.00  0.00     0.053 C 
BRANCH   5   6
ATOM      6  C   UNL     1     -22.124  33.752 -37.575  1.00  0.00     0.041 C 
ATOM      7  O   UNL     1     -22.883  34.500 -38.245  1.00  0.00    -0.550 OA
ATOM      8  O   UNL     1     -22.414  33.495 -36.240  1.00  0.00    -0.550 OA
ENDBRANCH   5   6
ENDBRANCH   4   5
ENDBRANCH   3   4
ENDBRANCH   2   3
ENDBRANCH   1   2
BRANCH   1   9
ATOM      9  C   UNL     1     -20.761  30.351 -42.232  1.00  0.00     0.000 C 
BRANCH   9  10
ATOM     10  C   UNL     1     -22.051  29.690 -42.753  1.00  0.00    -0.000 C 
BRANCH  10  11
ATOM     11  C   UNL     1     -23.207  29.755 -41.740  1.00  0.00    -0.000 C 
BRANCH  11  12
ATOM     12  C   UNL     1     -23.834  31.158 -41.637  1.00  0.00    -0.000 C 
BRANCH  12  13
ATOM     13  C   UNL     1     -23.892  31.744 -40.214  1.00  0.00    -0.003 C 
ATOM     14  C   UNL     1     -23.698  30.691 -39.123  1.00  0.00     0.004 C 
ENDBRANCH  12  13
ENDBRANCH  11  12
ENDBRANCH  10  11
ENDBRANCH   9  10
ENDBRANCH   1   9
TORSDOF 10
ENDMDL
MODEL 3
REMARK VINA RESULT:    -3.389      1.412      3.550
REMARK INTER + INTRA:          -6.663
REMARK INTER:                  -5.305
REMARK INTRA:                  -1.357
REMARK UNBOUND:                -1.292
REMARK SMILES CCCCCCCCCCCC(=O)[O-]
REMARK SMILES IDX 7 1 8 2 9 3 10 4 11 5 12 6 13 7 14 8 6 9 5 10 4 11 3 12 2 13
REMARK SMILES IDX 1 14
REMARK H PARENT
REMARK Flexibility Score: inf
ROOT
ATOM      1  C   UNL     1     -21.220  34.213 -38.478  1.00  0.00     0.000 C 
ENDROOT
BRANCH   1   2
ATOM      2  C   UNL     1     -20.560  33.465 -39.653  1.00  0.00     0.000 C 
BRANCH   2   3
ATOM      3  C   UNL     1     -19.524  32.407 -39.215  1.00  0.00     0.000 C 
BRANCH   3   4
ATOM      4  C   UNL     1     -19.636  31.105 -40.021  1.00  0.00     0.006 C 
BRANCH   4   5
ATOM      5  C   UNL     1     -18.602  31.068 -41.151  1.00  0.00     0.053 C 
BRANCH   5   6
ATOM      6  C   UNL     1     -19.280  31.133 -42.482  1.00  0.00     0.041 C 
ATOM      7  O   UNL     1     -18.829  31.883 -43.387  1.00  0.00    -0.550 OA
ATOM      8  O   UNL     1     -20.382  30.327 -42.742  1.00  0.00    -0.550 OA
ENDBRANCH   5   6
ENDBRANCH   4   5
ENDBRANCH   3   4
ENDBRANCH   2   3
ENDBRANCH   1   2
BRANCH   1   9
ATOM      9  C   UNL     1     -22.751  34.073 -38.389  1.00  0.00     0.000 C 
BRANCH   9  10
ATOM     10  C   UNL     1     -23.258  33.079 -37.327  1.00  0.00    -0.000 C 
BRANCH  10  11
ATOM     11  C   UNL     1     -23.207  31.617 -37.804  1.00  0.00    -0.000 C 
BRANCH  11  12
ATOM     12  C   UNL     1     -24.055  31.369 -39.065  1.00  0.00    -0.000 C 
BRANCH  12  13
ATOM     13  C   UNL     1     -23.275  30.834 -40.280  1.00  0.00    -0.003 C 
ATOM     14  C   UNL     1     -23.388  31.734 -41.510  1.00  0.00     0.004 C 
ENDBRANCH  12  13
ENDBRANCH  11  12
ENDBRANCH  10  11
ENDBRANCH   9  10
ENDBRANCH   1   9
TORSDOF 10
ENDMDL
MODEL 4
REMARK VINA RESULT:    -3.361      3.307      4.490
REMARK INTER + INTRA:          -6.617
REMARK INTER:                  -5.036
REMARK INTRA:                  -1.581
REMARK UNBOUND:                -1.292
REMARK SMILES CCCCCCCCCCCC(=O)[O-]
REMARK SMILES IDX 7 1 8 2 9 3 10 4 11 5 12 6 13 7 14 8 6 9 5 10 4 11 3 12 2 13
REMARK SMILES IDX 1 14
REMARK H PARENT
REMARK Flexibility Score: inf
ROOT
ATOM      1  C   UNL     1     -20.109  30.170 -41.161  1.00  0.00     0.000 C 
ENDROOT
BRANCH   1   2
ATOM      2  C   UNL     1     -21.573  29.780 -41.444  1.00  0.00     0.000 C 
BRANCH   2   3
ATOM      3  C   UNL     1     -22.323  30.786 -42.343  1.00  0.00     0.000 C 
BRANCH   3   4
ATOM      4  C   UNL     1     -23.572  31.366 -41.664  1.00  0.00     0.006 C 
BRANCH   4   5
ATOM      5  C   UNL     1     -24.255  30.315 -40.783  1.00  0.00     0.053 C 
BRANCH   5   6
ATOM      6  C   UNL     1     -25.251  29.533 -41.579  1.00  0.00     0.041 C 
ATOM      7  O   UNL     1     -26.371  30.033 -41.860  1.00  0.00    -0.550 OA
ATOM      8  O   UNL     1     -24.924  28.268 -42.053  1.00  0.00    -0.550 OA
ENDBRANCH   5   6
ENDBRANCH   4   5
ENDBRANCH   3   4
ENDBRANCH   2   3
ENDBRANCH   1   2
BRANCH   1   9
ATOM      9  C   UNL     1     -19.665  31.522 -41.751  1.00  0.00     0.000 C 
BRANCH   9  10
ATOM     10  C   UNL     1     -18.818  32.401 -40.810  1.00  0.00    -0.000 C 
BRANCH  10  11
ATOM     11  C   UNL     1     -19.555  32.766 -39.510  1.00  0.00    -0.000 C 
BRANCH  11  12
ATOM     12  C   UNL     1     -20.783  33.665 -39.750  1.00  0.00    -0.000 C 
BRANCH  12  13
ATOM     13  C   UNL     1     -22.044  33.272 -38.959  1.00  0.00    -0.003 C 
ATOM     14  C   UNL     1     -21.925  31.909 -38.279  1.00  0.00     0.004 C 
ENDBRANCH  12  13
ENDBRANCH  11  12
ENDBRANCH  10  11
ENDBRANCH   9  10
ENDBRANCH   1   9
TORSDOF 10
ENDMDL
MODEL 5
REMARK VINA RESULT:    -3.325      1.884      2.747
REMARK INTER + INTRA:          -6.561
REMARK INTER:                  -4.981
REMARK INTRA:                  -1.580
REMARK UNBOUND:                -1.292
REMARK SMILES CCCCCCCCCCCC(=O)[O-]
REMARK SMILES IDX 7 1 8 2 9 3 10 4 11 5 12 6 13 7 14 8 6 9 5 10 4 11 3 12 2 13
REMARK SMILES IDX 1 14
REMARK H PARENT
REMARK Flexibility Score: inf
ROOT
ATOM      1  C   UNL     1     -23.993  30.698 -38.094  1.00  0.00     0.000 C 
ENDROOT
BRANCH   1   2
ATOM      2  C   UNL     1     -23.830  30.333 -39.582  1.00  0.00     0.000 C 
BRANCH   2   3
ATOM      3  C   UNL     1     -24.144  31.497 -40.547  1.00  0.00     0.000 C 
BRANCH   3   4
ATOM      4  C   UNL     1     -23.134  31.593 -41.701  1.00  0.00     0.006 C 
BRANCH   4   5
ATOM      5  C   UNL     1     -21.789  30.976 -41.306  1.00  0.00     0.053 C 
BRANCH   5   6
ATOM      6  C   UNL     1     -21.170  30.278 -42.474  1.00  0.00     0.041 C 
ATOM      7  O   UNL     1     -19.940  30.406 -42.711  1.00  0.00    -0.550 OA
ATOM      8  O   UNL     1     -21.941  29.443 -43.274  1.00  0.00    -0.550 OA
ENDBRANCH   5   6
ENDBRANCH   4   5
ENDBRANCH   3   4
ENDBRANCH   2   3
ENDBRANCH   1   2
BRANCH   1   9
ATOM      9  C   UNL     1     -22.829  30.267 -37.182  1.00  0.00     0.000 C 
BRANCH   9  10
ATOM     10  C   UNL     1     -21.431  30.723 -37.642  1.00  0.00    -0.000 C 
BRANCH  10  11
ATOM     11  C   UNL     1     -21.070  32.134 -37.146  1.00  0.00    -0.000 C 
BRANCH  11  12
ATOM     12  C   UNL     1     -20.586  33.061 -38.278  1.00  0.00    -0.000 C 
BRANCH  12  13
ATOM     13  C   UNL     1     -21.694  33.870 -38.977  1.00  0.00    -0.003 C 
ATOM     14  C   UNL     1     -22.850  34.234 -38.046  1.00  0.00     0.004 C 
ENDBRANCH  12  13
ENDBRANCH  11  12
ENDBRANCH  10  11
ENDBRANCH   9  10
ENDBRANCH   1   9
TORSDOF 10
ENDMDL
MODEL 6
REMARK VINA RESULT:    -3.311      3.127      5.923
REMARK INTER + INTRA:          -6.539
REMARK INTER:                  -5.469
REMARK INTRA:                  -1.071
REMARK UNBOUND:                -1.292
REMARK SMILES CCCCCCCCCCCC(=O)[O-]
REMARK SMILES IDX 7 1 8 2 9 3 10 4 11 5 12 6 13 7 14 8 6 9 5 10 4 11 3 12 2 13
REMARK SMILES IDX 1 14
REMARK H PARENT
REMARK Flexibility Score: inf
ROOT
ATOM      1  C   UNL     1     -18.314  31.434 -39.227  1.00  0.00     0.000 C 
ENDROOT
BRANCH   1   2
ATOM      2  C   UNL     1     -19.654  31.961 -38.678  1.00  0.00     0.000 C 
BRANCH   2   3
ATOM      3  C   UNL     1     -19.986  33.401 -39.124  1.00  0.00     0.000 C 
BRANCH   3   4
ATOM      4  C   UNL     1     -21.488  33.612 -39.363  1.00  0.00     0.006 C 
BRANCH   4   5
ATOM      5  C   UNL     1     -22.137  34.331 -38.177  1.00  0.00     0.053 C 
BRANCH   5   6
ATOM      6  C   UNL     1     -23.177  33.463 -37.543  1.00  0.00     0.041 C 
ATOM      7  O   UNL     1     -24.361  33.874 -37.428  1.00  0.00    -0.550 OA
ATOM      8  O   UNL     1     -22.851  32.179 -37.124  1.00  0.00    -0.550 OA
ENDBRANCH   5   6
ENDBRANCH   4   5
ENDBRANCH   3   4
ENDBRANCH   2   3
ENDBRANCH   1   2
BRANCH   1   9
ATOM      9  C   UNL     1     -17.620  32.348 -40.253  1.00  0.00     0.000 C 
BRANCH   9  10
ATOM     10  C   UNL     1     -17.532  31.781 -41.683  1.00  0.00    -0.000 C 
BRANCH  10  11
ATOM     11  C   UNL     1     -18.863  31.882 -42.448  1.00  0.00    -0.000 C 
BRANCH  11  12
ATOM     12  C   UNL     1     -19.585  30.528 -42.575  1.00  0.00    -0.000 C 
BRANCH  12  13
ATOM     13  C   UNL     1     -21.001  30.485 -41.972  1.00  0.00    -0.003 C 
ATOM     14  C   UNL     1     -21.988  29.679 -42.816  1.00  0.00     0.004 C 
ENDBRANCH  12  13
ENDBRANCH  11  12
ENDBRANCH  10  11
ENDBRANCH   9  10
ENDBRANCH   1   9
TORSDOF 10
ENDMDL
MODEL 7
REMARK VINA RESULT:    -3.306     16.592     18.045
REMARK INTER + INTRA:          -6.531
REMARK INTER:                  -5.121
REMARK INTRA:                  -1.411
REMARK UNBOUND:                -1.292
REMARK SMILES CCCCCCCCCCCC(=O)[O-]
REMARK SMILES IDX 7 1 8 2 9 3 10 4 11 5 12 6 13 7 14 8 6 9 5 10 4 11 3 12 2 13
REMARK SMILES IDX 1 14
REMARK H PARENT
REMARK Flexibility Score: inf
ROOT
ATOM      1  C   UNL     1     -24.612  20.099 -27.619  1.00  0.00     0.000 C 
ENDROOT
BRANCH   1   2
ATOM      2  C   UNL     1     -23.634  20.845 -28.547  1.00  0.00     0.000 C 
BRANCH   2   3
ATOM      3  C   UNL     1     -23.076  19.975 -29.694  1.00  0.00     0.000 C 
BRANCH   3   4
ATOM      4  C   UNL     1     -23.979  18.774 -30.014  1.00  0.00     0.006 C 
BRANCH   4   5
ATOM      5  C   UNL     1     -23.482  18.029 -31.256  1.00  0.00     0.053 C 
BRANCH   5   6
ATOM      6  C   UNL     1     -24.422  18.235 -32.401  1.00  0.00     0.041 C 
ATOM      7  O   UNL     1     -25.059  19.315 -32.512  1.00  0.00    -0.550 OA
ATOM      8  O   UNL     1     -24.558  17.252 -33.375  1.00  0.00    -0.550 OA
ENDBRANCH   5   6
ENDBRANCH   4   5
ENDBRANCH   3   4
ENDBRANCH   2   3
ENDBRANCH   1   2
BRANCH   1   9
ATOM      9  C   UNL     1     -23.983  19.503 -26.346  1.00  0.00     0.000 C 
BRANCH   9  10
ATOM     10  C   UNL     1     -23.815  17.972 -26.352  1.00  0.00    -0.000 C 
BRANCH  10  11
ATOM     11  C   UNL     1     -22.348  17.532 -26.495  1.00  0.00    -0.000 C 
BRANCH  11  12
ATOM     12  C   UNL     1     -21.351  18.646 -26.122  1.00  0.00    -0.000 C 
BRANCH  12  13
ATOM     13  C   UNL     1     -20.454  19.131 -27.276  1.00  0.00    -0.003 C 
ATOM     14  C   UNL     1     -20.218  18.063 -28.343  1.00  0.00     0.004 C 
ENDBRANCH  12  13
ENDBRANCH  11  12
ENDBRANCH  10  11
ENDBRANCH   9  10
ENDBRANCH   1   9
TORSDOF 10
ENDMDL
MODEL 8
REMARK VINA RESULT:    -3.222      2.600      4.033
REMARK INTER + INTRA:          -6.398
REMARK INTER:                  -5.437
REMARK INTRA:                  -0.961
REMARK UNBOUND:                -1.292
REMARK SMILES CCCCCCCCCCCC(=O)[O-]
REMARK SMILES IDX 7 1 8 2 9 3 10 4 11 5 12 6 13 7 14 8 6 9 5 10 4 11 3 12 2 13
REMARK SMILES IDX 1 14
REMARK H PARENT
REMARK Flexibility Score: inf
ROOT
ATOM      1  C   UNL     1     -18.488  32.310 -40.721  1.00  0.00     0.000 C 
ENDROOT
BRANCH   1   2
ATOM      2  C   UNL     1     -18.908  31.853 -42.131  1.00  0.00     0.000 C 
BRANCH   2   3
ATOM      3  C   UNL     1     -19.471  30.416 -42.177  1.00  0.00     0.000 C 
BRANCH   3   4
ATOM      4  C   UNL     1     -20.959  30.380 -42.557  1.00  0.00     0.006 C 
BRANCH   4   5
ATOM      5  C   UNL     1     -21.779  29.641 -41.494  1.00  0.00     0.053 C 
BRANCH   5   6
ATOM      6  C   UNL     1     -23.240  29.744 -41.795  1.00  0.00     0.041 C 
ATOM      7  O   UNL     1     -23.792  30.873 -41.880  1.00  0.00    -0.550 OA
ATOM      8  O   UNL     1     -23.984  28.595 -42.032  1.00  0.00    -0.550 OA
ENDBRANCH   5   6
ENDBRANCH   4   5
ENDBRANCH   3   4
ENDBRANCH   2   3
ENDBRANCH   1   2
BRANCH   1   9
ATOM      9  C   UNL     1     -19.619  32.338 -39.676  1.00  0.00     0.000 C 
BRANCH   9  10
ATOM     10  C   UNL     1     -20.657  33.461 -39.863  1.00  0.00    -0.000 C 
BRANCH  10  11
ATOM     11  C   UNL     1     -21.052  34.136 -38.538  1.00  0.00    -0.000 C 
BRANCH  11  12
ATOM     12  C   UNL     1     -22.509  33.846 -38.130  1.00  0.00    -0.000 C 
BRANCH  12  13
ATOM     13  C   UNL     1     -23.253  32.847 -39.035  1.00  0.00    -0.003 C 
ATOM     14  C   UNL     1     -23.649  31.561 -38.310  1.00  0.00     0.004 C 
ENDBRANCH  12  13
ENDBRANCH  11  12
ENDBRANCH  10  11
ENDBRANCH   9  10
ENDBRANCH   1   9
TORSDOF 10
ENDMDL
MODEL 9
REMARK VINA RESULT:    -3.170     13.190     14.738
REMARK INTER + INTRA:          -6.316
REMARK INTER:                  -4.968
REMARK INTRA:                  -1.348
REMARK UNBOUND:                -1.292
REMARK SMILES CCCCCCCCCCCC(=O)[O-]
REMARK SMILES IDX 7 1 8 2 9 3 10 4 11 5 12 6 13 7 14 8 6 9 5 10 4 11 3 12 2 13
REMARK SMILES IDX 1 14
REMARK H PARENT
REMARK Flexibility Score: inf
ROOT
ATOM      1  C   UNL     1     -26.181  20.923 -36.249  1.00  0.00     0.000 C 
ENDROOT
BRANCH   1   2
ATOM      2  C   UNL     1     -25.502  19.592 -36.627  1.00  0.00     0.000 C 
BRANCH   2   3
ATOM      3  C   UNL     1     -26.455  18.572 -37.286  1.00  0.00     0.000 C 
BRANCH   3   4
ATOM      4  C   UNL     1     -26.590  18.786 -38.801  1.00  0.00     0.006 C 
BRANCH   4   5
ATOM      5  C   UNL     1     -28.031  19.142 -39.179  1.00  0.00     0.053 C 
BRANCH   5   6
ATOM      6  C   UNL     1     -28.144  20.597 -39.504  1.00  0.00     0.041 C 
ATOM      7  O   UNL     1     -29.276  21.134 -39.626  1.00  0.00    -0.550 OA
ATOM      8  O   UNL     1     -26.998  21.374 -39.624  1.00  0.00    -0.550 OA
ENDBRANCH   5   6
ENDBRANCH   4   5
ENDBRANCH   3   4
ENDBRANCH   2   3
ENDBRANCH   1   2
BRANCH   1   9
ATOM      9  C   UNL     1     -27.646  20.803 -35.789  1.00  0.00     0.000 C 
BRANCH   9  10
ATOM     10  C   UNL     1     -27.840  20.426 -34.307  1.00  0.00    -0.000 C 
BRANCH  10  11
ATOM     11  C   UNL     1     -28.347  18.985 -34.120  1.00  0.00    -0.000 C 
BRANCH  11  12
ATOM     12  C   UNL     1     -27.407  18.128 -33.252  1.00  0.00    -0.000 C 
BRANCH  12  13
ATOM     13  C   UNL     1     -26.501  17.159 -34.033  1.00  0.00    -0.003 C 
ATOM     14  C   UNL     1     -25.031  17.251 -33.626  1.00  0.00     0.004 C 
ENDBRANCH  12  13
ENDBRANCH  11  12
ENDBRANCH  10  11
ENDBRANCH   9  10
ENDBRANCH   1   9
TORSDOF 10
ENDMDL
