MODEL 1
REMARK VINA RESULT:    -4.169      0.000      0.000
REMARK INTER + INTRA:         -15.512
REMARK INTER:                 -10.993
REMARK INTRA:                  -4.519
REMARK UNBOUND:                -4.519
REMARK SMILES CCCCCCCCCCCCCCCCCCCCCCCCCCCCCC(=O)[O-]
REMARK SMILES IDX 16 1 17 2 18 3 19 4 20 5 21 6 22 7 23 8 24 9 25 10 26 11
REMARK SMILES IDX 27 12 28 13 29 14 30 15 31 16 32 17 15 18 14 19 13 20 12 21
REMARK SMILES IDX 11 22 10 23 9 24 8 25 7 26 6 27 5 28 4 29 3 30 2 31 1 32
REMARK H PARENT
REMARK Flexibility Score: inf
ROOT
ATOM      1  C   UNL     1     -48.000  10.161 -29.831  1.00  0.00     0.000 C 
ENDROOT
BRANCH   1   2
ATOM      2  C   UNL     1     -48.513  11.294 -28.922  1.00  0.00     0.000 C 
BRANCH   2   3
ATOM      3  C   UNL     1     -49.837  11.904 -29.414  1.00  0.00     0.000 C 
BRANCH   3   4
ATOM      4  C   UNL     1     -51.055  11.031 -29.068  1.00  0.00     0.000 C 
BRANCH   4   5
ATOM      5  C   UNL     1     -52.354  11.808 -28.784  1.00  0.00     0.000 C 
BRANCH   5   6
ATOM      6  C   UNL     1     -52.419  13.188 -29.473  1.00  0.00     0.000 C 
BRANCH   6   7
ATOM      7  C   UNL     1     -53.474  14.104 -28.834  1.00  0.00     0.000 C 
BRANCH   7   8
ATOM      8  C   UNL     1     -52.817  15.269 -28.085  1.00  0.00     0.000 C 
BRANCH   8   9
ATOM      9  C   UNL     1     -53.851  16.356 -27.752  1.00  0.00     0.000 C 
BRANCH   9  10
ATOM     10  C   UNL     1     -53.335  17.779 -28.028  1.00  0.00     0.000 C 
BRANCH  10  11
ATOM     11  C   UNL     1     -53.880  18.433 -29.313  1.00  0.00     0.000 C 
BRANCH  11  12
ATOM     12  C   UNL     1     -53.389  17.799 -30.630  1.00  0.00     0.000 C 
BRANCH  12  13
ATOM     13  C   UNL     1     -51.964  18.207 -31.062  1.00  0.00     0.006 C 
BRANCH  13  14
ATOM     14  C   UNL     1     -50.860  17.233 -30.622  1.00  0.00     0.053 C 
BRANCH  14  15
ATOM     15  C   UNL     1     -50.714  16.085 -31.574  1.00  0.00     0.041 C 
ATOM     16  O   UNL     1     -51.317  16.101 -32.681  1.00  0.00    -0.550 OA
ATOM     17  O   UNL     1     -49.974  14.968 -31.209  1.00  0.00    -0.550 OA
ENDBRANCH  14  15
ENDBRANCH  13  14
ENDBRANCH  12  13
ENDBRANCH  11  12
ENDBRANCH  10  11
ENDBRANCH   9  10
ENDBRANCH   8   9
ENDBRANCH   7   8
ENDBRANCH   6   7
ENDBRANCH   5   6
ENDBRANCH   4   5
ENDBRANCH   3   4
ENDBRANCH   2   3
ENDBRANCH   1   2
BRANCH   1  18
ATOM     18  C   UNL     1     -47.626   8.856 -29.098  1.00  0.00     0.000 C 
BRANCH  18  19
ATOM     19  C   UNL     1     -47.718   7.613 -30.003  1.00  0.00     0.000 C 
BRANCH  19  20
ATOM     20  C   UNL     1     -48.766   6.598 -29.500  1.00  0.00     0.000 C 
BRANCH  20  21
ATOM     21  C   UNL     1     -49.519   5.876 -30.630  1.00  0.00     0.000 C 
BRANCH  21  22
ATOM     22  C   UNL     1     -51.039   6.106 -30.583  1.00  0.00     0.000 C 
BRANCH  22  23
ATOM     23  C   UNL     1     -51.421   7.305 -29.699  1.00  0.00     0.000 C 
BRANCH  23  24
ATOM     24  C   UNL     1     -52.785   7.906 -30.083  1.00  0.00    -0.000 C 
BRANCH  24  25
ATOM     25  C   UNL     1     -53.299   7.407 -31.446  1.00  0.00    -0.000 C 
BRANCH  25  26
ATOM     26  C   UNL     1     -53.798   8.513 -32.398  1.00  0.00    -0.000 C 
BRANCH  26  27
ATOM     27  C   UNL     1     -52.671   9.122 -33.250  1.00  0.00    -0.000 C 
BRANCH  27  28
ATOM     28  C   UNL     1     -51.917  10.245 -32.522  1.00  0.00    -0.000 C 
BRANCH  28  29
ATOM     29  C   UNL     1     -50.386  10.074 -32.600  1.00  0.00    -0.000 C 
BRANCH  29  30
ATOM     30  C   UNL     1     -49.969   8.660 -33.059  1.00  0.00    -0.000 C 
BRANCH  30  31
ATOM     31  C   UNL     1     -48.464   8.516 -33.352  1.00  0.00    -0.003 C 
ATOM     32  C   UNL     1     -48.008   7.065 -33.484  1.00  0.00     0.004 C 
ENDBRANCH  30  31
ENDBRANCH  29  30
ENDBRANCH  28  29
ENDBRANCH  27  28
ENDBRANCH  26  27
ENDBRANCH  25  26
ENDBRANCH  24  25
ENDBRANCH  23  24
ENDBRANCH  22  23
ENDBRANCH  21  22
ENDBRANCH  20  21
ENDBRANCH  19  20
ENDBRANCH  18  19
ENDBRANCH   1  18
TORSDOF 28
ENDMDL
MODEL 2
REMARK VINA RESULT:    -4.064      4.006     10.712
REMARK INTER + INTRA:         -15.236
REMARK INTER:                 -13.241
REMARK INTRA:                  -1.995
REMARK UNBOUND:                -4.519
REMARK SMILES CCCCCCCCCCCCCCCCCCCCCCCCCCCCCC(=O)[O-]
REMARK SMILES IDX 16 1 17 2 18 3 19 4 20 5 21 6 22 7 23 8 24 9 25 10 26 11
REMARK SMILES IDX 27 12 28 13 29 14 30 15 31 16 32 17 15 18 14 19 13 20 12 21
REMARK SMILES IDX 11 22 10 23 9 24 8 25 7 26 6 27 5 28 4 29 3 30 2 31 1 32
REMARK H PARENT
REMARK Flexibility Score: inf
ROOT
ATOM      1  C   UNL     1     -52.680  14.040 -31.097  1.00  0.00     0.000 C 
ENDROOT
BRANCH   1   2
ATOM      2  C   UNL     1     -53.457  12.893 -30.423  1.00  0.00     0.000 C 
BRANCH   2   3
ATOM      3  C   UNL     1     -52.549  11.727 -29.993  1.00  0.00     0.000 C 
BRANCH   3   4
ATOM      4  C   UNL     1     -53.106  10.357 -30.414  1.00  0.00     0.000 C 
BRANCH   4   5
ATOM      5  C   UNL     1     -52.945  10.019 -31.907  1.00  0.00     0.000 C 
BRANCH   5   6
ATOM      6  C   UNL     1     -53.129   8.520 -32.231  1.00  0.00     0.000 C 
BRANCH   6   7
ATOM      7  C   UNL     1     -52.266   8.076 -33.423  1.00  0.00     0.000 C 
BRANCH   7   8
ATOM      8  C   UNL     1     -52.247   6.549 -33.555  1.00  0.00     0.000 C 
BRANCH   8   9
ATOM      9  C   UNL     1     -50.807   6.015 -33.500  1.00  0.00     0.000 C 
BRANCH   9  10
ATOM     10  C   UNL     1     -49.774   7.107 -33.172  1.00  0.00     0.000 C 
BRANCH  10  11
ATOM     11  C   UNL     1     -48.349   6.593 -32.888  1.00  0.00     0.000 C 
BRANCH  11  12
ATOM     12  C   UNL     1     -47.703   7.133 -31.596  1.00  0.00     0.000 C 
BRANCH  12  13
ATOM     13  C   UNL     1     -47.384   8.643 -31.606  1.00  0.00     0.006 C 
BRANCH  13  14
ATOM     14  C   UNL     1     -47.206   9.267 -30.213  1.00  0.00     0.053 C 
BRANCH  14  15
ATOM     15  C   UNL     1     -48.429  10.010 -29.771  1.00  0.00     0.041 C 
ATOM     16  O   UNL     1     -48.443  10.599 -28.656  1.00  0.00    -0.550 OA
ATOM     17  O   UNL     1     -49.576   9.991 -30.554  1.00  0.00    -0.550 OA
ENDBRANCH  14  15
ENDBRANCH  13  14
ENDBRANCH  12  13
ENDBRANCH  11  12
ENDBRANCH  10  11
ENDBRANCH   9  10
ENDBRANCH   8   9
ENDBRANCH   7   8
ENDBRANCH   6   7
ENDBRANCH   5   6
ENDBRANCH   4   5
ENDBRANCH   3   4
ENDBRANCH   2   3
ENDBRANCH   1   2
BRANCH   1  18
ATOM     18  C   UNL     1     -51.145  13.886 -31.081  1.00  0.00     0.000 C 
BRANCH  18  19
ATOM     19  C   UNL     1     -50.408  15.190 -31.436  1.00  0.00     0.000 C 
BRANCH  19  20
ATOM     20  C   UNL     1     -51.371  16.292 -31.927  1.00  0.00     0.000 C 
BRANCH  20  21
ATOM     21  C   UNL     1     -51.439  17.514 -30.996  1.00  0.00     0.000 C 
BRANCH  21  22
ATOM     22  C   UNL     1     -52.824  17.704 -30.353  1.00  0.00     0.000 C 
BRANCH  22  23
ATOM     23  C   UNL     1     -53.558  18.940 -30.900  1.00  0.00     0.000 C 
BRANCH  23  24
ATOM     24  C   UNL     1     -52.669  19.785 -31.829  1.00  0.00    -0.000 C 
BRANCH  24  25
ATOM     25  C   UNL     1     -53.477  20.616 -32.843  1.00  0.00    -0.000 C 
BRANCH  25  26
ATOM     26  C   UNL     1     -52.737  20.938 -34.157  1.00  0.00    -0.000 C 
BRANCH  26  27
ATOM     27  C   UNL     1     -53.583  21.779 -35.129  1.00  0.00    -0.000 C 
BRANCH  27  28
ATOM     28  C   UNL     1     -53.617  21.191 -36.548  1.00  0.00    -0.000 C 
BRANCH  28  29
ATOM     29  C   UNL     1     -53.572  22.280 -37.639  1.00  0.00    -0.000 C 
BRANCH  29  30
ATOM     30  C   UNL     1     -52.967  23.606 -37.130  1.00  0.00    -0.000 C 
BRANCH  30  31
ATOM     31  C   UNL     1     -51.732  24.076 -37.921  1.00  0.00    -0.003 C 
ATOM     32  C   UNL     1     -51.539  23.332 -39.240  1.00  0.00     0.004 C 
ENDBRANCH  30  31
ENDBRANCH  29  30
ENDBRANCH  28  29
ENDBRANCH  27  28
ENDBRANCH  26  27
ENDBRANCH  25  26
ENDBRANCH  24  25
ENDBRANCH  23  24
ENDBRANCH  22  23
ENDBRANCH  21  22
ENDBRANCH  20  21
ENDBRANCH  19  20
ENDBRANCH  18  19
ENDBRANCH   1  18
TORSDOF 28
ENDMDL
MODEL 3
REMARK VINA RESULT:    -3.915      2.831      7.505
REMARK INTER + INTRA:         -14.842
REMARK INTER:                 -10.725
REMARK INTRA:                  -4.118
REMARK UNBOUND:                -4.519
REMARK SMILES CCCCCCCCCCCCCCCCCCCCCCCCCCCCCC(=O)[O-]
REMARK SMILES IDX 16 1 17 2 18 3 19 4 20 5 21 6 22 7 23 8 24 9 25 10 26 11
REMARK SMILES IDX 27 12 28 13 29 14 30 15 31 16 32 17 15 18 14 19 13 20 12 21
REMARK SMILES IDX 11 22 10 23 9 24 8 25 7 26 6 27 5 28 4 29 3 30 2 31 1 32
REMARK H PARENT
REMARK Flexibility Score: inf
ROOT
ATOM      1  C   UNL     1     -53.036  17.520 -29.915  1.00  0.00     0.000 C 
ENDROOT
BRANCH   1   2
ATOM      2  C   UNL     1     -52.779  16.668 -28.658  1.00  0.00     0.000 C 
BRANCH   2   3
ATOM      3  C   UNL     1     -53.699  15.437 -28.569  1.00  0.00     0.000 C 
BRANCH   3   4
ATOM      4  C   UNL     1     -53.039  14.257 -27.837  1.00  0.00     0.000 C 
BRANCH   4   5
ATOM      5  C   UNL     1     -53.481  12.863 -28.318  1.00  0.00     0.000 C 
BRANCH   5   6
ATOM      6  C   UNL     1     -52.366  11.797 -28.251  1.00  0.00     0.000 C 
BRANCH   6   7
ATOM      7  C   UNL     1     -51.004  12.358 -28.690  1.00  0.00     0.000 C 
BRANCH   7   8
ATOM      8  C   UNL     1     -50.126  11.263 -29.306  1.00  0.00     0.000 C 
BRANCH   8   9
ATOM      9  C   UNL     1     -48.643  11.508 -28.985  1.00  0.00     0.000 C 
BRANCH   9  10
ATOM     10  C   UNL     1     -47.761  10.276 -29.249  1.00  0.00     0.000 C 
BRANCH  10  11
ATOM     11  C   UNL     1     -48.381   9.215 -30.180  1.00  0.00     0.000 C 
BRANCH  11  12
ATOM     12  C   UNL     1     -47.443   8.682 -31.282  1.00  0.00     0.000 C 
BRANCH  12  13
ATOM     13  C   UNL     1     -47.881   7.349 -31.925  1.00  0.00     0.006 C 
BRANCH  13  14
ATOM     14  C   UNL     1     -47.369   6.094 -31.202  1.00  0.00     0.053 C 
BRANCH  14  15
ATOM     15  C   UNL     1     -47.734   6.097 -29.748  1.00  0.00     0.041 C 
ATOM     16  O   UNL     1     -46.836   6.211 -28.871  1.00  0.00    -0.550 OA
ATOM     17  O   UNL     1     -49.053   5.900 -29.362  1.00  0.00    -0.550 OA
ENDBRANCH  14  15
ENDBRANCH  13  14
ENDBRANCH  12  13
ENDBRANCH  11  12
ENDBRANCH  10  11
ENDBRANCH   9  10
ENDBRANCH   8   9
ENDBRANCH   7   8
ENDBRANCH   6   7
ENDBRANCH   5   6
ENDBRANCH   4   5
ENDBRANCH   3   4
ENDBRANCH   2   3
ENDBRANCH   1   2
BRANCH   1  18
ATOM     18  C   UNL     1     -51.795  17.771 -30.797  1.00  0.00     0.000 C 
BRANCH  18  19
ATOM     19  C   UNL     1     -51.585  16.678 -31.862  1.00  0.00     0.000 C 
BRANCH  19  20
ATOM     20  C   UNL     1     -50.500  15.660 -31.450  1.00  0.00     0.000 C 
BRANCH  20  21
ATOM     21  C   UNL     1     -51.052  14.257 -31.145  1.00  0.00     0.000 C 
BRANCH  21  22
ATOM     22  C   UNL     1     -51.983  13.725 -32.249  1.00  0.00     0.000 C 
BRANCH  22  23
ATOM     23  C   UNL     1     -53.206  12.989 -31.677  1.00  0.00     0.000 C 
BRANCH  23  24
ATOM     24  C   UNL     1     -52.990  11.468 -31.595  1.00  0.00    -0.000 C 
BRANCH  24  25
ATOM     25  C   UNL     1     -52.165  10.914 -32.771  1.00  0.00    -0.000 C 
BRANCH  25  26
ATOM     26  C   UNL     1     -51.312   9.672 -32.438  1.00  0.00    -0.000 C 
BRANCH  26  27
ATOM     27  C   UNL     1     -51.782   8.948 -31.164  1.00  0.00    -0.000 C 
BRANCH  27  28
ATOM     28  C   UNL     1     -51.582   7.426 -31.239  1.00  0.00    -0.000 C 
BRANCH  28  29
ATOM     29  C   UNL     1     -52.903   6.649 -31.066  1.00  0.00    -0.000 C 
BRANCH  29  30
ATOM     30  C   UNL     1     -53.844   6.801 -32.281  1.00  0.00    -0.000 C 
BRANCH  30  31
ATOM     31  C   UNL     1     -53.196   6.423 -33.626  1.00  0.00    -0.003 C 
ATOM     32  C   UNL     1     -53.391   7.480 -34.710  1.00  0.00     0.004 C 
ENDBRANCH  30  31
ENDBRANCH  29  30
ENDBRANCH  28  29
ENDBRANCH  27  28
ENDBRANCH  26  27
ENDBRANCH  25  26
ENDBRANCH  24  25
ENDBRANCH  23  24
ENDBRANCH  22  23
ENDBRANCH  21  22
ENDBRANCH  20  21
ENDBRANCH  19  20
ENDBRANCH  18  19
ENDBRANCH   1  18
TORSDOF 28
ENDMDL
MODEL 4
REMARK VINA RESULT:    -3.898      1.113      3.682
REMARK INTER + INTRA:         -14.798
REMARK INTER:                 -10.705
REMARK INTRA:                  -4.093
REMARK UNBOUND:                -4.519
REMARK SMILES CCCCCCCCCCCCCCCCCCCCCCCCCCCCCC(=O)[O-]
REMARK SMILES IDX 16 1 17 2 18 3 19 4 20 5 21 6 22 7 23 8 24 9 25 10 26 11
REMARK SMILES IDX 27 12 28 13 29 14 30 15 31 16 32 17 15 18 14 19 13 20 12 21
REMARK SMILES IDX 11 22 10 23 9 24 8 25 7 26 6 27 5 28 4 29 3 30 2 31 1 32
REMARK H PARENT
REMARK Flexibility Score: inf
ROOT
ATOM      1  C   UNL     1     -51.681  10.317 -32.227  1.00  0.00     0.000 C 
ENDROOT
BRANCH   1   2
ATOM      2  C   UNL     1     -51.538   9.992 -30.727  1.00  0.00     0.000 C 
BRANCH   2   3
ATOM      3  C   UNL     1     -52.856  10.160 -29.950  1.00  0.00     0.000 C 
BRANCH   3   4
ATOM      4  C   UNL     1     -52.976  11.537 -29.279  1.00  0.00     0.000 C 
BRANCH   4   5
ATOM      5  C   UNL     1     -54.122  12.421 -29.804  1.00  0.00     0.000 C 
BRANCH   5   6
ATOM      6  C   UNL     1     -53.709  13.885 -30.071  1.00  0.00     0.000 C 
BRANCH   6   7
ATOM      7  C   UNL     1     -52.687  14.393 -29.043  1.00  0.00     0.000 C 
BRANCH   7   8
ATOM      8  C   UNL     1     -53.355  14.686 -27.695  1.00  0.00     0.000 C 
BRANCH   8   9
ATOM      9  C   UNL     1     -52.990  16.094 -27.199  1.00  0.00     0.000 C 
BRANCH   9  10
ATOM     10  C   UNL     1     -53.756  17.206 -27.935  1.00  0.00     0.000 C 
BRANCH  10  11
ATOM     11  C   UNL     1     -52.878  18.175 -28.751  1.00  0.00     0.000 C 
BRANCH  11  12
ATOM     12  C   UNL     1     -53.193  18.233 -30.260  1.00  0.00     0.000 C 
BRANCH  12  13
ATOM     13  C   UNL     1     -51.963  18.388 -31.179  1.00  0.00     0.006 C 
BRANCH  13  14
ATOM     14  C   UNL     1     -50.775  17.485 -30.813  1.00  0.00     0.053 C 
BRANCH  14  15
ATOM     15  C   UNL     1     -50.801  16.191 -31.569  1.00  0.00     0.041 C 
ATOM     16  O   UNL     1     -51.836  15.849 -32.201  1.00  0.00    -0.550 OA
ATOM     17  O   UNL     1     -49.711  15.331 -31.513  1.00  0.00    -0.550 OA
ENDBRANCH  14  15
ENDBRANCH  13  14
ENDBRANCH  12  13
ENDBRANCH  11  12
ENDBRANCH  10  11
ENDBRANCH   9  10
ENDBRANCH   8   9
ENDBRANCH   7   8
ENDBRANCH   6   7
ENDBRANCH   5   6
ENDBRANCH   4   5
ENDBRANCH   3   4
ENDBRANCH   2   3
ENDBRANCH   1   2
BRANCH   1  18
ATOM     18  C   UNL     1     -51.689   9.089 -33.161  1.00  0.00     0.000 C 
BRANCH  18  19
ATOM     19  C   UNL     1     -53.102   8.526 -33.398  1.00  0.00     0.000 C 
BRANCH  19  20
ATOM     20  C   UNL     1     -53.146   6.987 -33.283  1.00  0.00     0.000 C 
BRANCH  20  21
ATOM     21  C   UNL     1     -53.687   6.483 -31.934  1.00  0.00     0.000 C 
BRANCH  21  22
ATOM     22  C   UNL     1     -52.639   6.539 -30.808  1.00  0.00     0.000 C 
BRANCH  22  23
ATOM     23  C   UNL     1     -51.297   5.918 -31.228  1.00  0.00     0.000 C 
BRANCH  23  24
ATOM     24  C   UNL     1     -50.161   6.261 -30.248  1.00  0.00    -0.000 C 
BRANCH  24  25
ATOM     25  C   UNL     1     -48.787   6.373 -30.935  1.00  0.00    -0.000 C 
BRANCH  25  26
ATOM     26  C   UNL     1     -48.674   7.498 -31.984  1.00  0.00    -0.000 C 
BRANCH  26  27
ATOM     27  C   UNL     1     -47.658   8.584 -31.588  1.00  0.00    -0.000 C 
BRANCH  27  28
ATOM     28  C   UNL     1     -47.381   8.615 -30.077  1.00  0.00    -0.000 C 
BRANCH  28  29
ATOM     29  C   UNL     1     -47.414  10.045 -29.501  1.00  0.00    -0.000 C 
BRANCH  29  30
ATOM     30  C   UNL     1     -48.768  10.390 -28.844  1.00  0.00    -0.000 C 
BRANCH  30  31
ATOM     31  C   UNL     1     -49.002  11.899 -28.645  1.00  0.00    -0.003 C 
ATOM     32  C   UNL     1     -49.466  12.612 -29.912  1.00  0.00     0.004 C 
ENDBRANCH  30  31
ENDBRANCH  29  30
ENDBRANCH  28  29
ENDBRANCH  27  28
ENDBRANCH  26  27
ENDBRANCH  25  26
ENDBRANCH  24  25
ENDBRANCH  23  24
ENDBRANCH  22  23
ENDBRANCH  21  22
ENDBRANCH  20  21
ENDBRANCH  19  20
ENDBRANCH  18  19
ENDBRANCH   1  18
TORSDOF 28
ENDMDL
MODEL 5
REMARK VINA RESULT:    -3.792      1.097      2.707
REMARK INTER + INTRA:         -14.519
REMARK INTER:                 -10.789
REMARK INTRA:                  -3.729
REMARK UNBOUND:                -4.519
REMARK SMILES CCCCCCCCCCCCCCCCCCCCCCCCCCCCCC(=O)[O-]
REMARK SMILES IDX 16 1 17 2 18 3 19 4 20 5 21 6 22 7 23 8 24 9 25 10 26 11
REMARK SMILES IDX 27 12 28 13 29 14 30 15 31 16 32 17 15 18 14 19 13 20 12 21
REMARK SMILES IDX 11 22 10 23 9 24 8 25 7 26 6 27 5 28 4 29 3 30 2 31 1 32
REMARK H PARENT
REMARK Flexibility Score: inf
ROOT
ATOM      1  C   UNL     1     -49.766  10.841 -29.211  1.00  0.00     0.000 C 
ENDROOT
BRANCH   1   2
ATOM      2  C   UNL     1     -49.980  12.254 -29.787  1.00  0.00     0.000 C 
BRANCH   2   3
ATOM      3  C   UNL     1     -51.313  12.398 -30.542  1.00  0.00     0.000 C 
BRANCH   3   4
ATOM      4  C   UNL     1     -52.404  11.460 -30.000  1.00  0.00     0.000 C 
BRANCH   4   5
ATOM      5  C   UNL     1     -53.155  11.981 -28.761  1.00  0.00     0.000 C 
BRANCH   5   6
ATOM      6  C   UNL     1     -52.764  13.417 -28.352  1.00  0.00     0.000 C 
BRANCH   6   7
ATOM      7  C   UNL     1     -53.533  14.477 -29.156  1.00  0.00     0.000 C 
BRANCH   7   8
ATOM      8  C   UNL     1     -54.125  15.550 -28.235  1.00  0.00     0.000 C 
BRANCH   8   9
ATOM      9  C   UNL     1     -53.017  16.257 -27.439  1.00  0.00     0.000 C 
BRANCH   9  10
ATOM     10  C   UNL     1     -53.157  17.789 -27.446  1.00  0.00     0.000 C 
BRANCH  10  11
ATOM     11  C   UNL     1     -54.062  18.357 -28.558  1.00  0.00     0.000 C 
BRANCH  11  12
ATOM     12  C   UNL     1     -53.316  19.004 -29.743  1.00  0.00     0.000 C 
BRANCH  12  13
ATOM     13  C   UNL     1     -52.931  18.036 -30.880  1.00  0.00     0.006 C 
BRANCH  13  14
ATOM     14  C   UNL     1     -51.440  17.664 -30.923  1.00  0.00     0.053 C 
BRANCH  14  15
ATOM     15  C   UNL     1     -51.219  16.301 -31.507  1.00  0.00     0.041 C 
ATOM     16  O   UNL     1     -52.195  15.638 -31.951  1.00  0.00    -0.550 OA
ATOM     17  O   UNL     1     -49.951  15.736 -31.493  1.00  0.00    -0.550 OA
ENDBRANCH  14  15
ENDBRANCH  13  14
ENDBRANCH  12  13
ENDBRANCH  11  12
ENDBRANCH  10  11
ENDBRANCH   9  10
ENDBRANCH   8   9
ENDBRANCH   7   8
ENDBRANCH   6   7
ENDBRANCH   5   6
ENDBRANCH   4   5
ENDBRANCH   3   4
ENDBRANCH   2   3
ENDBRANCH   1   2
BRANCH   1  18
ATOM     18  C   UNL     1     -48.293  10.445 -28.985  1.00  0.00     0.000 C 
BRANCH  18  19
ATOM     19  C   UNL     1     -48.091   8.922 -28.878  1.00  0.00     0.000 C 
BRANCH  19  20
ATOM     20  C   UNL     1     -47.099   8.387 -29.933  1.00  0.00     0.000 C 
BRANCH  20  21
ATOM     21  C   UNL     1     -47.348   8.934 -31.349  1.00  0.00     0.000 C 
BRANCH  21  22
ATOM     22  C   UNL     1     -47.780   7.845 -32.347  1.00  0.00     0.000 C 
BRANCH  22  23
ATOM     23  C   UNL     1     -49.110   8.181 -33.040  1.00  0.00     0.000 C 
BRANCH  23  24
ATOM     24  C   UNL     1     -50.137   7.041 -32.923  1.00  0.00    -0.000 C 
BRANCH  24  25
ATOM     25  C   UNL     1     -49.906   6.148 -31.690  1.00  0.00    -0.000 C 
BRANCH  25  26
ATOM     26  C   UNL     1     -50.785   6.486 -30.469  1.00  0.00    -0.000 C 
BRANCH  26  27
ATOM     27  C   UNL     1     -51.559   7.806 -30.636  1.00  0.00    -0.000 C 
BRANCH  27  28
ATOM     28  C   UNL     1     -53.080   7.619 -30.532  1.00  0.00    -0.000 C 
BRANCH  28  29
ATOM     29  C   UNL     1     -53.856   8.578 -31.458  1.00  0.00    -0.000 C 
BRANCH  29  30
ATOM     30  C   UNL     1     -53.042   8.990 -32.704  1.00  0.00    -0.000 C 
BRANCH  30  31
ATOM     31  C   UNL     1     -53.540   8.356 -34.016  1.00  0.00    -0.003 C 
ATOM     32  C   UNL     1     -53.208   6.871 -34.136  1.00  0.00     0.004 C 
ENDBRANCH  30  31
ENDBRANCH  29  30
ENDBRANCH  28  29
ENDBRANCH  27  28
ENDBRANCH  26  27
ENDBRANCH  25  26
ENDBRANCH  24  25
ENDBRANCH  23  24
ENDBRANCH  22  23
ENDBRANCH  21  22
ENDBRANCH  20  21
ENDBRANCH  19  20
ENDBRANCH  18  19
ENDBRANCH   1  18
TORSDOF 28
ENDMDL
MODEL 6
REMARK VINA RESULT:    -3.779      1.545      3.776
REMARK INTER + INTRA:         -14.483
REMARK INTER:                 -10.218
REMARK INTRA:                  -4.265
REMARK UNBOUND:                -4.519
REMARK SMILES CCCCCCCCCCCCCCCCCCCCCCCCCCCCCC(=O)[O-]
REMARK SMILES IDX 16 1 17 2 18 3 19 4 20 5 21 6 22 7 23 8 24 9 25 10 26 11
REMARK SMILES IDX 27 12 28 13 29 14 30 15 31 16 32 17 15 18 14 19 13 20 12 21
REMARK SMILES IDX 11 22 10 23 9 24 8 25 7 26 6 27 5 28 4 29 3 30 2 31 1 32
REMARK H PARENT
REMARK Flexibility Score: inf
ROOT
ATOM      1  C   UNL     1     -49.660  13.099 -30.710  1.00  0.00     0.000 C 
ENDROOT
BRANCH   1   2
ATOM      2  C   UNL     1     -50.758  14.157 -30.930  1.00  0.00     0.000 C 
BRANCH   2   3
ATOM      3  C   UNL     1     -51.885  13.667 -31.857  1.00  0.00     0.000 C 
BRANCH   3   4
ATOM      4  C   UNL     1     -52.072  12.142 -31.805  1.00  0.00     0.000 C 
BRANCH   4   5
ATOM      5  C   UNL     1     -53.384  11.669 -31.153  1.00  0.00     0.000 C 
BRANCH   5   6
ATOM      6  C   UNL     1     -53.182  10.911 -29.823  1.00  0.00     0.000 C 
BRANCH   6   7
ATOM      7  C   UNL     1     -52.439  11.761 -28.781  1.00  0.00     0.000 C 
BRANCH   7   8
ATOM      8  C   UNL     1     -53.422  12.517 -27.879  1.00  0.00     0.000 C 
BRANCH   8   9
ATOM      9  C   UNL     1     -53.337  14.031 -28.128  1.00  0.00     0.000 C 
BRANCH   9  10
ATOM     10  C   UNL     1     -54.125  14.480 -29.370  1.00  0.00     0.000 C 
BRANCH  10  11
ATOM     11  C   UNL     1     -53.945  15.961 -29.758  1.00  0.00     0.000 C 
BRANCH  11  12
ATOM     12  C   UNL     1     -53.532  16.895 -28.602  1.00  0.00     0.000 C 
BRANCH  12  13
ATOM     13  C   UNL     1     -53.375  18.382 -28.986  1.00  0.00     0.006 C 
BRANCH  13  14
ATOM     14  C   UNL     1     -53.677  18.695 -30.460  1.00  0.00     0.053 C 
BRANCH  14  15
ATOM     15  C   UNL     1     -52.436  18.687 -31.300  1.00  0.00     0.041 C 
ATOM     16  O   UNL     1     -51.885  17.595 -31.604  1.00  0.00    -0.550 OA
ATOM     17  O   UNL     1     -51.849  19.886 -31.684  1.00  0.00    -0.550 OA
ENDBRANCH  14  15
ENDBRANCH  13  14
ENDBRANCH  12  13
ENDBRANCH  11  12
ENDBRANCH  10  11
ENDBRANCH   9  10
ENDBRANCH   8   9
ENDBRANCH   7   8
ENDBRANCH   6   7
ENDBRANCH   5   6
ENDBRANCH   4   5
ENDBRANCH   3   4
ENDBRANCH   2   3
ENDBRANCH   1   2
BRANCH   1  18
ATOM     18  C   UNL     1     -49.362  12.767 -29.233  1.00  0.00     0.000 C 
BRANCH  18  19
ATOM     19  C   UNL     1     -48.471  11.522 -29.067  1.00  0.00     0.000 C 
BRANCH  19  20
ATOM     20  C   UNL     1     -49.200  10.222 -29.470  1.00  0.00     0.000 C 
BRANCH  20  21
ATOM     21  C   UNL     1     -48.539   9.482 -30.645  1.00  0.00     0.000 C 
BRANCH  21  22
ATOM     22  C   UNL     1     -49.344   9.591 -31.952  1.00  0.00     0.000 C 
BRANCH  22  23
ATOM     23  C   UNL     1     -48.650   8.882 -33.127  1.00  0.00     0.000 C 
BRANCH  23  24
ATOM     24  C   UNL     1     -48.690   7.349 -32.993  1.00  0.00    -0.000 C 
BRANCH  24  25
ATOM     25  C   UNL     1     -48.325   6.859 -31.580  1.00  0.00    -0.000 C 
BRANCH  25  26
ATOM     26  C   UNL     1     -49.336   5.879 -30.950  1.00  0.00    -0.000 C 
BRANCH  26  27
ATOM     27  C   UNL     1     -49.934   6.401 -29.632  1.00  0.00    -0.000 C 
BRANCH  27  28
ATOM     28  C   UNL     1     -51.349   6.974 -29.808  1.00  0.00    -0.000 C 
BRANCH  28  29
ATOM     29  C   UNL     1     -51.960   6.623 -31.180  1.00  0.00    -0.000 C 
BRANCH  29  30
ATOM     30  C   UNL     1     -52.832   7.762 -31.752  1.00  0.00    -0.000 C 
BRANCH  30  31
ATOM     31  C   UNL     1     -52.431   8.206 -33.171  1.00  0.00    -0.003 C 
ATOM     32  C   UNL     1     -52.253   7.042 -34.142  1.00  0.00     0.004 C 
ENDBRANCH  30  31
ENDBRANCH  29  30
ENDBRANCH  28  29
ENDBRANCH  27  28
ENDBRANCH  26  27
ENDBRANCH  25  26
ENDBRANCH  24  25
ENDBRANCH  23  24
ENDBRANCH  22  23
ENDBRANCH  21  22
ENDBRANCH  20  21
ENDBRANCH  19  20
ENDBRANCH  18  19
ENDBRANCH   1  18
TORSDOF 28
ENDMDL
MODEL 7
REMARK VINA RESULT:    -3.770      1.636      4.225
REMARK INTER + INTRA:         -14.460
REMARK INTER:                 -10.008
REMARK INTRA:                  -4.453
REMARK UNBOUND:                -4.519
REMARK SMILES CCCCCCCCCCCCCCCCCCCCCCCCCCCCCC(=O)[O-]
REMARK SMILES IDX 16 1 17 2 18 3 19 4 20 5 21 6 22 7 23 8 24 9 25 10 26 11
REMARK SMILES IDX 27 12 28 13 29 14 30 15 31 16 32 17 15 18 14 19 13 20 12 21
REMARK SMILES IDX 11 22 10 23 9 24 8 25 7 26 6 27 5 28 4 29 3 30 2 31 1 32
REMARK H PARENT
REMARK Flexibility Score: inf
ROOT
ATOM      1  C   UNL     1     -47.968   6.582 -29.099  1.00  0.00     0.000 C 
ENDROOT
BRANCH   1   2
ATOM      2  C   UNL     1     -49.023   6.742 -30.209  1.00  0.00     0.000 C 
BRANCH   2   3
ATOM      3  C   UNL     1     -50.373   6.096 -29.851  1.00  0.00     0.000 C 
BRANCH   3   4
ATOM      4  C   UNL     1     -51.367   7.100 -29.246  1.00  0.00     0.000 C 
BRANCH   4   5
ATOM      5  C   UNL     1     -52.358   7.721 -30.248  1.00  0.00     0.000 C 
BRANCH   5   6
ATOM      6  C   UNL     1     -53.232   8.843 -29.647  1.00  0.00     0.000 C 
BRANCH   6   7
ATOM      7  C   UNL     1     -53.910   9.692 -30.734  1.00  0.00     0.000 C 
BRANCH   7   8
ATOM      8  C   UNL     1     -54.050  11.153 -30.290  1.00  0.00     0.000 C 
BRANCH   8   9
ATOM      9  C   UNL     1     -53.024  11.492 -29.198  1.00  0.00     0.000 C 
BRANCH   9  10
ATOM     10  C   UNL     1     -52.984  12.991 -28.858  1.00  0.00     0.000 C 
BRANCH  10  11
ATOM     11  C   UNL     1     -51.739  13.744 -29.368  1.00  0.00     0.000 C 
BRANCH  11  12
ATOM     12  C   UNL     1     -52.015  15.140 -29.963  1.00  0.00     0.000 C 
BRANCH  12  13
ATOM     13  C   UNL     1     -52.973  16.025 -29.137  1.00  0.00     0.006 C 
BRANCH  13  14
ATOM     14  C   UNL     1     -52.638  17.524 -29.164  1.00  0.00     0.053 C 
BRANCH  14  15
ATOM     15  C   UNL     1     -52.489  18.040 -30.563  1.00  0.00     0.041 C 
ATOM     16  O   UNL     1     -53.487  18.080 -31.332  1.00  0.00    -0.550 OA
ATOM     17  O   UNL     1     -51.236  18.405 -31.039  1.00  0.00    -0.550 OA
ENDBRANCH  14  15
ENDBRANCH  13  14
ENDBRANCH  12  13
ENDBRANCH  11  12
ENDBRANCH  10  11
ENDBRANCH   9  10
ENDBRANCH   8   9
ENDBRANCH   7   8
ENDBRANCH   6   7
ENDBRANCH   5   6
ENDBRANCH   4   5
ENDBRANCH   3   4
ENDBRANCH   2   3
ENDBRANCH   1   2
BRANCH   1  18
ATOM     18  C   UNL     1     -47.016   7.784 -28.924  1.00  0.00     0.000 C 
BRANCH  18  19
ATOM     19  C   UNL     1     -47.004   8.721 -30.147  1.00  0.00     0.000 C 
BRANCH  19  20
ATOM     20  C   UNL     1     -47.293  10.188 -29.763  1.00  0.00     0.000 C 
BRANCH  20  21
ATOM     21  C   UNL     1     -48.488  10.353 -28.809  1.00  0.00     0.000 C 
BRANCH  21  22
ATOM     22  C   UNL     1     -49.847  10.270 -29.526  1.00  0.00     0.000 C 
BRANCH  22  23
ATOM     23  C   UNL     1     -49.819  10.942 -30.909  1.00  0.00     0.000 C 
BRANCH  23  24
ATOM     24  C   UNL     1     -50.364  10.025 -32.018  1.00  0.00    -0.000 C 
BRANCH  24  25
ATOM     25  C   UNL     1     -49.260   9.218 -32.727  1.00  0.00    -0.000 C 
BRANCH  25  26
ATOM     26  C   UNL     1     -49.768   8.194 -33.763  1.00  0.00    -0.000 C 
BRANCH  26  27
ATOM     27  C   UNL     1     -49.708   6.744 -33.248  1.00  0.00    -0.000 C 
BRANCH  27  28
ATOM     28  C   UNL     1     -50.867   5.881 -33.770  1.00  0.00    -0.000 C 
BRANCH  28  29
ATOM     29  C   UNL     1     -52.107   5.943 -32.854  1.00  0.00    -0.000 C 
BRANCH  29  30
ATOM     30  C   UNL     1     -53.426   6.065 -33.646  1.00  0.00    -0.000 C 
BRANCH  30  31
ATOM     31  C   UNL     1     -53.501   7.310 -34.550  1.00  0.00    -0.003 C 
ATOM     32  C   UNL     1     -53.302   8.621 -33.795  1.00  0.00     0.004 C 
ENDBRANCH  30  31
ENDBRANCH  29  30
ENDBRANCH  28  29
ENDBRANCH  27  28
ENDBRANCH  26  27
ENDBRANCH  25  26
ENDBRANCH  24  25
ENDBRANCH  23  24
ENDBRANCH  22  23
ENDBRANCH  21  22
ENDBRANCH  20  21
ENDBRANCH  19  20
ENDBRANCH  18  19
ENDBRANCH   1  18
TORSDOF 28
ENDMDL
MODEL 8
REMARK VINA RESULT:    -3.744      1.656      3.982
REMARK INTER + INTRA:         -14.392
REMARK INTER:                 -10.056
REMARK INTRA:                  -4.336
REMARK UNBOUND:                -4.519
REMARK SMILES CCCCCCCCCCCCCCCCCCCCCCCCCCCCCC(=O)[O-]
REMARK SMILES IDX 16 1 17 2 18 3 19 4 20 5 21 6 22 7 23 8 24 9 25 10 26 11
REMARK SMILES IDX 27 12 28 13 29 14 30 15 31 16 32 17 15 18 14 19 13 20 12 21
REMARK SMILES IDX 11 22 10 23 9 24 8 25 7 26 6 27 5 28 4 29 3 30 2 31 1 32
REMARK H PARENT
REMARK Flexibility Score: inf
ROOT
ATOM      1  C   UNL     1     -49.891   9.871 -32.987  1.00  0.00     0.000 C 
ENDROOT
BRANCH   1   2
ATOM      2  C   UNL     1     -50.300   9.945 -31.504  1.00  0.00     0.000 C 
BRANCH   2   3
ATOM      3  C   UNL     1     -51.743  10.443 -31.305  1.00  0.00     0.000 C 
BRANCH   3   4
ATOM      4  C   UNL     1     -52.242  11.296 -32.482  1.00  0.00     0.000 C 
BRANCH   4   5
ATOM      5  C   UNL     1     -52.708  12.715 -32.106  1.00  0.00     0.000 C 
BRANCH   5   6
ATOM      6  C   UNL     1     -51.554  13.681 -31.762  1.00  0.00     0.000 C 
BRANCH   6   7
ATOM      7  C   UNL     1     -51.882  15.133 -32.142  1.00  0.00     0.000 C 
BRANCH   7   8
ATOM      8  C   UNL     1     -50.717  16.071 -31.805  1.00  0.00     0.000 C 
BRANCH   8   9
ATOM      9  C   UNL     1     -51.057  16.948 -30.590  1.00  0.00     0.000 C 
BRANCH   9  10
ATOM     10  C   UNL     1     -52.542  17.343 -30.531  1.00  0.00     0.000 C 
BRANCH  10  11
ATOM     11  C   UNL     1     -53.097  17.590 -29.114  1.00  0.00     0.000 C 
BRANCH  11  12
ATOM     12  C   UNL     1     -53.576  16.327 -28.368  1.00  0.00     0.000 C 
BRANCH  12  13
ATOM     13  C   UNL     1     -54.083  15.186 -29.275  1.00  0.00     0.006 C 
BRANCH  13  14
ATOM     14  C   UNL     1     -54.124  13.806 -28.601  1.00  0.00     0.053 C 
BRANCH  14  15
ATOM     15  C   UNL     1     -52.761  13.189 -28.503  1.00  0.00     0.041 C 
ATOM     16  O   UNL     1     -51.742  13.852 -28.837  1.00  0.00    -0.550 OA
ATOM     17  O   UNL     1     -52.624  11.863 -28.115  1.00  0.00    -0.550 OA
ENDBRANCH  14  15
ENDBRANCH  13  14
ENDBRANCH  12  13
ENDBRANCH  11  12
ENDBRANCH  10  11
ENDBRANCH   9  10
ENDBRANCH   8   9
ENDBRANCH   7   8
ENDBRANCH   6   7
ENDBRANCH   5   6
ENDBRANCH   4   5
ENDBRANCH   3   4
ENDBRANCH   2   3
ENDBRANCH   1   2
BRANCH   1  18
ATOM     18  C   UNL     1     -49.160   8.576 -33.397  1.00  0.00     0.000 C 
BRANCH  18  19
ATOM     19  C   UNL     1     -49.890   7.302 -32.932  1.00  0.00     0.000 C 
BRANCH  19  20
ATOM     20  C   UNL     1     -50.675   6.626 -34.077  1.00  0.00     0.000 C 
BRANCH  20  21
ATOM     21  C   UNL     1     -52.168   6.424 -33.768  1.00  0.00     0.000 C 
BRANCH  21  22
ATOM     22  C   UNL     1     -52.981   7.728 -33.851  1.00  0.00     0.000 C 
BRANCH  22  23
ATOM     23  C   UNL     1     -53.841   7.962 -32.598  1.00  0.00     0.000 C 
BRANCH  23  24
ATOM     24  C   UNL     1     -53.849   6.744 -31.657  1.00  0.00    -0.000 C 
BRANCH  24  25
ATOM     25  C   UNL     1     -53.064   6.985 -30.354  1.00  0.00    -0.000 C 
BRANCH  25  26
ATOM     26  C   UNL     1     -51.787   6.135 -30.198  1.00  0.00    -0.000 C 
BRANCH  26  27
ATOM     27  C   UNL     1     -50.622   6.917 -29.567  1.00  0.00    -0.000 C 
BRANCH  27  28
ATOM     28  C   UNL     1     -49.279   6.178 -29.684  1.00  0.00    -0.000 C 
BRANCH  28  29
ATOM     29  C   UNL     1     -48.090   7.040 -29.213  1.00  0.00    -0.000 C 
BRANCH  29  30
ATOM     30  C   UNL     1     -47.396   7.781 -30.376  1.00  0.00    -0.000 C 
BRANCH  30  31
ATOM     31  C   UNL     1     -46.995   9.231 -30.044  1.00  0.00    -0.003 C 
ATOM     32  C   UNL     1     -47.973   9.929 -29.103  1.00  0.00     0.004 C 
ENDBRANCH  30  31
ENDBRANCH  29  30
ENDBRANCH  28  29
ENDBRANCH  27  28
ENDBRANCH  26  27
ENDBRANCH  25  26
ENDBRANCH  24  25
ENDBRANCH  23  24
ENDBRANCH  22  23
ENDBRANCH  21  22
ENDBRANCH  20  21
ENDBRANCH  19  20
ENDBRANCH  18  19
ENDBRANCH   1  18
TORSDOF 28
ENDMDL
