MODEL 1
REMARK VINA RESULT:    -2.771      0.000      0.000
REMARK INTER + INTRA:          -4.863
REMARK INTER:                  -4.391
REMARK INTRA:                  -0.472
REMARK UNBOUND:                -0.472
REMARK SMILES CCCCCCCCCCCC(=O)[O-]
REMARK SMILES IDX 7 1 8 2 9 3 10 4 11 5 12 6 13 7 14 8 6 9 5 10 4 11 3 12 2 13
REMARK SMILES IDX 1 14
REMARK H PARENT
REMARK Flexibility Score: inf
ROOT
ATOM      1  C   UNL     1       5.789  13.352  18.490  1.00  0.00     0.000 C 
ENDROOT
BRANCH   1   2
ATOM      2  C   UNL     1       4.786  14.378  17.935  1.00  0.00     0.000 C 
BRANCH   2   3
ATOM      3  C   UNL     1       4.412  14.102  16.468  1.00  0.00     0.000 C 
BRANCH   3   4
ATOM      4  C   UNL     1       2.890  14.000  16.252  1.00  0.00     0.006 C 
BRANCH   4   5
ATOM      5  C   UNL     1       2.481  13.449  14.877  1.00  0.00     0.053 C 
BRANCH   5   6
ATOM      6  C   UNL     1       3.144  14.188  13.756  1.00  0.00     0.041 C 
ATOM      7  O   UNL     1       3.927  13.587  12.975  1.00  0.00    -0.550 OA
ATOM      8  O   UNL     1       2.921  15.550  13.593  1.00  0.00    -0.550 OA
ENDBRANCH   5   6
ENDBRANCH   4   5
ENDBRANCH   3   4
ENDBRANCH   2   3
ENDBRANCH   1   2
BRANCH   1   9
ATOM      9  C   UNL     1       5.999  13.496  20.008  1.00  0.00     0.000 C 
BRANCH   9  10
ATOM     10  C   UNL     1       5.809  14.941  20.497  1.00  0.00    -0.000 C 
BRANCH  10  11
ATOM     11  C   UNL     1       7.134  15.600  20.922  1.00  0.00    -0.000 C 
BRANCH  11  12
ATOM     12  C   UNL     1       6.924  16.973  21.581  1.00  0.00    -0.000 C 
BRANCH  12  13
ATOM     13  C   UNL     1       5.478  17.475  21.459  1.00  0.00    -0.003 C 
ATOM     14  C   UNL     1       4.770  17.444  22.810  1.00  0.00     0.004 C 
ENDBRANCH  12  13
ENDBRANCH  11  12
ENDBRANCH  10  11
ENDBRANCH   9  10
ENDBRANCH   1   9
TORSDOF 10
ENDMDL
MODEL 2
REMARK VINA RESULT:    -2.741      1.028      1.547
REMARK INTER + INTRA:          -4.816
REMARK INTER:                  -4.414
REMARK INTRA:                  -0.402
REMARK UNBOUND:                -0.472
REMARK SMILES CCCCCCCCCCCC(=O)[O-]
REMARK SMILES IDX 7 1 8 2 9 3 10 4 11 5 12 6 13 7 14 8 6 9 5 10 4 11 3 12 2 13
REMARK SMILES IDX 1 14
REMARK H PARENT
REMARK Flexibility Score: inf
ROOT
ATOM      1  C   UNL     1       4.796  14.440  18.059  1.00  0.00     0.000 C 
ENDROOT
BRANCH   1   2
ATOM      2  C   UNL     1       4.493  14.079  16.595  1.00  0.00     0.000 C 
BRANCH   2   3
ATOM      3  C   UNL     1       2.987  14.095  16.283  1.00  0.00     0.000 C 
BRANCH   3   4
ATOM      4  C   UNL     1       2.676  13.702  14.827  1.00  0.00     0.006 C 
BRANCH   4   5
ATOM      5  C   UNL     1       3.721  14.178  13.805  1.00  0.00     0.053 C 
BRANCH   5   6
ATOM      6  C   UNL     1       3.705  13.350  12.558  1.00  0.00     0.041 C 
ATOM      7  O   UNL     1       3.307  12.156  12.595  1.00  0.00    -0.550 OA
ATOM      8  O   UNL     1       4.161  13.887  11.361  1.00  0.00    -0.550 OA
ENDBRANCH   5   6
ENDBRANCH   4   5
ENDBRANCH   3   4
ENDBRANCH   2   3
ENDBRANCH   1   2
BRANCH   1   9
ATOM      9  C   UNL     1       5.741  13.428  18.732  1.00  0.00     0.000 C 
BRANCH   9  10
ATOM     10  C   UNL     1       6.130  13.842  20.161  1.00  0.00    -0.000 C 
BRANCH  10  11
ATOM     11  C   UNL     1       5.701  15.281  20.497  1.00  0.00    -0.000 C 
BRANCH  11  12
ATOM     12  C   UNL     1       6.794  16.064  21.243  1.00  0.00    -0.000 C 
BRANCH  12  13
ATOM     13  C   UNL     1       6.294  17.413  21.781  1.00  0.00    -0.003 C 
ATOM     14  C   UNL     1       4.892  17.284  22.368  1.00  0.00     0.004 C 
ENDBRANCH  12  13
ENDBRANCH  11  12
ENDBRANCH  10  11
ENDBRANCH   9  10
ENDBRANCH   1   9
TORSDOF 10
ENDMDL
MODEL 3
REMARK VINA RESULT:    -2.662      4.845      7.124
REMARK INTER + INTRA:          -4.690
REMARK INTER:                  -4.424
REMARK INTRA:                  -0.266
REMARK UNBOUND:                -0.472
REMARK SMILES CCCCCCCCCCCC(=O)[O-]
REMARK SMILES IDX 7 1 8 2 9 3 10 4 11 5 12 6 13 7 14 8 6 9 5 10 4 11 3 12 2 13
REMARK SMILES IDX 1 14
REMARK H PARENT
REMARK Flexibility Score: inf
ROOT
ATOM      1  C   UNL     1       3.914  12.522  11.833  1.00  0.00     0.000 C 
ENDROOT
BRANCH   1   2
ATOM      2  C   UNL     1       2.545  12.098  11.275  1.00  0.00     0.000 C 
BRANCH   2   3
ATOM      3  C   UNL     1       2.572  11.875   9.753  1.00  0.00     0.000 C 
BRANCH   3   4
ATOM      4  C   UNL     1       3.563  12.808   9.033  1.00  0.00     0.006 C 
BRANCH   4   5
ATOM      5  C   UNL     1       4.978  12.231   8.877  1.00  0.00     0.053 C 
BRANCH   5   6
ATOM      6  C   UNL     1       6.025  13.302   8.878  1.00  0.00     0.041 C 
ATOM      7  O   UNL     1       7.246  12.996   8.898  1.00  0.00    -0.550 OA
ATOM      8  O   UNL     1       5.651  14.640   8.890  1.00  0.00    -0.550 OA
ENDBRANCH   5   6
ENDBRANCH   4   5
ENDBRANCH   3   4
ENDBRANCH   2   3
ENDBRANCH   1   2
BRANCH   1   9
ATOM      9  C   UNL     1       3.861  13.880  12.558  1.00  0.00     0.000 C 
BRANCH   9  10
ATOM     10  C   UNL     1       4.042  13.746  14.079  1.00  0.00    -0.000 C 
BRANCH  10  11
ATOM     11  C   UNL     1       3.036  14.600  14.871  1.00  0.00    -0.000 C 
BRANCH  11  12
ATOM     12  C   UNL     1       2.799  14.065  16.293  1.00  0.00    -0.000 C 
BRANCH  12  13
ATOM     13  C   UNL     1       1.531  13.205  16.399  1.00  0.00    -0.003 C 
ATOM     14  C   UNL     1       0.635  13.396  15.179  1.00  0.00     0.004 C 
ENDBRANCH  12  13
ENDBRANCH  11  12
ENDBRANCH  10  11
ENDBRANCH   9  10
ENDBRANCH   1   9
TORSDOF 10
ENDMDL
MODEL 4
REMARK VINA RESULT:    -2.501      3.756      7.680
REMARK INTER + INTRA:          -4.435
REMARK INTER:                  -4.213
REMARK INTRA:                  -0.222
REMARK UNBOUND:                -0.472
REMARK SMILES CCCCCCCCCCCC(=O)[O-]
REMARK SMILES IDX 7 1 8 2 9 3 10 4 11 5 12 6 13 7 14 8 6 9 5 10 4 11 3 12 2 13
REMARK SMILES IDX 1 14
REMARK H PARENT
REMARK Flexibility Score: inf
ROOT
ATOM      1  C   UNL     1       4.645  14.448  17.922  1.00  0.00     0.000 C 
ENDROOT
BRANCH   1   2
ATOM      2  C   UNL     1       5.815  13.667  18.546  1.00  0.00     0.000 C 
BRANCH   2   3
ATOM      3  C   UNL     1       5.882  13.826  20.075  1.00  0.00     0.000 C 
BRANCH   3   4
ATOM      4  C   UNL     1       6.302  15.244  20.507  1.00  0.00     0.006 C 
BRANCH   4   5
ATOM      5  C   UNL     1       5.128  16.183  20.827  1.00  0.00     0.053 C 
BRANCH   5   6
ATOM      6  C   UNL     1       5.475  17.170  21.899  1.00  0.00     0.041 C 
ATOM      7  O   UNL     1       6.607  17.720  21.912  1.00  0.00    -0.550 OA
ATOM      8  O   UNL     1       4.558  17.458  22.902  1.00  0.00    -0.550 OA
ENDBRANCH   5   6
ENDBRANCH   4   5
ENDBRANCH   3   4
ENDBRANCH   2   3
ENDBRANCH   1   2
BRANCH   1   9
ATOM      9  C   UNL     1       4.404  14.071  16.450  1.00  0.00     0.000 C 
BRANCH   9  10
ATOM     10  C   UNL     1       2.914  14.094  16.070  1.00  0.00    -0.000 C 
BRANCH  10  11
ATOM     11  C   UNL     1       2.644  13.453  14.697  1.00  0.00    -0.000 C 
BRANCH  11  12
ATOM     12  C   UNL     1       3.565  14.006  13.596  1.00  0.00    -0.000 C 
BRANCH  12  13
ATOM     13  C   UNL     1       3.778  13.009  12.447  1.00  0.00    -0.003 C 
ATOM     14  C   UNL     1       3.937  13.735  11.114  1.00  0.00     0.004 C 
ENDBRANCH  12  13
ENDBRANCH  11  12
ENDBRANCH  10  11
ENDBRANCH   9  10
ENDBRANCH   1   9
TORSDOF 10
ENDMDL
MODEL 5
REMARK VINA RESULT:    -2.474      3.286      7.342
REMARK INTER + INTRA:          -4.392
REMARK INTER:                  -4.043
REMARK INTRA:                  -0.349
REMARK UNBOUND:                -0.472
REMARK SMILES CCCCCCCCCCCC(=O)[O-]
REMARK SMILES IDX 7 1 8 2 9 3 10 4 11 5 12 6 13 7 14 8 6 9 5 10 4 11 3 12 2 13
REMARK SMILES IDX 1 14
REMARK H PARENT
REMARK Flexibility Score: inf
ROOT
ATOM      1  C   UNL     1       5.799  13.731  18.099  1.00  0.00     0.000 C 
ENDROOT
BRANCH   1   2
ATOM      2  C   UNL     1       5.953  13.482  19.609  1.00  0.00     0.000 C 
BRANCH   2   3
ATOM      3  C   UNL     1       5.833  14.775  20.435  1.00  0.00     0.000 C 
BRANCH   3   4
ATOM      4  C   UNL     1       7.197  15.436  20.705  1.00  0.00     0.006 C 
BRANCH   4   5
ATOM      5  C   UNL     1       7.130  16.688  21.595  1.00  0.00     0.053 C 
BRANCH   5   6
ATOM      6  C   UNL     1       5.855  17.448  21.399  1.00  0.00     0.041 C 
ATOM      7  O   UNL     1       5.655  18.088  20.333  1.00  0.00    -0.550 OA
ATOM      8  O   UNL     1       4.900  17.477  22.407  1.00  0.00    -0.550 OA
ENDBRANCH   5   6
ENDBRANCH   4   5
ENDBRANCH   3   4
ENDBRANCH   2   3
ENDBRANCH   1   2
BRANCH   1   9
ATOM      9  C   UNL     1       4.405  14.270  17.729  1.00  0.00     0.000 C 
BRANCH   9  10
ATOM     10  C   UNL     1       4.121  14.189  16.220  1.00  0.00    -0.000 C 
BRANCH  10  11
ATOM     11  C   UNL     1       2.629  13.978  15.910  1.00  0.00    -0.000 C 
BRANCH  11  12
ATOM     12  C   UNL     1       2.394  13.415  14.498  1.00  0.00    -0.000 C 
BRANCH  12  13
ATOM     13  C   UNL     1       3.590  13.643  13.562  1.00  0.00    -0.003 C 
ATOM     14  C   UNL     1       3.600  12.624  12.426  1.00  0.00     0.004 C 
ENDBRANCH  12  13
ENDBRANCH  11  12
ENDBRANCH  10  11
ENDBRANCH   9  10
ENDBRANCH   1   9
TORSDOF 10
ENDMDL
MODEL 6
REMARK VINA RESULT:    -2.470      1.553      2.825
REMARK INTER + INTRA:          -4.387
REMARK INTER:                  -4.054
REMARK INTRA:                  -0.333
REMARK UNBOUND:                -0.472
REMARK SMILES CCCCCCCCCCCC(=O)[O-]
REMARK SMILES IDX 7 1 8 2 9 3 10 4 11 5 12 6 13 7 14 8 6 9 5 10 4 11 3 12 2 13
REMARK SMILES IDX 1 14
REMARK H PARENT
REMARK Flexibility Score: inf
ROOT
ATOM      1  C   UNL     1       4.247  14.126  16.278  1.00  0.00     0.000 C 
ENDROOT
BRANCH   1   2
ATOM      2  C   UNL     1       2.760  14.109  15.885  1.00  0.00     0.000 C 
BRANCH   2   3
ATOM      3  C   UNL     1       2.489  13.250  14.638  1.00  0.00     0.000 C 
BRANCH   3   4
ATOM      4  C   UNL     1       3.499  13.511  13.505  1.00  0.00     0.006 C 
BRANCH   4   5
ATOM      5  C   UNL     1       3.521  12.430  12.414  1.00  0.00     0.053 C 
BRANCH   5   6
ATOM      6  C   UNL     1       3.847  12.997  11.067  1.00  0.00     0.041 C 
ATOM      7  O   UNL     1       3.529  14.182  10.784  1.00  0.00    -0.550 OA
ATOM      8  O   UNL     1       4.476  12.207  10.113  1.00  0.00    -0.550 OA
ENDBRANCH   5   6
ENDBRANCH   4   5
ENDBRANCH   3   4
ENDBRANCH   2   3
ENDBRANCH   1   2
BRANCH   1   9
ATOM      9  C   UNL     1       4.459  14.424  17.773  1.00  0.00     0.000 C 
BRANCH   9  10
ATOM     10  C   UNL     1       5.754  13.804  18.322  1.00  0.00    -0.000 C 
BRANCH  10  11
ATOM     11  C   UNL     1       5.783  13.760  19.860  1.00  0.00    -0.000 C 
BRANCH  11  12
ATOM     12  C   UNL     1       6.421  15.018  20.474  1.00  0.00    -0.000 C 
BRANCH  12  13
ATOM     13  C   UNL     1       5.383  16.087  20.847  1.00  0.00    -0.003 C 
ATOM     14  C   UNL     1       6.023  17.217  21.648  1.00  0.00     0.004 C 
ENDBRANCH  12  13
ENDBRANCH  11  12
ENDBRANCH  10  11
ENDBRANCH   9  10
ENDBRANCH   1   9
TORSDOF 10
ENDMDL
MODEL 7
REMARK VINA RESULT:    -2.329      5.048      8.559
REMARK INTER + INTRA:          -4.162
REMARK INTER:                  -3.227
REMARK INTRA:                  -0.935
REMARK UNBOUND:                -0.472
REMARK SMILES CCCCCCCCCCCC(=O)[O-]
REMARK SMILES IDX 7 1 8 2 9 3 10 4 11 5 12 6 13 7 14 8 6 9 5 10 4 11 3 12 2 13
REMARK SMILES IDX 1 14
REMARK H PARENT
REMARK Flexibility Score: inf
ROOT
ATOM      1  C   UNL     1       3.281  12.636  12.423  1.00  0.00     0.000 C 
ENDROOT
BRANCH   1   2
ATOM      2  C   UNL     1       4.567  13.413  12.755  1.00  0.00     0.000 C 
BRANCH   2   3
ATOM      3  C   UNL     1       4.510  14.084  14.138  1.00  0.00     0.000 C 
BRANCH   3   4
ATOM      4  C   UNL     1       3.181  14.821  14.387  1.00  0.00     0.006 C 
BRANCH   4   5
ATOM      5  C   UNL     1       2.489  14.453  15.709  1.00  0.00     0.053 C 
BRANCH   5   6
ATOM      6  C   UNL     1       1.429  13.413  15.517  1.00  0.00     0.041 C 
ATOM      7  O   UNL     1       1.729  12.190  15.535  1.00  0.00    -0.550 OA
ATOM      8  O   UNL     1       0.114  13.795  15.286  1.00  0.00    -0.550 OA
ENDBRANCH   5   6
ENDBRANCH   4   5
ENDBRANCH   3   4
ENDBRANCH   2   3
ENDBRANCH   1   2
BRANCH   1   9
ATOM      9  C   UNL     1       3.352  11.938  11.052  1.00  0.00     0.000 C 
BRANCH   9  10
ATOM     10  C   UNL     1       2.484  12.634   9.990  1.00  0.00    -0.000 C 
BRANCH  10  11
ATOM     11  C   UNL     1       3.324  13.336   8.909  1.00  0.00    -0.000 C 
BRANCH  11  12
ATOM     12  C   UNL     1       4.043  14.587   9.441  1.00  0.00    -0.000 C 
BRANCH  12  13
ATOM     13  C   UNL     1       5.540  14.601   9.097  1.00  0.00    -0.003 C 
ATOM     14  C   UNL     1       6.131  13.196   9.159  1.00  0.00     0.004 C 
ENDBRANCH  12  13
ENDBRANCH  11  12
ENDBRANCH  10  11
ENDBRANCH   9  10
ENDBRANCH   1   9
TORSDOF 10
ENDMDL
MODEL 8
REMARK VINA RESULT:    -2.266      3.759      7.112
REMARK INTER + INTRA:          -4.063
REMARK INTER:                  -3.535
REMARK INTRA:                  -0.528
REMARK UNBOUND:                -0.472
REMARK SMILES CCCCCCCCCCCC(=O)[O-]
REMARK SMILES IDX 7 1 8 2 9 3 10 4 11 5 12 6 13 7 14 8 6 9 5 10 4 11 3 12 2 13
REMARK SMILES IDX 1 14
REMARK H PARENT
REMARK Flexibility Score: inf
ROOT
ATOM      1  C   UNL     1       5.772  14.825  20.131  1.00  0.00     0.000 C 
ENDROOT
BRANCH   1   2
ATOM      2  C   UNL     1       6.990  15.033  21.047  1.00  0.00     0.000 C 
BRANCH   2   3
ATOM      3  C   UNL     1       7.385  16.514  21.176  1.00  0.00     0.000 C 
BRANCH   3   4
ATOM      4  C   UNL     1       6.241  17.470  20.788  1.00  0.00     0.006 C 
BRANCH   4   5
ATOM      5  C   UNL     1       5.616  18.224  21.972  1.00  0.00     0.053 C 
BRANCH   5   6
ATOM      6  C   UNL     1       4.629  17.379  22.717  1.00  0.00     0.041 C 
ATOM      7  O   UNL     1       3.787  16.684  22.090  1.00  0.00    -0.550 OA
ATOM      8  O   UNL     1       4.619  17.383  24.106  1.00  0.00    -0.550 OA
ENDBRANCH   5   6
ENDBRANCH   4   5
ENDBRANCH   3   4
ENDBRANCH   2   3
ENDBRANCH   1   2
BRANCH   1   9
ATOM      9  C   UNL     1       5.894  13.555  19.268  1.00  0.00     0.000 C 
BRANCH   9  10
ATOM     10  C   UNL     1       5.630  13.825  17.778  1.00  0.00    -0.000 C 
BRANCH  10  11
ATOM     11  C   UNL     1       4.217  14.376  17.517  1.00  0.00    -0.000 C 
BRANCH  11  12
ATOM     12  C   UNL     1       3.735  14.109  16.082  1.00  0.00    -0.000 C 
BRANCH  12  13
ATOM     13  C   UNL     1       2.209  13.970  15.985  1.00  0.00    -0.003 C 
ATOM     14  C   UNL     1       1.820  12.816  15.065  1.00  0.00     0.004 C 
ENDBRANCH  12  13
ENDBRANCH  11  12
ENDBRANCH  10  11
ENDBRANCH   9  10
ENDBRANCH   1   9
TORSDOF 10
ENDMDL
MODEL 9
REMARK VINA RESULT:    -2.120      3.622      8.079
REMARK INTER + INTRA:          -3.833
REMARK INTER:                  -3.538
REMARK INTRA:                  -0.295
REMARK UNBOUND:                -0.472
REMARK SMILES CCCCCCCCCCCC(=O)[O-]
REMARK SMILES IDX 7 1 8 2 9 3 10 4 11 5 12 6 13 7 14 8 6 9 5 10 4 11 3 12 2 13
REMARK SMILES IDX 1 14
REMARK H PARENT
REMARK Flexibility Score: inf
ROOT
ATOM      1  C   UNL     1       2.787  14.091  16.036  1.00  0.00     0.000 C 
ENDROOT
BRANCH   1   2
ATOM      2  C   UNL     1       4.273  14.106  16.433  1.00  0.00     0.000 C 
BRANCH   2   3
ATOM      3  C   UNL     1       4.486  14.477  17.910  1.00  0.00     0.000 C 
BRANCH   3   4
ATOM      4  C   UNL     1       5.804  13.921  18.480  1.00  0.00     0.006 C 
BRANCH   4   5
ATOM      5  C   UNL     1       5.885  13.927  20.014  1.00  0.00     0.053 C 
BRANCH   5   6
ATOM      6  C   UNL     1       6.186  15.290  20.555  1.00  0.00     0.041 C 
ATOM      7  O   UNL     1       5.251  16.101  20.788  1.00  0.00    -0.550 OA
ATOM      8  O   UNL     1       7.502  15.677  20.773  1.00  0.00    -0.550 OA
ENDBRANCH   5   6
ENDBRANCH   4   5
ENDBRANCH   3   4
ENDBRANCH   2   3
ENDBRANCH   1   2
BRANCH   1   9
ATOM      9  C   UNL     1       2.570  13.640  14.580  1.00  0.00     0.000 C 
BRANCH   9  10
ATOM     10  C   UNL     1       3.734  14.040  13.658  1.00  0.00    -0.000 C 
BRANCH  10  11
ATOM     11  C   UNL     1       3.889  13.091  12.457  1.00  0.00    -0.000 C 
BRANCH  11  12
ATOM     12  C   UNL     1       3.815  13.829  11.109  1.00  0.00    -0.000 C 
BRANCH  12  13
ATOM     13  C   UNL     1       4.732  13.210  10.044  1.00  0.00    -0.003 C 
ATOM     14  C   UNL     1       5.906  14.133   9.728  1.00  0.00     0.004 C 
ENDBRANCH  12  13
ENDBRANCH  11  12
ENDBRANCH  10  11
ENDBRANCH   9  10
ENDBRANCH   1   9
TORSDOF 10
ENDMDL
