MODEL 1
REMARK VINA RESULT:    -4.708      0.000      0.000
REMARK INTER + INTRA:         -15.342
REMARK INTER:                 -11.864
REMARK INTRA:                  -3.477
REMARK UNBOUND:                -3.477
REMARK SMILES CCCCCCCCCCCCCCCCCCCCCCCCCCCC(=O)[O-]
REMARK SMILES IDX 15 1 16 2 17 3 18 4 19 5 20 6 21 7 22 8 23 9 24 10 25 11
REMARK SMILES IDX 26 12 27 13 28 14 29 15 30 16 14 17 13 18 12 19 11 20 10 21
REMARK SMILES IDX 9 22 8 23 7 24 6 25 5 26 4 27 3 28 2 29 1 30
REMARK H PARENT
REMARK Flexibility Score: inf
ROOT
ATOM      1  C   UNL     1      99.898  96.411  91.578  1.00  0.00     0.000 C 
ENDROOT
BRANCH   1   2
ATOM      2  C   UNL     1     100.174  97.899  91.849  1.00  0.00     0.000 C 
BRANCH   2   3
ATOM      3  C   UNL     1      98.931  98.652  92.354  1.00  0.00     0.000 C 
BRANCH   3   4
ATOM      4  C   UNL     1      98.174  99.366  91.223  1.00  0.00     0.000 C 
BRANCH   4   5
ATOM      5  C   UNL     1      97.375 100.582  91.723  1.00  0.00     0.000 C 
BRANCH   5   6
ATOM      6  C   UNL     1      98.086 101.913  91.427  1.00  0.00     0.000 C 
BRANCH   6   7
ATOM      7  C   UNL     1      98.368 102.109  89.927  1.00  0.00     0.000 C 
BRANCH   7   8
ATOM      8  C   UNL     1      99.248 103.339  89.640  1.00  0.00     0.000 C 
BRANCH   8   9
ATOM      9  C   UNL     1      98.473 104.619  89.280  1.00  0.00     0.000 C 
BRANCH   9  10
ATOM     10  C   UNL     1      97.046 104.339  88.784  1.00  0.00     0.000 C 
BRANCH  10  11
ATOM     11  C   UNL     1      96.033 105.271  89.463  1.00  0.00     0.000 C 
BRANCH  11  12
ATOM     12  C   UNL     1      94.657 104.613  89.677  1.00  0.00     0.006 C 
BRANCH  12  13
ATOM     13  C   UNL     1      94.725 103.206  90.298  1.00  0.00     0.053 C 
BRANCH  13  14
ATOM     14  C   UNL     1      93.901 103.080  91.544  1.00  0.00     0.041 C 
ATOM     15  O   UNL     1      94.423 103.267  92.675  1.00  0.00    -0.550 OA
ATOM     16  O   UNL     1      92.562 102.720  91.457  1.00  0.00    -0.550 OA
ENDBRANCH  13  14
ENDBRANCH  12  13
ENDBRANCH  11  12
ENDBRANCH  10  11
ENDBRANCH   9  10
ENDBRANCH   8   9
ENDBRANCH   7   8
ENDBRANCH   6   7
ENDBRANCH   5   6
ENDBRANCH   4   5
ENDBRANCH   3   4
ENDBRANCH   2   3
ENDBRANCH   1   2
BRANCH   1  17
ATOM     17  C   UNL     1     100.002  96.052  90.086  1.00  0.00     0.000 C 
BRANCH  17  18
ATOM     18  C   UNL     1      98.894  95.086  89.635  1.00  0.00     0.000 C 
BRANCH  18  19
ATOM     19  C   UNL     1      99.451  93.786  89.027  1.00  0.00     0.000 C 
BRANCH  19  20
ATOM     20  C   UNL     1     100.964  93.861  88.768  1.00  0.00     0.000 C 
BRANCH  20  21
ATOM     21  C   UNL     1     101.705  92.599  89.244  1.00  0.00     0.000 C 
BRANCH  21  22
ATOM     22  C   UNL     1     103.143  92.892  89.701  1.00  0.00    -0.000 C 
BRANCH  22  23
ATOM     23  C   UNL     1     103.475  94.394  89.677  1.00  0.00    -0.000 C 
BRANCH  23  24
ATOM     24  C   UNL     1     104.926  94.683  90.096  1.00  0.00    -0.000 C 
BRANCH  24  25
ATOM     25  C   UNL     1     105.023  95.352  91.478  1.00  0.00    -0.000 C 
BRANCH  25  26
ATOM     26  C   UNL     1     103.723  96.067  91.890  1.00  0.00    -0.000 C 
BRANCH  26  27
ATOM     27  C   UNL     1     103.827  97.600  91.987  1.00  0.00    -0.000 C 
BRANCH  27  28
ATOM     28  C   UNL     1     104.233  98.257  90.656  1.00  0.00    -0.000 C 
BRANCH  28  29
ATOM     29  C   UNL     1     103.041  98.438  89.702  1.00  0.00    -0.003 C 
ATOM     30  C   UNL     1     103.291  97.837  88.319  1.00  0.00     0.004 C 
ENDBRANCH  28  29
ENDBRANCH  27  28
ENDBRANCH  26  27
ENDBRANCH  25  26
ENDBRANCH  24  25
ENDBRANCH  23  24
ENDBRANCH  22  23
ENDBRANCH  21  22
ENDBRANCH  20  21
ENDBRANCH  19  20
ENDBRANCH  18  19
ENDBRANCH  17  18
ENDBRANCH   1  17
TORSDOF 26
ENDMDL
MODEL 2
REMARK VINA RESULT:    -4.680      1.433      3.586
REMARK INTER + INTRA:         -15.271
REMARK INTER:                 -11.177
REMARK INTRA:                  -4.094
REMARK UNBOUND:                -3.477
REMARK SMILES CCCCCCCCCCCCCCCCCCCCCCCCCCCC(=O)[O-]
REMARK SMILES IDX 15 1 16 2 17 3 18 4 19 5 20 6 21 7 22 8 23 9 24 10 25 11
REMARK SMILES IDX 26 12 27 13 28 14 29 15 30 16 14 17 13 18 12 19 11 20 10 21
REMARK SMILES IDX 9 22 8 23 7 24 6 25 5 26 4 27 3 28 2 29 1 30
REMARK H PARENT
REMARK Flexibility Score: inf
ROOT
ATOM      1  C   UNL     1      99.351  97.778  91.590  1.00  0.00     0.000 C 
ENDROOT
BRANCH   1   2
ATOM      2  C   UNL     1      98.689  98.945  92.341  1.00  0.00     0.000 C 
BRANCH   2   3
ATOM      3  C   UNL     1      97.995  99.942  91.397  1.00  0.00     0.000 C 
BRANCH   3   4
ATOM      4  C   UNL     1      98.309 101.404  91.748  1.00  0.00     0.000 C 
BRANCH   4   5
ATOM      5  C   UNL     1      98.247 102.333  90.523  1.00  0.00     0.000 C 
BRANCH   5   6
ATOM      6  C   UNL     1      97.461 101.713  89.356  1.00  0.00     0.000 C 
BRANCH   6   7
ATOM      7  C   UNL     1      96.601 102.747  88.611  1.00  0.00     0.000 C 
BRANCH   7   8
ATOM      8  C   UNL     1      96.710 104.161  89.211  1.00  0.00     0.000 C 
BRANCH   8   9
ATOM      9  C   UNL     1      95.365 104.815  89.576  1.00  0.00     0.000 C 
BRANCH   9  10
ATOM     10  C   UNL     1      94.299 103.796  90.010  1.00  0.00     0.000 C 
BRANCH  10  11
ATOM     11  C   UNL     1      94.380 103.521  91.518  1.00  0.00     0.000 C 
BRANCH  11  12
ATOM     12  C   UNL     1      94.646 102.041  91.848  1.00  0.00     0.006 C 
BRANCH  12  13
ATOM     13  C   UNL     1      94.068 101.056  90.817  1.00  0.00     0.053 C 
BRANCH  13  14
ATOM     14  C   UNL     1      92.941 100.234  91.366  1.00  0.00     0.041 C 
ATOM     15  O   UNL     1      92.175  99.602  90.590  1.00  0.00    -0.550 OA
ATOM     16  O   UNL     1      92.713 100.196  92.736  1.00  0.00    -0.550 OA
ENDBRANCH  13  14
ENDBRANCH  12  13
ENDBRANCH  11  12
ENDBRANCH  10  11
ENDBRANCH   9  10
ENDBRANCH   8   9
ENDBRANCH   7   8
ENDBRANCH   6   7
ENDBRANCH   5   6
ENDBRANCH   4   5
ENDBRANCH   3   4
ENDBRANCH   2   3
ENDBRANCH   1   2
BRANCH   1  17
ATOM     17  C   UNL     1     100.649  98.194  90.878  1.00  0.00     0.000 C 
BRANCH  17  18
ATOM     18  C   UNL     1     101.907  97.693  91.608  1.00  0.00     0.000 C 
BRANCH  18  19
ATOM     19  C   UNL     1     103.209  98.184  90.952  1.00  0.00     0.000 C 
BRANCH  19  20
ATOM     20  C   UNL     1     103.156  98.112  89.417  1.00  0.00     0.000 C 
BRANCH  20  21
ATOM     21  C   UNL     1     104.313  97.285  88.828  1.00  0.00     0.000 C 
BRANCH  21  22
ATOM     22  C   UNL     1     105.471  97.093  89.820  1.00  0.00    -0.000 C 
BRANCH  22  23
ATOM     23  C   UNL     1     105.740  95.611  90.134  1.00  0.00    -0.000 C 
BRANCH  23  24
ATOM     24  C   UNL     1     105.155  95.181  91.489  1.00  0.00    -0.000 C 
BRANCH  24  25
ATOM     25  C   UNL     1     103.819  94.431  91.348  1.00  0.00    -0.000 C 
BRANCH  25  26
ATOM     26  C   UNL     1     103.671  93.722  89.990  1.00  0.00    -0.000 C 
BRANCH  26  27
ATOM     27  C   UNL     1     102.219  93.488  89.533  1.00  0.00    -0.000 C 
BRANCH  27  28
ATOM     28  C   UNL     1     101.522  94.781  89.076  1.00  0.00    -0.000 C 
BRANCH  28  29
ATOM     29  C   UNL     1     100.030  94.807  89.449  1.00  0.00    -0.003 C 
ATOM     30  C   UNL     1      99.360  93.441  89.310  1.00  0.00     0.004 C 
ENDBRANCH  28  29
ENDBRANCH  27  28
ENDBRANCH  26  27
ENDBRANCH  25  26
ENDBRANCH  24  25
ENDBRANCH  23  24
ENDBRANCH  22  23
ENDBRANCH  21  22
ENDBRANCH  20  21
ENDBRANCH  19  20
ENDBRANCH  18  19
ENDBRANCH  17  18
ENDBRANCH   1  17
TORSDOF 26
ENDMDL
MODEL 3
REMARK VINA RESULT:    -4.645      2.457      6.709
REMARK INTER + INTRA:         -15.183
REMARK INTER:                 -10.865
REMARK INTRA:                  -4.318
REMARK UNBOUND:                -3.477
REMARK SMILES CCCCCCCCCCCCCCCCCCCCCCCCCCCC(=O)[O-]
REMARK SMILES IDX 15 1 16 2 17 3 18 4 19 5 20 6 21 7 22 8 23 9 24 10 25 11
REMARK SMILES IDX 26 12 27 13 28 14 29 15 30 16 14 17 13 18 12 19 11 20 10 21
REMARK SMILES IDX 9 22 8 23 7 24 6 25 5 26 4 27 3 28 2 29 1 30
REMARK H PARENT
REMARK Flexibility Score: inf
ROOT
ATOM      1  C   UNL     1     106.787 100.053  89.346  1.00  0.00     0.000 C 
ENDROOT
BRANCH   1   2
ATOM      2  C   UNL     1     106.483  99.010  88.259  1.00  0.00     0.000 C 
BRANCH   2   3
ATOM      3  C   UNL     1     106.145  97.626  88.840  1.00  0.00     0.000 C 
BRANCH   3   4
ATOM      4  C   UNL     1     104.771  97.113  88.382  1.00  0.00     0.000 C 
BRANCH   4   5
ATOM      5  C   UNL     1     103.709  98.225  88.343  1.00  0.00     0.000 C 
BRANCH   5   6
ATOM      6  C   UNL     1     102.759  98.174  89.551  1.00  0.00     0.000 C 
BRANCH   6   7
ATOM      7  C   UNL     1     101.532  97.281  89.298  1.00  0.00     0.000 C 
BRANCH   7   8
ATOM      8  C   UNL     1     100.870  96.791  90.599  1.00  0.00     0.000 C 
BRANCH   8   9
ATOM      9  C   UNL     1     100.854  97.819  91.744  1.00  0.00     0.000 C 
BRANCH   9  10
ATOM     10  C   UNL     1      99.438  98.300  92.100  1.00  0.00     0.000 C 
BRANCH  10  11
ATOM     11  C   UNL     1      98.982  99.420  91.155  1.00  0.00     0.000 C 
BRANCH  11  12
ATOM     12  C   UNL     1      98.069 100.453  91.841  1.00  0.00     0.006 C 
BRANCH  12  13
ATOM     13  C   UNL     1      96.607  99.995  91.992  1.00  0.00     0.053 C 
BRANCH  13  14
ATOM     14  C   UNL     1      95.734 100.459  90.866  1.00  0.00     0.041 C 
ATOM     15  O   UNL     1      95.317  99.641  90.003  1.00  0.00    -0.550 OA
ATOM     16  O   UNL     1      95.408 101.805  90.749  1.00  0.00    -0.550 OA
ENDBRANCH  13  14
ENDBRANCH  12  13
ENDBRANCH  11  12
ENDBRANCH  10  11
ENDBRANCH   9  10
ENDBRANCH   8   9
ENDBRANCH   7   8
ENDBRANCH   6   7
ENDBRANCH   5   6
ENDBRANCH   4   5
ENDBRANCH   3   4
ENDBRANCH   2   3
ENDBRANCH   1   2
BRANCH   1  17
ATOM     17  C   UNL     1     108.256 100.510  89.333  1.00  0.00     0.000 C 
BRANCH  17  18
ATOM     18  C   UNL     1     109.073  99.894  90.481  1.00  0.00     0.000 C 
BRANCH  18  19
ATOM     19  C   UNL     1     108.219  99.602  91.728  1.00  0.00     0.000 C 
BRANCH  19  20
ATOM     20  C   UNL     1     108.534  98.230  92.346  1.00  0.00     0.000 C 
BRANCH  20  21
ATOM     21  C   UNL     1     107.292  97.324  92.428  1.00  0.00     0.000 C 
BRANCH  21  22
ATOM     22  C   UNL     1     105.981  98.122  92.521  1.00  0.00    -0.000 C 
BRANCH  22  23
ATOM     23  C   UNL     1     104.738  97.245  92.293  1.00  0.00    -0.000 C 
BRANCH  23  24
ATOM     24  C   UNL     1     105.101  95.798  91.919  1.00  0.00    -0.000 C 
BRANCH  24  25
ATOM     25  C   UNL     1     103.871  94.959  91.533  1.00  0.00    -0.000 C 
BRANCH  25  26
ATOM     26  C   UNL     1     104.135  94.024  90.339  1.00  0.00    -0.000 C 
BRANCH  26  27
ATOM     27  C   UNL     1     103.055  94.050  89.241  1.00  0.00    -0.000 C 
BRANCH  27  28
ATOM     28  C   UNL     1     101.962  92.988  89.453  1.00  0.00    -0.000 C 
BRANCH  28  29
ATOM     29  C   UNL     1     100.743  93.210  88.543  1.00  0.00    -0.003 C 
ATOM     30  C   UNL     1      99.458  93.477  89.326  1.00  0.00     0.004 C 
ENDBRANCH  28  29
ENDBRANCH  27  28
ENDBRANCH  26  27
ENDBRANCH  25  26
ENDBRANCH  24  25
ENDBRANCH  23  24
ENDBRANCH  22  23
ENDBRANCH  21  22
ENDBRANCH  20  21
ENDBRANCH  19  20
ENDBRANCH  18  19
ENDBRANCH  17  18
ENDBRANCH   1  17
TORSDOF 26
ENDMDL
MODEL 4
REMARK VINA RESULT:    -4.635      3.834      9.593
REMARK INTER + INTRA:         -15.157
REMARK INTER:                 -10.725
REMARK INTRA:                  -4.432
REMARK UNBOUND:                -3.477
REMARK SMILES CCCCCCCCCCCCCCCCCCCCCCCCCCCC(=O)[O-]
REMARK SMILES IDX 15 1 16 2 17 3 18 4 19 5 20 6 21 7 22 8 23 9 24 10 25 11
REMARK SMILES IDX 26 12 27 13 28 14 29 15 30 16 14 17 13 18 12 19 11 20 10 21
REMARK SMILES IDX 9 22 8 23 7 24 6 25 5 26 4 27 3 28 2 29 1 30
REMARK H PARENT
REMARK Flexibility Score: inf
ROOT
ATOM      1  C   UNL     1      91.484  98.320  89.072  1.00  0.00     0.000 C 
ENDROOT
BRANCH   1   2
ATOM      2  C   UNL     1      92.507  99.326  88.519  1.00  0.00     0.000 C 
BRANCH   2   3
ATOM      3  C   UNL     1      93.842  99.295  89.283  1.00  0.00     0.000 C 
BRANCH   3   4
ATOM      4  C   UNL     1      94.911 100.192  88.638  1.00  0.00     0.000 C 
BRANCH   4   5
ATOM      5  C   UNL     1      96.221 100.221  89.443  1.00  0.00     0.000 C 
BRANCH   5   6
ATOM      6  C   UNL     1      95.979 100.179  90.961  1.00  0.00     0.000 C 
BRANCH   6   7
ATOM      7  C   UNL     1      96.836 101.206  91.722  1.00  0.00     0.000 C 
BRANCH   7   8
ATOM      8  C   UNL     1      98.327 100.827  91.764  1.00  0.00     0.000 C 
BRANCH   8   9
ATOM      9  C   UNL     1      98.611  99.348  92.081  1.00  0.00     0.000 C 
BRANCH   9  10
ATOM     10  C   UNL     1      99.697  98.737  91.182  1.00  0.00     0.000 C 
BRANCH  10  11
ATOM     11  C   UNL     1     100.675  97.883  92.001  1.00  0.00     0.000 C 
BRANCH  11  12
ATOM     12  C   UNL     1     100.662  96.397  91.596  1.00  0.00     0.006 C 
BRANCH  12  13
ATOM     13  C   UNL     1     100.784  96.159  90.080  1.00  0.00     0.053 C 
BRANCH  13  14
ATOM     14  C   UNL     1      99.585  95.471  89.502  1.00  0.00     0.041 C 
ATOM     15  O   UNL     1      98.622  96.144  89.046  1.00  0.00    -0.550 OA
ATOM     16  O   UNL     1      99.514  94.084  89.499  1.00  0.00    -0.550 OA
ENDBRANCH  13  14
ENDBRANCH  12  13
ENDBRANCH  11  12
ENDBRANCH  10  11
ENDBRANCH   9  10
ENDBRANCH   8   9
ENDBRANCH   7   8
ENDBRANCH   6   7
ENDBRANCH   5   6
ENDBRANCH   4   5
ENDBRANCH   3   4
ENDBRANCH   2   3
ENDBRANCH   1   2
BRANCH   1  17
ATOM     17  C   UNL     1      90.294  99.006  89.764  1.00  0.00     0.000 C 
BRANCH  17  18
ATOM     18  C   UNL     1      89.902  98.316  91.081  1.00  0.00     0.000 C 
BRANCH  18  19
ATOM     19  C   UNL     1      90.433  99.058  92.321  1.00  0.00     0.000 C 
BRANCH  19  20
ATOM     20  C   UNL     1      90.978 100.454  91.981  1.00  0.00     0.000 C 
BRANCH  20  21
ATOM     21  C   UNL     1      92.461 100.615  92.362  1.00  0.00     0.000 C 
BRANCH  21  22
ATOM     22  C   UNL     1      93.068 101.927  91.840  1.00  0.00    -0.000 C 
BRANCH  22  23
ATOM     23  C   UNL     1      92.296 102.497  90.637  1.00  0.00    -0.000 C 
BRANCH  23  24
ATOM     24  C   UNL     1      93.216 103.210  89.633  1.00  0.00    -0.000 C 
BRANCH  24  25
ATOM     25  C   UNL     1      94.534 103.685  90.269  1.00  0.00    -0.000 C 
BRANCH  25  26
ATOM     26  C   UNL     1      95.081 104.971  89.624  1.00  0.00    -0.000 C 
BRANCH  26  27
ATOM     27  C   UNL     1      96.575 104.930  89.254  1.00  0.00    -0.000 C 
BRANCH  27  28
ATOM     28  C   UNL     1      96.961 103.664  88.469  1.00  0.00    -0.000 C 
BRANCH  28  29
ATOM     29  C   UNL     1      98.395 103.199  88.773  1.00  0.00    -0.003 C 
ATOM     30  C   UNL     1      99.120 104.114  89.759  1.00  0.00     0.004 C 
ENDBRANCH  28  29
ENDBRANCH  27  28
ENDBRANCH  26  27
ENDBRANCH  25  26
ENDBRANCH  24  25
ENDBRANCH  23  24
ENDBRANCH  22  23
ENDBRANCH  21  22
ENDBRANCH  20  21
ENDBRANCH  19  20
ENDBRANCH  18  19
ENDBRANCH  17  18
ENDBRANCH   1  17
TORSDOF 26
ENDMDL
MODEL 5
REMARK VINA RESULT:    -4.619      4.160     10.709
REMARK INTER + INTRA:         -15.118
REMARK INTER:                 -11.587
REMARK INTRA:                  -3.531
REMARK UNBOUND:                -3.477
REMARK SMILES CCCCCCCCCCCCCCCCCCCCCCCCCCCC(=O)[O-]
REMARK SMILES IDX 15 1 16 2 17 3 18 4 19 5 20 6 21 7 22 8 23 9 24 10 25 11
REMARK SMILES IDX 26 12 27 13 28 14 29 15 30 16 14 17 13 18 12 19 11 20 10 21
REMARK SMILES IDX 9 22 8 23 7 24 6 25 5 26 4 27 3 28 2 29 1 30
REMARK H PARENT
REMARK Flexibility Score: inf
ROOT
ATOM      1  C   UNL     1      99.298  97.429  92.121  1.00  0.00     0.000 C 
ENDROOT
BRANCH   1   2
ATOM      2  C   UNL     1     100.616  96.710  91.788  1.00  0.00     0.000 C 
BRANCH   2   3
ATOM      3  C   UNL     1     101.795  97.683  91.609  1.00  0.00     0.000 C 
BRANCH   3   4
ATOM      4  C   UNL     1     102.313  97.722  90.164  1.00  0.00     0.000 C 
BRANCH   4   5
ATOM      5  C   UNL     1     101.520  96.795  89.227  1.00  0.00     0.000 C 
BRANCH   5   6
ATOM      6  C   UNL     1     102.372  95.634  88.689  1.00  0.00     0.000 C 
BRANCH   6   7
ATOM      7  C   UNL     1     102.149  94.328  89.472  1.00  0.00     0.000 C 
BRANCH   7   8
ATOM      8  C   UNL     1     103.464  93.609  89.822  1.00  0.00     0.000 C 
BRANCH   8   9
ATOM      9  C   UNL     1     104.652  94.540  90.121  1.00  0.00     0.000 C 
BRANCH   9  10
ATOM     10  C   UNL     1     104.615  95.125  91.542  1.00  0.00     0.000 C 
BRANCH  10  11
ATOM     11  C   UNL     1     105.836  96.019  91.803  1.00  0.00     0.000 C 
BRANCH  11  12
ATOM     12  C   UNL     1     105.457  97.471  92.145  1.00  0.00     0.006 C 
BRANCH  12  13
ATOM     13  C   UNL     1     106.575  98.261  92.849  1.00  0.00     0.053 C 
BRANCH  13  14
ATOM     14  C   UNL     1     107.563  98.852  91.889  1.00  0.00     0.041 C 
ATOM     15  O   UNL     1     107.183  99.658  90.999  1.00  0.00    -0.550 OA
ATOM     16  O   UNL     1     108.901  98.482  91.954  1.00  0.00    -0.550 OA
ENDBRANCH  13  14
ENDBRANCH  12  13
ENDBRANCH  11  12
ENDBRANCH  10  11
ENDBRANCH   9  10
ENDBRANCH   8   9
ENDBRANCH   7   8
ENDBRANCH   6   7
ENDBRANCH   5   6
ENDBRANCH   4   5
ENDBRANCH   3   4
ENDBRANCH   2   3
ENDBRANCH   1   2
BRANCH   1  17
ATOM     17  C   UNL     1      99.486  98.941  92.333  1.00  0.00     0.000 C 
BRANCH  17  18
ATOM     18  C   UNL     1      98.631  99.781  91.370  1.00  0.00     0.000 C 
BRANCH  18  19
ATOM     19  C   UNL     1      98.287 101.169  91.938  1.00  0.00     0.000 C 
BRANCH  19  20
ATOM     20  C   UNL     1      96.892 101.649  91.508  1.00  0.00     0.000 C 
BRANCH  20  21
ATOM     21  C   UNL     1      95.840 100.526  91.566  1.00  0.00     0.000 C 
BRANCH  21  22
ATOM     22  C   UNL     1      95.280 100.167  90.181  1.00  0.00    -0.000 C 
BRANCH  22  23
ATOM     23  C   UNL     1      95.664 101.196  89.104  1.00  0.00    -0.000 C 
BRANCH  23  24
ATOM     24  C   UNL     1      94.470 102.060  88.664  1.00  0.00    -0.000 C 
BRANCH  24  25
ATOM     25  C   UNL     1      94.450 103.437  89.349  1.00  0.00    -0.000 C 
BRANCH  25  26
ATOM     26  C   UNL     1      93.390 103.537  90.462  1.00  0.00    -0.000 C 
BRANCH  26  27
ATOM     27  C   UNL     1      92.320 102.430  90.443  1.00  0.00    -0.000 C 
BRANCH  27  28
ATOM     28  C   UNL     1      92.209 101.683  91.783  1.00  0.00    -0.000 C 
BRANCH  28  29
ATOM     29  C   UNL     1      91.868 100.195  91.601  1.00  0.00    -0.003 C 
ATOM     30  C   UNL     1      91.919  99.410  92.911  1.00  0.00     0.004 C 
ENDBRANCH  28  29
ENDBRANCH  27  28
ENDBRANCH  26  27
ENDBRANCH  25  26
ENDBRANCH  24  25
ENDBRANCH  23  24
ENDBRANCH  22  23
ENDBRANCH  21  22
ENDBRANCH  20  21
ENDBRANCH  19  20
ENDBRANCH  18  19
ENDBRANCH  17  18
ENDBRANCH   1  17
TORSDOF 26
ENDMDL
MODEL 6
REMARK VINA RESULT:    -4.619      4.228      9.891
REMARK INTER + INTRA:         -15.117
REMARK INTER:                 -10.940
REMARK INTRA:                  -4.177
REMARK UNBOUND:                -3.477
REMARK SMILES CCCCCCCCCCCCCCCCCCCCCCCCCCCC(=O)[O-]
REMARK SMILES IDX 15 1 16 2 17 3 18 4 19 5 20 6 21 7 22 8 23 9 24 10 25 11
REMARK SMILES IDX 26 12 27 13 28 14 29 15 30 16 14 17 13 18 12 19 11 20 10 21
REMARK SMILES IDX 9 22 8 23 7 24 6 25 5 26 4 27 3 28 2 29 1 30
REMARK H PARENT
REMARK Flexibility Score: inf
ROOT
ATOM      1  C   UNL     1      91.571  98.331  88.958  1.00  0.00     0.000 C 
ENDROOT
BRANCH   1   2
ATOM      2  C   UNL     1      92.637  99.349  88.520  1.00  0.00     0.000 C 
BRANCH   2   3
ATOM      3  C   UNL     1      93.956  99.202  89.300  1.00  0.00     0.000 C 
BRANCH   3   4
ATOM      4  C   UNL     1      95.136  99.889  88.598  1.00  0.00     0.000 C 
BRANCH   4   5
ATOM      5  C   UNL     1      96.367 100.029  89.510  1.00  0.00     0.000 C 
BRANCH   5   6
ATOM      6  C   UNL     1      95.984 100.336  90.968  1.00  0.00     0.000 C 
BRANCH   6   7
ATOM      7  C   UNL     1      96.998 101.264  91.659  1.00  0.00     0.000 C 
BRANCH   7   8
ATOM      8  C   UNL     1      98.443 100.740  91.575  1.00  0.00     0.000 C 
BRANCH   8   9
ATOM      9  C   UNL     1      98.630  99.281  92.029  1.00  0.00     0.000 C 
BRANCH   9  10
ATOM     10  C   UNL     1      99.702  98.534  91.220  1.00  0.00     0.000 C 
BRANCH  10  11
ATOM     11  C   UNL     1     100.795  97.971  92.140  1.00  0.00     0.000 C 
BRANCH  11  12
ATOM     12  C   UNL     1     101.915  97.244  91.373  1.00  0.00     0.006 C 
BRANCH  12  13
ATOM     13  C   UNL     1     103.182  98.092  91.161  1.00  0.00     0.053 C 
BRANCH  13  14
ATOM     14  C   UNL     1     104.309  97.687  92.063  1.00  0.00     0.041 C 
ATOM     15  O   UNL     1     105.029  96.693  91.778  1.00  0.00    -0.550 OA
ATOM     16  O   UNL     1     104.542  98.388  93.240  1.00  0.00    -0.550 OA
ENDBRANCH  13  14
ENDBRANCH  12  13
ENDBRANCH  11  12
ENDBRANCH  10  11
ENDBRANCH   9  10
ENDBRANCH   8   9
ENDBRANCH   7   8
ENDBRANCH   6   7
ENDBRANCH   5   6
ENDBRANCH   4   5
ENDBRANCH   3   4
ENDBRANCH   2   3
ENDBRANCH   1   2
BRANCH   1  17
ATOM     17  C   UNL     1      90.323  99.002  89.556  1.00  0.00     0.000 C 
BRANCH  17  18
ATOM     18  C   UNL     1      89.798  98.265  90.799  1.00  0.00     0.000 C 
BRANCH  18  19
ATOM     19  C   UNL     1      90.186  98.965  92.114  1.00  0.00     0.000 C 
BRANCH  19  20
ATOM     20  C   UNL     1      90.775 100.366  91.880  1.00  0.00     0.000 C 
BRANCH  20  21
ATOM     21  C   UNL     1      92.223 100.486  92.388  1.00  0.00     0.000 C 
BRANCH  21  22
ATOM     22  C   UNL     1      92.943 101.728  91.838  1.00  0.00    -0.000 C 
BRANCH  22  23
ATOM     23  C   UNL     1      92.240 102.319  90.604  1.00  0.00    -0.000 C 
BRANCH  23  24
ATOM     24  C   UNL     1      93.217 103.037  89.659  1.00  0.00    -0.000 C 
BRANCH  24  25
ATOM     25  C   UNL     1      94.364 103.736  90.409  1.00  0.00    -0.000 C 
BRANCH  25  26
ATOM     26  C   UNL     1      94.949 104.929  89.633  1.00  0.00    -0.000 C 
BRANCH  26  27
ATOM     27  C   UNL     1      96.441 104.803  89.272  1.00  0.00    -0.000 C 
BRANCH  27  28
ATOM     28  C   UNL     1      96.775 103.476  88.568  1.00  0.00    -0.000 C 
BRANCH  28  29
ATOM     29  C   UNL     1      98.272 103.134  88.638  1.00  0.00    -0.003 C 
ATOM     30  C   UNL     1      99.020 103.955  89.689  1.00  0.00     0.004 C 
ENDBRANCH  28  29
ENDBRANCH  27  28
ENDBRANCH  26  27
ENDBRANCH  25  26
ENDBRANCH  24  25
ENDBRANCH  23  24
ENDBRANCH  22  23
ENDBRANCH  21  22
ENDBRANCH  20  21
ENDBRANCH  19  20
ENDBRANCH  18  19
ENDBRANCH  17  18
ENDBRANCH   1  17
TORSDOF 26
ENDMDL
MODEL 7
REMARK VINA RESULT:    -4.619      4.086      9.701
REMARK INTER + INTRA:         -15.117
REMARK INTER:                 -10.508
REMARK INTRA:                  -4.608
REMARK UNBOUND:                -3.477
REMARK SMILES CCCCCCCCCCCCCCCCCCCCCCCCCCCC(=O)[O-]
REMARK SMILES IDX 15 1 16 2 17 3 18 4 19 5 20 6 21 7 22 8 23 9 24 10 25 11
REMARK SMILES IDX 26 12 27 13 28 14 29 15 30 16 14 17 13 18 12 19 11 20 10 21
REMARK SMILES IDX 9 22 8 23 7 24 6 25 5 26 4 27 3 28 2 29 1 30
REMARK H PARENT
REMARK Flexibility Score: inf
ROOT
ATOM      1  C   UNL     1      89.803  98.929  89.302  1.00  0.00     0.000 C 
ENDROOT
BRANCH   1   2
ATOM      2  C   UNL     1      91.146  98.675  88.597  1.00  0.00     0.000 C 
BRANCH   2   3
ATOM      3  C   UNL     1      92.169  97.967  89.502  1.00  0.00     0.000 C 
BRANCH   3   4
ATOM      4  C   UNL     1      93.555  98.629  89.455  1.00  0.00     0.000 C 
BRANCH   4   5
ATOM      5  C   UNL     1      93.629  99.772  88.428  1.00  0.00     0.000 C 
BRANCH   5   6
ATOM      6  C   UNL     1      95.022 100.419  88.369  1.00  0.00     0.000 C 
BRANCH   6   7
ATOM      7  C   UNL     1      95.935  99.956  89.518  1.00  0.00     0.000 C 
BRANCH   7   8
ATOM      8  C   UNL     1      96.954 101.029  89.942  1.00  0.00     0.000 C 
BRANCH   8   9
ATOM      9  C   UNL     1      97.215 101.111  91.457  1.00  0.00     0.000 C 
BRANCH   9  10
ATOM     10  C   UNL     1      97.507  99.742  92.092  1.00  0.00     0.000 C 
BRANCH  10  11
ATOM     11  C   UNL     1      99.017  99.468  92.142  1.00  0.00     0.000 C 
BRANCH  11  12
ATOM     12  C   UNL     1      99.367  97.982  91.944  1.00  0.00     0.006 C 
BRANCH  12  13
ATOM     13  C   UNL     1     100.428  97.727  90.858  1.00  0.00     0.053 C 
BRANCH  13  14
ATOM     14  C   UNL     1      99.988  98.179  89.498  1.00  0.00     0.041 C 
ATOM     15  O   UNL     1     100.742  98.898  88.790  1.00  0.00    -0.550 OA
ATOM     16  O   UNL     1      98.727  97.836  89.027  1.00  0.00    -0.550 OA
ENDBRANCH  13  14
ENDBRANCH  12  13
ENDBRANCH  11  12
ENDBRANCH  10  11
ENDBRANCH   9  10
ENDBRANCH   8   9
ENDBRANCH   7   8
ENDBRANCH   6   7
ENDBRANCH   5   6
ENDBRANCH   4   5
ENDBRANCH   3   4
ENDBRANCH   2   3
ENDBRANCH   1   2
BRANCH   1  17
ATOM     17  C   UNL     1      89.399  97.775  90.236  1.00  0.00     0.000 C 
BRANCH  17  18
ATOM     18  C   UNL     1      89.147  98.247  91.678  1.00  0.00     0.000 C 
BRANCH  18  19
ATOM     19  C   UNL     1      88.901  99.763  91.772  1.00  0.00     0.000 C 
BRANCH  19  20
ATOM     20  C   UNL     1      89.860 100.453  92.755  1.00  0.00     0.000 C 
BRANCH  20  21
ATOM     21  C   UNL     1      91.334 100.104  92.481  1.00  0.00     0.000 C 
BRANCH  21  22
ATOM     22  C   UNL     1      92.027 101.132  91.572  1.00  0.00    -0.000 C 
BRANCH  22  23
ATOM     23  C   UNL     1      93.482 101.403  91.991  1.00  0.00    -0.000 C 
BRANCH  23  24
ATOM     24  C   UNL     1      93.897 102.866  91.762  1.00  0.00    -0.000 C 
BRANCH  24  25
ATOM     25  C   UNL     1      93.490 103.388  90.374  1.00  0.00    -0.000 C 
BRANCH  25  26
ATOM     26  C   UNL     1      94.689 103.885  89.546  1.00  0.00    -0.000 C 
BRANCH  26  27
ATOM     27  C   UNL     1      94.961 105.398  89.637  1.00  0.00    -0.000 C 
BRANCH  27  28
ATOM     28  C   UNL     1      96.407 105.768  89.266  1.00  0.00    -0.000 C 
BRANCH  28  29
ATOM     29  C   UNL     1      97.172 104.593  88.635  1.00  0.00    -0.003 C 
ATOM     30  C   UNL     1      98.545 104.370  89.267  1.00  0.00     0.004 C 
ENDBRANCH  28  29
ENDBRANCH  27  28
ENDBRANCH  26  27
ENDBRANCH  25  26
ENDBRANCH  24  25
ENDBRANCH  23  24
ENDBRANCH  22  23
ENDBRANCH  21  22
ENDBRANCH  20  21
ENDBRANCH  19  20
ENDBRANCH  18  19
ENDBRANCH  17  18
ENDBRANCH   1  17
TORSDOF 26
ENDMDL
MODEL 8
REMARK VINA RESULT:    -4.608      3.481      9.928
REMARK INTER + INTRA:         -15.089
REMARK INTER:                 -11.083
REMARK INTRA:                  -4.006
REMARK UNBOUND:                -3.477
REMARK SMILES CCCCCCCCCCCCCCCCCCCCCCCCCCCC(=O)[O-]
REMARK SMILES IDX 15 1 16 2 17 3 18 4 19 5 20 6 21 7 22 8 23 9 24 10 25 11
REMARK SMILES IDX 26 12 27 13 28 14 29 15 30 16 14 17 13 18 12 19 11 20 10 21
REMARK SMILES IDX 9 22 8 23 7 24 6 25 5 26 4 27 3 28 2 29 1 30
REMARK H PARENT
REMARK Flexibility Score: inf
ROOT
ATOM      1  C   UNL     1      99.774  96.710  92.005  1.00  0.00     0.000 C 
ENDROOT
BRANCH   1   2
ATOM      2  C   UNL     1      99.735  95.833  90.743  1.00  0.00     0.000 C 
BRANCH   2   3
ATOM      3  C   UNL     1     100.077  96.617  89.464  1.00  0.00     0.000 C 
BRANCH   3   4
ATOM      4  C   UNL     1     100.015  95.743  88.202  1.00  0.00     0.000 C 
BRANCH   4   5
ATOM      5  C   UNL     1      99.569  94.302  88.503  1.00  0.00     0.000 C 
BRANCH   5   6
ATOM      6  C   UNL     1     100.642  93.265  88.133  1.00  0.00     0.000 C 
BRANCH   6   7
ATOM      7  C   UNL     1     101.332  92.665  89.371  1.00  0.00     0.000 C 
BRANCH   7   8
ATOM      8  C   UNL     1     102.823  93.037  89.464  1.00  0.00     0.000 C 
BRANCH   8   9
ATOM      9  C   UNL     1     103.104  94.454  89.996  1.00  0.00     0.000 C 
BRANCH   9  10
ATOM     10  C   UNL     1     103.515  94.470  91.476  1.00  0.00     0.000 C 
BRANCH  10  11
ATOM     11  C   UNL     1     103.529  95.902  92.030  1.00  0.00     0.000 C 
BRANCH  11  12
ATOM     12  C   UNL     1     103.416  96.975  90.931  1.00  0.00     0.006 C 
BRANCH  12  13
ATOM     13  C   UNL     1     104.284  98.222  91.182  1.00  0.00     0.053 C 
BRANCH  13  14
ATOM     14  C   UNL     1     105.119  98.110  92.421  1.00  0.00     0.041 C 
ATOM     15  O   UNL     1     104.705  98.582  93.514  1.00  0.00    -0.550 OA
ATOM     16  O   UNL     1     106.373  97.514  92.362  1.00  0.00    -0.550 OA
ENDBRANCH  13  14
ENDBRANCH  12  13
ENDBRANCH  11  12
ENDBRANCH  10  11
ENDBRANCH   9  10
ENDBRANCH   8   9
ENDBRANCH   7   8
ENDBRANCH   6   7
ENDBRANCH   5   6
ENDBRANCH   4   5
ENDBRANCH   3   4
ENDBRANCH   2   3
ENDBRANCH   1   2
BRANCH   1  17
ATOM     17  C   UNL     1      99.850  98.211  91.680  1.00  0.00     0.000 C 
BRANCH  17  18
ATOM     18  C   UNL     1      98.613  98.982  92.170  1.00  0.00     0.000 C 
BRANCH  18  19
ATOM     19  C   UNL     1      98.102 100.003  91.138  1.00  0.00     0.000 C 
BRANCH  19  20
ATOM     20  C   UNL     1      98.221 101.452  91.636  1.00  0.00     0.000 C 
BRANCH  20  21
ATOM     21  C   UNL     1      98.293 102.466  90.480  1.00  0.00     0.000 C 
BRANCH  21  22
ATOM     22  C   UNL     1      97.236 102.204  89.395  1.00  0.00    -0.000 C 
BRANCH  22  23
ATOM     23  C   UNL     1      96.333 103.425  89.144  1.00  0.00    -0.000 C 
BRANCH  23  24
ATOM     24  C   UNL     1      94.866 103.158  89.519  1.00  0.00    -0.000 C 
BRANCH  24  25
ATOM     25  C   UNL     1      94.482 103.762  90.881  1.00  0.00    -0.000 C 
BRANCH  25  26
ATOM     26  C   UNL     1      94.692 102.784  92.051  1.00  0.00    -0.000 C 
BRANCH  26  27
ATOM     27  C   UNL     1      93.744 101.570  92.062  1.00  0.00    -0.000 C 
BRANCH  27  28
ATOM     28  C   UNL     1      94.475 100.239  91.819  1.00  0.00    -0.000 C 
BRANCH  28  29
ATOM     29  C   UNL     1      93.892  99.456  90.631  1.00  0.00    -0.003 C 
ATOM     30  C   UNL     1      94.842  99.398  89.436  1.00  0.00     0.004 C 
ENDBRANCH  28  29
ENDBRANCH  27  28
ENDBRANCH  26  27
ENDBRANCH  25  26
ENDBRANCH  24  25
ENDBRANCH  23  24
ENDBRANCH  22  23
ENDBRANCH  21  22
ENDBRANCH  20  21
ENDBRANCH  19  20
ENDBRANCH  18  19
ENDBRANCH  17  18
ENDBRANCH   1  17
TORSDOF 26
ENDMDL
MODEL 9
REMARK VINA RESULT:    -4.606      2.033      3.472
REMARK INTER + INTRA:         -15.085
REMARK INTER:                 -12.254
REMARK INTRA:                  -2.831
REMARK UNBOUND:                -3.477
REMARK SMILES CCCCCCCCCCCCCCCCCCCCCCCCCCCC(=O)[O-]
REMARK SMILES IDX 15 1 16 2 17 3 18 4 19 5 20 6 21 7 22 8 23 9 24 10 25 11
REMARK SMILES IDX 26 12 27 13 28 14 29 15 30 16 14 17 13 18 12 19 11 20 10 21
REMARK SMILES IDX 9 22 8 23 7 24 6 25 5 26 4 27 3 28 2 29 1 30
REMARK H PARENT
REMARK Flexibility Score: inf
ROOT
ATOM      1  C   UNL     1     100.482  98.476  91.836  1.00  0.00     0.000 C 
ENDROOT
BRANCH   1   2
ATOM      2  C   UNL     1      98.975  98.634  92.098  1.00  0.00     0.000 C 
BRANCH   2   3
ATOM      3  C   UNL     1      98.494 100.087  91.941  1.00  0.00     0.000 C 
BRANCH   3   4
ATOM      4  C   UNL     1      96.962 100.202  91.925  1.00  0.00     0.000 C 
BRANCH   4   5
ATOM      5  C   UNL     1      96.480 101.629  91.613  1.00  0.00     0.000 C 
BRANCH   5   6
ATOM      6  C   UNL     1      96.681 102.006  90.136  1.00  0.00     0.000 C 
BRANCH   6   7
ATOM      7  C   UNL     1      95.770 103.165  89.695  1.00  0.00     0.000 C 
BRANCH   7   8
ATOM      8  C   UNL     1      94.660 103.475  90.715  1.00  0.00     0.000 C 
BRANCH   8   9
ATOM      9  C   UNL     1      93.225 103.321  90.178  1.00  0.00     0.000 C 
BRANCH   9  10
ATOM     10  C   UNL     1      92.359 102.387  91.038  1.00  0.00     0.000 C 
BRANCH  10  11
ATOM     11  C   UNL     1      92.891 100.947  90.997  1.00  0.00     0.000 C 
BRANCH  11  12
ATOM     12  C   UNL     1      93.162 100.365  92.396  1.00  0.00     0.006 C 
BRANCH  12  13
ATOM     13  C   UNL     1      92.329  99.114  92.727  1.00  0.00     0.053 C 
BRANCH  13  14
ATOM     14  C   UNL     1      90.866  99.303  92.462  1.00  0.00     0.041 C 
ATOM     15  O   UNL     1      90.285  98.623  91.574  1.00  0.00    -0.550 OA
ATOM     16  O   UNL     1      90.150 100.259  93.172  1.00  0.00    -0.550 OA
ENDBRANCH  13  14
ENDBRANCH  12  13
ENDBRANCH  11  12
ENDBRANCH  10  11
ENDBRANCH   9  10
ENDBRANCH   8   9
ENDBRANCH   7   8
ENDBRANCH   6   7
ENDBRANCH   5   6
ENDBRANCH   4   5
ENDBRANCH   3   4
ENDBRANCH   2   3
ENDBRANCH   1   2
BRANCH   1  17
ATOM     17  C   UNL     1     100.896  97.008  91.635  1.00  0.00     0.000 C 
BRANCH  17  18
ATOM     18  C   UNL     1      99.687  96.076  91.450  1.00  0.00     0.000 C 
BRANCH  18  19
ATOM     19  C   UNL     1      99.442  95.707  89.976  1.00  0.00     0.000 C 
BRANCH  19  20
ATOM     20  C   UNL     1      98.788  94.325  89.818  1.00  0.00     0.000 C 
BRANCH  20  21
ATOM     21  C   UNL     1      99.643  93.364  88.972  1.00  0.00     0.000 C 
BRANCH  21  22
ATOM     22  C   UNL     1     101.116  93.795  88.891  1.00  0.00    -0.000 C 
BRANCH  22  23
ATOM     23  C   UNL     1     102.060  92.804  89.591  1.00  0.00    -0.000 C 
BRANCH  23  24
ATOM     24  C   UNL     1     103.487  93.357  89.742  1.00  0.00    -0.000 C 
BRANCH  24  25
ATOM     25  C   UNL     1     103.573  94.511  90.755  1.00  0.00    -0.000 C 
BRANCH  25  26
ATOM     26  C   UNL     1     104.214  95.780  90.164  1.00  0.00    -0.000 C 
BRANCH  26  27
ATOM     27  C   UNL     1     105.663  96.045  90.611  1.00  0.00    -0.000 C 
BRANCH  27  28
ATOM     28  C   UNL     1     105.904  97.508  91.021  1.00  0.00    -0.000 C 
BRANCH  28  29
ATOM     29  C   UNL     1     104.632  98.184  91.561  1.00  0.00    -0.003 C 
ATOM     30  C   UNL     1     104.635  98.324  93.083  1.00  0.00     0.004 C 
ENDBRANCH  28  29
ENDBRANCH  27  28
ENDBRANCH  26  27
ENDBRANCH  25  26
ENDBRANCH  24  25
ENDBRANCH  23  24
ENDBRANCH  22  23
ENDBRANCH  21  22
ENDBRANCH  20  21
ENDBRANCH  19  20
ENDBRANCH  18  19
ENDBRANCH  17  18
ENDBRANCH   1  17
TORSDOF 26
ENDMDL
