MODEL 1
REMARK VINA RESULT:    -8.449      0.000      0.000
REMARK INTER + INTRA:         -10.245
REMARK INTER:                  -9.931
REMARK INTRA:                  -0.315
REMARK UNBOUND:                -0.315
REMARK SMILES O=c1cc(-c2ccc(O)c(O)c2)oc2cc(O)cc(O)c12
REMARK SMILES IDX 4 1 3 2 2 3 1 4 21 5 19 6 18 7 16 8 15 9 14 10 13 11 5 12
REMARK SMILES IDX 6 13 7 14 8 15 12 16 10 17 9 18 11 20 20 22 17 24
REMARK H PARENT 9 19 11 21 20 23 17 25
REMARK Flexibility Score: inf
ROOT
ATOM      1  C   UNL     1       5.654 -55.881 -29.177  1.00  0.00     0.138 A 
ATOM      2  C   UNL     1       4.354 -55.362 -29.095  1.00  0.00     0.100 A 
ATOM      3  C   UNL     1       3.587 -55.598 -27.952  1.00  0.00     0.197 A 
ATOM      4  O   UNL     1       2.404 -55.173 -27.934  1.00  0.00    -0.289 OA
ATOM      5  C   UNL     1       4.138 -56.330 -26.875  1.00  0.00     0.107 A 
ATOM      6  C   UNL     1       3.466 -56.597 -25.645  1.00  0.00     0.134 A 
ATOM      7  C   UNL     1       4.067 -57.433 -24.696  1.00  0.00     0.093 A 
ATOM      8  C   UNL     1       5.343 -57.961 -24.907  1.00  0.00     0.123 A 
ATOM      9  C   UNL     1       6.031 -57.663 -26.080  1.00  0.00     0.094 A 
ATOM     10  C   UNL     1       5.443 -56.861 -27.061  1.00  0.00     0.146 A 
ATOM     11  O   UNL     1       6.128 -56.612 -28.173  1.00  0.00    -0.456 OA
ENDROOT
BRANCH   1  12
ATOM     12  C   UNL     1       6.512 -55.660 -30.368  1.00  0.00     0.021 A 
ATOM     13  C   UNL     1       5.984 -55.178 -31.581  1.00  0.00     0.016 A 
ATOM     14  C   UNL     1       6.817 -54.969 -32.683  1.00  0.00     0.051 A 
ATOM     15  C   UNL     1       8.191 -55.229 -32.592  1.00  0.00     0.157 A 
ATOM     16  C   UNL     1       7.895 -55.905 -30.280  1.00  0.00     0.062 A 
ATOM     17  C   UNL     1       8.731 -55.697 -31.383  1.00  0.00     0.158 A 
BRANCH  15  18
ATOM     18  O   UNL     1       9.019 -55.020 -33.694  1.00  0.00    -0.504 OA
ATOM     19  H   UNL     1       8.804 -55.416 -34.601  1.00  0.00     0.293 HD
ENDBRANCH  15  18
BRANCH  17  20
ATOM     20  O   UNL     1      10.094 -55.962 -31.258  1.00  0.00    -0.504 OA
ATOM     21  H   UNL     1      10.443 -56.874 -30.986  1.00  0.00     0.293 HD
ENDBRANCH  17  20
ENDBRANCH   1  12
BRANCH   6  22
ATOM     22  O   UNL     1       2.226 -56.051 -25.299  1.00  0.00    -0.507 OA
ATOM     23  H   UNL     1       1.522 -55.755 -25.957  1.00  0.00     0.293 HD
ENDBRANCH   6  22
BRANCH   8  24
ATOM     24  O   UNL     1       5.941 -58.778 -23.950  1.00  0.00    -0.508 OA
ATOM     25  H   UNL     1       6.075 -58.466 -22.994  1.00  0.00     0.293 HD
ENDBRANCH   8  24
TORSDOF 5
ENDMDL
MODEL 2
REMARK VINA RESULT:    -8.411      1.597      6.895
REMARK INTER + INTRA:         -10.202
REMARK INTER:                  -9.918
REMARK INTRA:                  -0.283
REMARK UNBOUND:                -0.315
REMARK SMILES O=c1cc(-c2ccc(O)c(O)c2)oc2cc(O)cc(O)c12
REMARK SMILES IDX 4 1 3 2 2 3 1 4 21 5 19 6 18 7 16 8 15 9 14 10 13 11 5 12
REMARK SMILES IDX 6 13 7 14 8 15 12 16 10 17 9 18 11 20 20 22 17 24
REMARK H PARENT 9 19 11 21 20 23 17 25
REMARK Flexibility Score: inf
ROOT
ATOM      1  C   UNL     1       5.282 -55.853 -28.483  1.00  0.00     0.138 A 
ATOM      2  C   UNL     1       4.810 -55.626 -29.782  1.00  0.00     0.100 A 
ATOM      3  C   UNL     1       5.718 -55.404 -30.819  1.00  0.00     0.197 A 
ATOM      4  O   UNL     1       5.263 -55.141 -31.961  1.00  0.00    -0.289 OA
ATOM      5  C   UNL     1       7.108 -55.442 -30.555  1.00  0.00     0.107 A 
ATOM      6  C   UNL     1       8.126 -55.271 -31.539  1.00  0.00     0.134 A 
ATOM      7  C   UNL     1       9.468 -55.213 -31.142  1.00  0.00     0.093 A 
ATOM      8  C   UNL     1       9.831 -55.380 -29.803  1.00  0.00     0.123 A 
ATOM      9  C   UNL     1       8.848 -55.602 -28.842  1.00  0.00     0.094 A 
ATOM     10  C   UNL     1       7.499 -55.630 -29.202  1.00  0.00     0.146 A 
ATOM     11  O   UNL     1       6.591 -55.830 -28.252  1.00  0.00    -0.456 OA
ENDROOT
BRANCH   1  12
ATOM     12  C   UNL     1       4.360 -56.095 -27.344  1.00  0.00     0.021 A 
ATOM     13  C   UNL     1       4.717 -56.928 -26.267  1.00  0.00     0.016 A 
ATOM     14  C   UNL     1       3.835 -57.129 -25.203  1.00  0.00     0.051 A 
ATOM     15  C   UNL     1       2.584 -56.498 -25.191  1.00  0.00     0.157 A 
ATOM     16  C   UNL     1       3.108 -55.454 -27.319  1.00  0.00     0.062 A 
ATOM     17  C   UNL     1       2.222 -55.654 -26.254  1.00  0.00     0.158 A 
BRANCH  15  18
ATOM     18  O   UNL     1       1.705 -56.702 -24.129  1.00  0.00    -0.504 OA
ATOM     19  H   UNL     1       2.031 -56.741 -23.171  1.00  0.00     0.293 HD
ENDBRANCH  15  18
BRANCH  17  20
ATOM     20  O   UNL     1       0.986 -55.008 -26.272  1.00  0.00    -0.504 OA
ATOM     21  H   UNL     1       0.114 -55.516 -26.367  1.00  0.00     0.293 HD
ENDBRANCH  17  20
ENDBRANCH   1  12
BRANCH   6  22
ATOM     22  O   UNL     1       7.879 -55.180 -32.912  1.00  0.00    -0.507 OA
ATOM     23  H   UNL     1       8.577 -55.286 -33.632  1.00  0.00     0.293 HD
ENDBRANCH   6  22
BRANCH   8  24
ATOM     24  O   UNL     1      11.169 -55.336 -29.419  1.00  0.00    -0.508 OA
ATOM     25  H   UNL     1      11.903 -55.712 -30.009  1.00  0.00     0.293 HD
ENDBRANCH   8  24
TORSDOF 5
ENDMDL
MODEL 3
REMARK VINA RESULT:    -8.208      1.260      2.766
REMARK INTER + INTRA:          -9.963
REMARK INTER:                  -9.674
REMARK INTRA:                  -0.289
REMARK UNBOUND:                -0.315
REMARK SMILES O=c1cc(-c2ccc(O)c(O)c2)oc2cc(O)cc(O)c12
REMARK SMILES IDX 4 1 3 2 2 3 1 4 21 5 19 6 18 7 16 8 15 9 14 10 13 11 5 12
REMARK SMILES IDX 6 13 7 14 8 15 12 16 10 17 9 18 11 20 20 22 17 24
REMARK H PARENT 9 19 11 21 20 23 17 25
REMARK Flexibility Score: inf
ROOT
ATOM      1  C   UNL     1       5.707 -55.980 -28.744  1.00  0.00     0.138 A 
ATOM      2  C   UNL     1       6.189 -56.843 -27.750  1.00  0.00     0.100 A 
ATOM      3  C   UNL     1       5.417 -57.086 -26.613  1.00  0.00     0.197 A 
ATOM      4  O   UNL     1       5.903 -57.815 -25.710  1.00  0.00    -0.289 OA
ATOM      5  C   UNL     1       4.142 -56.485 -26.487  1.00  0.00     0.107 A 
ATOM      6  C   UNL     1       3.251 -56.692 -25.392  1.00  0.00     0.134 A 
ATOM      7  C   UNL     1       2.063 -55.953 -25.319  1.00  0.00     0.093 A 
ATOM      8  C   UNL     1       1.708 -55.059 -26.332  1.00  0.00     0.123 A 
ATOM      9  C   UNL     1       2.546 -54.890 -27.432  1.00  0.00     0.094 A 
ATOM     10  C   UNL     1       3.753 -55.587 -27.516  1.00  0.00     0.146 A 
ATOM     11  O   UNL     1       4.530 -55.386 -28.576  1.00  0.00    -0.456 OA
ENDROOT
BRANCH   1  12
ATOM     12  C   UNL     1       6.487 -55.687 -29.973  1.00  0.00     0.021 A 
ATOM     13  C   UNL     1       5.868 -55.214 -31.146  1.00  0.00     0.016 A 
ATOM     14  C   UNL     1       6.628 -54.936 -32.284  1.00  0.00     0.051 A 
ATOM     15  C   UNL     1       8.016 -55.118 -32.272  1.00  0.00     0.157 A 
ATOM     16  C   UNL     1       7.884 -55.855 -29.964  1.00  0.00     0.062 A 
ATOM     17  C   UNL     1       8.646 -55.577 -31.104  1.00  0.00     0.158 A 
BRANCH  15  18
ATOM     18  O   UNL     1       8.771 -54.841 -33.411  1.00  0.00    -0.504 OA
ATOM     19  H   UNL     1       9.548 -54.192 -33.388  1.00  0.00     0.293 HD
ENDBRANCH  15  18
BRANCH  17  20
ATOM     20  O   UNL     1      10.027 -55.765 -31.057  1.00  0.00    -0.504 OA
ATOM     21  H   UNL     1      10.441 -56.680 -30.919  1.00  0.00     0.293 HD
ENDBRANCH  17  20
ENDBRANCH   1  12
BRANCH   6  22
ATOM     22  O   UNL     1       3.470 -57.623 -24.372  1.00  0.00    -0.507 OA
ATOM     23  H   UNL     1       3.056 -57.578 -23.453  1.00  0.00     0.293 HD
ENDBRANCH   6  22
BRANCH   8  24
ATOM     24  O   UNL     1       0.517 -54.340 -26.259  1.00  0.00    -0.508 OA
ATOM     25  H   UNL     1      -0.384 -54.805 -26.258  1.00  0.00     0.293 HD
ENDBRANCH   8  24
TORSDOF 5
ENDMDL
MODEL 4
REMARK VINA RESULT:    -8.023      1.835      3.498
REMARK INTER + INTRA:          -9.745
REMARK INTER:                  -9.444
REMARK INTRA:                  -0.301
REMARK UNBOUND:                -0.315
REMARK SMILES O=c1cc(-c2ccc(O)c(O)c2)oc2cc(O)cc(O)c12
REMARK SMILES IDX 4 1 3 2 2 3 1 4 21 5 19 6 18 7 16 8 15 9 14 10 13 11 5 12
REMARK SMILES IDX 6 13 7 14 8 15 12 16 10 17 9 18 11 20 20 22 17 24
REMARK H PARENT 9 19 11 21 20 23 17 25
REMARK Flexibility Score: inf
ROOT
ATOM      1  C   UNL     1       5.124 -55.983 -27.944  1.00  0.00     0.138 A 
ATOM      2  C   UNL     1       5.212 -57.005 -26.989  1.00  0.00     0.100 A 
ATOM      3  C   UNL     1       4.252 -57.091 -25.979  1.00  0.00     0.197 A 
ATOM      4  O   UNL     1       4.392 -57.980 -25.101  1.00  0.00    -0.289 OA
ATOM      5  C   UNL     1       3.182 -56.166 -25.946  1.00  0.00     0.107 A 
ATOM      6  C   UNL     1       2.124 -56.181 -24.989  1.00  0.00     0.134 A 
ATOM      7  C   UNL     1       1.181 -55.144 -24.985  1.00  0.00     0.093 A 
ATOM      8  C   UNL     1       1.225 -54.127 -25.941  1.00  0.00     0.123 A 
ATOM      9  C   UNL     1       2.222 -54.133 -26.913  1.00  0.00     0.094 A 
ATOM     10  C   UNL     1       3.197 -55.133 -26.923  1.00  0.00     0.146 A 
ATOM     11  O   UNL     1       4.139 -55.095 -27.859  1.00  0.00    -0.456 OA
ENDROOT
BRANCH   1  12
ATOM     12  C   UNL     1       6.118 -55.846 -29.040  1.00  0.00     0.021 A 
ATOM     13  C   UNL     1       7.477 -56.161 -28.849  1.00  0.00     0.016 A 
ATOM     14  C   UNL     1       8.387 -56.034 -29.900  1.00  0.00     0.051 A 
ATOM     15  C   UNL     1       7.959 -55.597 -31.160  1.00  0.00     0.157 A 
ATOM     16  C   UNL     1       5.692 -55.422 -30.312  1.00  0.00     0.062 A 
ATOM     17  C   UNL     1       6.603 -55.293 -31.366  1.00  0.00     0.158 A 
BRANCH  15  18
ATOM     18  O   UNL     1       8.871 -55.470 -32.206  1.00  0.00    -0.504 OA
ATOM     19  H   UNL     1       9.169 -54.562 -32.542  1.00  0.00     0.293 HD
ENDBRANCH  15  18
BRANCH  17  20
ATOM     20  O   UNL     1       6.142 -54.860 -32.609  1.00  0.00    -0.504 OA
ATOM     21  H   UNL     1       6.155 -55.460 -33.426  1.00  0.00     0.293 HD
ENDBRANCH  17  20
ENDBRANCH   1  12
BRANCH   6  22
ATOM     22  O   UNL     1       1.939 -57.195 -24.045  1.00  0.00    -0.507 OA
ATOM     23  H   UNL     1       1.564 -57.059 -23.119  1.00  0.00     0.293 HD
ENDBRANCH   6  22
BRANCH   8  24
ATOM     24  O   UNL     1       0.274 -53.109 -25.939  1.00  0.00    -0.508 OA
ATOM     25  H   UNL     1      -0.417 -53.030 -25.202  1.00  0.00     0.293 HD
ENDBRANCH   8  24
TORSDOF 5
ENDMDL
MODEL 5
REMARK VINA RESULT:    -7.767      2.559      7.724
REMARK INTER + INTRA:          -9.444
REMARK INTER:                  -9.132
REMARK INTRA:                  -0.312
REMARK UNBOUND:                -0.315
REMARK SMILES O=c1cc(-c2ccc(O)c(O)c2)oc2cc(O)cc(O)c12
REMARK SMILES IDX 4 1 3 2 2 3 1 4 21 5 19 6 18 7 16 8 15 9 14 10 13 11 5 12
REMARK SMILES IDX 6 13 7 14 8 15 12 16 10 17 9 18 11 20 20 22 17 24
REMARK H PARENT 9 19 11 21 20 23 17 25
REMARK Flexibility Score: inf
ROOT
ATOM      1  C   UNL     1       3.088 -55.969 -26.599  1.00  0.00     0.138 A 
ATOM      2  C   UNL     1       4.188 -56.632 -26.040  1.00  0.00     0.100 A 
ATOM      3  C   UNL     1       5.350 -56.801 -26.796  1.00  0.00     0.197 A 
ATOM      4  O   UNL     1       6.298 -57.454 -26.289  1.00  0.00    -0.289 OA
ATOM      5  C   UNL     1       5.418 -56.274 -28.107  1.00  0.00     0.107 A 
ATOM      6  C   UNL     1       6.563 -56.349 -28.955  1.00  0.00     0.134 A 
ATOM      7  C   UNL     1       6.476 -55.894 -30.277  1.00  0.00     0.093 A 
ATOM      8  C   UNL     1       5.302 -55.312 -30.762  1.00  0.00     0.123 A 
ATOM      9  C   UNL     1       4.196 -55.184 -29.926  1.00  0.00     0.094 A 
ATOM     10  C   UNL     1       4.241 -55.660 -28.613  1.00  0.00     0.146 A 
ATOM     11  O   UNL     1       3.159 -55.532 -27.853  1.00  0.00    -0.456 OA
ENDROOT
BRANCH   1  12
ATOM     12  C   UNL     1       1.828 -55.762 -25.840  1.00  0.00     0.021 A 
ATOM     13  C   UNL     1       1.505 -56.547 -24.717  1.00  0.00     0.016 A 
ATOM     14  C   UNL     1       0.319 -56.323 -24.014  1.00  0.00     0.051 A 
ATOM     15  C   UNL     1      -0.562 -55.310 -24.415  1.00  0.00     0.157 A 
ATOM     16  C   UNL     1       0.946 -54.737 -26.228  1.00  0.00     0.062 A 
ATOM     17  C   UNL     1      -0.243 -54.512 -25.526  1.00  0.00     0.158 A 
BRANCH  15  18
ATOM     18  O   UNL     1      -1.746 -55.090 -23.713  1.00  0.00    -0.504 OA
ATOM     19  H   UNL     1      -1.879 -55.446 -22.774  1.00  0.00     0.293 HD
ENDBRANCH  15  18
BRANCH  17  20
ATOM     20  O   UNL     1      -1.096 -53.492 -25.949  1.00  0.00    -0.504 OA
ATOM     21  H   UNL     1      -1.079 -53.135 -26.897  1.00  0.00     0.293 HD
ENDBRANCH  17  20
ENDBRANCH   1  12
BRANCH   6  22
ATOM     22  O   UNL     1       7.809 -56.834 -28.544  1.00  0.00    -0.507 OA
ATOM     23  H   UNL     1       8.693 -56.569 -28.950  1.00  0.00     0.293 HD
ENDBRANCH   6  22
BRANCH   8  24
ATOM     24  O   UNL     1       5.229 -54.848 -32.073  1.00  0.00    -0.508 OA
ATOM     25  H   UNL     1       5.761 -55.281 -32.820  1.00  0.00     0.293 HD
ENDBRANCH   8  24
TORSDOF 5
ENDMDL
MODEL 6
REMARK VINA RESULT:    -7.720      1.472      7.203
REMARK INTER + INTRA:          -9.389
REMARK INTER:                  -9.099
REMARK INTRA:                  -0.290
REMARK UNBOUND:                -0.315
REMARK SMILES O=c1cc(-c2ccc(O)c(O)c2)oc2cc(O)cc(O)c12
REMARK SMILES IDX 4 1 3 2 2 3 1 4 21 5 19 6 18 7 16 8 15 9 14 10 13 11 5 12
REMARK SMILES IDX 6 13 7 14 8 15 12 16 10 17 9 18 11 20 20 22 17 24
REMARK H PARENT 9 19 11 21 20 23 17 25
REMARK Flexibility Score: inf
ROOT
ATOM      1  C   UNL     1       5.805 -55.771 -28.657  1.00  0.00     0.138 A 
ATOM      2  C   UNL     1       7.053 -56.104 -28.113  1.00  0.00     0.100 A 
ATOM      3  C   UNL     1       8.186 -56.095 -28.928  1.00  0.00     0.197 A 
ATOM      4  O   UNL     1       9.281 -56.459 -28.427  1.00  0.00    -0.289 OA
ATOM      5  C   UNL     1       8.072 -55.718 -30.287  1.00  0.00     0.107 A 
ATOM      6  C   UNL     1       9.164 -55.633 -31.202  1.00  0.00     0.134 A 
ATOM      7  C   UNL     1       8.913 -55.362 -32.553  1.00  0.00     0.093 A 
ATOM      8  C   UNL     1       7.617 -55.114 -33.010  1.00  0.00     0.123 A 
ATOM      9  C   UNL     1       6.550 -55.142 -32.115  1.00  0.00     0.094 A 
ATOM     10  C   UNL     1       6.763 -55.443 -30.768  1.00  0.00     0.146 A 
ATOM     11  O   UNL     1       5.716 -55.473 -29.950  1.00  0.00    -0.456 OA
ENDROOT
BRANCH   1  12
ATOM     12  C   UNL     1       4.568 -55.764 -27.836  1.00  0.00     0.021 A 
ATOM     13  C   UNL     1       3.407 -55.084 -28.252  1.00  0.00     0.016 A 
ATOM     14  C   UNL     1       2.254 -55.104 -27.464  1.00  0.00     0.051 A 
ATOM     15  C   UNL     1       2.235 -55.807 -26.253  1.00  0.00     0.157 A 
ATOM     16  C   UNL     1       4.537 -56.480 -26.625  1.00  0.00     0.062 A 
ATOM     17  C   UNL     1       3.383 -56.501 -25.835  1.00  0.00     0.158 A 
BRANCH  15  18
ATOM     18  O   UNL     1       1.083 -55.824 -25.469  1.00  0.00    -0.504 OA
ATOM     19  H   UNL     1       0.309 -55.196 -25.650  1.00  0.00     0.293 HD
ENDBRANCH  15  18
BRANCH  17  20
ATOM     20  O   UNL     1       3.396 -57.214 -24.636  1.00  0.00    -0.504 OA
ATOM     21  H   UNL     1       4.258 -57.445 -24.157  1.00  0.00     0.293 HD
ENDBRANCH  17  20
ENDBRANCH   1  12
BRANCH   6  22
ATOM     22  O   UNL     1      10.505 -55.779 -30.833  1.00  0.00    -0.507 OA
ATOM     23  H   UNL     1      10.824 -56.060 -29.918  1.00  0.00     0.293 HD
ENDBRANCH   6  22
BRANCH   8  24
ATOM     24  O   UNL     1       7.379 -54.829 -34.353  1.00  0.00    -0.508 OA
ATOM     25  H   UNL     1       7.511 -53.897 -34.729  1.00  0.00     0.293 HD
ENDBRANCH   8  24
TORSDOF 5
ENDMDL
MODEL 7
REMARK VINA RESULT:    -7.716      1.694      2.036
REMARK INTER + INTRA:          -9.385
REMARK INTER:                  -9.122
REMARK INTRA:                  -0.263
REMARK UNBOUND:                -0.315
REMARK SMILES O=c1cc(-c2ccc(O)c(O)c2)oc2cc(O)cc(O)c12
REMARK SMILES IDX 4 1 3 2 2 3 1 4 21 5 19 6 18 7 16 8 15 9 14 10 13 11 5 12
REMARK SMILES IDX 6 13 7 14 8 15 12 16 10 17 9 18 11 20 20 22 17 24
REMARK H PARENT 9 19 11 21 20 23 17 25
REMARK Flexibility Score: inf
ROOT
ATOM      1  C   UNL     1       7.377 -56.185 -28.952  1.00  0.00     0.138 A 
ATOM      2  C   UNL     1       5.992 -55.971 -28.983  1.00  0.00     0.100 A 
ATOM      3  C   UNL     1       5.201 -56.409 -27.920  1.00  0.00     0.197 A 
ATOM      4  O   UNL     1       3.956 -56.258 -28.005  1.00  0.00    -0.289 OA
ATOM      5  C   UNL     1       5.807 -57.038 -26.806  1.00  0.00     0.107 A 
ATOM      6  C   UNL     1       5.106 -57.489 -25.648  1.00  0.00     0.134 A 
ATOM      7  C   UNL     1       5.795 -58.202 -24.658  1.00  0.00     0.093 A 
ATOM      8  C   UNL     1       7.170 -58.427 -24.758  1.00  0.00     0.123 A 
ATOM      9  C   UNL     1       7.873 -57.943 -25.859  1.00  0.00     0.094 A 
ATOM     10  C   UNL     1       7.208 -57.259 -26.879  1.00  0.00     0.146 A 
ATOM     11  O   UNL     1       7.913 -56.826 -27.919  1.00  0.00    -0.456 OA
ENDROOT
BRANCH   1  12
ATOM     12  C   UNL     1       8.264 -55.739 -30.056  1.00  0.00     0.021 A 
ATOM     13  C   UNL     1       8.932 -54.500 -30.013  1.00  0.00     0.016 A 
ATOM     14  C   UNL     1       9.770 -54.111 -31.060  1.00  0.00     0.051 A 
ATOM     15  C   UNL     1       9.962 -54.951 -32.164  1.00  0.00     0.157 A 
ATOM     16  C   UNL     1       8.473 -56.584 -31.161  1.00  0.00     0.062 A 
ATOM     17  C   UNL     1       9.312 -56.195 -32.212  1.00  0.00     0.158 A 
BRANCH  15  18
ATOM     18  O   UNL     1      10.798 -54.558 -33.208  1.00  0.00    -0.504 OA
ATOM     19  H   UNL     1      11.172 -53.618 -33.263  1.00  0.00     0.293 HD
ENDBRANCH  15  18
BRANCH  17  20
ATOM     20  O   UNL     1       9.484 -57.057 -33.294  1.00  0.00    -0.504 OA
ATOM     21  H   UNL     1       8.824 -57.096 -34.062  1.00  0.00     0.293 HD
ENDBRANCH  17  20
ENDBRANCH   1  12
BRANCH   6  22
ATOM     22  O   UNL     1       3.751 -57.243 -25.409  1.00  0.00    -0.507 OA
ATOM     23  H   UNL     1       3.201 -57.692 -24.693  1.00  0.00     0.293 HD
ENDBRANCH   6  22
BRANCH   8  24
ATOM     24  O   UNL     1       7.850 -59.124 -23.761  1.00  0.00    -0.508 OA
ATOM     25  H   UNL     1       7.842 -60.137 -23.722  1.00  0.00     0.293 HD
ENDBRANCH   8  24
TORSDOF 5
ENDMDL
MODEL 8
REMARK VINA RESULT:    -7.201      2.868      4.556
REMARK INTER + INTRA:          -8.778
REMARK INTER:                  -8.516
REMARK INTRA:                  -0.262
REMARK UNBOUND:                -0.315
REMARK SMILES O=c1cc(-c2ccc(O)c(O)c2)oc2cc(O)cc(O)c12
REMARK SMILES IDX 4 1 3 2 2 3 1 4 21 5 19 6 18 7 16 8 15 9 14 10 13 11 5 12
REMARK SMILES IDX 6 13 7 14 8 15 12 16 10 17 9 18 11 20 20 22 17 24
REMARK H PARENT 9 19 11 21 20 23 17 25
REMARK Flexibility Score: inf
ROOT
ATOM      1  C   UNL     1       3.430 -55.492 -26.400  1.00  0.00     0.138 A 
ATOM      2  C   UNL     1       2.796 -56.596 -25.815  1.00  0.00     0.100 A 
ATOM      3  C   UNL     1       2.054 -56.426 -24.644  1.00  0.00     0.197 A 
ATOM      4  O   UNL     1       1.548 -57.446 -24.109  1.00  0.00    -0.289 OA
ATOM      5  C   UNL     1       1.923 -55.137 -24.076  1.00  0.00     0.107 A 
ATOM      6  C   UNL     1       1.159 -54.837 -22.909  1.00  0.00     0.134 A 
ATOM      7  C   UNL     1       1.197 -53.544 -22.372  1.00  0.00     0.093 A 
ATOM      8  C   UNL     1       1.924 -52.527 -22.995  1.00  0.00     0.123 A 
ATOM      9  C   UNL     1       2.629 -52.796 -24.165  1.00  0.00     0.094 A 
ATOM     10  C   UNL     1       2.639 -54.084 -24.706  1.00  0.00     0.146 A 
ATOM     11  O   UNL     1       3.336 -54.302 -25.816  1.00  0.00    -0.456 OA
ENDROOT
BRANCH   1  12
ATOM     12  C   UNL     1       4.231 -55.617 -27.644  1.00  0.00     0.021 A 
ATOM     13  C   UNL     1       3.715 -55.232 -28.897  1.00  0.00     0.016 A 
ATOM     14  C   UNL     1       4.494 -55.350 -30.050  1.00  0.00     0.051 A 
ATOM     15  C   UNL     1       5.802 -55.845 -29.974  1.00  0.00     0.157 A 
ATOM     16  C   UNL     1       5.550 -56.100 -27.574  1.00  0.00     0.062 A 
ATOM     17  C   UNL     1       6.332 -56.219 -28.728  1.00  0.00     0.158 A 
BRANCH  15  18
ATOM     18  O   UNL     1       6.576 -55.963 -31.127  1.00  0.00    -0.504 OA
ATOM     19  H   UNL     1       7.579 -55.822 -31.110  1.00  0.00     0.293 HD
ENDBRANCH  15  18
BRANCH  17  20
ATOM     20  O   UNL     1       7.631 -56.713 -28.617  1.00  0.00    -0.504 OA
ATOM     21  H   UNL     1       8.134 -57.089 -29.413  1.00  0.00     0.293 HD
ENDBRANCH  17  20
ENDBRANCH   1  12
BRANCH   6  22
ATOM     22  O   UNL     1       0.332 -55.758 -22.258  1.00  0.00    -0.507 OA
ATOM     23  H   UNL     1       0.659 -56.556 -21.733  1.00  0.00     0.293 HD
ENDBRANCH   6  22
BRANCH   8  24
ATOM     24  O   UNL     1       1.943 -51.239 -22.462  1.00  0.00    -0.508 OA
ATOM     25  H   UNL     1       1.192 -50.898 -21.873  1.00  0.00     0.293 HD
ENDBRANCH   8  24
TORSDOF 5
ENDMDL
MODEL 9
REMARK VINA RESULT:    -7.051      2.772      4.713
REMARK INTER + INTRA:          -8.603
REMARK INTER:                  -8.308
REMARK INTRA:                  -0.295
REMARK UNBOUND:                -0.315
REMARK SMILES O=c1cc(-c2ccc(O)c(O)c2)oc2cc(O)cc(O)c12
REMARK SMILES IDX 4 1 3 2 2 3 1 4 21 5 19 6 18 7 16 8 15 9 14 10 13 11 5 12
REMARK SMILES IDX 6 13 7 14 8 15 12 16 10 17 9 18 11 20 20 22 17 24
REMARK H PARENT 9 19 11 21 20 23 17 25
REMARK Flexibility Score: inf
ROOT
ATOM      1  C   UNL     1       3.297 -55.586 -26.745  1.00  0.00     0.138 A 
ATOM      2  C   UNL     1       3.709 -55.956 -25.458  1.00  0.00     0.100 A 
ATOM      3  C   UNL     1       2.817 -55.849 -24.389  1.00  0.00     0.197 A 
ATOM      4  O   UNL     1       3.236 -56.130 -23.237  1.00  0.00    -0.289 OA
ATOM      5  C   UNL     1       1.496 -55.399 -24.619  1.00  0.00     0.107 A 
ATOM      6  C   UNL     1       0.489 -55.290 -23.614  1.00  0.00     0.134 A 
ATOM      7  C   UNL     1      -0.750 -54.721 -23.938  1.00  0.00     0.093 A 
ATOM      8  C   UNL     1      -1.038 -54.315 -25.243  1.00  0.00     0.123 A 
ATOM      9  C   UNL     1      -0.080 -54.468 -26.242  1.00  0.00     0.094 A 
ATOM     10  C   UNL     1       1.176 -54.999 -25.944  1.00  0.00     0.146 A 
ATOM     11  O   UNL     1       2.067 -55.115 -26.924  1.00  0.00    -0.456 OA
ENDROOT
BRANCH   1  12
ATOM     12  C   UNL     1       4.204 -55.680 -27.917  1.00  0.00     0.021 A 
ATOM     13  C   UNL     1       3.786 -55.305 -29.208  1.00  0.00     0.016 A 
ATOM     14  C   UNL     1       4.664 -55.393 -30.290  1.00  0.00     0.051 A 
ATOM     15  C   UNL     1       5.976 -55.849 -30.103  1.00  0.00     0.157 A 
ATOM     16  C   UNL     1       5.527 -56.123 -27.734  1.00  0.00     0.062 A 
ATOM     17  C   UNL     1       6.408 -56.213 -28.818  1.00  0.00     0.158 A 
BRANCH  15  18
ATOM     18  O   UNL     1       6.849 -55.937 -31.186  1.00  0.00    -0.504 OA
ATOM     19  H   UNL     1       6.509 -56.051 -32.134  1.00  0.00     0.293 HD
ENDBRANCH  15  18
BRANCH  17  20
ATOM     20  O   UNL     1       7.708 -56.666 -28.596  1.00  0.00    -0.504 OA
ATOM     21  H   UNL     1       8.391 -56.117 -28.086  1.00  0.00     0.293 HD
ENDBRANCH  17  20
ENDBRANCH   1  12
BRANCH   6  22
ATOM     22  O   UNL     1       0.643 -55.743 -22.301  1.00  0.00    -0.507 OA
ATOM     23  H   UNL     1       1.473 -56.185 -21.937  1.00  0.00     0.293 HD
ENDBRANCH   6  22
BRANCH   8  24
ATOM     24  O   UNL     1      -2.279 -53.766 -25.559  1.00  0.00    -0.508 OA
ATOM     25  H   UNL     1      -2.667 -52.994 -25.029  1.00  0.00     0.293 HD
ENDBRANCH   8  24
TORSDOF 5
ENDMDL
