MODEL 1
REMARK VINA RESULT:    -6.517      0.000      0.000
REMARK INTER + INTRA:         -10.657
REMARK INTER:                  -9.374
REMARK INTRA:                  -1.283
REMARK UNBOUND:                -1.283
REMARK SMILES O=c1c(O[C@@H]2O[C@@H](CO)[C@@H](O)[C@H](O)[C@H]2O)c(-c2ccc(O)cc2)oc2cc(O)cc(O)c12
REMARK SMILES IDX 4 1 3 2 16 3 24 4 2 5 25 6 1 7 32 8 26 9 30 10 27 11 29 12
REMARK SMILES IDX 17 13 18 14 19 15 20 16 23 17 22 18 21 19 31 21 28 23 5 25
REMARK SMILES IDX 14 26 6 27 12 28 7 29 10 30 15 31 13 33 8 35 9 36 11 38
REMARK H PARENT 21 20 31 22 28 24 15 32 13 34 9 37 11 39
REMARK Flexibility Score: inf
ROOT
ATOM      1  O   UNL     1      15.192  37.534 122.041  1.00  0.00    -0.454 OA
ENDROOT
BRANCH   1   2
ATOM      2  C   UNL     1      14.299  37.590 123.124  1.00  0.00     0.214 A 
ATOM      3  C   UNL     1      13.367  36.555 123.327  1.00  0.00     0.180 A 
ATOM      4  O   UNL     1      12.459  36.655 124.293  1.00  0.00    -0.452 OA
ATOM      5  C   UNL     1      14.311  38.669 124.026  1.00  0.00     0.239 A 
ATOM      6  C   UNL     1      12.401  37.681 125.133  1.00  0.00     0.146 A 
ATOM      7  O   UNL     1      15.205  39.553 123.929  1.00  0.00    -0.285 OA
ATOM      8  C   UNL     1      13.338  38.737 125.045  1.00  0.00     0.111 A 
ATOM      9  C   UNL     1      11.407  37.701 126.117  1.00  0.00     0.094 A 
ATOM     10  C   UNL     1      13.262  39.806 125.971  1.00  0.00     0.134 A 
ATOM     11  C   UNL     1      11.334  38.758 127.026  1.00  0.00     0.123 A 
ATOM     12  C   UNL     1      12.260  39.806 126.953  1.00  0.00     0.093 A 
BRANCH   3  13
ATOM     13  C   UNL     1      13.346  35.351 122.475  1.00  0.00     0.021 A 
ATOM     14  C   UNL     1      12.595  35.349 121.290  1.00  0.00     0.016 A 
ATOM     15  C   UNL     1      12.588  34.222 120.462  1.00  0.00     0.047 A 
ATOM     16  C   UNL     1      13.315  33.082 120.819  1.00  0.00     0.115 A 
ATOM     17  C   UNL     1      14.055  34.195 122.843  1.00  0.00     0.016 A 
ATOM     18  C   UNL     1      14.046  33.070 122.015  1.00  0.00     0.047 A 
BRANCH  16  19
ATOM     19  O   UNL     1      13.303  31.970 119.982  1.00  0.00    -0.508 OA
ATOM     20  H   UNL     1      12.852  31.995 119.076  1.00  0.00     0.293 HD
ENDBRANCH  16  19
ENDBRANCH   3  13
BRANCH  10  21
ATOM     21  O   UNL     1      14.166  40.867 125.921  1.00  0.00    -0.507 OA
ATOM     22  H   UNL     1      13.858  41.830 125.841  1.00  0.00     0.293 HD
ENDBRANCH  10  21
BRANCH  11  23
ATOM     23  O   UNL     1      10.337  38.760 128.001  1.00  0.00    -0.508 OA
ATOM     24  H   UNL     1       9.405  38.415 127.806  1.00  0.00     0.293 HD
ENDBRANCH  11  23
ENDBRANCH   1   2
BRANCH   1  25
ATOM     25  C   UNL     1      16.456  36.858 122.107  1.00  0.00     0.339 C 
ATOM     26  C   UNL     1      16.889  36.335 120.717  1.00  0.00     0.214 C 
ATOM     27  O   UNL     1      17.445  37.677 122.714  1.00  0.00    -0.332 OA
ATOM     28  C   UNL     1      17.467  37.448 119.805  1.00  0.00     0.180 C 
ATOM     29  C   UNL     1      17.722  38.825 121.929  1.00  0.00     0.179 C 
ATOM     30  C   UNL     1      18.371  38.435 120.579  1.00  0.00     0.177 C 
BRANCH  26  31
ATOM     31  O   UNL     1      17.847  35.322 120.895  1.00  0.00    -0.384 OA
ATOM     32  H   UNL     1      17.353  34.487 121.106  1.00  0.00     0.211 HD
ENDBRANCH  26  31
BRANCH  28  33
ATOM     33  O   UNL     1      16.444  38.127 119.118  1.00  0.00    -0.387 OA
ATOM     34  H   UNL     1      15.574  37.779 119.438  1.00  0.00     0.211 HD
ENDBRANCH  28  33
BRANCH  29  35
ATOM     35  C   UNL     1      18.596  39.797 122.735  1.00  0.00     0.191 C 
BRANCH  35  36
ATOM     36  O   UNL     1      19.543  39.100 123.497  1.00  0.00    -0.394 OA
ATOM     37  H   UNL     1      19.045  38.705 124.259  1.00  0.00     0.210 HD
ENDBRANCH  35  36
ENDBRANCH  29  35
BRANCH  30  38
ATOM     38  O   UNL     1      19.661  37.898 120.751  1.00  0.00    -0.387 OA
ATOM     39  H   UNL     1      19.601  36.914 120.652  1.00  0.00     0.211 HD
ENDBRANCH  30  38
ENDBRANCH   1  25
TORSDOF 11
ENDMDL
MODEL 2
REMARK VINA RESULT:    -6.412      2.066      3.077
REMARK INTER + INTRA:         -10.507
REMARK INTER:                  -9.138
REMARK INTRA:                  -1.369
REMARK UNBOUND:                -1.283
REMARK SMILES O=c1c(O[C@@H]2O[C@@H](CO)[C@@H](O)[C@H](O)[C@H]2O)c(-c2ccc(O)cc2)oc2cc(O)cc(O)c12
REMARK SMILES IDX 4 1 3 2 16 3 24 4 2 5 25 6 1 7 32 8 26 9 30 10 27 11 29 12
REMARK SMILES IDX 17 13 18 14 19 15 20 16 23 17 22 18 21 19 31 21 28 23 5 25
REMARK SMILES IDX 14 26 6 27 12 28 7 29 10 30 15 31 13 33 8 35 9 36 11 38
REMARK H PARENT 21 20 31 22 28 24 15 32 13 34 9 37 11 39
REMARK Flexibility Score: inf
ROOT
ATOM      1  O   UNL     1      14.705  37.990 123.658  1.00  0.00    -0.454 OA
ENDROOT
BRANCH   1   2
ATOM      2  C   UNL     1      13.997  38.666 124.666  1.00  0.00     0.214 A 
ATOM      3  C   UNL     1      12.931  38.028 125.330  1.00  0.00     0.180 A 
ATOM      4  O   UNL     1      12.199  38.700 126.214  1.00  0.00    -0.452 OA
ATOM      5  C   UNL     1      14.327  39.981 125.036  1.00  0.00     0.239 A 
ATOM      6  C   UNL     1      12.445  39.960 126.554  1.00  0.00     0.146 A 
ATOM      7  O   UNL     1      15.344  40.533 124.533  1.00  0.00    -0.285 OA
ATOM      8  C   UNL     1      13.535  40.660 125.985  1.00  0.00     0.111 A 
ATOM      9  C   UNL     1      11.617  40.586 127.492  1.00  0.00     0.094 A 
ATOM     10  C   UNL     1      13.781  41.995 126.385  1.00  0.00     0.134 A 
ATOM     11  C   UNL     1      11.863  41.904 127.882  1.00  0.00     0.123 A 
ATOM     12  C   UNL     1      12.943  42.605 127.331  1.00  0.00     0.093 A 
BRANCH   3  13
ATOM     13  C   UNL     1      12.576  36.623 125.058  1.00  0.00     0.021 A 
ATOM     14  C   UNL     1      13.030  35.611 125.917  1.00  0.00     0.016 A 
ATOM     15  C   UNL     1      12.679  34.278 125.683  1.00  0.00     0.047 A 
ATOM     16  C   UNL     1      11.888  33.942 124.579  1.00  0.00     0.115 A 
ATOM     17  C   UNL     1      11.804  36.279 123.936  1.00  0.00     0.016 A 
ATOM     18  C   UNL     1      11.455  34.946 123.703  1.00  0.00     0.047 A 
BRANCH  16  19
ATOM     19  O   UNL     1      11.542  32.611 124.362  1.00  0.00    -0.508 OA
ATOM     20  H   UNL     1      12.142  31.853 124.662  1.00  0.00     0.293 HD
ENDBRANCH  16  19
ENDBRANCH   3  13
BRANCH  10  21
ATOM     21  O   UNL     1      14.846  42.722 125.850  1.00  0.00    -0.507 OA
ATOM     22  H   UNL     1      15.507  42.306 125.205  1.00  0.00     0.293 HD
ENDBRANCH  10  21
BRANCH  11  23
ATOM     23  O   UNL     1      11.029  42.511 128.819  1.00  0.00    -0.508 OA
ATOM     24  H   UNL     1      10.226  43.062 128.536  1.00  0.00     0.293 HD
ENDBRANCH  11  23
ENDBRANCH   1   2
BRANCH   1  25
ATOM     25  C   UNL     1      16.001  37.413 123.870  1.00  0.00     0.339 C 
ATOM     26  C   UNL     1      15.954  35.869 123.775  1.00  0.00     0.214 C 
ATOM     27  O   UNL     1      16.966  37.984 122.998  1.00  0.00    -0.332 OA
ATOM     28  C   UNL     1      15.901  35.355 122.313  1.00  0.00     0.180 C 
ATOM     29  C   UNL     1      16.684  37.680 121.642  1.00  0.00     0.179 C 
ATOM     30  C   UNL     1      16.820  36.163 121.369  1.00  0.00     0.177 C 
BRANCH  26  31
ATOM     31  O   UNL     1      17.085  35.343 124.422  1.00  0.00    -0.384 OA
ATOM     32  H   UNL     1      17.138  34.381 124.181  1.00  0.00     0.211 HD
ENDBRANCH  26  31
BRANCH  28  33
ATOM     33  O   UNL     1      14.579  35.324 121.831  1.00  0.00    -0.387 OA
ATOM     34  H   UNL     1      14.341  34.382 121.643  1.00  0.00     0.211 HD
ENDBRANCH  28  33
BRANCH  29  35
ATOM     35  C   UNL     1      17.592  38.519 120.730  1.00  0.00     0.191 C 
BRANCH  35  36
ATOM     36  O   UNL     1      18.939  38.356 121.083  1.00  0.00    -0.394 OA
ATOM     37  H   UNL     1      18.987  37.508 121.597  1.00  0.00     0.210 HD
ENDBRANCH  35  36
ENDBRANCH  29  35
BRANCH  30  38
ATOM     38  O   UNL     1      18.154  35.726 121.480  1.00  0.00    -0.387 OA
ATOM     39  H   UNL     1      18.459  35.898 122.407  1.00  0.00     0.211 HD
ENDBRANCH  30  38
ENDBRANCH   1  25
TORSDOF 11
ENDMDL
MODEL 3
REMARK VINA RESULT:    -6.238      2.178      6.656
REMARK INTER + INTRA:         -10.256
REMARK INTER:                  -9.038
REMARK INTRA:                  -1.218
REMARK UNBOUND:                -1.283
REMARK SMILES O=c1c(O[C@@H]2O[C@@H](CO)[C@@H](O)[C@H](O)[C@H]2O)c(-c2ccc(O)cc2)oc2cc(O)cc(O)c12
REMARK SMILES IDX 4 1 3 2 16 3 24 4 2 5 25 6 1 7 32 8 26 9 30 10 27 11 29 12
REMARK SMILES IDX 17 13 18 14 19 15 20 16 23 17 22 18 21 19 31 21 28 23 5 25
REMARK SMILES IDX 14 26 6 27 12 28 7 29 10 30 15 31 13 33 8 35 9 36 11 38
REMARK H PARENT 21 20 31 22 28 24 15 32 13 34 9 37 11 39
REMARK Flexibility Score: inf
ROOT
ATOM      1  O   UNL     1      14.547  38.510 124.671  1.00  0.00    -0.454 OA
ENDROOT
BRANCH   1   2
ATOM      2  C   UNL     1      15.113  37.771 123.619  1.00  0.00     0.214 A 
ATOM      3  C   UNL     1      14.671  36.460 123.358  1.00  0.00     0.180 A 
ATOM      4  O   UNL     1      15.273  35.726 122.427  1.00  0.00    -0.452 OA
ATOM      5  C   UNL     1      16.125  38.312 122.807  1.00  0.00     0.239 A 
ATOM      6  C   UNL     1      16.267  36.180 121.673  1.00  0.00     0.146 A 
ATOM      7  O   UNL     1      16.462  39.519 122.950  1.00  0.00    -0.285 OA
ATOM      8  C   UNL     1      16.734  37.507 121.821  1.00  0.00     0.111 A 
ATOM      9  C   UNL     1      16.841  35.332 120.720  1.00  0.00     0.094 A 
ATOM     10  C   UNL     1      17.781  37.966 120.986  1.00  0.00     0.134 A 
ATOM     11  C   UNL     1      17.876  35.790 119.900  1.00  0.00     0.123 A 
ATOM     12  C   UNL     1      18.342  37.103 120.033  1.00  0.00     0.093 A 
BRANCH   3  13
ATOM     13  C   UNL     1      13.558  35.852 124.112  1.00  0.00     0.021 A 
ATOM     14  C   UNL     1      13.776  35.378 125.414  1.00  0.00     0.016 A 
ATOM     15  C   UNL     1      12.723  34.822 126.146  1.00  0.00     0.047 A 
ATOM     16  C   UNL     1      11.449  34.718 125.579  1.00  0.00     0.115 A 
ATOM     17  C   UNL     1      12.284  35.722 123.535  1.00  0.00     0.016 A 
ATOM     18  C   UNL     1      11.233  35.165 124.268  1.00  0.00     0.047 A 
BRANCH  16  19
ATOM     19  O   UNL     1      10.408  34.167 126.323  1.00  0.00    -0.508 OA
ATOM     20  H   UNL     1       9.653  33.659 125.880  1.00  0.00     0.293 HD
ENDBRANCH  16  19
ENDBRANCH   3  13
BRANCH  10  21
ATOM     21  O   UNL     1      18.272  39.268 121.098  1.00  0.00    -0.507 OA
ATOM     22  H   UNL     1      17.752  40.067 120.753  1.00  0.00     0.293 HD
ENDBRANCH  10  21
BRANCH  11  23
ATOM     23  O   UNL     1      18.434  34.931 118.955  1.00  0.00    -0.508 OA
ATOM     24  H   UNL     1      19.300  35.157 118.479  1.00  0.00     0.293 HD
ENDBRANCH  11  23
ENDBRANCH   1   2
BRANCH   1  25
ATOM     25  C   UNL     1      13.313  39.230 124.542  1.00  0.00     0.339 C 
ATOM     26  C   UNL     1      12.231  38.669 125.496  1.00  0.00     0.214 C 
ATOM     27  O   UNL     1      13.513  40.626 124.704  1.00  0.00    -0.332 OA
ATOM     28  C   UNL     1      12.417  39.138 126.962  1.00  0.00     0.180 C 
ATOM     29  C   UNL     1      13.945  40.940 126.018  1.00  0.00     0.179 C 
ATOM     30  C   UNL     1      12.845  40.620 127.059  1.00  0.00     0.177 C 
BRANCH  26  31
ATOM     31  O   UNL     1      10.967  39.067 125.028  1.00  0.00    -0.384 OA
ATOM     32  H   UNL     1      10.730  38.461 124.277  1.00  0.00     0.211 HD
ENDBRANCH  26  31
BRANCH  28  33
ATOM     33  O   UNL     1      13.315  38.304 127.654  1.00  0.00    -0.387 OA
ATOM     34  H   UNL     1      12.788  37.660 128.189  1.00  0.00     0.211 HD
ENDBRANCH  28  33
BRANCH  29  35
ATOM     35  C   UNL     1      14.389  42.409 126.073  1.00  0.00     0.191 C 
BRANCH  35  36
ATOM     36  O   UNL     1      14.013  42.997 127.288  1.00  0.00    -0.394 OA
ATOM     37  H   UNL     1      13.053  43.232 127.193  1.00  0.00     0.210 HD
ENDBRANCH  35  36
ENDBRANCH  29  35
BRANCH  30  38
ATOM     38  O   UNL     1      11.729  41.469 126.923  1.00  0.00    -0.387 OA
ATOM     39  H   UNL     1      10.912  40.932 127.082  1.00  0.00     0.211 HD
ENDBRANCH  30  38
ENDBRANCH   1  25
TORSDOF 11
ENDMDL
MODEL 4
REMARK VINA RESULT:    -6.156      1.396      2.244
REMARK INTER + INTRA:         -10.139
REMARK INTER:                  -8.724
REMARK INTRA:                  -1.415
REMARK UNBOUND:                -1.283
REMARK SMILES O=c1c(O[C@@H]2O[C@@H](CO)[C@@H](O)[C@H](O)[C@H]2O)c(-c2ccc(O)cc2)oc2cc(O)cc(O)c12
REMARK SMILES IDX 4 1 3 2 16 3 24 4 2 5 25 6 1 7 32 8 26 9 30 10 27 11 29 12
REMARK SMILES IDX 17 13 18 14 19 15 20 16 23 17 22 18 21 19 31 21 28 23 5 25
REMARK SMILES IDX 14 26 6 27 12 28 7 29 10 30 15 31 13 33 8 35 9 36 11 38
REMARK H PARENT 21 20 31 22 28 24 15 32 13 34 9 37 11 39
REMARK Flexibility Score: inf
ROOT
ATOM      1  O   UNL     1      15.205  36.261 122.381  1.00  0.00    -0.454 OA
ENDROOT
BRANCH   1   2
ATOM      2  C   UNL     1      14.083  36.355 123.222  1.00  0.00     0.214 A 
ATOM      3  C   UNL     1      12.962  35.533 122.998  1.00  0.00     0.180 A 
ATOM      4  O   UNL     1      11.864  35.690 123.732  1.00  0.00    -0.452 OA
ATOM      5  C   UNL     1      14.048  37.261 124.296  1.00  0.00     0.239 A 
ATOM      6  C   UNL     1      11.770  36.569 124.722  1.00  0.00     0.146 A 
ATOM      7  O   UNL     1      15.079  37.929 124.582  1.00  0.00    -0.285 OA
ATOM      8  C   UNL     1      12.870  37.393 125.059  1.00  0.00     0.111 A 
ATOM      9  C   UNL     1      10.572  36.664 125.437  1.00  0.00     0.094 A 
ATOM     10  C   UNL     1      12.743  38.305 126.135  1.00  0.00     0.134 A 
ATOM     11  C   UNL     1      10.451  37.568 126.496  1.00  0.00     0.123 A 
ATOM     12  C   UNL     1      11.535  38.383 126.843  1.00  0.00     0.093 A 
BRANCH   3  13
ATOM     13  C   UNL     1      12.953  34.501 121.944  1.00  0.00     0.021 A 
ATOM     14  C   UNL     1      12.036  34.594 120.887  1.00  0.00     0.016 A 
ATOM     15  C   UNL     1      12.035  33.635 119.869  1.00  0.00     0.047 A 
ATOM     16  C   UNL     1      12.936  32.566 119.909  1.00  0.00     0.115 A 
ATOM     17  C   UNL     1      13.839  33.413 121.994  1.00  0.00     0.016 A 
ATOM     18  C   UNL     1      13.836  32.454 120.977  1.00  0.00     0.047 A 
BRANCH  16  19
ATOM     19  O   UNL     1      12.927  31.622 118.885  1.00  0.00    -0.508 OA
ATOM     20  H   UNL     1      13.276  31.841 117.960  1.00  0.00     0.293 HD
ENDBRANCH  16  19
ENDBRANCH   3  13
BRANCH  10  21
ATOM     21  O   UNL     1      13.803  39.136 126.502  1.00  0.00    -0.507 OA
ATOM     22  H   UNL     1      13.805  40.127 126.288  1.00  0.00     0.293 HD
ENDBRANCH  10  21
BRANCH  11  23
ATOM     23  O   UNL     1       9.250  37.647 127.198  1.00  0.00    -0.508 OA
ATOM     24  H   UNL     1       8.360  37.472 126.747  1.00  0.00     0.293 HD
ENDBRANCH  11  23
ENDBRANCH   1   2
BRANCH   1  25
ATOM     25  C   UNL     1      15.210  36.745 121.031  1.00  0.00     0.339 C 
ATOM     26  C   UNL     1      15.368  38.284 120.983  1.00  0.00     0.214 C 
ATOM     27  O   UNL     1      16.184  36.072 120.247  1.00  0.00    -0.332 OA
ATOM     28  C   UNL     1      16.830  38.748 121.216  1.00  0.00     0.180 C 
ATOM     29  C   UNL     1      17.498  36.347 120.704  1.00  0.00     0.179 C 
ATOM     30  C   UNL     1      17.858  37.839 120.504  1.00  0.00     0.177 C 
BRANCH  26  31
ATOM     31  O   UNL     1      14.917  38.745 119.736  1.00  0.00    -0.384 OA
ATOM     32  H   UNL     1      14.058  38.284 119.547  1.00  0.00     0.211 HD
ENDBRANCH  26  31
BRANCH  28  33
ATOM     33  O   UNL     1      17.117  38.862 122.589  1.00  0.00    -0.387 OA
ATOM     34  H   UNL     1      18.096  38.958 122.692  1.00  0.00     0.211 HD
ENDBRANCH  28  33
BRANCH  29  35
ATOM     35  C   UNL     1      18.491  35.410 120.001  1.00  0.00     0.191 C 
BRANCH  35  36
ATOM     36  O   UNL     1      19.780  35.960 120.000  1.00  0.00    -0.394 OA
ATOM     37  H   UNL     1      20.325  35.382 119.405  1.00  0.00     0.210 HD
ENDBRANCH  35  36
ENDBRANCH  29  35
BRANCH  30  38
ATOM     38  O   UNL     1      17.961  38.178 119.141  1.00  0.00    -0.387 OA
ATOM     39  H   UNL     1      17.050  38.172 118.752  1.00  0.00     0.211 HD
ENDBRANCH  30  38
ENDBRANCH   1  25
TORSDOF 11
ENDMDL
MODEL 5
REMARK VINA RESULT:    -6.143      1.573      2.892
REMARK INTER + INTRA:         -10.120
REMARK INTER:                  -8.956
REMARK INTRA:                  -1.164
REMARK UNBOUND:                -1.283
REMARK SMILES O=c1c(O[C@@H]2O[C@@H](CO)[C@@H](O)[C@H](O)[C@H]2O)c(-c2ccc(O)cc2)oc2cc(O)cc(O)c12
REMARK SMILES IDX 4 1 3 2 16 3 24 4 2 5 25 6 1 7 32 8 26 9 30 10 27 11 29 12
REMARK SMILES IDX 17 13 18 14 19 15 20 16 23 17 22 18 21 19 31 21 28 23 5 25
REMARK SMILES IDX 14 26 6 27 12 28 7 29 10 30 15 31 13 33 8 35 9 36 11 38
REMARK H PARENT 21 20 31 22 28 24 15 32 13 34 9 37 11 39
REMARK Flexibility Score: inf
ROOT
ATOM      1  O   UNL     1      15.212  38.192 124.075  1.00  0.00    -0.454 OA
ENDROOT
BRANCH   1   2
ATOM      2  C   UNL     1      14.125  38.402 124.940  1.00  0.00     0.214 A 
ATOM      3  C   UNL     1      13.125  37.419 125.070  1.00  0.00     0.180 A 
ATOM      4  O   UNL     1      12.049  37.658 125.813  1.00  0.00    -0.452 OA
ATOM      5  C   UNL     1      14.007  39.583 125.693  1.00  0.00     0.239 A 
ATOM      6  C   UNL     1      11.872  38.781 126.498  1.00  0.00     0.146 A 
ATOM      7  O   UNL     1      14.942  40.429 125.676  1.00  0.00    -0.285 OA
ATOM      8  C   UNL     1      12.856  39.798 126.479  1.00  0.00     0.111 A 
ATOM      9  C   UNL     1      10.705  38.944 127.251  1.00  0.00     0.094 A 
ATOM     10  C   UNL     1      12.646  40.975 127.238  1.00  0.00     0.134 A 
ATOM     11  C   UNL     1      10.501  40.108 127.996  1.00  0.00     0.123 A 
ATOM     12  C   UNL     1      11.470  41.118 127.990  1.00  0.00     0.093 A 
BRANCH   3  13
ATOM     13  C   UNL     1      13.219  36.120 124.379  1.00  0.00     0.021 A 
ATOM     14  C   UNL     1      12.520  35.917 123.179  1.00  0.00     0.016 A 
ATOM     15  C   UNL     1      12.621  34.698 122.503  1.00  0.00     0.047 A 
ATOM     16  C   UNL     1      13.406  33.665 123.027  1.00  0.00     0.115 A 
ATOM     17  C   UNL     1      13.985  35.072 124.915  1.00  0.00     0.016 A 
ATOM     18  C   UNL     1      14.084  33.853 124.238  1.00  0.00     0.047 A 
BRANCH  16  19
ATOM     19  O   UNL     1      13.501  32.458 122.338  1.00  0.00    -0.508 OA
ATOM     20  H   UNL     1      13.904  31.635 122.768  1.00  0.00     0.293 HD
ENDBRANCH  16  19
ENDBRANCH   3  13
BRANCH  10  21
ATOM     21  O   UNL     1      13.590  42.003 127.248  1.00  0.00    -0.507 OA
ATOM     22  H   UNL     1      14.329  42.057 126.556  1.00  0.00     0.293 HD
ENDBRANCH  10  21
BRANCH  11  23
ATOM     23  O   UNL     1       9.332  40.252 128.741  1.00  0.00    -0.508 OA
ATOM     24  H   UNL     1       8.896  39.461 129.202  1.00  0.00     0.293 HD
ENDBRANCH  11  23
ENDBRANCH   1   2
BRANCH   1  25
ATOM     25  C   UNL     1      15.619  39.151 123.088  1.00  0.00     0.339 C 
ATOM     26  C   UNL     1      17.125  39.018 122.758  1.00  0.00     0.214 C 
ATOM     27  O   UNL     1      14.798  39.077 121.932  1.00  0.00    -0.332 OA
ATOM     28  C   UNL     1      17.433  37.828 121.812  1.00  0.00     0.180 C 
ATOM     29  C   UNL     1      14.948  37.833 121.268  1.00  0.00     0.179 C 
ATOM     30  C   UNL     1      16.376  37.674 120.694  1.00  0.00     0.177 C 
BRANCH  26  31
ATOM     31  O   UNL     1      17.566  40.216 122.173  1.00  0.00    -0.384 OA
ATOM     32  H   UNL     1      16.951  40.416 121.418  1.00  0.00     0.211 HD
ENDBRANCH  26  31
BRANCH  28  33
ATOM     33  O   UNL     1      17.588  36.630 122.534  1.00  0.00    -0.387 OA
ATOM     34  H   UNL     1      16.713  36.395 122.932  1.00  0.00     0.211 HD
ENDBRANCH  28  33
BRANCH  29  35
ATOM     35  C   UNL     1      13.868  37.698 120.184  1.00  0.00     0.191 C 
BRANCH  35  36
ATOM     36  O   UNL     1      14.278  36.810 119.180  1.00  0.00    -0.394 OA
ATOM     37  H   UNL     1      15.073  37.225 118.756  1.00  0.00     0.210 HD
ENDBRANCH  35  36
ENDBRANCH  29  35
BRANCH  30  38
ATOM     38  O   UNL     1      16.627  38.580 119.646  1.00  0.00    -0.387 OA
ATOM     39  H   UNL     1      17.149  39.338 120.012  1.00  0.00     0.211 HD
ENDBRANCH  30  38
ENDBRANCH   1  25
TORSDOF 11
ENDMDL
MODEL 6
REMARK VINA RESULT:    -6.081      2.302      3.519
REMARK INTER + INTRA:         -10.030
REMARK INTER:                  -8.760
REMARK INTRA:                  -1.270
REMARK UNBOUND:                -1.283
REMARK SMILES O=c1c(O[C@@H]2O[C@@H](CO)[C@@H](O)[C@H](O)[C@H]2O)c(-c2ccc(O)cc2)oc2cc(O)cc(O)c12
REMARK SMILES IDX 4 1 3 2 16 3 24 4 2 5 25 6 1 7 32 8 26 9 30 10 27 11 29 12
REMARK SMILES IDX 17 13 18 14 19 15 20 16 23 17 22 18 21 19 31 21 28 23 5 25
REMARK SMILES IDX 14 26 6 27 12 28 7 29 10 30 15 31 13 33 8 35 9 36 11 38
REMARK H PARENT 21 20 31 22 28 24 15 32 13 34 9 37 11 39
REMARK Flexibility Score: inf
ROOT
ATOM      1  O   UNL     1      14.295  38.014 124.577  1.00  0.00    -0.454 OA
ENDROOT
BRANCH   1   2
ATOM      2  C   UNL     1      13.413  38.572 125.518  1.00  0.00     0.214 A 
ATOM      3  C   UNL     1      12.316  37.826 125.989  1.00  0.00     0.180 A 
ATOM      4  O   UNL     1      11.428  38.387 126.804  1.00  0.00    -0.452 OA
ATOM      5  C   UNL     1      13.599  39.875 126.011  1.00  0.00     0.239 A 
ATOM      6  C   UNL     1      11.537  39.632 127.251  1.00  0.00     0.146 A 
ATOM      7  O   UNL     1      14.632  40.523 125.688  1.00  0.00    -0.285 OA
ATOM      8  C   UNL     1      12.642  40.436 126.882  1.00  0.00     0.111 A 
ATOM      9  C   UNL     1      10.551  40.139 128.104  1.00  0.00     0.094 A 
ATOM     10  C   UNL     1      12.739  41.752 127.395  1.00  0.00     0.134 A 
ATOM     11  C   UNL     1      10.650  41.438 128.605  1.00  0.00     0.123 A 
ATOM     12  C   UNL     1      11.741  42.241 128.252  1.00  0.00     0.093 A 
BRANCH   3  13
ATOM     13  C   UNL     1      12.099  36.424 125.584  1.00  0.00     0.021 A 
ATOM     14  C   UNL     1      10.852  36.030 125.077  1.00  0.00     0.016 A 
ATOM     15  C   UNL     1      10.643  34.710 124.667  1.00  0.00     0.047 A 
ATOM     16  C   UNL     1      11.671  33.768 124.776  1.00  0.00     0.115 A 
ATOM     17  C   UNL     1      13.121  35.470 125.716  1.00  0.00     0.016 A 
ATOM     18  C   UNL     1      12.911  34.150 125.307  1.00  0.00     0.047 A 
BRANCH  16  19
ATOM     19  O   UNL     1      11.450  32.458 124.358  1.00  0.00    -0.508 OA
ATOM     20  H   UNL     1      10.659  31.922 124.695  1.00  0.00     0.293 HD
ENDBRANCH  16  19
ENDBRANCH   3  13
BRANCH  10  21
ATOM     21  O   UNL     1      13.812  42.578 127.057  1.00  0.00    -0.507 OA
ATOM     22  H   UNL     1      13.702  43.580 126.951  1.00  0.00     0.293 HD
ENDBRANCH  10  21
BRANCH  11  23
ATOM     23  O   UNL     1       9.658  41.925 129.455  1.00  0.00    -0.508 OA
ATOM     24  H   UNL     1       9.628  41.672 130.435  1.00  0.00     0.293 HD
ENDBRANCH  11  23
ENDBRANCH   1   2
BRANCH   1  25
ATOM     25  C   UNL     1      13.991  37.933 123.178  1.00  0.00     0.339 C 
ATOM     26  C   UNL     1      14.376  39.238 122.440  1.00  0.00     0.214 C 
ATOM     27  O   UNL     1      14.579  36.781 122.591  1.00  0.00    -0.332 OA
ATOM     28  C   UNL     1      15.897  39.349 122.162  1.00  0.00     0.180 C 
ATOM     29  C   UNL     1      15.995  36.848 122.621  1.00  0.00     0.179 C 
ATOM     30  C   UNL     1      16.519  38.001 121.730  1.00  0.00     0.177 C 
BRANCH  26  31
ATOM     31  O   UNL     1      13.667  39.297 121.229  1.00  0.00    -0.384 OA
ATOM     32  H   UNL     1      13.218  40.183 121.196  1.00  0.00     0.211 HD
ENDBRANCH  26  31
BRANCH  28  33
ATOM     33  O   UNL     1      16.579  39.891 123.268  1.00  0.00    -0.387 OA
ATOM     34  H   UNL     1      17.492  39.510 123.284  1.00  0.00     0.211 HD
ENDBRANCH  28  33
BRANCH  29  35
ATOM     35  C   UNL     1      16.581  35.488 122.215  1.00  0.00     0.191 C 
BRANCH  35  36
ATOM     36  O   UNL     1      17.828  35.647 121.596  1.00  0.00    -0.394 OA
ATOM     37  H   UNL     1      18.297  34.778 121.698  1.00  0.00     0.210 HD
ENDBRANCH  35  36
ENDBRANCH  29  35
BRANCH  30  38
ATOM     38  O   UNL     1      16.281  37.760 120.364  1.00  0.00    -0.387 OA
ATOM     39  H   UNL     1      16.563  38.562 119.855  1.00  0.00     0.211 HD
ENDBRANCH  30  38
ENDBRANCH   1  25
TORSDOF 11
ENDMDL
MODEL 7
REMARK VINA RESULT:    -6.048      1.991      3.055
REMARK INTER + INTRA:          -9.983
REMARK INTER:                  -8.469
REMARK INTRA:                  -1.514
REMARK UNBOUND:                -1.283
REMARK SMILES O=c1c(O[C@@H]2O[C@@H](CO)[C@@H](O)[C@H](O)[C@H]2O)c(-c2ccc(O)cc2)oc2cc(O)cc(O)c12
REMARK SMILES IDX 4 1 3 2 16 3 24 4 2 5 25 6 1 7 32 8 26 9 30 10 27 11 29 12
REMARK SMILES IDX 17 13 18 14 19 15 20 16 23 17 22 18 21 19 31 21 28 23 5 25
REMARK SMILES IDX 14 26 6 27 12 28 7 29 10 30 15 31 13 33 8 35 9 36 11 38
REMARK H PARENT 21 20 31 22 28 24 15 32 13 34 9 37 11 39
REMARK Flexibility Score: inf
ROOT
ATOM      1  O   UNL     1      14.359  36.510 123.456  1.00  0.00    -0.454 OA
ENDROOT
BRANCH   1   2
ATOM      2  C   UNL     1      13.270  36.909 124.249  1.00  0.00     0.214 A 
ATOM      3  C   UNL     1      11.953  36.635 123.832  1.00  0.00     0.180 A 
ATOM      4  O   UNL     1      10.922  37.097 124.533  1.00  0.00    -0.452 OA
ATOM      5  C   UNL     1      13.461  37.586 125.466  1.00  0.00     0.239 A 
ATOM      6  C   UNL     1      11.058  37.785 125.660  1.00  0.00     0.146 A 
ATOM      7  O   UNL     1      14.629  37.747 125.913  1.00  0.00    -0.285 OA
ATOM      8  C   UNL     1      12.343  38.053 126.189  1.00  0.00     0.111 A 
ATOM      9  C   UNL     1       9.914  38.235 126.327  1.00  0.00     0.094 A 
ATOM     10  C   UNL     1      12.452  38.772 127.404  1.00  0.00     0.134 A 
ATOM     11  C   UNL     1      10.027  38.945 127.524  1.00  0.00     0.123 A 
ATOM     12  C   UNL     1      11.293  39.210 128.060  1.00  0.00     0.093 A 
BRANCH   3  13
ATOM     13  C   UNL     1      11.672  35.858 122.611  1.00  0.00     0.021 A 
ATOM     14  C   UNL     1      11.117  36.497 121.491  1.00  0.00     0.016 A 
ATOM     15  C   UNL     1      10.869  35.776 120.319  1.00  0.00     0.047 A 
ATOM     16  C   UNL     1      11.155  34.408 120.261  1.00  0.00     0.115 A 
ATOM     17  C   UNL     1      11.933  34.479 122.557  1.00  0.00     0.016 A 
ATOM     18  C   UNL     1      11.684  33.759 121.386  1.00  0.00     0.047 A 
BRANCH  16  19
ATOM     19  O   UNL     1      10.908  33.704 119.085  1.00  0.00    -0.508 OA
ATOM     20  H   UNL     1      10.027  33.230 118.928  1.00  0.00     0.293 HD
ENDBRANCH  16  19
ENDBRANCH   3  13
BRANCH  10  21
ATOM     21  O   UNL     1      13.700  39.057 127.961  1.00  0.00    -0.507 OA
ATOM     22  H   UNL     1      14.489  38.430 127.856  1.00  0.00     0.293 HD
ENDBRANCH  10  21
BRANCH  11  23
ATOM     23  O   UNL     1       8.875  39.383 128.175  1.00  0.00    -0.508 OA
ATOM     24  H   UNL     1       8.115  38.749 128.393  1.00  0.00     0.293 HD
ENDBRANCH  11  23
ENDBRANCH   1   2
BRANCH   1  25
ATOM     25  C   UNL     1      14.836  37.280 122.344  1.00  0.00     0.339 C 
ATOM     26  C   UNL     1      16.310  37.707 122.545  1.00  0.00     0.214 C 
ATOM     27  O   UNL     1      14.629  36.595 121.118  1.00  0.00    -0.332 OA
ATOM     28  C   UNL     1      17.315  36.561 122.257  1.00  0.00     0.180 C 
ATOM     29  C   UNL     1      15.396  35.404 121.052  1.00  0.00     0.179 C 
ATOM     30  C   UNL     1      16.912  35.717 121.026  1.00  0.00     0.177 C 
BRANCH  26  31
ATOM     31  O   UNL     1      16.582  38.799 121.704  1.00  0.00    -0.384 OA
ATOM     32  H   UNL     1      16.009  39.551 122.007  1.00  0.00     0.211 HD
ENDBRANCH  26  31
BRANCH  28  33
ATOM     33  O   UNL     1      17.501  35.749 123.391  1.00  0.00    -0.387 OA
ATOM     34  H   UNL     1      16.711  35.159 123.480  1.00  0.00     0.211 HD
ENDBRANCH  28  33
BRANCH  29  35
ATOM     35  C   UNL     1      14.952  34.576 119.837  1.00  0.00     0.191 C 
BRANCH  35  36
ATOM     36  O   UNL     1      15.935  33.640 119.487  1.00  0.00    -0.394 OA
ATOM     37  H   UNL     1      16.400  33.402 120.330  1.00  0.00     0.210 HD
ENDBRANCH  35  36
ENDBRANCH  29  35
BRANCH  30  38
ATOM     38  O   UNL     1      17.296  36.361 119.834  1.00  0.00    -0.387 OA
ATOM     39  H   UNL     1      16.797  35.947 119.085  1.00  0.00     0.211 HD
ENDBRANCH  30  38
ENDBRANCH   1  25
TORSDOF 11
ENDMDL
MODEL 8
REMARK VINA RESULT:    -5.884      1.902      5.024
REMARK INTER + INTRA:          -9.748
REMARK INTER:                  -8.127
REMARK INTRA:                  -1.620
REMARK UNBOUND:                -1.283
REMARK SMILES O=c1c(O[C@@H]2O[C@@H](CO)[C@@H](O)[C@H](O)[C@H]2O)c(-c2ccc(O)cc2)oc2cc(O)cc(O)c12
REMARK SMILES IDX 4 1 3 2 16 3 24 4 2 5 25 6 1 7 32 8 26 9 30 10 27 11 29 12
REMARK SMILES IDX 17 13 18 14 19 15 20 16 23 17 22 18 21 19 31 21 28 23 5 25
REMARK SMILES IDX 14 26 6 27 12 28 7 29 10 30 15 31 13 33 8 35 9 36 11 38
REMARK H PARENT 21 20 31 22 28 24 15 32 13 34 9 37 11 39
REMARK Flexibility Score: inf
ROOT
ATOM      1  O   UNL     1      13.056  36.906 123.155  1.00  0.00    -0.454 OA
ENDROOT
BRANCH   1   2
ATOM      2  C   UNL     1      13.331  38.133 123.782  1.00  0.00     0.214 A 
ATOM      3  C   UNL     1      14.421  38.916 123.356  1.00  0.00     0.180 A 
ATOM      4  O   UNL     1      14.739  40.029 124.011  1.00  0.00    -0.452 OA
ATOM      5  C   UNL     1      12.536  38.609 124.839  1.00  0.00     0.239 A 
ATOM      6  C   UNL     1      14.047  40.486 125.047  1.00  0.00     0.146 A 
ATOM      7  O   UNL     1      11.493  37.980 125.167  1.00  0.00    -0.285 OA
ATOM      8  C   UNL     1      12.898  39.798 125.505  1.00  0.00     0.111 A 
ATOM      9  C   UNL     1      14.460  41.664 125.676  1.00  0.00     0.094 A 
ATOM     10  C   UNL     1      12.170  40.325 126.599  1.00  0.00     0.134 A 
ATOM     11  C   UNL     1      13.740  42.179 126.757  1.00  0.00     0.123 A 
ATOM     12  C   UNL     1      12.598  41.511 127.214  1.00  0.00     0.093 A 
BRANCH   3  13
ATOM     13  C   UNL     1      15.252  38.527 122.201  1.00  0.00     0.021 A 
ATOM     14  C   UNL     1      14.741  38.653 120.901  1.00  0.00     0.016 A 
ATOM     15  C   UNL     1      15.528  38.310 119.798  1.00  0.00     0.047 A 
ATOM     16  C   UNL     1      16.826  37.822 119.984  1.00  0.00     0.115 A 
ATOM     17  C   UNL     1      16.546  38.013 122.385  1.00  0.00     0.016 A 
ATOM     18  C   UNL     1      17.332  37.670 121.282  1.00  0.00     0.047 A 
BRANCH  16  19
ATOM     19  O   UNL     1      17.600  37.491 118.875  1.00  0.00    -0.508 OA
ATOM     20  H   UNL     1      17.464  37.944 117.980  1.00  0.00     0.293 HD
ENDBRANCH  16  19
ENDBRANCH   3  13
BRANCH  10  21
ATOM     21  O   UNL     1      11.031  39.679 127.083  1.00  0.00    -0.507 OA
ATOM     22  H   UNL     1      11.056  39.101 127.915  1.00  0.00     0.293 HD
ENDBRANCH  10  21
BRANCH  11  23
ATOM     23  O   UNL     1      14.166  43.356 127.370  1.00  0.00    -0.508 OA
ATOM     24  H   UNL     1      13.526  44.119 127.556  1.00  0.00     0.293 HD
ENDBRANCH  11  23
ENDBRANCH   1   2
BRANCH   1  25
ATOM     25  C   UNL     1      13.538  35.651 123.655  1.00  0.00     0.339 C 
ATOM     26  C   UNL     1      12.387  34.628 123.814  1.00  0.00     0.214 C 
ATOM     27  O   UNL     1      14.603  35.155 122.858  1.00  0.00    -0.332 OA
ATOM     28  C   UNL     1      11.955  33.991 122.468  1.00  0.00     0.180 C 
ATOM     29  C   UNL     1      14.167  34.845 121.545  1.00  0.00     0.179 C 
ATOM     30  C   UNL     1      13.159  33.670 121.553  1.00  0.00     0.177 C 
BRANCH  26  31
ATOM     31  O   UNL     1      12.798  33.622 124.704  1.00  0.00    -0.384 OA
ATOM     32  H   UNL     1      13.530  33.119 124.259  1.00  0.00     0.211 HD
ENDBRANCH  26  31
BRANCH  28  33
ATOM     33  O   UNL     1      11.013  34.796 121.802  1.00  0.00    -0.387 OA
ATOM     34  H   UNL     1      11.030  35.696 122.214  1.00  0.00     0.211 HD
ENDBRANCH  28  33
BRANCH  29  35
ATOM     35  C   UNL     1      15.386  34.559 120.655  1.00  0.00     0.191 C 
BRANCH  35  36
ATOM     36  O   UNL     1      15.126  33.496 119.780  1.00  0.00    -0.394 OA
ATOM     37  H   UNL     1      14.860  33.910 118.918  1.00  0.00     0.210 HD
ENDBRANCH  35  36
ENDBRANCH  29  35
BRANCH  30  38
ATOM     38  O   UNL     1      13.766  32.459 121.938  1.00  0.00    -0.387 OA
ATOM     39  H   UNL     1      13.539  31.772 121.261  1.00  0.00     0.211 HD
ENDBRANCH  30  38
ENDBRANCH   1  25
TORSDOF 11
ENDMDL
MODEL 9
REMARK VINA RESULT:    -5.839     10.206     13.828
REMARK INTER + INTRA:          -9.682
REMARK INTER:                  -8.470
REMARK INTRA:                  -1.212
REMARK UNBOUND:                -1.283
REMARK SMILES O=c1c(O[C@@H]2O[C@@H](CO)[C@@H](O)[C@H](O)[C@H]2O)c(-c2ccc(O)cc2)oc2cc(O)cc(O)c12
REMARK SMILES IDX 4 1 3 2 16 3 24 4 2 5 25 6 1 7 32 8 26 9 30 10 27 11 29 12
REMARK SMILES IDX 17 13 18 14 19 15 20 16 23 17 22 18 21 19 31 21 28 23 5 25
REMARK SMILES IDX 14 26 6 27 12 28 7 29 10 30 15 31 13 33 8 35 9 36 11 38
REMARK H PARENT 21 20 31 22 28 24 15 32 13 34 9 37 11 39
REMARK Flexibility Score: inf
ROOT
ATOM      1  O   UNL     1      26.763  33.628 123.081  1.00  0.00    -0.454 OA
ENDROOT
BRANCH   1   2
ATOM      2  C   UNL     1      26.735  32.292 122.648  1.00  0.00     0.214 A 
ATOM      3  C   UNL     1      25.876  31.906 121.601  1.00  0.00     0.180 A 
ATOM      4  O   UNL     1      25.778  30.625 121.257  1.00  0.00    -0.452 OA
ATOM      5  C   UNL     1      27.552  31.314 123.240  1.00  0.00     0.239 A 
ATOM      6  C   UNL     1      26.493  29.663 121.826  1.00  0.00     0.146 A 
ATOM      7  O   UNL     1      28.406  31.654 124.104  1.00  0.00    -0.285 OA
ATOM      8  C   UNL     1      27.428  29.966 122.843  1.00  0.00     0.111 A 
ATOM      9  C   UNL     1      26.319  28.342 121.399  1.00  0.00     0.094 A 
ATOM     10  C   UNL     1      28.191  28.918 123.414  1.00  0.00     0.134 A 
ATOM     11  C   UNL     1      27.072  27.311 121.967  1.00  0.00     0.123 A 
ATOM     12  C   UNL     1      28.005  27.600 122.970  1.00  0.00     0.093 A 
BRANCH   3  13
ATOM     13  C   UNL     1      25.049  32.887 120.874  1.00  0.00     0.021 A 
ATOM     14  C   UNL     1      23.686  33.015 121.184  1.00  0.00     0.016 A 
ATOM     15  C   UNL     1      22.898  33.958 120.518  1.00  0.00     0.047 A 
ATOM     16  C   UNL     1      23.459  34.769 119.526  1.00  0.00     0.115 A 
ATOM     17  C   UNL     1      25.602  33.685 119.859  1.00  0.00     0.016 A 
ATOM     18  C   UNL     1      24.813  34.627 119.194  1.00  0.00     0.047 A 
BRANCH  16  19
ATOM     19  O   UNL     1      22.662  35.709 118.876  1.00  0.00    -0.508 OA
ATOM     20  H   UNL     1      22.259  35.521 117.966  1.00  0.00     0.293 HD
ENDBRANCH  16  19
ENDBRANCH   3  13
BRANCH  10  21
ATOM     21  O   UNL     1      29.125  29.173 124.419  1.00  0.00    -0.507 OA
ATOM     22  H   UNL     1      28.843  29.383 125.370  1.00  0.00     0.293 HD
ENDBRANCH  10  21
BRANCH  11  23
ATOM     23  O   UNL     1      26.886  26.002 121.528  1.00  0.00    -0.508 OA
ATOM     24  H   UNL     1      26.022  25.501 121.703  1.00  0.00     0.293 HD
ENDBRANCH  11  23
ENDBRANCH   1   2
BRANCH   1  25
ATOM     25  C   UNL     1      27.896  34.487 122.887  1.00  0.00     0.339 C 
ATOM     26  C   UNL     1      27.649  35.495 121.740  1.00  0.00     0.214 C 
ATOM     27  O   UNL     1      28.273  35.121 124.100  1.00  0.00    -0.332 OA
ATOM     28  C   UNL     1      26.748  36.684 122.164  1.00  0.00     0.180 C 
ATOM     29  C   UNL     1      27.263  36.003 124.561  1.00  0.00     0.179 C 
ATOM     30  C   UNL     1      27.072  37.192 123.588  1.00  0.00     0.177 C 
BRANCH  26  31
ATOM     31  O   UNL     1      28.889  35.977 121.288  1.00  0.00    -0.384 OA
ATOM     32  H   UNL     1      29.569  35.709 121.961  1.00  0.00     0.211 HD
ENDBRANCH  26  31
BRANCH  28  33
ATOM     33  O   UNL     1      25.384  36.361 122.038  1.00  0.00    -0.387 OA
ATOM     34  H   UNL     1      24.952  36.503 122.917  1.00  0.00     0.211 HD
ENDBRANCH  28  33
BRANCH  29  35
ATOM     35  C   UNL     1      27.598  36.466 125.986  1.00  0.00     0.191 C 
BRANCH  35  36
ATOM     36  O   UNL     1      28.960  36.779 126.100  1.00  0.00    -0.394 OA
ATOM     37  H   UNL     1      29.254  36.408 126.972  1.00  0.00     0.210 HD
ENDBRANCH  35  36
ENDBRANCH  29  35
BRANCH  30  38
ATOM     38  O   UNL     1      28.195  38.041 123.569  1.00  0.00    -0.387 OA
ATOM     39  H   UNL     1      29.009  37.477 123.551  1.00  0.00     0.211 HD
ENDBRANCH  30  38
ENDBRANCH   1  25
TORSDOF 11
ENDMDL
