MODEL 1
REMARK VINA RESULT:    -6.762      0.000      0.000
REMARK INTER + INTRA:          -8.472
REMARK INTER:                  -8.145
REMARK INTRA:                  -0.327
REMARK UNBOUND:                -0.327
REMARK SMILES O=c1c(O)c(-c2ccc(O)cc2O)oc2cc(O)cc(O)c12
REMARK SMILES IDX 5 1 3 2 2 3 1 4 22 5 20 6 19 7 17 8 16 9 15 10 14 11 6 12
REMARK SMILES IDX 8 13 7 14 9 15 11 16 12 17 10 18 13 20 4 22 21 24 18 26
REMARK H PARENT 10 19 13 21 4 23 21 25 18 27
REMARK Flexibility Score: inf
ROOT
ATOM      1  C   UNL     1      25.792 -12.537  27.023  1.00  0.00     0.184 A 
ATOM      2  C   UNL     1      26.742 -12.095  27.957  1.00  0.00     0.208 A 
ATOM      3  C   UNL     1      26.343 -11.198  28.962  1.00  0.00     0.238 A 
ATOM      4  O   UNL     1      27.211 -10.762  29.761  1.00  0.00    -0.285 OA
ATOM      5  C   UNL     1      24.995 -10.772  29.031  1.00  0.00     0.111 A 
ATOM      6  C   UNL     1      24.471  -9.899  30.030  1.00  0.00     0.134 A 
ATOM      7  C   UNL     1      23.151  -9.443  29.926  1.00  0.00     0.093 A 
ATOM      8  C   UNL     1      22.317  -9.881  28.895  1.00  0.00     0.123 A 
ATOM      9  C   UNL     1      22.801 -10.781  27.949  1.00  0.00     0.094 A 
ATOM     10  C   UNL     1      24.125 -11.225  28.005  1.00  0.00     0.146 A 
ATOM     11  O   UNL     1      24.548 -12.073  27.076  1.00  0.00    -0.451 OA
ENDROOT
BRANCH   1  12
ATOM     12  C   UNL     1      26.138 -13.501  25.951  1.00  0.00     0.063 A 
ATOM     13  C   UNL     1      25.949 -15.720  24.969  1.00  0.00     0.047 A 
ATOM     14  C   UNL     1      25.645 -14.818  25.992  1.00  0.00     0.020 A 
ATOM     15  C   UNL     1      26.737 -15.318  23.888  1.00  0.00     0.119 A 
ATOM     16  C   UNL     1      27.221 -14.006  23.830  1.00  0.00     0.093 A 
ATOM     17  C   UNL     1      26.923 -13.094  24.853  1.00  0.00     0.130 A 
BRANCH  15  18
ATOM     18  O   UNL     1      27.031 -16.229  22.875  1.00  0.00    -0.508 OA
ATOM     19  H   UNL     1      26.335 -16.506  22.193  1.00  0.00     0.293 HD
ENDBRANCH  15  18
BRANCH  17  20
ATOM     20  O   UNL     1      27.417 -11.790  24.787  1.00  0.00    -0.507 OA
ATOM     21  H   UNL     1      28.139 -11.463  25.419  1.00  0.00     0.293 HD
ENDBRANCH  17  20
ENDBRANCH   1  12
BRANCH   2  22
ATOM     22  O   UNL     1      28.070 -12.519  27.860  1.00  0.00    -0.502 OA
ATOM     23  H   UNL     1      28.407 -13.361  28.312  1.00  0.00     0.293 HD
ENDBRANCH   2  22
BRANCH   6  24
ATOM     24  O   UNL     1      25.191  -9.474  31.150  1.00  0.00    -0.507 OA
ATOM     25  H   UNL     1      24.946  -9.685  32.105  1.00  0.00     0.293 HD
ENDBRANCH   6  24
BRANCH   8  26
ATOM     26  O   UNL     1      21.000  -9.435  28.807  1.00  0.00    -0.508 OA
ATOM     27  H   UNL     1      20.227  -9.992  29.154  1.00  0.00     0.293 HD
ENDBRANCH   8  26
TORSDOF 6
ENDMDL
MODEL 2
REMARK VINA RESULT:    -6.745      3.184      5.872
REMARK INTER + INTRA:          -8.452
REMARK INTER:                  -8.201
REMARK INTRA:                  -0.251
REMARK UNBOUND:                -0.327
REMARK SMILES O=c1c(O)c(-c2ccc(O)cc2O)oc2cc(O)cc(O)c12
REMARK SMILES IDX 5 1 3 2 2 3 1 4 22 5 20 6 19 7 17 8 16 9 15 10 14 11 6 12
REMARK SMILES IDX 8 13 7 14 9 15 11 16 12 17 10 18 13 20 4 22 21 24 18 26
REMARK H PARENT 10 19 13 21 4 23 21 25 18 27
REMARK Flexibility Score: inf
ROOT
ATOM      1  C   UNL     1      27.638 -12.733  25.615  1.00  0.00     0.184 A 
ATOM      2  C   UNL     1      28.341 -12.325  26.760  1.00  0.00     0.208 A 
ATOM      3  C   UNL     1      29.426 -11.445  26.616  1.00  0.00     0.238 A 
ATOM      4  O   UNL     1      30.087 -11.128  27.638  1.00  0.00    -0.285 OA
ATOM      5  C   UNL     1      29.779 -10.968  25.330  1.00  0.00     0.111 A 
ATOM      6  C   UNL     1      30.833 -10.042  25.071  1.00  0.00     0.134 A 
ATOM      7  C   UNL     1      31.177  -9.739  23.748  1.00  0.00     0.093 A 
ATOM      8  C   UNL     1      30.461 -10.279  22.676  1.00  0.00     0.123 A 
ATOM      9  C   UNL     1      29.392 -11.137  22.921  1.00  0.00     0.094 A 
ATOM     10  C   UNL     1      29.049 -11.487  24.229  1.00  0.00     0.146 A 
ATOM     11  O   UNL     1      28.030 -12.317  24.417  1.00  0.00    -0.451 OA
ENDROOT
BRANCH   1  12
ATOM     12  C   UNL     1      26.470 -13.641  25.698  1.00  0.00     0.063 A 
ATOM     13  C   UNL     1      25.449 -15.809  25.271  1.00  0.00     0.047 A 
ATOM     14  C   UNL     1      26.541 -14.943  25.170  1.00  0.00     0.020 A 
ATOM     15  C   UNL     1      24.278 -15.394  25.908  1.00  0.00     0.119 A 
ATOM     16  C   UNL     1      24.200 -14.105  26.450  1.00  0.00     0.093 A 
ATOM     17  C   UNL     1      25.291 -13.228  26.351  1.00  0.00     0.130 A 
BRANCH  15  18
ATOM     18  O   UNL     1      23.198 -16.270  26.001  1.00  0.00    -0.508 OA
ATOM     19  H   UNL     1      22.289 -15.958  26.319  1.00  0.00     0.293 HD
ENDBRANCH  15  18
BRANCH  17  20
ATOM     20  O   UNL     1      25.198 -11.943  26.889  1.00  0.00    -0.507 OA
ATOM     21  H   UNL     1      25.444 -11.752  27.853  1.00  0.00     0.293 HD
ENDBRANCH  17  20
ENDBRANCH   1  12
BRANCH   2  22
ATOM     22  O   UNL     1      27.982 -12.820  28.017  1.00  0.00    -0.502 OA
ATOM     23  H   UNL     1      27.018 -12.874  28.325  1.00  0.00     0.293 HD
ENDBRANCH   2  22
BRANCH   6  24
ATOM     24  O   UNL     1      31.551  -9.377  26.069  1.00  0.00    -0.507 OA
ATOM     25  H   UNL     1      32.555  -9.379  26.154  1.00  0.00     0.293 HD
ENDBRANCH   6  24
BRANCH   8  26
ATOM     26  O   UNL     1      30.799  -9.960  21.363  1.00  0.00    -0.508 OA
ATOM     27  H   UNL     1      30.202 -10.217  20.585  1.00  0.00     0.293 HD
ENDBRANCH   8  26
TORSDOF 6
ENDMDL
MODEL 3
REMARK VINA RESULT:    -6.603      2.455      4.820
REMARK INTER + INTRA:          -8.281
REMARK INTER:                  -7.854
REMARK INTRA:                  -0.427
REMARK UNBOUND:                -0.327
REMARK SMILES O=c1c(O)c(-c2ccc(O)cc2O)oc2cc(O)cc(O)c12
REMARK SMILES IDX 5 1 3 2 2 3 1 4 22 5 20 6 19 7 17 8 16 9 15 10 14 11 6 12
REMARK SMILES IDX 8 13 7 14 9 15 11 16 12 17 10 18 13 20 4 22 21 24 18 26
REMARK H PARENT 10 19 13 21 4 23 21 25 18 27
REMARK Flexibility Score: inf
ROOT
ATOM      1  C   UNL     1      22.865 -11.060  28.284  1.00  0.00     0.184 A 
ATOM      2  C   UNL     1      22.203 -10.013  27.623  1.00  0.00     0.208 A 
ATOM      3  C   UNL     1      20.973  -9.558  28.127  1.00  0.00     0.238 A 
ATOM      4  O   UNL     1      20.358  -8.659  27.498  1.00  0.00    -0.285 OA
ATOM      5  C   UNL     1      20.433 -10.143  29.298  1.00  0.00     0.111 A 
ATOM      6  C   UNL     1      19.215  -9.735  29.920  1.00  0.00     0.134 A 
ATOM      7  C   UNL     1      18.712 -10.469  31.001  1.00  0.00     0.093 A 
ATOM      8  C   UNL     1      19.416 -11.557  31.523  1.00  0.00     0.123 A 
ATOM      9  C   UNL     1      20.635 -11.926  30.960  1.00  0.00     0.094 A 
ATOM     10  C   UNL     1      21.145 -11.236  29.857  1.00  0.00     0.146 A 
ATOM     11  O   UNL     1      22.304 -11.629  29.345  1.00  0.00    -0.451 OA
ENDROOT
BRANCH   1  12
ATOM     12  C   UNL     1      24.176 -11.572  27.821  1.00  0.00     0.063 A 
ATOM     13  C   UNL     1      25.500 -12.826  26.208  1.00  0.00     0.047 A 
ATOM     14  C   UNL     1      24.261 -12.364  26.662  1.00  0.00     0.020 A 
ATOM     15  C   UNL     1      26.669 -12.494  26.896  1.00  0.00     0.119 A 
ATOM     16  C   UNL     1      26.598 -11.694  28.043  1.00  0.00     0.093 A 
ATOM     17  C   UNL     1      25.359 -11.228  28.506  1.00  0.00     0.130 A 
BRANCH  15  18
ATOM     18  O   UNL     1      27.897 -12.961  26.431  1.00  0.00    -0.508 OA
ATOM     19  H   UNL     1      27.981 -13.859  25.969  1.00  0.00     0.293 HD
ENDBRANCH  15  18
BRANCH  17  20
ATOM     20  O   UNL     1      25.300 -10.437  29.655  1.00  0.00    -0.507 OA
ATOM     21  H   UNL     1      25.910  -9.637  29.781  1.00  0.00     0.293 HD
ENDBRANCH  17  20
ENDBRANCH   1  12
BRANCH   2  22
ATOM     22  O   UNL     1      22.749  -9.461  26.461  1.00  0.00    -0.502 OA
ATOM     23  H   UNL     1      23.654  -9.005  26.449  1.00  0.00     0.293 HD
ENDBRANCH   2  22
BRANCH   6  24
ATOM     24  O   UNL     1      18.482  -8.609  29.535  1.00  0.00    -0.507 OA
ATOM     25  H   UNL     1      18.228  -7.851  30.150  1.00  0.00     0.293 HD
ENDBRANCH   6  24
BRANCH   8  26
ATOM     26  O   UNL     1      18.916 -12.272  32.609  1.00  0.00    -0.508 OA
ATOM     27  H   UNL     1      19.204 -12.065  33.558  1.00  0.00     0.293 HD
ENDBRANCH   8  26
TORSDOF 6
ENDMDL
MODEL 4
REMARK VINA RESULT:    -6.584      3.593      9.563
REMARK INTER + INTRA:          -8.259
REMARK INTER:                  -7.877
REMARK INTRA:                  -0.382
REMARK UNBOUND:                -0.327
REMARK SMILES O=c1c(O)c(-c2ccc(O)cc2O)oc2cc(O)cc(O)c12
REMARK SMILES IDX 5 1 3 2 2 3 1 4 22 5 20 6 19 7 17 8 16 9 15 10 14 11 6 12
REMARK SMILES IDX 8 13 7 14 9 15 11 16 12 17 10 18 13 20 4 22 21 24 18 26
REMARK H PARENT 10 19 13 21 4 23 21 25 18 27
REMARK Flexibility Score: inf
ROOT
ATOM      1  C   UNL     1      26.899 -16.679  23.332  1.00  0.00     0.184 A 
ATOM      2  C   UNL     1      26.583 -16.709  21.964  1.00  0.00     0.208 A 
ATOM      3  C   UNL     1      27.165 -17.696  21.152  1.00  0.00     0.238 A 
ATOM      4  O   UNL     1      26.922 -17.684  19.918  1.00  0.00    -0.285 OA
ATOM      5  C   UNL     1      28.040 -18.652  21.723  1.00  0.00     0.111 A 
ATOM      6  C   UNL     1      28.655 -19.719  21.004  1.00  0.00     0.134 A 
ATOM      7  C   UNL     1      29.603 -20.528  21.643  1.00  0.00     0.093 A 
ATOM      8  C   UNL     1      29.909 -20.347  22.995  1.00  0.00     0.123 A 
ATOM      9  C   UNL     1      29.271 -19.346  23.720  1.00  0.00     0.094 A 
ATOM     10  C   UNL     1      28.347 -18.499  23.101  1.00  0.00     0.146 A 
ATOM     11  O   UNL     1      27.770 -17.550  23.827  1.00  0.00    -0.451 OA
ENDROOT
BRANCH   1  12
ATOM     12  C   UNL     1      26.303 -15.680  24.250  1.00  0.00     0.063 A 
ATOM     13  C   UNL     1      24.651 -15.088  25.937  1.00  0.00     0.047 A 
ATOM     14  C   UNL     1      25.198 -16.020  25.051  1.00  0.00     0.020 A 
ATOM     15  C   UNL     1      25.205 -13.810  26.044  1.00  0.00     0.119 A 
ATOM     16  C   UNL     1      26.314 -13.465  25.262  1.00  0.00     0.093 A 
ATOM     17  C   UNL     1      26.867 -14.394  24.369  1.00  0.00     0.130 A 
BRANCH  15  18
ATOM     18  O   UNL     1      24.648 -12.892  26.933  1.00  0.00    -0.508 OA
ATOM     19  H   UNL     1      24.323 -13.173  27.850  1.00  0.00     0.293 HD
ENDBRANCH  15  18
BRANCH  17  20
ATOM     20  O   UNL     1      27.969 -14.035  23.589  1.00  0.00    -0.507 OA
ATOM     21  H   UNL     1      28.350 -13.097  23.608  1.00  0.00     0.293 HD
ENDBRANCH  17  20
ENDBRANCH   1  12
BRANCH   2  22
ATOM     22  O   UNL     1      25.727 -15.747  21.421  1.00  0.00    -0.502 OA
ATOM     23  H   UNL     1      24.819 -15.539  21.820  1.00  0.00     0.293 HD
ENDBRANCH   2  22
BRANCH   6  24
ATOM     24  O   UNL     1      28.352 -20.044  19.678  1.00  0.00    -0.507 OA
ATOM     25  H   UNL     1      28.308 -20.982  19.312  1.00  0.00     0.293 HD
ENDBRANCH   6  24
BRANCH   8  26
ATOM     26  O   UNL     1      30.842 -21.165  23.628  1.00  0.00    -0.508 OA
ATOM     27  H   UNL     1      31.831 -20.942  23.626  1.00  0.00     0.293 HD
ENDBRANCH   8  26
TORSDOF 6
ENDMDL
MODEL 5
REMARK VINA RESULT:    -6.546      1.712      6.583
REMARK INTER + INTRA:          -8.212
REMARK INTER:                  -7.800
REMARK INTRA:                  -0.412
REMARK UNBOUND:                -0.327
REMARK SMILES O=c1c(O)c(-c2ccc(O)cc2O)oc2cc(O)cc(O)c12
REMARK SMILES IDX 5 1 3 2 2 3 1 4 22 5 20 6 19 7 17 8 16 9 15 10 14 11 6 12
REMARK SMILES IDX 8 13 7 14 9 15 11 16 12 17 10 18 13 20 4 22 21 24 18 26
REMARK H PARENT 10 19 13 21 4 23 21 25 18 27
REMARK Flexibility Score: inf
ROOT
ATOM      1  C   UNL     1      23.327 -10.834  28.059  1.00  0.00     0.184 A 
ATOM      2  C   UNL     1      24.382 -10.505  28.925  1.00  0.00     0.208 A 
ATOM      3  C   UNL     1      25.616 -11.159  28.774  1.00  0.00     0.238 A 
ATOM      4  O   UNL     1      26.540 -10.901  29.588  1.00  0.00    -0.285 OA
ATOM      5  C   UNL     1      25.784 -12.118  27.746  1.00  0.00     0.111 A 
ATOM      6  C   UNL     1      27.001 -12.811  27.476  1.00  0.00     0.134 A 
ATOM      7  C   UNL     1      27.017 -13.831  26.517  1.00  0.00     0.093 A 
ATOM      8  C   UNL     1      25.874 -14.138  25.772  1.00  0.00     0.123 A 
ATOM      9  C   UNL     1      24.698 -13.426  25.987  1.00  0.00     0.094 A 
ATOM     10  C   UNL     1      24.641 -12.427  26.963  1.00  0.00     0.146 A 
ATOM     11  O   UNL     1      23.496 -11.781  27.143  1.00  0.00    -0.451 OA
ENDROOT
BRANCH   1  12
ATOM     12  C   UNL     1      22.007 -10.167  28.147  1.00  0.00     0.063 A 
ATOM     13  C   UNL     1      20.474  -8.420  27.422  1.00  0.00     0.047 A 
ATOM     14  C   UNL     1      21.728  -9.034  27.360  1.00  0.00     0.020 A 
ATOM     15  C   UNL     1      19.480  -8.933  28.258  1.00  0.00     0.119 A 
ATOM     16  C   UNL     1      19.742 -10.068  29.035  1.00  0.00     0.093 A 
ATOM     17  C   UNL     1      20.998 -10.689  28.981  1.00  0.00     0.130 A 
BRANCH  15  18
ATOM     18  O   UNL     1      18.235  -8.309  28.308  1.00  0.00    -0.508 OA
ATOM     19  H   UNL     1      17.593  -8.468  29.075  1.00  0.00     0.293 HD
ENDBRANCH  15  18
BRANCH  17  20
ATOM     20  O   UNL     1      21.249 -11.816  29.766  1.00  0.00    -0.507 OA
ATOM     21  H   UNL     1      21.268 -12.748  29.367  1.00  0.00     0.293 HD
ENDBRANCH  17  20
ENDBRANCH   1  12
BRANCH   2  22
ATOM     22  O   UNL     1      24.188  -9.565  29.941  1.00  0.00    -0.502 OA
ATOM     23  H   UNL     1      23.355  -9.551  30.517  1.00  0.00     0.293 HD
ENDBRANCH   2  22
BRANCH   6  24
ATOM     24  O   UNL     1      28.219 -12.521  28.096  1.00  0.00    -0.507 OA
ATOM     25  H   UNL     1      28.323 -11.947  28.919  1.00  0.00     0.293 HD
ENDBRANCH   6  24
BRANCH   8  26
ATOM     26  O   UNL     1      25.902 -15.143  24.809  1.00  0.00    -0.508 OA
ATOM     27  H   UNL     1      26.745 -15.674  24.621  1.00  0.00     0.293 HD
ENDBRANCH   8  26
TORSDOF 6
ENDMDL
MODEL 6
REMARK VINA RESULT:    -6.496      0.744      1.439
REMARK INTER + INTRA:          -8.152
REMARK INTER:                  -7.948
REMARK INTRA:                  -0.204
REMARK UNBOUND:                -0.327
REMARK SMILES O=c1c(O)c(-c2ccc(O)cc2O)oc2cc(O)cc(O)c12
REMARK SMILES IDX 5 1 3 2 2 3 1 4 22 5 20 6 19 7 17 8 16 9 15 10 14 11 6 12
REMARK SMILES IDX 8 13 7 14 9 15 11 16 12 17 10 18 13 20 4 22 21 24 18 26
REMARK H PARENT 10 19 13 21 4 23 21 25 18 27
REMARK Flexibility Score: inf
ROOT
ATOM      1  C   UNL     1      25.824 -12.446  26.872  1.00  0.00     0.184 A 
ATOM      2  C   UNL     1      26.779 -12.070  27.830  1.00  0.00     0.208 A 
ATOM      3  C   UNL     1      26.376 -11.283  28.921  1.00  0.00     0.238 A 
ATOM      4  O   UNL     1      27.247 -10.903  29.746  1.00  0.00    -0.285 OA
ATOM      5  C   UNL     1      25.019 -10.900  29.050  1.00  0.00     0.111 A 
ATOM      6  C   UNL     1      24.492 -10.138  30.135  1.00  0.00     0.134 A 
ATOM      7  C   UNL     1      23.160  -9.708  30.094  1.00  0.00     0.093 A 
ATOM      8  C   UNL     1      22.319 -10.067  29.038  1.00  0.00     0.123 A 
ATOM      9  C   UNL     1      22.808 -10.861  28.004  1.00  0.00     0.094 A 
ATOM     10  C   UNL     1      24.143 -11.275  27.998  1.00  0.00     0.146 A 
ATOM     11  O   UNL     1      24.571 -12.020  26.987  1.00  0.00    -0.451 OA
ENDROOT
BRANCH   1  12
ATOM     12  C   UNL     1      26.175 -13.294  25.709  1.00  0.00     0.063 A 
ATOM     13  C   UNL     1      27.630 -13.788  23.821  1.00  0.00     0.047 A 
ATOM     14  C   UNL     1      27.282 -12.974  24.902  1.00  0.00     0.020 A 
ATOM     15  C   UNL     1      26.888 -14.937  23.538  1.00  0.00     0.119 A 
ATOM     16  C   UNL     1      25.793 -15.274  24.343  1.00  0.00     0.093 A 
ATOM     17  C   UNL     1      25.435 -14.461  25.428  1.00  0.00     0.130 A 
BRANCH  15  18
ATOM     18  O   UNL     1      27.249 -15.739  22.457  1.00  0.00    -0.508 OA
ATOM     19  H   UNL     1      27.957 -15.448  21.794  1.00  0.00     0.293 HD
ENDBRANCH  15  18
BRANCH  17  20
ATOM     20  O   UNL     1      24.337 -14.803  26.219  1.00  0.00    -0.507 OA
ATOM     21  H   UNL     1      23.727 -14.098  26.615  1.00  0.00     0.293 HD
ENDBRANCH  17  20
ENDBRANCH   1  12
BRANCH   2  22
ATOM     22  O   UNL     1      28.115 -12.449  27.674  1.00  0.00    -0.502 OA
ATOM     23  H   UNL     1      28.660 -12.847  28.431  1.00  0.00     0.293 HD
ENDBRANCH   2  22
BRANCH   6  24
ATOM     24  O   UNL     1      25.220  -9.803  31.280  1.00  0.00    -0.507 OA
ATOM     25  H   UNL     1      25.772  -8.966  31.387  1.00  0.00     0.293 HD
ENDBRANCH   6  24
BRANCH   8  26
ATOM     26  O   UNL     1      20.991  -9.648  29.012  1.00  0.00    -0.508 OA
ATOM     27  H   UNL     1      20.302 -10.031  29.650  1.00  0.00     0.293 HD
ENDBRANCH   8  26
TORSDOF 6
ENDMDL
MODEL 7
REMARK VINA RESULT:    -6.439      2.662      6.596
REMARK INTER + INTRA:          -8.084
REMARK INTER:                  -7.870
REMARK INTRA:                  -0.213
REMARK UNBOUND:                -0.327
REMARK SMILES O=c1c(O)c(-c2ccc(O)cc2O)oc2cc(O)cc(O)c12
REMARK SMILES IDX 5 1 3 2 2 3 1 4 22 5 20 6 19 7 17 8 16 9 15 10 14 11 6 12
REMARK SMILES IDX 8 13 7 14 9 15 11 16 12 17 10 18 13 20 4 22 21 24 18 26
REMARK H PARENT 10 19 13 21 4 23 21 25 18 27
REMARK Flexibility Score: inf
ROOT
ATOM      1  C   UNL     1      27.602 -11.852  26.683  1.00  0.00     0.184 A 
ATOM      2  C   UNL     1      26.296 -12.076  27.146  1.00  0.00     0.208 A 
ATOM      3  C   UNL     1      25.506 -13.049  26.512  1.00  0.00     0.238 A 
ATOM      4  O   UNL     1      24.317 -13.205  26.895  1.00  0.00    -0.285 OA
ATOM      5  C   UNL     1      26.040 -13.800  25.437  1.00  0.00     0.111 A 
ATOM      6  C   UNL     1      25.345 -14.837  24.748  1.00  0.00     0.134 A 
ATOM      7  C   UNL     1      25.925 -15.425  23.618  1.00  0.00     0.093 A 
ATOM      8  C   UNL     1      27.203 -15.057  23.190  1.00  0.00     0.123 A 
ATOM      9  C   UNL     1      27.914 -14.088  23.891  1.00  0.00     0.094 A 
ATOM     10  C   UNL     1      27.347 -13.457  25.002  1.00  0.00     0.146 A 
ATOM     11  O   UNL     1      28.056 -12.529  25.634  1.00  0.00    -0.451 OA
ENDROOT
BRANCH   1  12
ATOM     12  C   UNL     1      28.498 -10.859  27.320  1.00  0.00     0.063 A 
ATOM     13  C   UNL     1      29.519  -9.915  29.318  1.00  0.00     0.047 A 
ATOM     14  C   UNL     1      28.655 -10.834  28.718  1.00  0.00     0.020 A 
ATOM     15  C   UNL     1      30.247  -9.017  28.533  1.00  0.00     0.119 A 
ATOM     16  C   UNL     1      30.110  -9.042  27.140  1.00  0.00     0.093 A 
ATOM     17  C   UNL     1      29.242  -9.959  26.530  1.00  0.00     0.130 A 
BRANCH  15  18
ATOM     18  O   UNL     1      31.106  -8.107  29.147  1.00  0.00    -0.508 OA
ATOM     19  H   UNL     1      30.934  -7.767  30.085  1.00  0.00     0.293 HD
ENDBRANCH  15  18
BRANCH  17  20
ATOM     20  O   UNL     1      29.109  -9.969  25.140  1.00  0.00    -0.507 OA
ATOM     21  H   UNL     1      28.969  -9.115  24.614  1.00  0.00     0.293 HD
ENDBRANCH  17  20
ENDBRANCH   1  12
BRANCH   2  22
ATOM     22  O   UNL     1      25.785 -11.313  28.200  1.00  0.00    -0.502 OA
ATOM     23  H   UNL     1      26.250 -10.480  28.543  1.00  0.00     0.293 HD
ENDBRANCH   2  22
BRANCH   6  24
ATOM     24  O   UNL     1      24.104 -15.343  25.147  1.00  0.00    -0.507 OA
ATOM     25  H   UNL     1      23.299 -15.431  24.546  1.00  0.00     0.293 HD
ENDBRANCH   6  24
BRANCH   8  26
ATOM     26  O   UNL     1      27.780 -15.658  22.073  1.00  0.00    -0.508 OA
ATOM     27  H   UNL     1      28.243 -16.558  22.135  1.00  0.00     0.293 HD
ENDBRANCH   8  26
TORSDOF 6
ENDMDL
MODEL 8
REMARK VINA RESULT:    -6.413      2.811      4.787
REMARK INTER + INTRA:          -8.052
REMARK INTER:                  -7.715
REMARK INTRA:                  -0.337
REMARK UNBOUND:                -0.327
REMARK SMILES O=c1c(O)c(-c2ccc(O)cc2O)oc2cc(O)cc(O)c12
REMARK SMILES IDX 5 1 3 2 2 3 1 4 22 5 20 6 19 7 17 8 16 9 15 10 14 11 6 12
REMARK SMILES IDX 8 13 7 14 9 15 11 16 12 17 10 18 13 20 4 22 21 24 18 26
REMARK H PARENT 10 19 13 21 4 23 21 25 18 27
REMARK Flexibility Score: inf
ROOT
ATOM      1  C   UNL     1      27.190 -12.219  26.612  1.00  0.00     0.184 A 
ATOM      2  C   UNL     1      27.919 -11.640  25.562  1.00  0.00     0.208 A 
ATOM      3  C   UNL     1      28.906 -10.687  25.862  1.00  0.00     0.238 A 
ATOM      4  O   UNL     1      29.517 -10.130  24.913  1.00  0.00    -0.285 OA
ATOM      5  C   UNL     1      29.165 -10.342  27.211  1.00  0.00     0.111 A 
ATOM      6  C   UNL     1      30.169  -9.421  27.633  1.00  0.00     0.134 A 
ATOM      7  C   UNL     1      30.250  -9.059  28.983  1.00  0.00     0.093 A 
ATOM      8  C   UNL     1      29.406  -9.636  29.936  1.00  0.00     0.123 A 
ATOM      9  C   UNL     1      28.463 -10.581  29.542  1.00  0.00     0.094 A 
ATOM     10  C   UNL     1      28.333 -10.935  28.196  1.00  0.00     0.146 A 
ATOM     11  O   UNL     1      27.413 -11.832  27.863  1.00  0.00    -0.451 OA
ENDROOT
BRANCH   1  12
ATOM     12  C   UNL     1      26.151 -13.247  26.369  1.00  0.00     0.063 A 
ATOM     13  C   UNL     1      25.497 -15.415  25.474  1.00  0.00     0.047 A 
ATOM     14  C   UNL     1      26.469 -14.433  25.681  1.00  0.00     0.020 A 
ATOM     15  C   UNL     1      24.200 -15.234  25.960  1.00  0.00     0.119 A 
ATOM     16  C   UNL     1      23.875 -14.065  26.658  1.00  0.00     0.093 A 
ATOM     17  C   UNL     1      24.844 -13.073  26.868  1.00  0.00     0.130 A 
BRANCH  15  18
ATOM     18  O   UNL     1      23.242 -16.224  25.745  1.00  0.00    -0.508 OA
ATOM     19  H   UNL     1      23.287 -17.116  26.222  1.00  0.00     0.293 HD
ENDBRANCH  15  18
BRANCH  17  20
ATOM     20  O   UNL     1      24.506 -11.909  27.560  1.00  0.00    -0.507 OA
ATOM     21  H   UNL     1      23.660 -11.392  27.350  1.00  0.00     0.293 HD
ENDBRANCH  17  20
ENDBRANCH   1  12
BRANCH   2  22
ATOM     22  O   UNL     1      27.636 -11.986  24.237  1.00  0.00    -0.502 OA
ATOM     23  H   UNL     1      27.673 -12.943  23.906  1.00  0.00     0.293 HD
ENDBRANCH   2  22
BRANCH   6  24
ATOM     24  O   UNL     1      31.120  -8.857  26.778  1.00  0.00    -0.507 OA
ATOM     25  H   UNL     1      31.373  -9.227  25.875  1.00  0.00     0.293 HD
ENDBRANCH   6  24
BRANCH   8  26
ATOM     26  O   UNL     1      29.504  -9.283  31.280  1.00  0.00    -0.508 OA
ATOM     27  H   UNL     1      30.346  -8.862  31.657  1.00  0.00     0.293 HD
ENDBRANCH   8  26
TORSDOF 6
ENDMDL
MODEL 9
REMARK VINA RESULT:    -6.343      3.398      5.971
REMARK INTER + INTRA:          -7.968
REMARK INTER:                  -7.489
REMARK INTRA:                  -0.479
REMARK UNBOUND:                -0.327
REMARK SMILES O=c1c(O)c(-c2ccc(O)cc2O)oc2cc(O)cc(O)c12
REMARK SMILES IDX 5 1 3 2 2 3 1 4 22 5 20 6 19 7 17 8 16 9 15 10 14 11 6 12
REMARK SMILES IDX 8 13 7 14 9 15 11 16 12 17 10 18 13 20 4 22 21 24 18 26
REMARK H PARENT 10 19 13 21 4 23 21 25 18 27
REMARK Flexibility Score: inf
ROOT
ATOM      1  C   UNL     1      27.697 -16.053  22.889  1.00  0.00     0.184 A 
ATOM      2  C   UNL     1      28.435 -14.858  22.858  1.00  0.00     0.208 A 
ATOM      3  C   UNL     1      28.056 -13.801  23.702  1.00  0.00     0.238 A 
ATOM      4  O   UNL     1      28.685 -12.715  23.629  1.00  0.00    -0.285 OA
ATOM      5  C   UNL     1      26.957 -13.961  24.580  1.00  0.00     0.111 A 
ATOM      6  C   UNL     1      26.510 -12.973  25.507  1.00  0.00     0.134 A 
ATOM      7  C   UNL     1      25.334 -13.191  26.236  1.00  0.00     0.093 A 
ATOM      8  C   UNL     1      24.625 -14.389  26.118  1.00  0.00     0.123 A 
ATOM      9  C   UNL     1      25.087 -15.384  25.261  1.00  0.00     0.094 A 
ATOM     10  C   UNL     1      26.237 -15.181  24.493  1.00  0.00     0.146 A 
ATOM     11  O   UNL     1      26.635 -16.151  23.679  1.00  0.00    -0.451 OA
ENDROOT
BRANCH   1  12
ATOM     12  C   UNL     1      28.056 -17.215  22.043  1.00  0.00     0.063 A 
ATOM     13  C   UNL     1      29.503 -19.115  21.573  1.00  0.00     0.047 A 
ATOM     14  C   UNL     1      29.179 -18.003  22.355  1.00  0.00     0.020 A 
ATOM     15  C   UNL     1      28.707 -19.463  20.480  1.00  0.00     0.119 A 
ATOM     16  C   UNL     1      27.579 -18.694  20.168  1.00  0.00     0.093 A 
ATOM     17  C   UNL     1      27.248 -17.575  20.946  1.00  0.00     0.130 A 
BRANCH  15  18
ATOM     18  O   UNL     1      29.044 -20.576  19.711  1.00  0.00    -0.508 OA
ATOM     19  H   UNL     1      28.943 -20.573  18.703  1.00  0.00     0.293 HD
ENDBRANCH  15  18
BRANCH  17  20
ATOM     20  O   UNL     1      26.124 -16.813  20.621  1.00  0.00    -0.507 OA
ATOM     21  H   UNL     1      26.185 -16.014  20.000  1.00  0.00     0.293 HD
ENDBRANCH  17  20
ENDBRANCH   1  12
BRANCH   2  22
ATOM     22  O   UNL     1      29.507 -14.719  21.973  1.00  0.00    -0.502 OA
ATOM     23  H   UNL     1      29.429 -14.933  20.985  1.00  0.00     0.293 HD
ENDBRANCH   2  22
BRANCH   6  24
ATOM     24  O   UNL     1      27.193 -11.782  25.768  1.00  0.00    -0.507 OA
ATOM     25  H   UNL     1      27.822 -11.638  26.543  1.00  0.00     0.293 HD
ENDBRANCH   6  24
BRANCH   8  26
ATOM     26  O   UNL     1      23.465 -14.604  26.858  1.00  0.00    -0.508 OA
ATOM     27  H   UNL     1      22.637 -14.036  26.723  1.00  0.00     0.293 HD
ENDBRANCH   8  26
TORSDOF 6
ENDMDL
