MODEL 1
REMARK VINA RESULT:    -4.652      0.000      0.000
REMARK INTER + INTRA:          -5.594
REMARK INTER:                  -5.468
REMARK INTRA:                  -0.127
REMARK UNBOUND:                -0.127
REMARK SMILES O=C([O-])C=Cc1ccc(O)c(O)c1
REMARK SMILES IDX 6 1 13 2 7 3 11 4 8 5 9 6 5 7 4 8 2 9 1 10 3 11 12 12 10 14
REMARK H PARENT 12 13 10 15
REMARK Flexibility Score: inf
ROOT
ATOM      1  C   UNL     1      42.150   9.942  12.183  1.00  0.00    -0.022 A 
ATOM      2  C   UNL     1      41.128   9.457  13.021  1.00  0.00     0.058 A 
ATOM      3  C   UNL     1      43.124   9.048  11.718  1.00  0.00     0.012 A 
ATOM      4  C   UNL     1      41.093   8.112  13.411  1.00  0.00     0.157 A 
ATOM      5  C   UNL     1      43.099   7.707  12.103  1.00  0.00     0.051 A 
ATOM      6  C   UNL     1      42.096   7.226  12.950  1.00  0.00     0.157 A 
ENDROOT
BRANCH   1   7
ATOM      7  C   UNL     1      42.215  11.357  11.739  1.00  0.00     0.010 C 
ATOM      8  C   UNL     1      41.247  11.960  11.034  1.00  0.00     0.025 C 
BRANCH   8   9
ATOM      9  C   UNL     1      41.347  13.370  10.624  1.00  0.00     0.064 C 
ATOM     10  O   UNL     1      42.459  13.837  10.268  1.00  0.00    -0.545 OA
ATOM     11  O   UNL     1      40.230  14.199  10.628  1.00  0.00    -0.545 OA
ENDBRANCH   8   9
ENDBRANCH   1   7
BRANCH   4  12
ATOM     12  O   UNL     1      40.050   7.701  14.243  1.00  0.00    -0.504 OA
ATOM     13  H   UNL     1      40.060   7.793  15.249  1.00  0.00     0.293 HD
ENDBRANCH   4  12
BRANCH   6  14
ATOM     14  O   UNL     1      42.130   5.875  13.302  1.00  0.00    -0.504 OA
ATOM     15  H   UNL     1      41.369   5.231  13.145  1.00  0.00     0.293 HD
ENDBRANCH   6  14
TORSDOF 4
ENDMDL
MODEL 2
REMARK VINA RESULT:    -4.614      1.445      5.710
REMARK INTER + INTRA:          -5.549
REMARK INTER:                  -5.425
REMARK INTRA:                  -0.124
REMARK UNBOUND:                -0.127
REMARK SMILES O=C([O-])C=Cc1ccc(O)c(O)c1
REMARK SMILES IDX 6 1 13 2 7 3 11 4 8 5 9 6 5 7 4 8 2 9 1 10 3 11 12 12 10 14
REMARK H PARENT 12 13 10 15
REMARK Flexibility Score: inf
ROOT
ATOM      1  C   UNL     1      42.238   9.857  11.375  1.00  0.00    -0.022 A 
ATOM      2  C   UNL     1      42.551  10.919  12.245  1.00  0.00     0.058 A 
ATOM      3  C   UNL     1      42.231  10.095   9.994  1.00  0.00     0.012 A 
ATOM      4  C   UNL     1      42.823  12.201  11.749  1.00  0.00     0.157 A 
ATOM      5  C   UNL     1      42.498  11.369   9.491  1.00  0.00     0.051 A 
ATOM      6  C   UNL     1      42.791  12.430  10.353  1.00  0.00     0.157 A 
ENDROOT
BRANCH   1   7
ATOM      7  C   UNL     1      41.956   8.483  11.861  1.00  0.00     0.010 C 
ATOM      8  C   UNL     1      41.204   8.214  12.937  1.00  0.00     0.025 C 
BRANCH   8   9
ATOM      9  C   UNL     1      40.938   6.835  13.376  1.00  0.00     0.064 C 
ATOM     10  O   UNL     1      41.478   5.875  12.769  1.00  0.00    -0.545 OA
ATOM     11  O   UNL     1      40.097   6.575  14.452  1.00  0.00    -0.545 OA
ENDBRANCH   8   9
ENDBRANCH   1   7
BRANCH   4  12
ATOM     12  O   UNL     1      43.125  13.206  12.671  1.00  0.00    -0.504 OA
ATOM     13  H   UNL     1      43.003  14.192  12.492  1.00  0.00     0.293 HD
ENDBRANCH   4  12
BRANCH   6  14
ATOM     14  O   UNL     1      43.044  13.681   9.788  1.00  0.00    -0.504 OA
ATOM     15  H   UNL     1      43.188  14.525  10.323  1.00  0.00     0.293 HD
ENDBRANCH   6  14
TORSDOF 4
ENDMDL
MODEL 3
REMARK VINA RESULT:    -4.383      3.753      4.988
REMARK INTER + INTRA:          -5.279
REMARK INTER:                  -5.155
REMARK INTRA:                  -0.124
REMARK UNBOUND:                -0.127
REMARK SMILES O=C([O-])C=Cc1ccc(O)c(O)c1
REMARK SMILES IDX 6 1 13 2 7 3 11 4 8 5 9 6 5 7 4 8 2 9 1 10 3 11 12 12 10 14
REMARK H PARENT 12 13 10 15
REMARK Flexibility Score: inf
ROOT
ATOM      1  C   UNL     1      41.880  10.203   9.982  1.00  0.00    -0.022 A 
ATOM      2  C   UNL     1      41.523  10.038  11.334  1.00  0.00     0.058 A 
ATOM      3  C   UNL     1      42.667  11.304   9.620  1.00  0.00     0.012 A 
ATOM      4  C   UNL     1      41.921  10.968  12.303  1.00  0.00     0.157 A 
ATOM      5  C   UNL     1      43.066  12.237  10.578  1.00  0.00     0.051 A 
ATOM      6  C   UNL     1      42.698  12.086  11.918  1.00  0.00     0.157 A 
ENDROOT
BRANCH   1   7
ATOM      7  C   UNL     1      41.487   9.233   8.928  1.00  0.00     0.010 C 
ATOM      8  C   UNL     1      40.221   8.867   8.688  1.00  0.00     0.025 C 
BRANCH   8   9
ATOM      9  C   UNL     1      39.876   7.911   7.624  1.00  0.00     0.064 C 
ATOM     10  O   UNL     1      40.766   7.160   7.150  1.00  0.00    -0.545 OA
ATOM     11  O   UNL     1      38.578   7.825   7.131  1.00  0.00    -0.545 OA
ENDBRANCH   8   9
ENDBRANCH   1   7
BRANCH   4  12
ATOM     12  O   UNL     1      41.531  10.740  13.624  1.00  0.00    -0.504 OA
ATOM     13  H   UNL     1      41.104   9.885  13.948  1.00  0.00     0.293 HD
ENDBRANCH   4  12
BRANCH   6  14
ATOM     14  O   UNL     1      43.125  13.057  12.827  1.00  0.00    -0.504 OA
ATOM     15  H   UNL     1      42.501  13.650  13.355  1.00  0.00     0.293 HD
ENDBRANCH   6  14
TORSDOF 4
ENDMDL
MODEL 4
REMARK VINA RESULT:    -3.913      3.666      4.784
REMARK INTER + INTRA:          -4.726
REMARK INTER:                  -4.574
REMARK INTRA:                  -0.152
REMARK UNBOUND:                -0.127
REMARK SMILES O=C([O-])C=Cc1ccc(O)c(O)c1
REMARK SMILES IDX 6 1 13 2 7 3 11 4 8 5 9 6 5 7 4 8 2 9 1 10 3 11 12 12 10 14
REMARK H PARENT 12 13 10 15
REMARK Flexibility Score: inf
ROOT
ATOM      1  C   UNL     1      41.493   9.163  10.738  1.00  0.00    -0.022 A 
ATOM      2  C   UNL     1      41.988  10.430  11.105  1.00  0.00     0.058 A 
ATOM      3  C   UNL     1      41.248   8.217  11.742  1.00  0.00     0.012 A 
ATOM      4  C   UNL     1      42.259  10.737  12.444  1.00  0.00     0.157 A 
ATOM      5  C   UNL     1      41.517   8.514  13.079  1.00  0.00     0.051 A 
ATOM      6  C   UNL     1      42.025   9.764  13.444  1.00  0.00     0.157 A 
ENDROOT
BRANCH   1   7
ATOM      7  C   UNL     1      41.183   8.803   9.331  1.00  0.00     0.010 C 
ATOM      8  C   UNL     1      40.883   7.560   8.930  1.00  0.00     0.025 C 
BRANCH   8   9
ATOM      9  C   UNL     1      40.569   7.250   7.526  1.00  0.00     0.064 C 
ATOM     10  O   UNL     1      39.737   7.959   6.904  1.00  0.00    -0.545 OA
ATOM     11  O   UNL     1      41.177   6.183   6.875  1.00  0.00    -0.545 OA
ENDBRANCH   8   9
ENDBRANCH   1   7
BRANCH   4  12
ATOM     12  O   UNL     1      42.747  12.013  12.734  1.00  0.00    -0.504 OA
ATOM     13  H   UNL     1      43.385  12.522  12.140  1.00  0.00     0.293 HD
ENDBRANCH   4  12
BRANCH   6  14
ATOM     14  O   UNL     1      42.278   9.996  14.798  1.00  0.00    -0.504 OA
ATOM     15  H   UNL     1      42.589   9.285  15.444  1.00  0.00     0.293 HD
ENDBRANCH   6  14
TORSDOF 4
ENDMDL
MODEL 5
REMARK VINA RESULT:    -3.478      3.357      3.933
REMARK INTER + INTRA:          -4.214
REMARK INTER:                  -4.090
REMARK INTRA:                  -0.124
REMARK UNBOUND:                -0.127
REMARK SMILES O=C([O-])C=Cc1ccc(O)c(O)c1
REMARK SMILES IDX 6 1 13 2 7 3 11 4 8 5 9 6 5 7 4 8 2 9 1 10 3 11 12 12 10 14
REMARK H PARENT 12 13 10 15
REMARK Flexibility Score: inf
ROOT
ATOM      1  C   UNL     1      41.353   9.707   8.986  1.00  0.00    -0.022 A 
ATOM      2  C   UNL     1      41.934   8.563   9.569  1.00  0.00     0.058 A 
ATOM      3  C   UNL     1      40.383   9.538   7.990  1.00  0.00     0.012 A 
ATOM      4  C   UNL     1      41.574   7.277   9.146  1.00  0.00     0.157 A 
ATOM      5  C   UNL     1      40.020   8.260   7.561  1.00  0.00     0.051 A 
ATOM      6  C   UNL     1      40.607   7.124   8.125  1.00  0.00     0.157 A 
ENDROOT
BRANCH   1   7
ATOM      7  C   UNL     1      41.700  11.085   9.414  1.00  0.00     0.010 C 
ATOM      8  C   UNL     1      41.125  11.709  10.452  1.00  0.00     0.025 C 
BRANCH   8   9
ATOM      9  C   UNL     1      41.508  13.073  10.849  1.00  0.00     0.064 C 
ATOM     10  O   UNL     1      40.670  14.006  10.758  1.00  0.00    -0.545 OA
ATOM     11  O   UNL     1      42.786  13.349  11.324  1.00  0.00    -0.545 OA
ENDBRANCH   8   9
ENDBRANCH   1   7
BRANCH   4  12
ATOM     12  O   UNL     1      42.190   6.190   9.769  1.00  0.00    -0.504 OA
ATOM     13  H   UNL     1      42.228   6.059  10.769  1.00  0.00     0.293 HD
ENDBRANCH   4  12
BRANCH   6  14
ATOM     14  O   UNL     1      40.204   5.875   7.648  1.00  0.00    -0.504 OA
ATOM     15  H   UNL     1      39.872   5.126   8.237  1.00  0.00     0.293 HD
ENDBRANCH   6  14
TORSDOF 4
ENDMDL
