MODEL 1
REMARK VINA RESULT:    -6.449      0.000      0.000
REMARK INTER + INTRA:          -6.826
REMARK INTER:                  -6.826
REMARK INTRA:                   0.000
REMARK UNBOUND:                 0.000
REMARK SMILES O=c1ccc2cc(O)c(O)cc2o1
REMARK SMILES IDX 4 1 3 2 2 3 1 4 13 5 12 6 11 7 9 8 7 9 6 10 5 11 8 12 10 14
REMARK H PARENT 8 13 10 15
REMARK Flexibility Score: inf
ROOT
ATOM      1  C   UNL     1      96.232 -58.998 105.064  1.00  0.00     0.019 A 
ATOM      2  C   UNL     1      97.319 -59.784 105.446  1.00  0.00     0.094 A 
ATOM      3  C   UNL     1      97.333 -61.138 105.095  1.00  0.00     0.336 A 
ATOM      4  O   UNL     1      98.306 -61.863 105.431  1.00  0.00    -0.246 OA
ATOM      5  O   UNL     1      96.324 -61.666 104.408  1.00  0.00    -0.423 OA
ATOM      6  C   UNL     1      95.268 -60.952 104.024  1.00  0.00     0.142 A 
ATOM      7  C   UNL     1      94.237 -61.562 103.303  1.00  0.00     0.098 A 
ATOM      8  C   UNL     1      93.123 -60.818 102.896  1.00  0.00     0.161 A 
ATOM      9  C   UNL     1      93.038 -59.450 103.212  1.00  0.00     0.158 A 
ATOM     10  C   UNL     1      94.071 -58.834 103.935  1.00  0.00     0.062 A 
ATOM     11  C   UNL     1      95.185 -59.580 104.342  1.00  0.00     0.022 A 
ENDROOT
BRANCH   9  12
ATOM     12  O   UNL     1      91.929 -58.708 102.807  1.00  0.00    -0.504 OA
ATOM     13  H   UNL     1      91.148 -59.140 102.328  1.00  0.00     0.293 HD
ENDBRANCH   9  12
BRANCH   8  14
ATOM     14  O   UNL     1      92.111 -61.456 102.179  1.00  0.00    -0.504 OA
ATOM     15  H   UNL     1      91.292 -61.842 102.632  1.00  0.00     0.293 HD
ENDBRANCH   8  14
TORSDOF 2
ENDMDL
MODEL 2
REMARK VINA RESULT:    -6.240      1.170      1.329
REMARK INTER + INTRA:          -6.605
REMARK INTER:                  -6.605
REMARK INTRA:                   0.000
REMARK UNBOUND:                 0.000
REMARK SMILES O=c1ccc2cc(O)c(O)cc2o1
REMARK SMILES IDX 4 1 3 2 2 3 1 4 13 5 12 6 11 7 9 8 7 9 6 10 5 11 8 12 10 14
REMARK H PARENT 8 13 10 15
REMARK Flexibility Score: inf
ROOT
ATOM      1  C   UNL     1      95.279 -59.459 104.682  1.00  0.00     0.019 A 
ATOM      2  C   UNL     1      96.239 -60.404 105.039  1.00  0.00     0.094 A 
ATOM      3  C   UNL     1      96.265 -61.631 104.368  1.00  0.00     0.336 A 
ATOM      4  O   UNL     1      97.124 -62.498 104.677  1.00  0.00    -0.246 OA
ATOM      5  O   UNL     1      95.385 -61.890 103.404  1.00  0.00    -0.423 OA
ATOM      6  C   UNL     1      94.453 -61.015 103.032  1.00  0.00     0.142 A 
ATOM      7  C   UNL     1      93.556 -61.343 102.011  1.00  0.00     0.098 A 
ATOM      8  C   UNL     1      92.573 -60.428 101.614  1.00  0.00     0.161 A 
ATOM      9  C   UNL     1      92.485 -59.173 102.244  1.00  0.00     0.158 A 
ATOM     10  C   UNL     1      93.383 -58.841 103.269  1.00  0.00     0.062 A 
ATOM     11  C   UNL     1      94.367 -59.757 103.664  1.00  0.00     0.022 A 
ENDROOT
BRANCH   9  12
ATOM     12  O   UNL     1      91.506 -58.263 101.850  1.00  0.00    -0.504 OA
ATOM     13  H   UNL     1      90.796 -57.934 102.494  1.00  0.00     0.293 HD
ENDBRANCH   9  12
BRANCH   8  14
ATOM     14  O   UNL     1      91.692 -60.785 100.593  1.00  0.00    -0.504 OA
ATOM     15  H   UNL     1      90.868 -61.350 100.765  1.00  0.00     0.293 HD
ENDBRANCH   8  14
TORSDOF 2
ENDMDL
MODEL 3
REMARK VINA RESULT:    -6.144      1.070      2.270
REMARK INTER + INTRA:          -6.503
REMARK INTER:                  -6.503
REMARK INTRA:                   0.000
REMARK UNBOUND:                 0.000
REMARK SMILES O=c1ccc2cc(O)c(O)cc2o1
REMARK SMILES IDX 4 1 3 2 2 3 1 4 13 5 12 6 11 7 9 8 7 9 6 10 5 11 8 12 10 14
REMARK H PARENT 8 13 10 15
REMARK Flexibility Score: inf
ROOT
ATOM      1  C   UNL     1      95.961 -62.115 104.009  1.00  0.00     0.019 A 
ATOM      2  C   UNL     1      97.000 -61.600 104.783  1.00  0.00     0.094 A 
ATOM      3  C   UNL     1      96.963 -60.251 105.155  1.00  0.00     0.336 A 
ATOM      4  O   UNL     1      97.892 -59.768 105.853  1.00  0.00    -0.246 OA
ATOM      5  O   UNL     1      95.952 -59.475 104.775  1.00  0.00    -0.423 OA
ATOM      6  C   UNL     1      94.941 -59.928 104.037  1.00  0.00     0.142 A 
ATOM      7  C   UNL     1      93.905 -59.064 103.668  1.00  0.00     0.098 A 
ATOM      8  C   UNL     1      92.838 -59.532 102.891  1.00  0.00     0.161 A 
ATOM      9  C   UNL     1      92.806 -60.877 102.479  1.00  0.00     0.158 A 
ATOM     10  C   UNL     1      93.843 -61.746 102.847  1.00  0.00     0.062 A 
ATOM     11  C   UNL     1      94.910 -61.276 103.624  1.00  0.00     0.022 A 
ENDROOT
BRANCH   9  12
ATOM     12  O   UNL     1      91.744 -61.343 101.705  1.00  0.00    -0.504 OA
ATOM     13  H   UNL     1      91.818 -61.430 100.698  1.00  0.00     0.293 HD
ENDBRANCH   9  12
BRANCH   8  14
ATOM     14  O   UNL     1      91.820 -58.646 102.539  1.00  0.00    -0.504 OA
ATOM     15  H   UNL     1      90.848 -58.929 102.504  1.00  0.00     0.293 HD
ENDBRANCH   8  14
TORSDOF 2
ENDMDL
MODEL 4
REMARK VINA RESULT:    -6.044      1.736      4.860
REMARK INTER + INTRA:          -6.397
REMARK INTER:                  -6.397
REMARK INTRA:                   0.000
REMARK UNBOUND:                 0.000
REMARK SMILES O=c1ccc2cc(O)c(O)cc2o1
REMARK SMILES IDX 4 1 3 2 2 3 1 4 13 5 12 6 11 7 9 8 7 9 6 10 5 11 8 12 10 14
REMARK H PARENT 8 13 10 15
REMARK Flexibility Score: inf
ROOT
ATOM      1  C   UNL     1      92.417 -58.612 101.894  1.00  0.00     0.019 A 
ATOM      2  C   UNL     1      91.746 -59.076 100.764  1.00  0.00     0.094 A 
ATOM      3  C   UNL     1      92.005 -60.373 100.306  1.00  0.00     0.336 A 
ATOM      4  O   UNL     1      91.409 -60.809  99.287  1.00  0.00    -0.246 OA
ATOM      5  O   UNL     1      92.879 -61.149 100.941  1.00  0.00    -0.423 OA
ATOM      6  C   UNL     1      93.541 -60.745 102.023  1.00  0.00     0.142 A 
ATOM      7  C   UNL     1      94.447 -61.606 102.649  1.00  0.00     0.098 A 
ATOM      8  C   UNL     1      95.147 -61.189 103.787  1.00  0.00     0.161 A 
ATOM      9  C   UNL     1      94.940 -59.897 104.306  1.00  0.00     0.158 A 
ATOM     10  C   UNL     1      94.031 -59.031 103.682  1.00  0.00     0.062 A 
ATOM     11  C   UNL     1      93.331 -59.450 102.542  1.00  0.00     0.022 A 
ENDROOT
BRANCH   9  12
ATOM     12  O   UNL     1      95.637 -59.481 105.440  1.00  0.00    -0.504 OA
ATOM     13  H   UNL     1      96.239 -58.667 105.423  1.00  0.00     0.293 HD
ENDBRANCH   9  12
BRANCH   8  14
ATOM     14  O   UNL     1      96.046 -62.070 104.388  1.00  0.00    -0.504 OA
ATOM     15  H   UNL     1      96.973 -62.233 104.014  1.00  0.00     0.293 HD
ENDBRANCH   8  14
TORSDOF 2
ENDMDL
MODEL 5
REMARK VINA RESULT:    -6.034      1.408      5.159
REMARK INTER + INTRA:          -6.387
REMARK INTER:                  -6.387
REMARK INTRA:                   0.000
REMARK UNBOUND:                 0.000
REMARK SMILES O=c1ccc2cc(O)c(O)cc2o1
REMARK SMILES IDX 4 1 3 2 2 3 1 4 13 5 12 6 11 7 9 8 7 9 6 10 5 11 8 12 10 14
REMARK H PARENT 8 13 10 15
REMARK Flexibility Score: inf
ROOT
ATOM      1  C   UNL     1      93.029 -61.238 101.665  1.00  0.00     0.019 A 
ATOM      2  C   UNL     1      92.125 -60.364 101.062  1.00  0.00     0.094 A 
ATOM      3  C   UNL     1      92.074 -59.035 101.497  1.00  0.00     0.336 A 
ATOM      4  O   UNL     1      91.264 -58.231 100.965  1.00  0.00    -0.246 OA
ATOM      5  O   UNL     1      92.875 -58.614 102.472  1.00  0.00    -0.423 OA
ATOM      6  C   UNL     1      93.752 -59.415 103.074  1.00  0.00     0.142 A 
ATOM      7  C   UNL     1      94.569 -58.916 104.092  1.00  0.00     0.098 A 
ATOM      8  C   UNL     1      95.494 -59.752 104.730  1.00  0.00     0.161 A 
ATOM      9  C   UNL     1      95.603 -61.101 104.346  1.00  0.00     0.158 A 
ATOM     10  C   UNL     1      94.785 -61.606 103.325  1.00  0.00     0.062 A 
ATOM     11  C   UNL     1      93.860 -60.768 102.687  1.00  0.00     0.022 A 
ENDROOT
BRANCH   9  12
ATOM     12  O   UNL     1      96.522 -61.935 104.981  1.00  0.00    -0.504 OA
ATOM     13  H   UNL     1      96.630 -62.907 104.716  1.00  0.00     0.293 HD
ENDBRANCH   9  12
BRANCH   8  14
ATOM     14  O   UNL     1      96.294 -59.224 105.743  1.00  0.00    -0.504 OA
ATOM     15  H   UNL     1      96.788 -58.346 105.637  1.00  0.00     0.293 HD
ENDBRANCH   8  14
TORSDOF 2
ENDMDL
MODEL 6
REMARK VINA RESULT:    -5.881      1.594      2.825
REMARK INTER + INTRA:          -6.225
REMARK INTER:                  -6.225
REMARK INTRA:                   0.000
REMARK UNBOUND:                 0.000
REMARK SMILES O=c1ccc2cc(O)c(O)cc2o1
REMARK SMILES IDX 4 1 3 2 2 3 1 4 13 5 12 6 11 7 9 8 7 9 6 10 5 11 8 12 10 14
REMARK H PARENT 8 13 10 15
REMARK Flexibility Score: inf
ROOT
ATOM      1  C   UNL     1      94.940 -62.578 102.541  1.00  0.00     0.019 A 
ATOM      2  C   UNL     1      95.898 -62.560 103.554  1.00  0.00     0.094 A 
ATOM      3  C   UNL     1      96.025 -61.414 104.346  1.00  0.00     0.336 A 
ATOM      4  O   UNL     1      96.885 -61.378 105.265  1.00  0.00    -0.246 OA
ATOM      5  O   UNL     1      95.243 -60.359 104.134  1.00  0.00    -0.423 OA
ATOM      6  C   UNL     1      94.316 -60.335 103.179  1.00  0.00     0.142 A 
ATOM      7  C   UNL     1      93.523 -59.197 103.004  1.00  0.00     0.098 A 
ATOM      8  C   UNL     1      92.546 -59.164 102.002  1.00  0.00     0.161 A 
ATOM      9  C   UNL     1      92.360 -60.280 101.165  1.00  0.00     0.158 A 
ATOM     10  C   UNL     1      93.154 -61.424 101.337  1.00  0.00     0.062 A 
ATOM     11  C   UNL     1      94.131 -61.455 102.341  1.00  0.00     0.022 A 
ENDROOT
BRANCH   9  12
ATOM     12  O   UNL     1      91.388 -60.248 100.166  1.00  0.00    -0.504 OA
ATOM     13  H   UNL     1      91.222 -59.416  99.613  1.00  0.00     0.293 HD
ENDBRANCH   9  12
BRANCH   8  14
ATOM     14  O   UNL     1      91.771 -58.014 101.851  1.00  0.00    -0.504 OA
ATOM     15  H   UNL     1      90.835 -57.943 102.232  1.00  0.00     0.293 HD
ENDBRANCH   8  14
TORSDOF 2
ENDMDL
MODEL 7
REMARK VINA RESULT:    -5.828      1.790      2.608
REMARK INTER + INTRA:          -6.168
REMARK INTER:                  -6.168
REMARK INTRA:                   0.000
REMARK UNBOUND:                 0.000
REMARK SMILES O=c1ccc2cc(O)c(O)cc2o1
REMARK SMILES IDX 4 1 3 2 2 3 1 4 13 5 12 6 11 7 9 8 7 9 6 10 5 11 8 12 10 14
REMARK H PARENT 8 13 10 15
REMARK Flexibility Score: inf
ROOT
ATOM      1  C   UNL     1      93.816 -59.073 103.505  1.00  0.00     0.019 A 
ATOM      2  C   UNL     1      94.849 -58.848 104.414  1.00  0.00     0.094 A 
ATOM      3  C   UNL     1      95.758 -59.878 104.675  1.00  0.00     0.336 A 
ATOM      4  O   UNL     1      96.698 -59.694 105.493  1.00  0.00    -0.246 OA
ATOM      5  O   UNL     1      95.638 -61.053 104.065  1.00  0.00    -0.423 OA
ATOM      6  C   UNL     1      94.667 -61.310 103.190  1.00  0.00     0.142 A 
ATOM      7  C   UNL     1      94.591 -62.565 102.579  1.00  0.00     0.098 A 
ATOM      8  C   UNL     1      93.573 -62.842 101.659  1.00  0.00     0.161 A 
ATOM      9  C   UNL     1      92.620 -61.855 101.346  1.00  0.00     0.158 A 
ATOM     10  C   UNL     1      92.693 -60.594 101.957  1.00  0.00     0.062 A 
ATOM     11  C   UNL     1      93.713 -60.318 102.878  1.00  0.00     0.022 A 
ENDROOT
BRANCH   9  12
ATOM     12  O   UNL     1      91.606 -62.130 100.430  1.00  0.00    -0.504 OA
ATOM     13  H   UNL     1      91.013 -61.398 100.057  1.00  0.00     0.293 HD
ENDBRANCH   9  12
BRANCH   8  14
ATOM     14  O   UNL     1      93.523 -64.104 101.067  1.00  0.00    -0.504 OA
ATOM     15  H   UNL     1      93.460 -64.954 101.615  1.00  0.00     0.293 HD
ENDBRANCH   8  14
TORSDOF 2
ENDMDL
MODEL 8
REMARK VINA RESULT:    -5.807      2.326      3.507
REMARK INTER + INTRA:          -6.147
REMARK INTER:                  -6.147
REMARK INTRA:                   0.000
REMARK UNBOUND:                 0.000
REMARK SMILES O=c1ccc2cc(O)c(O)cc2o1
REMARK SMILES IDX 4 1 3 2 2 3 1 4 13 5 12 6 11 7 9 8 7 9 6 10 5 11 8 12 10 14
REMARK H PARENT 8 13 10 15
REMARK Flexibility Score: inf
ROOT
ATOM      1  C   UNL     1      96.026 -62.583 103.415  1.00  0.00     0.019 A 
ATOM      2  C   UNL     1      95.917 -63.710 102.602  1.00  0.00     0.094 A 
ATOM      3  C   UNL     1      94.843 -63.803 101.710  1.00  0.00     0.336 A 
ATOM      4  O   UNL     1      94.728 -64.813 100.968  1.00  0.00    -0.246 OA
ATOM      5  O   UNL     1      93.940 -62.828 101.641  1.00  0.00    -0.423 OA
ATOM      6  C   UNL     1      94.007 -61.736 102.399  1.00  0.00     0.142 A 
ATOM      7  C   UNL     1      93.028 -60.744 102.282  1.00  0.00     0.098 A 
ATOM      8  C   UNL     1      93.091 -59.592 103.075  1.00  0.00     0.161 A 
ATOM      9  C   UNL     1      94.143 -59.429 103.996  1.00  0.00     0.158 A 
ATOM     10  C   UNL     1      95.127 -60.422 104.116  1.00  0.00     0.062 A 
ATOM     11  C   UNL     1      95.062 -61.574 103.321  1.00  0.00     0.022 A 
ENDROOT
BRANCH   9  12
ATOM     12  O   UNL     1      94.206 -58.283 104.786  1.00  0.00    -0.504 OA
ATOM     13  H   UNL     1      94.693 -58.276 105.675  1.00  0.00     0.293 HD
ENDBRANCH   9  12
BRANCH   8  14
ATOM     14  O   UNL     1      92.100 -58.621 102.935  1.00  0.00    -0.504 OA
ATOM     15  H   UNL     1      91.768 -58.074 103.720  1.00  0.00     0.293 HD
ENDBRANCH   8  14
TORSDOF 2
ENDMDL
MODEL 9
REMARK VINA RESULT:    -5.694      1.127      4.590
REMARK INTER + INTRA:          -6.027
REMARK INTER:                  -6.027
REMARK INTRA:                   0.000
REMARK UNBOUND:                 0.000
REMARK SMILES O=c1ccc2cc(O)c(O)cc2o1
REMARK SMILES IDX 4 1 3 2 2 3 1 4 13 5 12 6 11 7 9 8 7 9 6 10 5 11 8 12 10 14
REMARK H PARENT 8 13 10 15
REMARK Flexibility Score: inf
ROOT
ATOM      1  C   UNL     1      94.486 -58.989 104.090  1.00  0.00     0.019 A 
ATOM      2  C   UNL     1      93.383 -59.428 103.359  1.00  0.00     0.094 A 
ATOM      3  C   UNL     1      93.320 -60.770 102.966  1.00  0.00     0.336 A 
ATOM      4  O   UNL     1      92.332 -61.185 102.306  1.00  0.00    -0.246 OA
ATOM      5  O   UNL     1      94.300 -61.611 103.285  1.00  0.00    -0.423 OA
ATOM      6  C   UNL     1      95.370 -61.233 103.981  1.00  0.00     0.142 A 
ATOM      7  C   UNL     1      96.368 -62.162 104.287  1.00  0.00     0.098 A 
ATOM      8  C   UNL     1      97.497 -61.772 105.018  1.00  0.00     0.161 A 
ATOM      9  C   UNL     1      97.629 -60.439 105.448  1.00  0.00     0.158 A 
ATOM     10  C   UNL     1      96.630 -59.503 105.144  1.00  0.00     0.062 A 
ATOM     11  C   UNL     1      95.501 -59.895 104.411  1.00  0.00     0.022 A 
ENDROOT
BRANCH   9  12
ATOM     12  O   UNL     1      98.753 -60.050 106.176  1.00  0.00    -0.504 OA
ATOM     13  H   UNL     1      99.119 -59.107 106.124  1.00  0.00     0.293 HD
ENDBRANCH   9  12
BRANCH   8  14
ATOM     14  O   UNL     1      98.476 -62.723 105.307  1.00  0.00    -0.504 OA
ATOM     15  H   UNL     1      99.270 -62.880 104.698  1.00  0.00     0.293 HD
ENDBRANCH   8  14
TORSDOF 2
ENDMDL
