MODEL 1
REMARK VINA RESULT:    19.033      0.000      0.000
REMARK INTER + INTRA:          54.788
REMARK INTER:                  47.961
REMARK INTRA:                   6.827
REMARK UNBOUND:                 6.827
REMARK SMILES CCCCCCCCCCCCCCCCCCCCCCCCCCCC(=O)[O-]
REMARK SMILES IDX 15 1 16 2 17 3 18 4 19 5 20 6 21 7 22 8 23 9 24 10 25 11
REMARK SMILES IDX 26 12 27 13 28 14 29 15 30 16 14 17 13 18 12 19 11 20 10 21
REMARK SMILES IDX 9 22 8 23 7 24 6 25 5 26 4 27 3 28 2 29 1 30
REMARK H PARENT
REMARK Flexibility Score: inf
ROOT
ATOM      1  C   UNL     1      58.349  -4.432  -1.352  1.00  0.00     0.000 C 
ENDROOT
BRANCH   1   2
ATOM      2  C   UNL     1      59.043  -3.748  -0.162  1.00  0.00     0.000 C 
BRANCH   2   3
ATOM      3  C   UNL     1      58.618  -4.332   1.194  1.00  0.00     0.000 C 
BRANCH   3   4
ATOM      4  C   UNL     1      57.097  -4.534   1.257  1.00  0.00     0.000 C 
BRANCH   4   5
ATOM      5  C   UNL     1      56.697  -6.010   1.439  1.00  0.00     0.000 C 
BRANCH   5   6
ATOM      6  C   UNL     1      55.720  -6.557   0.380  1.00  0.00     0.000 C 
BRANCH   6   7
ATOM      7  C   UNL     1      54.446  -5.718   0.174  1.00  0.00     0.000 C 
BRANCH   7   8
ATOM      8  C   UNL     1      54.146  -4.790   1.360  1.00  0.00     0.000 C 
BRANCH   8   9
ATOM      9  C   UNL     1      54.506  -3.336   1.019  1.00  0.00     0.000 C 
BRANCH   9  10
ATOM     10  C   UNL     1      53.308  -2.531   0.485  1.00  0.00     0.000 C 
BRANCH  10  11
ATOM     11  C   UNL     1      53.590  -1.703  -0.785  1.00  0.00     0.000 C 
BRANCH  11  12
ATOM     12  C   UNL     1      52.415  -1.601  -1.774  1.00  0.00     0.006 C 
BRANCH  12  13
ATOM     13  C   UNL     1      52.869  -1.572  -3.240  1.00  0.00     0.053 C 
BRANCH  13  14
ATOM     14  C   UNL     1      52.293  -0.385  -3.950  1.00  0.00     0.041 C 
ATOM     15  O   UNL     1      52.802   0.757  -3.787  1.00  0.00    -0.550 OA
ATOM     16  O   UNL     1      51.176  -0.533  -4.763  1.00  0.00    -0.550 OA
ENDBRANCH  13  14
ENDBRANCH  12  13
ENDBRANCH  11  12
ENDBRANCH  10  11
ENDBRANCH   9  10
ENDBRANCH   8   9
ENDBRANCH   7   8
ENDBRANCH   6   7
ENDBRANCH   5   6
ENDBRANCH   4   5
ENDBRANCH   3   4
ENDBRANCH   2   3
ENDBRANCH   1   2
BRANCH   1  17
ATOM     17  C   UNL     1      58.864  -5.845  -1.691  1.00  0.00     0.000 C 
BRANCH  17  18
ATOM     18  C   UNL     1      59.048  -6.106  -3.200  1.00  0.00     0.000 C 
BRANCH  18  19
ATOM     19  C   UNL     1      58.870  -4.836  -4.052  1.00  0.00     0.000 C 
BRANCH  19  20
ATOM     20  C   UNL     1      58.297  -5.134  -5.446  1.00  0.00     0.000 C 
BRANCH  20  21
ATOM     21  C   UNL     1      59.023  -4.362  -6.564  1.00  0.00     0.000 C 
BRANCH  21  22
ATOM     22  C   UNL     1      58.227  -3.144  -7.060  1.00  0.00    -0.000 C 
BRANCH  22  23
ATOM     23  C   UNL     1      57.661  -2.299  -5.906  1.00  0.00    -0.000 C 
BRANCH  23  24
ATOM     24  C   UNL     1      58.557  -1.099  -5.550  1.00  0.00    -0.000 C 
BRANCH  24  25
ATOM     25  C   UNL     1      59.111  -0.315  -6.755  1.00  0.00    -0.000 C 
BRANCH  25  26
ATOM     26  C   UNL     1      59.071   1.218  -6.574  1.00  0.00    -0.000 C 
BRANCH  26  27
ATOM     27  C   UNL     1      57.666   1.798  -6.812  1.00  0.00    -0.000 C 
BRANCH  27  28
ATOM     28  C   UNL     1      56.593   0.709  -6.969  1.00  0.00    -0.000 C 
BRANCH  28  29
ATOM     29  C   UNL     1      56.675  -0.387  -5.886  1.00  0.00    -0.003 C 
ATOM     30  C   UNL     1      55.293  -0.847  -5.423  1.00  0.00     0.004 C 
ENDBRANCH  28  29
ENDBRANCH  27  28
ENDBRANCH  26  27
ENDBRANCH  25  26
ENDBRANCH  24  25
ENDBRANCH  23  24
ENDBRANCH  22  23
ENDBRANCH  21  22
ENDBRANCH  20  21
ENDBRANCH  19  20
ENDBRANCH  18  19
ENDBRANCH  17  18
ENDBRANCH   1  17
TORSDOF 26
ENDMDL
MODEL 2
REMARK VINA RESULT:    19.908      3.075      4.246
REMARK INTER + INTRA:          56.994
REMARK INTER:                  58.338
REMARK INTRA:                  -1.344
REMARK UNBOUND:                 6.827
REMARK SMILES CCCCCCCCCCCCCCCCCCCCCCCCCCCC(=O)[O-]
REMARK SMILES IDX 15 1 16 2 17 3 18 4 19 5 20 6 21 7 22 8 23 9 24 10 25 11
REMARK SMILES IDX 26 12 27 13 28 14 29 15 30 16 14 17 13 18 12 19 11 20 10 21
REMARK SMILES IDX 9 22 8 23 7 24 6 25 5 26 4 27 3 28 2 29 1 30
REMARK H PARENT
REMARK Flexibility Score: inf
ROOT
ATOM      1  C   UNL     1      58.005  -5.623  -1.068  1.00  0.00     0.000 C 
ENDROOT
BRANCH   1   2
ATOM      2  C   UNL     1      58.884  -5.353   0.165  1.00  0.00     0.000 C 
BRANCH   2   3
ATOM      3  C   UNL     1      59.123  -6.609   1.017  1.00  0.00     0.000 C 
BRANCH   3   4
ATOM      4  C   UNL     1      57.809  -7.122   1.626  1.00  0.00     0.000 C 
BRANCH   4   5
ATOM      5  C   UNL     1      56.920  -5.988   2.170  1.00  0.00     0.000 C 
BRANCH   5   6
ATOM      6  C   UNL     1      55.412  -6.150   1.891  1.00  0.00     0.000 C 
BRANCH   6   7
ATOM      7  C   UNL     1      54.882  -5.349   0.689  1.00  0.00     0.000 C 
BRANCH   7   8
ATOM      8  C   UNL     1      54.036  -4.137   1.109  1.00  0.00     0.000 C 
BRANCH   8   9
ATOM      9  C   UNL     1      54.810  -2.829   0.888  1.00  0.00     0.000 C 
BRANCH   9  10
ATOM     10  C   UNL     1      53.903  -1.585   0.900  1.00  0.00     0.000 C 
BRANCH  10  11
ATOM     11  C   UNL     1      53.059  -1.403   2.178  1.00  0.00     0.000 C 
BRANCH  11  12
ATOM     12  C   UNL     1      53.615  -2.099   3.433  1.00  0.00     0.006 C 
BRANCH  12  13
ATOM     13  C   UNL     1      53.140  -1.444   4.738  1.00  0.00     0.053 C 
BRANCH  13  14
ATOM     14  C   UNL     1      51.783  -1.950   5.122  1.00  0.00     0.041 C 
ATOM     15  O   UNL     1      51.133  -1.381   6.039  1.00  0.00    -0.550 OA
ATOM     16  O   UNL     1      51.252  -3.069   4.492  1.00  0.00    -0.550 OA
ENDBRANCH  13  14
ENDBRANCH  12  13
ENDBRANCH  11  12
ENDBRANCH  10  11
ENDBRANCH   9  10
ENDBRANCH   8   9
ENDBRANCH   7   8
ENDBRANCH   6   7
ENDBRANCH   5   6
ENDBRANCH   4   5
ENDBRANCH   3   4
ENDBRANCH   2   3
ENDBRANCH   1   2
BRANCH   1  17
ATOM     17  C   UNL     1      58.579  -6.639  -2.074  1.00  0.00     0.000 C 
BRANCH  17  18
ATOM     18  C   UNL     1      58.954  -6.033  -3.442  1.00  0.00     0.000 C 
BRANCH  18  19
ATOM     19  C   UNL     1      58.904  -4.494  -3.446  1.00  0.00     0.000 C 
BRANCH  19  20
ATOM     20  C   UNL     1      58.255  -3.926  -4.718  1.00  0.00     0.000 C 
BRANCH  20  21
ATOM     21  C   UNL     1      59.118  -4.146  -5.974  1.00  0.00     0.000 C 
BRANCH  21  22
ATOM     22  C   UNL     1      58.844  -3.109  -7.074  1.00  0.00    -0.000 C 
BRANCH  22  23
ATOM     23  C   UNL     1      57.552  -2.310  -6.823  1.00  0.00    -0.000 C 
BRANCH  23  24
ATOM     24  C   UNL     1      57.788  -1.045  -5.980  1.00  0.00    -0.000 C 
BRANCH  24  25
ATOM     25  C   UNL     1      56.684  -0.726  -4.954  1.00  0.00    -0.000 C 
BRANCH  25  26
ATOM     26  C   UNL     1      55.262  -1.086  -5.435  1.00  0.00    -0.000 C 
BRANCH  26  27
ATOM     27  C   UNL     1      54.299  -1.351  -4.265  1.00  0.00    -0.000 C 
BRANCH  27  28
ATOM     28  C   UNL     1      52.848  -0.961  -4.590  1.00  0.00    -0.000 C 
BRANCH  28  29
ATOM     29  C   UNL     1      51.934  -2.177  -4.849  1.00  0.00    -0.003 C 
ATOM     30  C   UNL     1      50.725  -1.819  -5.713  1.00  0.00     0.004 C 
ENDBRANCH  28  29
ENDBRANCH  27  28
ENDBRANCH  26  27
ENDBRANCH  25  26
ENDBRANCH  24  25
ENDBRANCH  23  24
ENDBRANCH  22  23
ENDBRANCH  21  22
ENDBRANCH  20  21
ENDBRANCH  19  20
ENDBRANCH  18  19
ENDBRANCH  17  18
ENDBRANCH   1  17
TORSDOF 26
ENDMDL
MODEL 3
REMARK VINA RESULT:    21.474     19.802     23.577
REMARK INTER + INTRA:          60.940
REMARK INTER:                  62.244
REMARK INTRA:                  -1.304
REMARK UNBOUND:                 6.827
REMARK SMILES CCCCCCCCCCCCCCCCCCCCCCCCCCCC(=O)[O-]
REMARK SMILES IDX 15 1 16 2 17 3 18 4 19 5 20 6 21 7 22 8 23 9 24 10 25 11
REMARK SMILES IDX 26 12 27 13 28 14 29 15 30 16 14 17 13 18 12 19 11 20 10 21
REMARK SMILES IDX 9 22 8 23 7 24 6 25 5 26 4 27 3 28 2 29 1 30
REMARK H PARENT
REMARK Flexibility Score: inf
ROOT
ATOM      1  C   UNL     1      39.234   7.547  13.033  1.00  0.00     0.000 C 
ENDROOT
BRANCH   1   2
ATOM      2  C   UNL     1      38.995   9.056  12.862  1.00  0.00     0.000 C 
BRANCH   2   3
ATOM      3  C   UNL     1      40.068   9.738  11.998  1.00  0.00     0.000 C 
BRANCH   3   4
ATOM      4  C   UNL     1      39.508  10.115  10.618  1.00  0.00     0.000 C 
BRANCH   4   5
ATOM      5  C   UNL     1      40.608  10.283   9.553  1.00  0.00     0.000 C 
BRANCH   5   6
ATOM      6  C   UNL     1      41.644   9.143   9.499  1.00  0.00     0.000 C 
BRANCH   6   7
ATOM      7  C   UNL     1      42.733   9.303   8.423  1.00  0.00     0.000 C 
BRANCH   7   8
ATOM      8  C   UNL     1      42.547  10.567   7.571  1.00  0.00     0.000 C 
BRANCH   8   9
ATOM      9  C   UNL     1      43.630  10.657   6.485  1.00  0.00     0.000 C 
BRANCH   9  10
ATOM     10  C   UNL     1      43.403   9.666   5.329  1.00  0.00     0.000 C 
BRANCH  10  11
ATOM     11  C   UNL     1      43.170  10.312   3.949  1.00  0.00     0.000 C 
BRANCH  11  12
ATOM     12  C   UNL     1      41.955  11.253   3.865  1.00  0.00     0.006 C 
BRANCH  12  13
ATOM     13  C   UNL     1      40.744  10.605   3.179  1.00  0.00     0.053 C 
BRANCH  13  14
ATOM     14  C   UNL     1      40.881  10.669   1.689  1.00  0.00     0.041 C 
ATOM     15  O   UNL     1      41.867  10.130   1.120  1.00  0.00    -0.550 OA
ATOM     16  O   UNL     1      39.938  11.354   0.932  1.00  0.00    -0.550 OA
ENDBRANCH  13  14
ENDBRANCH  12  13
ENDBRANCH  11  12
ENDBRANCH  10  11
ENDBRANCH   9  10
ENDBRANCH   8   9
ENDBRANCH   7   8
ENDBRANCH   6   7
ENDBRANCH   5   6
ENDBRANCH   4   5
ENDBRANCH   3   4
ENDBRANCH   2   3
ENDBRANCH   1   2
BRANCH   1  17
ATOM     17  C   UNL     1      40.713   7.121  13.124  1.00  0.00     0.000 C 
BRANCH  17  18
ATOM     18  C   UNL     1      41.034   5.794  12.404  1.00  0.00     0.000 C 
BRANCH  18  19
ATOM     19  C   UNL     1      40.369   4.577  13.072  1.00  0.00     0.000 C 
BRANCH  19  20
ATOM     20  C   UNL     1      41.004   3.245  12.641  1.00  0.00     0.000 C 
BRANCH  20  21
ATOM     21  C   UNL     1      40.119   2.456  11.659  1.00  0.00     0.000 C 
BRANCH  21  22
ATOM     22  C   UNL     1      38.912   1.796  12.343  1.00  0.00    -0.000 C 
BRANCH  22  23
ATOM     23  C   UNL     1      39.292   0.507  13.094  1.00  0.00    -0.000 C 
BRANCH  23  24
ATOM     24  C   UNL     1      40.579  -0.140  12.554  1.00  0.00    -0.000 C 
BRANCH  24  25
ATOM     25  C   UNL     1      40.497  -1.660  12.312  1.00  0.00    -0.000 C 
BRANCH  25  26
ATOM     26  C   UNL     1      39.062  -2.225  12.378  1.00  0.00    -0.000 C 
BRANCH  26  27
ATOM     27  C   UNL     1      38.991  -3.692  11.919  1.00  0.00    -0.000 C 
BRANCH  27  28
ATOM     28  C   UNL     1      39.120  -3.844  10.395  1.00  0.00    -0.000 C 
BRANCH  28  29
ATOM     29  C   UNL     1      39.104  -5.314   9.926  1.00  0.00    -0.003 C 
ATOM     30  C   UNL     1      40.226  -6.136  10.558  1.00  0.00     0.004 C 
ENDBRANCH  28  29
ENDBRANCH  27  28
ENDBRANCH  26  27
ENDBRANCH  25  26
ENDBRANCH  24  25
ENDBRANCH  23  24
ENDBRANCH  22  23
ENDBRANCH  21  22
ENDBRANCH  20  21
ENDBRANCH  19  20
ENDBRANCH  18  19
ENDBRANCH  17  18
ENDBRANCH   1  17
TORSDOF 26
ENDMDL
