MODEL 1
REMARK VINA RESULT:    -9.158      0.000      0.000
REMARK INTER + INTRA:          -9.992
REMARK INTER:                  -9.961
REMARK INTRA:                  -0.031
REMARK UNBOUND:                -0.031
REMARK SMILES C[C@@H]1[C@H]2C3=CC[C@H]4[C@@]5(C)CC[C@H](O)C(C)(C)[C@H]5CC[C@@]4(C)[C@]3(C)CC[C@@]2(C(=O)[O-])CC[C@@H]1C
REMARK SMILES IDX 26 1 30 2 25 3 3 4 31 5 24 6 4 7 2 8 32 9 22 10 5 11 1 12
REMARK SMILES IDX 33 13 23 14 20 15 6 16 7 17 19 18 21 19 8 20 18 21 17 22
REMARK SMILES IDX 10 23 9 24 14 25 11 26 12 27 15 28 16 29 27 30 28 31 29 32
REMARK SMILES IDX 13 33
REMARK H PARENT 13 34
REMARK Flexibility Score: inf
ROOT
ATOM      1  C   UNL     1       9.543  -3.923  11.764  1.00  0.00     0.017 C 
ATOM      2  C   UNL     1       8.645  -3.830  10.498  1.00  0.00     0.014 C 
ATOM      3  C   UNL     1       8.704  -4.363  12.992  1.00  0.00     0.014 C 
ATOM      4  C   UNL     1      10.235  -2.551  12.070  1.00  0.00     0.030 C 
ATOM      5  C   UNL     1       7.714  -2.610  10.480  1.00  0.00     0.004 C 
ATOM      6  C   UNL     1       9.543  -4.464  14.289  1.00  0.00     0.013 C 
ATOM      7  C   UNL     1      11.002  -2.653  13.409  1.00  0.00    -0.063 C 
ATOM      8  C   UNL     1       9.300  -1.307  11.965  1.00  0.00    -0.003 C 
ATOM      9  C   UNL     1       8.486  -1.289  10.641  1.00  0.00    -0.011 C 
ATOM     10  C   UNL     1      10.298  -3.145  14.701  1.00  0.00    -0.006 C 
ATOM     11  C   UNL     1      12.340  -2.621  13.304  1.00  0.00    -0.027 C 
ATOM     12  C   UNL     1      10.085   0.004  12.161  1.00  0.00     0.008 C 
ATOM     13  C   UNL     1       9.316  -0.960   9.383  1.00  0.00     0.008 C 
ATOM     14  C   UNL     1       9.227  -2.100  15.162  1.00  0.00     0.017 C 
ATOM     15  C   UNL     1      11.330  -3.401  15.940  1.00  0.00    -0.020 C 
ATOM     16  C   UNL     1      13.291  -3.072  14.350  1.00  0.00     0.032 C 
ATOM     17  C   UNL     1      12.690  -4.007  15.438  1.00  0.00     0.006 C 
ATOM     18  C   UNL     1      11.686  -2.066  16.690  1.00  0.00     0.008 C 
ATOM     19  C   UNL     1      10.618  -4.372  16.948  1.00  0.00     0.012 C 
ATOM     20  C   UNL     1      13.749  -4.369  16.616  1.00  0.00    -0.025 C 
ATOM     21  C   UNL     1      13.054  -2.009  17.432  1.00  0.00     0.005 C 
ATOM     22  C   UNL     1      13.617  -3.387  17.873  1.00  0.00     0.003 C 
ATOM     23  C   UNL     1      15.216  -4.340  16.049  1.00  0.00     0.010 C 
ATOM     24  C   UNL     1      13.467  -5.844  17.058  1.00  0.00     0.012 C 
ATOM     25  C   UNL     1      14.877  -3.306  18.861  1.00  0.00    -0.006 C 
ATOM     26  C   UNL     1      16.323  -4.445  17.092  1.00  0.00     0.033 C 
ATOM     27  C   UNL     1      16.222  -3.285  18.078  1.00  0.00     0.120 C 
ATOM     28  C   UNL     1      14.831  -2.033  19.751  1.00  0.00     0.014 C 
ATOM     29  C   UNL     1      14.852  -4.499  19.863  1.00  0.00     0.014 C 
ENDROOT
BRANCH   1  30
ATOM     30  C   UNL     1      10.583  -5.004  11.467  1.00  0.00     0.048 C 
ATOM     31  O   UNL     1      11.590  -4.758  10.749  1.00  0.00    -0.550 OA
ATOM     32  O   UNL     1      10.377  -6.311  11.896  1.00  0.00    -0.550 OA
ENDBRANCH   1  30
BRANCH  27  33
ATOM     33  O   UNL     1      17.321  -3.351  18.955  1.00  0.00    -0.393 OA
ATOM     34  H   UNL     1      18.103  -3.664  18.429  1.00  0.00     0.210 HD
ENDBRANCH  27  33
TORSDOF 2
ENDMDL
MODEL 2
REMARK VINA RESULT:    -9.106      1.931      7.889
REMARK INTER + INTRA:          -9.936
REMARK INTER:                  -9.920
REMARK INTRA:                  -0.015
REMARK UNBOUND:                -0.031
REMARK SMILES C[C@@H]1[C@H]2C3=CC[C@H]4[C@@]5(C)CC[C@H](O)C(C)(C)[C@H]5CC[C@@]4(C)[C@]3(C)CC[C@@]2(C(=O)[O-])CC[C@@H]1C
REMARK SMILES IDX 26 1 30 2 25 3 3 4 31 5 24 6 4 7 2 8 32 9 22 10 5 11 1 12
REMARK SMILES IDX 33 13 23 14 20 15 6 16 7 17 19 18 21 19 8 20 18 21 17 22
REMARK SMILES IDX 10 23 9 24 14 25 11 26 12 27 15 28 16 29 27 30 28 31 29 32
REMARK SMILES IDX 13 33
REMARK H PARENT 13 34
REMARK Flexibility Score: inf
ROOT
ATOM      1  C   UNL     1      15.068  -4.201  17.175  1.00  0.00     0.017 C 
ATOM      2  C   UNL     1      16.099  -4.456  18.311  1.00  0.00     0.014 C 
ATOM      3  C   UNL     1      15.499  -2.983  16.318  1.00  0.00     0.014 C 
ATOM      4  C   UNL     1      13.635  -3.949  17.756  1.00  0.00     0.030 C 
ATOM      5  C   UNL     1      16.029  -3.441  19.460  1.00  0.00     0.004 C 
ATOM      6  C   UNL     1      14.504  -2.671  15.173  1.00  0.00     0.013 C 
ATOM      7  C   UNL     1      12.678  -3.562  16.605  1.00  0.00    -0.063 C 
ATOM      8  C   UNL     1      13.584  -2.981  18.979  1.00  0.00    -0.003 C 
ATOM      9  C   UNL     1      14.621  -3.357  20.074  1.00  0.00    -0.011 C 
ATOM     10  C   UNL     1      13.021  -2.406  15.630  1.00  0.00    -0.006 C 
ATOM     11  C   UNL     1      11.742  -4.479  16.310  1.00  0.00    -0.027 C 
ATOM     12  C   UNL     1      12.161  -2.885  19.560  1.00  0.00     0.008 C 
ATOM     13  C   UNL     1      14.275  -4.629  20.875  1.00  0.00     0.008 C 
ATOM     14  C   UNL     1      12.988  -1.036  16.388  1.00  0.00     0.017 C 
ATOM     15  C   UNL     1      12.004  -2.312  14.357  1.00  0.00    -0.020 C 
ATOM     16  C   UNL     1      10.969  -4.535  15.045  1.00  0.00     0.032 C 
ATOM     17  C   UNL     1      11.580  -3.739  13.855  1.00  0.00     0.006 C 
ATOM     18  C   UNL     1      10.675  -1.555  14.724  1.00  0.00     0.008 C 
ATOM     19  C   UNL     1      12.743  -1.514  13.226  1.00  0.00     0.012 C 
ATOM     20  C   UNL     1      10.628  -3.742  12.538  1.00  0.00    -0.025 C 
ATOM     21  C   UNL     1       9.405  -1.904  13.895  1.00  0.00     0.005 C 
ATOM     22  C   UNL     1       9.683  -2.452  12.470  1.00  0.00     0.003 C 
ATOM     23  C   UNL     1       9.766  -5.057  12.499  1.00  0.00     0.010 C 
ATOM     24  C   UNL     1      11.567  -3.784  11.286  1.00  0.00     0.012 C 
ATOM     25  C   UNL     1       8.387  -2.556  11.531  1.00  0.00    -0.006 C 
ATOM     26  C   UNL     1       8.672  -5.092  11.437  1.00  0.00     0.033 C 
ATOM     27  C   UNL     1       7.692  -3.943  11.661  1.00  0.00     0.120 C 
ATOM     28  C   UNL     1       7.334  -1.469  11.880  1.00  0.00     0.014 C 
ATOM     29  C   UNL     1       8.774  -2.280  10.047  1.00  0.00     0.014 C 
ENDROOT
BRANCH   1  30
ATOM     30  C   UNL     1      15.088  -5.452  16.297  1.00  0.00     0.048 C 
ATOM     31  O   UNL     1      14.365  -6.449  16.568  1.00  0.00    -0.550 OA
ATOM     32  O   UNL     1      15.988  -5.553  15.240  1.00  0.00    -0.550 OA
ENDBRANCH   1  30
BRANCH  27  33
ATOM     33  O   UNL     1       6.640  -4.072  10.735  1.00  0.00    -0.393 OA
ATOM     34  H   UNL     1       5.822  -3.705  11.161  1.00  0.00     0.210 HD
ENDBRANCH  27  33
TORSDOF 2
ENDMDL
MODEL 3
REMARK VINA RESULT:    -8.967      6.313     10.389
REMARK INTER + INTRA:          -9.784
REMARK INTER:                  -9.848
REMARK INTRA:                   0.064
REMARK UNBOUND:                -0.031
REMARK SMILES C[C@@H]1[C@H]2C3=CC[C@H]4[C@@]5(C)CC[C@H](O)C(C)(C)[C@H]5CC[C@@]4(C)[C@]3(C)CC[C@@]2(C(=O)[O-])CC[C@@H]1C
REMARK SMILES IDX 26 1 30 2 25 3 3 4 31 5 24 6 4 7 2 8 32 9 22 10 5 11 1 12
REMARK SMILES IDX 33 13 23 14 20 15 6 16 7 17 19 18 21 19 8 20 18 21 17 22
REMARK SMILES IDX 10 23 9 24 14 25 11 26 12 27 15 28 16 29 27 30 28 31 29 32
REMARK SMILES IDX 13 33
REMARK H PARENT 13 34
REMARK Flexibility Score: inf
ROOT
ATOM      1  C   UNL     1       3.158  -7.751   6.021  1.00  0.00     0.017 C 
ATOM      2  C   UNL     1       1.990  -8.510   5.329  1.00  0.00     0.014 C 
ATOM      3  C   UNL     1       3.206  -6.278   5.540  1.00  0.00     0.014 C 
ATOM      4  C   UNL     1       4.534  -8.441   5.729  1.00  0.00     0.030 C 
ATOM      5  C   UNL     1       2.251  -8.849   3.855  1.00  0.00     0.004 C 
ATOM      6  C   UNL     1       4.358  -5.471   6.188  1.00  0.00     0.013 C 
ATOM      7  C   UNL     1       5.673  -7.577   6.317  1.00  0.00    -0.063 C 
ATOM      8  C   UNL     1       4.755  -8.860   4.242  1.00  0.00    -0.003 C 
ATOM      9  C   UNL     1       3.549  -9.653   3.666  1.00  0.00    -0.011 C 
ATOM     10  C   UNL     1       5.797  -6.070   5.971  1.00  0.00    -0.006 C 
ATOM     11  C   UNL     1       6.310  -8.113   7.371  1.00  0.00    -0.027 C 
ATOM     12  C   UNL     1       6.075  -9.635   4.068  1.00  0.00     0.008 C 
ATOM     13  C   UNL     1       3.410 -11.091   4.208  1.00  0.00     0.008 C 
ATOM     14  C   UNL     1       6.171  -5.893   4.461  1.00  0.00     0.017 C 
ATOM     15  C   UNL     1       6.917  -5.292   6.870  1.00  0.00    -0.020 C 
ATOM     16  C   UNL     1       7.152  -7.361   8.334  1.00  0.00     0.032 C 
ATOM     17  C   UNL     1       6.934  -5.821   8.349  1.00  0.00     0.006 C 
ATOM     18  C   UNL     1       8.369  -5.501   6.305  1.00  0.00     0.008 C 
ATOM     19  C   UNL     1       6.572  -3.761   6.823  1.00  0.00     0.012 C 
ATOM     20  C   UNL     1       7.966  -5.047   9.337  1.00  0.00    -0.025 C 
ATOM     21  C   UNL     1       9.549  -5.387   7.313  1.00  0.00     0.005 C 
ATOM     22  C   UNL     1       9.261  -4.512   8.562  1.00  0.00     0.003 C 
ATOM     23  C   UNL     1       8.386  -5.989  10.524  1.00  0.00     0.010 C 
ATOM     24  C   UNL     1       7.188  -3.845   9.971  1.00  0.00     0.012 C 
ATOM     25  C   UNL     1      10.550  -4.181   9.457  1.00  0.00    -0.006 C 
ATOM     26  C   UNL     1       9.517  -5.469  11.404  1.00  0.00     0.033 C 
ATOM     27  C   UNL     1      10.773  -5.252  10.564  1.00  0.00     0.120 C 
ATOM     28  C   UNL     1      11.844  -4.115   8.599  1.00  0.00     0.014 C 
ATOM     29  C   UNL     1      10.416  -2.764  10.091  1.00  0.00     0.014 C 
ENDROOT
BRANCH   1  30
ATOM     30  C   UNL     1       2.846  -7.770   7.518  1.00  0.00     0.048 C 
ATOM     31  O   UNL     1       2.826  -8.852   8.165  1.00  0.00    -0.550 OA
ATOM     32  O   UNL     1       2.471  -6.600   8.170  1.00  0.00    -0.550 OA
ENDBRANCH   1  30
BRANCH  27  33
ATOM     33  O   UNL     1      11.823  -4.880  11.425  1.00  0.00    -0.393 OA
ATOM     34  H   UNL     1      12.512  -5.594  11.379  1.00  0.00     0.210 HD
ENDBRANCH  27  33
TORSDOF 2
ENDMDL
MODEL 4
REMARK VINA RESULT:    -8.900      2.954      9.018
REMARK INTER + INTRA:          -9.712
REMARK INTER:                  -9.778
REMARK INTRA:                   0.067
REMARK UNBOUND:                -0.031
REMARK SMILES C[C@@H]1[C@H]2C3=CC[C@H]4[C@@]5(C)CC[C@H](O)C(C)(C)[C@H]5CC[C@@]4(C)[C@]3(C)CC[C@@]2(C(=O)[O-])CC[C@@H]1C
REMARK SMILES IDX 26 1 30 2 25 3 3 4 31 5 24 6 4 7 2 8 32 9 22 10 5 11 1 12
REMARK SMILES IDX 33 13 23 14 20 15 6 16 7 17 19 18 21 19 8 20 18 21 17 22
REMARK SMILES IDX 10 23 9 24 14 25 11 26 12 27 15 28 16 29 27 30 28 31 29 32
REMARK SMILES IDX 13 33
REMARK H PARENT 13 34
REMARK Flexibility Score: inf
ROOT
ATOM      1  C   UNL     1      11.992  -3.478  13.343  1.00  0.00     0.017 C 
ATOM      2  C   UNL     1      13.002  -3.216  14.497  1.00  0.00     0.014 C 
ATOM      3  C   UNL     1      12.627  -3.116  11.976  1.00  0.00     0.014 C 
ATOM      4  C   UNL     1      10.676  -2.652  13.543  1.00  0.00     0.030 C 
ATOM      5  C   UNL     1      13.206  -1.730  14.823  1.00  0.00     0.004 C 
ATOM      6  C   UNL     1      11.664  -3.346  10.785  1.00  0.00     0.013 C 
ATOM      7  C   UNL     1       9.766  -2.835  12.307  1.00  0.00    -0.063 C 
ATOM      8  C   UNL     1      10.893  -1.163  13.959  1.00  0.00    -0.003 C 
ATOM      9  C   UNL     1      11.882  -1.020  15.150  1.00  0.00    -0.011 C 
ATOM     10  C   UNL     1      10.296  -2.572  10.873  1.00  0.00    -0.006 C 
ATOM     11  C   UNL     1       8.643  -3.540  12.525  1.00  0.00    -0.027 C 
ATOM     12  C   UNL     1       9.554  -0.461  14.250  1.00  0.00     0.008 C 
ATOM     13  C   UNL     1      11.315  -1.476  16.511  1.00  0.00     0.008 C 
ATOM     14  C   UNL     1      10.592  -1.047  10.680  1.00  0.00     0.017 C 
ATOM     15  C   UNL     1       9.258  -3.045   9.705  1.00  0.00    -0.020 C 
ATOM     16  C   UNL     1       7.813  -4.173  11.471  1.00  0.00     0.032 C 
ATOM     17  C   UNL     1       8.517  -4.373  10.099  1.00  0.00     0.006 C 
ATOM     18  C   UNL     1       8.140  -1.970   9.445  1.00  0.00     0.008 C 
ATOM     19  C   UNL     1      10.092  -3.235   8.388  1.00  0.00     0.012 C 
ATOM     20  C   UNL     1       7.521  -4.961   8.957  1.00  0.00    -0.025 C 
ATOM     21  C   UNL     1       6.785  -2.477   8.873  1.00  0.00     0.005 C 
ATOM     22  C   UNL     1       6.868  -3.801   8.067  1.00  0.00     0.003 C 
ATOM     23  C   UNL     1       6.399  -5.840   9.621  1.00  0.00     0.010 C 
ATOM     24  C   UNL     1       8.365  -5.918   8.052  1.00  0.00     0.012 C 
ATOM     25  C   UNL     1       5.534  -4.176   7.261  1.00  0.00    -0.006 C 
ATOM     26  C   UNL     1       5.271  -6.274   8.693  1.00  0.00     0.033 C 
ATOM     27  C   UNL     1       4.569  -5.047   8.118  1.00  0.00     0.120 C 
ATOM     28  C   UNL     1       4.753  -2.908   6.817  1.00  0.00     0.014 C 
ATOM     29  C   UNL     1       5.895  -4.911   5.935  1.00  0.00     0.014 C 
ENDROOT
BRANCH   1  30
ATOM     30  C   UNL     1      11.702  -4.979  13.369  1.00  0.00     0.048 C 
ATOM     31  O   UNL     1      12.244  -5.761  12.542  1.00  0.00    -0.550 OA
ATOM     32  O   UNL     1      10.747  -5.493  14.240  1.00  0.00    -0.550 OA
ENDBRANCH   1  30
BRANCH  27  33
ATOM     33  O   UNL     1       3.467  -5.482   7.356  1.00  0.00    -0.393 OA
ATOM     34  H   UNL     1       2.918  -6.070   7.937  1.00  0.00     0.210 HD
ENDBRANCH  27  33
TORSDOF 2
ENDMDL
MODEL 5
REMARK VINA RESULT:    -8.897      1.992      8.196
REMARK INTER + INTRA:          -9.708
REMARK INTER:                  -9.691
REMARK INTRA:                  -0.017
REMARK UNBOUND:                -0.031
REMARK SMILES C[C@@H]1[C@H]2C3=CC[C@H]4[C@@]5(C)CC[C@H](O)C(C)(C)[C@H]5CC[C@@]4(C)[C@]3(C)CC[C@@]2(C(=O)[O-])CC[C@@H]1C
REMARK SMILES IDX 26 1 30 2 25 3 3 4 31 5 24 6 4 7 2 8 32 9 22 10 5 11 1 12
REMARK SMILES IDX 33 13 23 14 20 15 6 16 7 17 19 18 21 19 8 20 18 21 17 22
REMARK SMILES IDX 10 23 9 24 14 25 11 26 12 27 15 28 16 29 27 30 28 31 29 32
REMARK SMILES IDX 13 33
REMARK H PARENT 13 34
REMARK Flexibility Score: inf
ROOT
ATOM      1  C   UNL     1      16.406  -5.374  17.961  1.00  0.00     0.017 C 
ATOM      2  C   UNL     1      17.564  -5.910  18.850  1.00  0.00     0.014 C 
ATOM      3  C   UNL     1      16.762  -3.975  17.395  1.00  0.00     0.014 C 
ATOM      4  C   UNL     1      15.066  -5.284  18.768  1.00  0.00     0.030 C 
ATOM      5  C   UNL     1      17.671  -5.225  20.219  1.00  0.00     0.004 C 
ATOM      6  C   UNL     1      15.640  -3.381  16.508  1.00  0.00     0.013 C 
ATOM      7  C   UNL     1      13.984  -4.617  17.889  1.00  0.00    -0.063 C 
ATOM      8  C   UNL     1      15.200  -4.664  20.194  1.00  0.00    -0.003 C 
ATOM      9  C   UNL     1      16.355  -5.306  21.012  1.00  0.00    -0.011 C 
ATOM     10  C   UNL     1      14.237  -3.247  17.206  1.00  0.00    -0.006 C 
ATOM     11  C   UNL     1      12.990  -5.430  17.493  1.00  0.00    -0.027 C 
ATOM     12  C   UNL     1      13.865  -4.725  20.960  1.00  0.00     0.008 C 
ATOM     13  C   UNL     1      16.074  -6.743  21.499  1.00  0.00     0.008 C 
ATOM     14  C   UNL     1      14.341  -2.119  18.287  1.00  0.00     0.017 C 
ATOM     15  C   UNL     1      13.070  -2.832  16.143  1.00  0.00    -0.020 C 
ATOM     16  C   UNL     1      12.062  -5.159  16.367  1.00  0.00     0.032 C 
ATOM     17  C   UNL     1      12.542  -4.082  15.352  1.00  0.00     0.006 C 
ATOM     18  C   UNL     1      11.821  -2.199  16.861  1.00  0.00     0.008 C 
ATOM     19  C   UNL     1      13.684  -1.767  15.167  1.00  0.00     0.012 C 
ATOM     20  C   UNL     1      11.432  -3.749  14.213  1.00  0.00    -0.025 C 
ATOM     21  C   UNL     1      10.447  -2.326  16.143  1.00  0.00     0.005 C 
ATOM     22  C   UNL     1      10.526  -2.488  14.601  1.00  0.00     0.003 C 
ATOM     23  C   UNL     1      10.531  -5.012  13.951  1.00  0.00     0.010 C 
ATOM     24  C   UNL     1      12.204  -3.464  12.881  1.00  0.00     0.012 C 
ATOM     25  C   UNL     1       9.119  -2.350  13.844  1.00  0.00    -0.006 C 
ATOM     26  C   UNL     1       9.312  -4.775  13.068  1.00  0.00     0.033 C 
ATOM     27  C   UNL     1       8.404  -3.726  13.703  1.00  0.00     0.120 C 
ATOM     28  C   UNL     1       8.152  -1.392  14.593  1.00  0.00     0.014 C 
ATOM     29  C   UNL     1       9.324  -1.700  12.442  1.00  0.00     0.014 C 
ENDROOT
BRANCH   1  30
ATOM     30  C   UNL     1      16.276  -6.357  16.797  1.00  0.00     0.048 C 
ATOM     31  O   UNL     1      15.569  -7.395  16.898  1.00  0.00    -0.550 OA
ATOM     32  O   UNL     1      17.027  -6.175  15.639  1.00  0.00    -0.550 OA
ENDBRANCH   1  30
BRANCH  27  33
ATOM     33  O   UNL     1       7.239  -3.615  12.920  1.00  0.00    -0.393 OA
ATOM     34  H   UNL     1       7.034  -2.648  12.828  1.00  0.00     0.210 HD
ENDBRANCH  27  33
TORSDOF 2
ENDMDL
MODEL 6
REMARK VINA RESULT:    -8.857      2.097      3.112
REMARK INTER + INTRA:          -9.664
REMARK INTER:                  -9.634
REMARK INTRA:                  -0.031
REMARK UNBOUND:                -0.031
REMARK SMILES C[C@@H]1[C@H]2C3=CC[C@H]4[C@@]5(C)CC[C@H](O)C(C)(C)[C@H]5CC[C@@]4(C)[C@]3(C)CC[C@@]2(C(=O)[O-])CC[C@@H]1C
REMARK SMILES IDX 26 1 30 2 25 3 3 4 31 5 24 6 4 7 2 8 32 9 22 10 5 11 1 12
REMARK SMILES IDX 33 13 23 14 20 15 6 16 7 17 19 18 21 19 8 20 18 21 17 22
REMARK SMILES IDX 10 23 9 24 14 25 11 26 12 27 15 28 16 29 27 30 28 31 29 32
REMARK SMILES IDX 13 33
REMARK H PARENT 13 34
REMARK Flexibility Score: inf
ROOT
ATOM      1  C   UNL     1       9.702  -3.603  14.660  1.00  0.00     0.017 C 
ATOM      2  C   UNL     1       8.511  -3.112  13.790  1.00  0.00     0.014 C 
ATOM      3  C   UNL     1       9.250  -4.750  15.600  1.00  0.00     0.014 C 
ATOM      4  C   UNL     1      10.300  -2.434  15.514  1.00  0.00     0.030 C 
ATOM      5  C   UNL     1       7.482  -2.271  14.556  1.00  0.00     0.004 C 
ATOM      6  C   UNL     1      10.393  -5.276  16.502  1.00  0.00     0.013 C 
ATOM      7  C   UNL     1      11.384  -2.996  16.463  1.00  0.00    -0.063 C 
ATOM      8  C   UNL     1       9.242  -1.531  16.221  1.00  0.00    -0.003 C 
ATOM      9  C   UNL     1       8.125  -1.058  15.250  1.00  0.00    -0.011 C 
ATOM     10  C   UNL     1      11.083  -4.189  17.407  1.00  0.00    -0.006 C 
ATOM     11  C   UNL     1      12.643  -2.626  16.173  1.00  0.00    -0.027 C 
ATOM     12  C   UNL     1       9.908  -0.341  16.937  1.00  0.00     0.008 C 
ATOM     13  C   UNL     1       8.573   0.008  14.228  1.00  0.00     0.008 C 
ATOM     14  C   UNL     1      10.058  -3.757  18.509  1.00  0.00     0.017 C 
ATOM     15  C   UNL     1      12.414  -4.776  18.149  1.00  0.00    -0.020 C 
ATOM     16  C   UNL     1      13.867  -3.304  16.665  1.00  0.00     0.032 C 
ATOM     17  C   UNL     1      13.661  -4.753  17.193  1.00  0.00     0.006 C 
ATOM     18  C   UNL     1      12.804  -3.925  19.412  1.00  0.00     0.008 C 
ATOM     19  C   UNL     1      12.085  -6.241  18.609  1.00  0.00     0.012 C 
ATOM     20  C   UNL     1      15.014  -5.394  17.824  1.00  0.00    -0.025 C 
ATOM     21  C   UNL     1      14.299  -3.935  19.843  1.00  0.00     0.005 C 
ATOM     22  C   UNL     1      15.098  -5.194  19.410  1.00  0.00     0.003 C 
ATOM     23  C   UNL     1      16.280  -4.777  17.125  1.00  0.00     0.010 C 
ATOM     24  C   UNL     1      15.009  -6.921  17.478  1.00  0.00     0.012 C 
ATOM     25  C   UNL     1      16.550  -5.325  20.077  1.00  0.00    -0.006 C 
ATOM     26  C   UNL     1      17.618  -5.125  17.767  1.00  0.00     0.033 C 
ATOM     27  C   UNL     1      17.645  -4.636  19.213  1.00  0.00     0.120 C 
ATOM     28  C   UNL     1      16.594  -4.682  21.491  1.00  0.00     0.014 C 
ATOM     29  C   UNL     1      16.903  -6.825  20.306  1.00  0.00     0.014 C 
ENDROOT
BRANCH   1  30
ATOM     30  C   UNL     1      10.743  -4.151  13.682  1.00  0.00     0.048 C 
ATOM     31  O   UNL     1      11.551  -3.382  13.094  1.00  0.00    -0.550 OA
ATOM     32  O   UNL     1      10.743  -5.500  13.342  1.00  0.00    -0.550 OA
ENDBRANCH   1  30
BRANCH  27  33
ATOM     33  O   UNL     1      18.930  -4.874  19.737  1.00  0.00    -0.393 OA
ATOM     34  H   UNL     1      19.540  -5.032  18.970  1.00  0.00     0.210 HD
ENDBRANCH  27  33
TORSDOF 2
ENDMDL
MODEL 7
REMARK VINA RESULT:    -8.820      3.628      6.419
REMARK INTER + INTRA:          -9.624
REMARK INTER:                  -9.686
REMARK INTRA:                   0.062
REMARK UNBOUND:                -0.031
REMARK SMILES C[C@@H]1[C@H]2C3=CC[C@H]4[C@@]5(C)CC[C@H](O)C(C)(C)[C@H]5CC[C@@]4(C)[C@]3(C)CC[C@@]2(C(=O)[O-])CC[C@@H]1C
REMARK SMILES IDX 26 1 30 2 25 3 3 4 31 5 24 6 4 7 2 8 32 9 22 10 5 11 1 12
REMARK SMILES IDX 33 13 23 14 20 15 6 16 7 17 19 18 21 19 8 20 18 21 17 22
REMARK SMILES IDX 10 23 9 24 14 25 11 26 12 27 15 28 16 29 27 30 28 31 29 32
REMARK SMILES IDX 13 33
REMARK H PARENT 13 34
REMARK Flexibility Score: inf
ROOT
ATOM      1  C   UNL     1      11.710  -3.898  17.693  1.00  0.00     0.017 C 
ATOM      2  C   UNL     1      10.391  -3.099  17.499  1.00  0.00     0.014 C 
ATOM      3  C   UNL     1      12.900  -2.932  17.924  1.00  0.00     0.014 C 
ATOM      4  C   UNL     1      12.010  -4.808  16.453  1.00  0.00     0.030 C 
ATOM      5  C   UNL     1      10.276  -2.403  16.136  1.00  0.00     0.004 C 
ATOM      6  C   UNL     1      14.248  -3.670  18.114  1.00  0.00     0.013 C 
ATOM      7  C   UNL     1      13.395  -5.473  16.629  1.00  0.00    -0.063 C 
ATOM      8  C   UNL     1      11.807  -4.116  15.069  1.00  0.00    -0.003 C 
ATOM      9  C   UNL     1      10.438  -3.389  14.966  1.00  0.00    -0.011 C 
ATOM     10  C   UNL     1      14.658  -4.625  16.933  1.00  0.00    -0.006 C 
ATOM     11  C   UNL     1      13.368  -6.799  16.839  1.00  0.00    -0.027 C 
ATOM     12  C   UNL     1      12.005  -5.112  13.910  1.00  0.00     0.008 C 
ATOM     13  C   UNL     1       9.220  -4.329  14.845  1.00  0.00     0.008 C 
ATOM     14  C   UNL     1      15.019  -3.736  15.696  1.00  0.00     0.017 C 
ATOM     15  C   UNL     1      15.964  -5.529  17.312  1.00  0.00    -0.020 C 
ATOM     16  C   UNL     1      14.483  -7.598  17.404  1.00  0.00     0.032 C 
ATOM     17  C   UNL     1      15.565  -6.783  18.170  1.00  0.00     0.006 C 
ATOM     18  C   UNL     1      16.689  -6.079  16.029  1.00  0.00     0.008 C 
ATOM     19  C   UNL     1      16.961  -4.604  18.097  1.00  0.00     0.012 C 
ATOM     20  C   UNL     1      16.815  -7.698  18.660  1.00  0.00    -0.025 C 
ATOM     21  C   UNL     1      17.508  -7.393  16.182  1.00  0.00     0.005 C 
ATOM     22  C   UNL     1      18.028  -7.677  17.616  1.00  0.00     0.003 C 
ATOM     23  C   UNL     1      16.336  -9.174  18.916  1.00  0.00     0.010 C 
ATOM     24  C   UNL     1      17.289  -7.135  20.042  1.00  0.00     0.012 C 
ATOM     25  C   UNL     1      19.086  -8.878  17.716  1.00  0.00    -0.006 C 
ATOM     26  C   UNL     1      17.445 -10.189  19.168  1.00  0.00     0.033 C 
ATOM     27  C   UNL     1      18.384 -10.245  17.966  1.00  0.00     0.120 C 
ATOM     28  C   UNL     1      19.928  -9.014  16.417  1.00  0.00     0.014 C 
ATOM     29  C   UNL     1      20.125  -8.589  18.841  1.00  0.00     0.014 C 
ENDROOT
BRANCH   1  30
ATOM     30  C   UNL     1      11.512  -4.743  18.953  1.00  0.00     0.048 C 
ATOM     31  O   UNL     1      11.120  -5.939  18.879  1.00  0.00    -0.550 OA
ATOM     32  O   UNL     1      11.657  -4.169  20.211  1.00  0.00    -0.550 OA
ENDBRANCH   1  30
BRANCH  27  33
ATOM     33  O   UNL     1      19.326 -11.267  18.187  1.00  0.00    -0.393 OA
ATOM     34  H   UNL     1      18.823 -12.092  18.412  1.00  0.00     0.210 HD
ENDBRANCH  27  33
TORSDOF 2
ENDMDL
MODEL 8
REMARK VINA RESULT:    -8.786      3.029      8.833
REMARK INTER + INTRA:          -9.587
REMARK INTER:                  -9.560
REMARK INTRA:                  -0.027
REMARK UNBOUND:                -0.031
REMARK SMILES C[C@@H]1[C@H]2C3=CC[C@H]4[C@@]5(C)CC[C@H](O)C(C)(C)[C@H]5CC[C@@]4(C)[C@]3(C)CC[C@@]2(C(=O)[O-])CC[C@@H]1C
REMARK SMILES IDX 26 1 30 2 25 3 3 4 31 5 24 6 4 7 2 8 32 9 22 10 5 11 1 12
REMARK SMILES IDX 33 13 23 14 20 15 6 16 7 17 19 18 21 19 8 20 18 21 17 22
REMARK SMILES IDX 10 23 9 24 14 25 11 26 12 27 15 28 16 29 27 30 28 31 29 32
REMARK SMILES IDX 13 33
REMARK H PARENT 13 34
REMARK Flexibility Score: inf
ROOT
ATOM      1  C   UNL     1      17.668  -6.878  18.346  1.00  0.00     0.017 C 
ATOM      2  C   UNL     1      18.902  -7.640  18.907  1.00  0.00     0.014 C 
ATOM      3  C   UNL     1      18.116  -5.594  17.603  1.00  0.00     0.014 C 
ATOM      4  C   UNL     1      16.669  -6.495  19.492  1.00  0.00     0.030 C 
ATOM      5  C   UNL     1      19.540  -6.980  20.136  1.00  0.00     0.004 C 
ATOM      6  C   UNL     1      16.928  -4.784  17.029  1.00  0.00     0.013 C 
ATOM      7  C   UNL     1      15.535  -5.621  18.910  1.00  0.00    -0.063 C 
ATOM      8  C   UNL     1      17.337  -5.903  20.772  1.00  0.00    -0.003 C 
ATOM      9  C   UNL     1      18.526  -6.768  21.273  1.00  0.00    -0.011 C 
ATOM     10  C   UNL     1      15.847  -4.345  18.086  1.00  0.00    -0.006 C 
ATOM     11  C   UNL     1      14.326  -6.207  18.871  1.00  0.00    -0.027 C 
ATOM     12  C   UNL     1      16.300  -5.669  21.888  1.00  0.00     0.008 C 
ATOM     13  C   UNL     1      18.116  -8.107  21.923  1.00  0.00     0.008 C 
ATOM     14  C   UNL     1      16.488  -3.253  19.007  1.00  0.00     0.017 C 
ATOM     15  C   UNL     1      14.529  -3.701  17.370  1.00  0.00    -0.020 C 
ATOM     16  C   UNL     1      13.184  -5.756  18.039  1.00  0.00     0.032 C 
ATOM     17  C   UNL     1      13.552  -4.818  16.854  1.00  0.00     0.006 C 
ATOM     18  C   UNL     1      13.700  -2.808  18.364  1.00  0.00     0.008 C 
ATOM     19  C   UNL     1      15.032  -2.802  16.185  1.00  0.00     0.012 C 
ATOM     20  C   UNL     1      12.249  -4.267  16.056  1.00  0.00    -0.025 C 
ATOM     21  C   UNL     1      12.179  -2.646  18.077  1.00  0.00     0.005 C 
ATOM     22  C   UNL     1      11.769  -2.837  16.592  1.00  0.00     0.003 C 
ATOM     23  C   UNL     1      11.076  -5.311  16.152  1.00  0.00     0.010 C 
ATOM     24  C   UNL     1      12.638  -4.168  14.543  1.00  0.00     0.012 C 
ATOM     25  C   UNL     1      10.261  -2.410  16.256  1.00  0.00    -0.006 C 
ATOM     26  C   UNL     1       9.725  -4.828  15.636  1.00  0.00     0.033 C 
ATOM     27  C   UNL     1       9.274  -3.602  16.425  1.00  0.00     0.120 C 
ATOM     28  C   UNL     1       9.769  -1.259  17.178  1.00  0.00     0.014 C 
ATOM     29  C   UNL     1      10.173  -1.833  14.811  1.00  0.00     0.014 C 
ENDROOT
BRANCH   1  30
ATOM     30  C   UNL     1      17.007  -7.823  17.341  1.00  0.00     0.048 C 
ATOM     31  O   UNL     1      16.199  -8.713  17.719  1.00  0.00    -0.550 OA
ATOM     32  O   UNL     1      17.373  -7.785  15.999  1.00  0.00    -0.550 OA
ENDBRANCH   1  30
BRANCH  27  33
ATOM     33  O   UNL     1       7.978  -3.253  15.998  1.00  0.00    -0.393 OA
ATOM     34  H   UNL     1       8.067  -2.791  15.124  1.00  0.00     0.210 HD
ENDBRANCH  27  33
TORSDOF 2
ENDMDL
MODEL 9
REMARK VINA RESULT:    -8.736      4.582     10.390
REMARK INTER + INTRA:          -9.533
REMARK INTER:                  -9.506
REMARK INTRA:                  -0.028
REMARK UNBOUND:                -0.031
REMARK SMILES C[C@@H]1[C@H]2C3=CC[C@H]4[C@@]5(C)CC[C@H](O)C(C)(C)[C@H]5CC[C@@]4(C)[C@]3(C)CC[C@@]2(C(=O)[O-])CC[C@@H]1C
REMARK SMILES IDX 26 1 30 2 25 3 3 4 31 5 24 6 4 7 2 8 32 9 22 10 5 11 1 12
REMARK SMILES IDX 33 13 23 14 20 15 6 16 7 17 19 18 21 19 8 20 18 21 17 22
REMARK SMILES IDX 10 23 9 24 14 25 11 26 12 27 15 28 16 29 27 30 28 31 29 32
REMARK SMILES IDX 13 33
REMARK H PARENT 13 34
REMARK Flexibility Score: inf
ROOT
ATOM      1  C   UNL     1      10.493  -3.103   9.994  1.00  0.00     0.017 C 
ATOM      2  C   UNL     1      11.460  -2.184  10.793  1.00  0.00     0.014 C 
ATOM      3  C   UNL     1       9.749  -2.289   8.905  1.00  0.00     0.014 C 
ATOM      4  C   UNL     1       9.447  -3.784  10.942  1.00  0.00     0.030 C 
ATOM      5  C   UNL     1      10.756  -1.239  11.776  1.00  0.00     0.004 C 
ATOM      6  C   UNL     1       8.760  -3.150   8.080  1.00  0.00     0.013 C 
ATOM      7  C   UNL     1       8.425  -4.573  10.091  1.00  0.00    -0.063 C 
ATOM      8  C   UNL     1       8.800  -2.833  11.995  1.00  0.00    -0.003 C 
ATOM      9  C   UNL     1       9.858  -1.997  12.768  1.00  0.00    -0.011 C 
ATOM     10  C   UNL     1       7.661  -3.896   8.924  1.00  0.00    -0.006 C 
ATOM     11  C   UNL     1       8.501  -5.909  10.203  1.00  0.00    -0.027 C 
ATOM     12  C   UNL     1       7.879  -3.606  12.959  1.00  0.00     0.008 C 
ATOM     13  C   UNL     1      10.692  -2.803  13.785  1.00  0.00     0.008 C 
ATOM     14  C   UNL     1       6.669  -2.821   9.482  1.00  0.00     0.017 C 
ATOM     15  C   UNL     1       6.812  -4.950   8.012  1.00  0.00    -0.020 C 
ATOM     16  C   UNL     1       7.922  -6.882   9.244  1.00  0.00     0.032 C 
ATOM     17  C   UNL     1       7.581  -6.309   7.838  1.00  0.00     0.006 C 
ATOM     18  C   UNL     1       5.424  -5.304   8.663  1.00  0.00     0.008 C 
ATOM     19  C   UNL     1       6.557  -4.267   6.622  1.00  0.00     0.012 C 
ATOM     20  C   UNL     1       6.844  -7.392   6.877  1.00  0.00    -0.025 C 
ATOM     21  C   UNL     1       4.798  -6.682   8.301  1.00  0.00     0.005 C 
ATOM     22  C   UNL     1       5.249  -7.268   6.936  1.00  0.00     0.003 C 
ATOM     23  C   UNL     1       7.296  -8.849   7.258  1.00  0.00     0.010 C 
ATOM     24  C   UNL     1       7.346  -7.134   5.416  1.00  0.00     0.012 C 
ATOM     25  C   UNL     1       4.409  -8.543   6.448  1.00  0.00    -0.006 C 
ATOM     26  C   UNL     1       6.518  -9.974   6.585  1.00  0.00     0.033 C 
ATOM     27  C   UNL     1       5.040  -9.875   6.948  1.00  0.00     0.120 C 
ATOM     28  C   UNL     1       2.942  -8.497   6.959  1.00  0.00     0.014 C 
ATOM     29  C   UNL     1       4.292  -8.548   4.894  1.00  0.00     0.014 C 
ENDROOT
BRANCH   1  30
ATOM     30  C   UNL     1      11.373  -4.150   9.311  1.00  0.00     0.048 C 
ATOM     31  O   UNL     1      11.861  -5.114   9.960  1.00  0.00    -0.550 OA
ATOM     32  O   UNL     1      11.739  -3.995   7.978  1.00  0.00    -0.550 OA
ENDBRANCH   1  30
BRANCH  27  33
ATOM     33  O   UNL     1       4.374 -10.989   6.402  1.00  0.00    -0.393 OA
ATOM     34  H   UNL     1       4.759 -11.154   5.503  1.00  0.00     0.210 HD
ENDBRANCH  27  33
TORSDOF 2
ENDMDL
