MODEL 1
REMARK VINA RESULT:    -4.555      0.000      0.000
REMARK INTER + INTRA:          -8.873
REMARK INTER:                  -7.750
REMARK INTRA:                  -1.123
REMARK UNBOUND:                -1.123
REMARK SMILES CCCCCCCCCCCCCC(=O)[O-]
REMARK SMILES IDX 8 1 9 2 10 3 11 4 12 5 13 6 14 7 15 8 16 9 7 10 6 11 5 12
REMARK SMILES IDX 4 13 3 14 2 15 1 16
REMARK H PARENT
REMARK Flexibility Score: inf
ROOT
ATOM      1  C   UNL     1      47.487  27.641  14.685  1.00  0.00     0.000 C 
ENDROOT
BRANCH   1   2
ATOM      2  C   UNL     1      46.544  28.173  15.775  1.00  0.00     0.000 C 
BRANCH   2   3
ATOM      3  C   UNL     1      45.440  29.051  15.167  1.00  0.00     0.000 C 
BRANCH   3   4
ATOM      4  C   UNL     1      44.029  28.598  15.597  1.00  0.00     0.000 C 
BRANCH   4   5
ATOM      5  C   UNL     1      44.032  27.606  16.773  1.00  0.00     0.006 C 
BRANCH   5   6
ATOM      6  C   UNL     1      42.858  26.620  16.726  1.00  0.00     0.053 C 
BRANCH   6   7
ATOM      7  C   UNL     1      43.135  25.435  17.597  1.00  0.00     0.041 C 
ATOM      8  O   UNL     1      42.910  24.272  17.175  1.00  0.00    -0.550 OA
ATOM      9  O   UNL     1      43.597  25.620  18.894  1.00  0.00    -0.550 OA
ENDBRANCH   6   7
ENDBRANCH   5   6
ENDBRANCH   4   5
ENDBRANCH   3   4
ENDBRANCH   2   3
ENDBRANCH   1   2
BRANCH   1  10
ATOM     10  C   UNL     1      47.721  28.657  13.555  1.00  0.00     0.000 C 
BRANCH  10  11
ATOM     11  C   UNL     1      49.192  28.716  13.109  1.00  0.00    -0.000 C 
BRANCH  11  12
ATOM     12  C   UNL     1      50.001  29.795  13.854  1.00  0.00    -0.000 C 
BRANCH  12  13
ATOM     13  C   UNL     1      50.062  31.165  13.156  1.00  0.00    -0.000 C 
BRANCH  13  14
ATOM     14  C   UNL     1      49.727  32.333  14.096  1.00  0.00    -0.000 C 
BRANCH  14  15
ATOM     15  C   UNL     1      48.936  31.846  15.316  1.00  0.00    -0.003 C 
ATOM     16  C   UNL     1      47.440  32.091  15.137  1.00  0.00     0.004 C 
ENDBRANCH  14  15
ENDBRANCH  13  14
ENDBRANCH  12  13
ENDBRANCH  11  12
ENDBRANCH  10  11
ENDBRANCH   1  10
TORSDOF 12
ENDMDL
MODEL 2
REMARK VINA RESULT:    -4.458      1.012      1.957
REMARK INTER + INTRA:          -8.708
REMARK INTER:                  -7.875
REMARK INTRA:                  -0.833
REMARK UNBOUND:                -1.123
REMARK SMILES CCCCCCCCCCCCCC(=O)[O-]
REMARK SMILES IDX 8 1 9 2 10 3 11 4 12 5 13 6 14 7 15 8 16 9 7 10 6 11 5 12
REMARK SMILES IDX 4 13 3 14 2 15 1 16
REMARK H PARENT
REMARK Flexibility Score: inf
ROOT
ATOM      1  C   UNL     1      47.339  28.334  13.686  1.00  0.00     0.000 C 
ENDROOT
BRANCH   1   2
ATOM      2  C   UNL     1      46.636  28.450  15.047  1.00  0.00     0.000 C 
BRANCH   2   3
ATOM      3  C   UNL     1      45.307  29.209  14.917  1.00  0.00     0.000 C 
BRANCH   3   4
ATOM      4  C   UNL     1      44.215  28.640  15.848  1.00  0.00     0.000 C 
BRANCH   4   5
ATOM      5  C   UNL     1      44.714  27.510  16.763  1.00  0.00     0.006 C 
BRANCH   5   6
ATOM      6  C   UNL     1      43.751  27.207  17.918  1.00  0.00     0.053 C 
BRANCH   6   7
ATOM      7  C   UNL     1      43.313  25.777  17.872  1.00  0.00     0.041 C 
ATOM      8  O   UNL     1      42.795  25.305  16.826  1.00  0.00    -0.550 OA
ATOM      9  O   UNL     1      43.432  24.978  19.002  1.00  0.00    -0.550 OA
ENDBRANCH   6   7
ENDBRANCH   5   6
ENDBRANCH   4   5
ENDBRANCH   3   4
ENDBRANCH   2   3
ENDBRANCH   1   2
BRANCH   1  10
ATOM     10  C   UNL     1      48.473  29.358  13.514  1.00  0.00     0.000 C 
BRANCH  10  11
ATOM     11  C   UNL     1      48.823  30.077  14.827  1.00  0.00    -0.000 C 
BRANCH  11  12
ATOM     12  C   UNL     1      48.263  31.510  14.893  1.00  0.00    -0.000 C 
BRANCH  12  13
ATOM     13  C   UNL     1      49.322  32.625  14.952  1.00  0.00    -0.000 C 
BRANCH  13  14
ATOM     14  C   UNL     1      50.668  32.207  14.342  1.00  0.00    -0.000 C 
BRANCH  14  15
ATOM     15  C   UNL     1      50.761  32.636  12.872  1.00  0.00    -0.003 C 
ATOM     16  C   UNL     1      51.159  31.462  11.980  1.00  0.00     0.004 C 
ENDBRANCH  14  15
ENDBRANCH  13  14
ENDBRANCH  12  13
ENDBRANCH  11  12
ENDBRANCH  10  11
ENDBRANCH   1  10
TORSDOF 12
ENDMDL
MODEL 3
REMARK VINA RESULT:    -4.441      1.452      2.360
REMARK INTER + INTRA:          -8.680
REMARK INTER:                  -7.725
REMARK INTRA:                  -0.955
REMARK UNBOUND:                -1.123
REMARK SMILES CCCCCCCCCCCCCC(=O)[O-]
REMARK SMILES IDX 8 1 9 2 10 3 11 4 12 5 13 6 14 7 15 8 16 9 7 10 6 11 5 12
REMARK SMILES IDX 4 13 3 14 2 15 1 16
REMARK H PARENT
REMARK Flexibility Score: inf
ROOT
ATOM      1  C   UNL     1      47.019  29.049  14.192  1.00  0.00     0.000 C 
ENDROOT
BRANCH   1   2
ATOM      2  C   UNL     1      45.784  29.703  14.831  1.00  0.00     0.000 C 
BRANCH   2   3
ATOM      3  C   UNL     1      45.011  28.694  15.693  1.00  0.00     0.000 C 
BRANCH   3   4
ATOM      4  C   UNL     1      45.945  27.679  16.385  1.00  0.00     0.000 C 
BRANCH   4   5
ATOM      5  C   UNL     1      45.320  27.008  17.619  1.00  0.00     0.006 C 
BRANCH   5   6
ATOM      6  C   UNL     1      43.787  27.045  17.607  1.00  0.00     0.053 C 
BRANCH   6   7
ATOM      7  C   UNL     1      43.229  25.682  17.874  1.00  0.00     0.041 C 
ATOM      8  O   UNL     1      43.253  25.205  19.038  1.00  0.00    -0.550 OA
ATOM      9  O   UNL     1      42.726  24.921  16.828  1.00  0.00    -0.550 OA
ENDBRANCH   6   7
ENDBRANCH   5   6
ENDBRANCH   4   5
ENDBRANCH   3   4
ENDBRANCH   2   3
ENDBRANCH   1   2
BRANCH   1  10
ATOM     10  C   UNL     1      48.213  30.011  14.084  1.00  0.00     0.000 C 
BRANCH  10  11
ATOM     11  C   UNL     1      48.022  31.285  14.924  1.00  0.00    -0.000 C 
BRANCH  11  12
ATOM     12  C   UNL     1      48.893  32.459  14.439  1.00  0.00    -0.000 C 
BRANCH  12  13
ATOM     13  C   UNL     1      50.411  32.250  14.579  1.00  0.00    -0.000 C 
BRANCH  13  14
ATOM     14  C   UNL     1      50.821  31.743  15.969  1.00  0.00    -0.000 C 
BRANCH  14  15
ATOM     15  C   UNL     1      51.555  30.399  15.868  1.00  0.00    -0.003 C 
ATOM     16  C   UNL     1      50.949  29.369  16.818  1.00  0.00     0.004 C 
ENDBRANCH  14  15
ENDBRANCH  13  14
ENDBRANCH  12  13
ENDBRANCH  11  12
ENDBRANCH  10  11
ENDBRANCH   1  10
TORSDOF 12
ENDMDL
MODEL 4
REMARK VINA RESULT:    -4.411      4.374      7.996
REMARK INTER + INTRA:          -8.629
REMARK INTER:                  -7.795
REMARK INTRA:                  -0.834
REMARK UNBOUND:                -1.123
REMARK SMILES CCCCCCCCCCCCCC(=O)[O-]
REMARK SMILES IDX 8 1 9 2 10 3 11 4 12 5 13 6 14 7 15 8 16 9 7 10 6 11 5 12
REMARK SMILES IDX 4 13 3 14 2 15 1 16
REMARK H PARENT
REMARK Flexibility Score: inf
ROOT
ATOM      1  C   UNL     1      45.627  29.519  14.881  1.00  0.00     0.000 C 
ENDROOT
BRANCH   1   2
ATOM      2  C   UNL     1      46.925  28.939  14.299  1.00  0.00     0.000 C 
BRANCH   2   3
ATOM      3  C   UNL     1      48.060  29.972  14.351  1.00  0.00     0.000 C 
BRANCH   3   4
ATOM      4  C   UNL     1      47.619  31.292  15.018  1.00  0.00     0.000 C 
BRANCH   4   5
ATOM      5  C   UNL     1      48.618  32.445  14.821  1.00  0.00     0.006 C 
BRANCH   5   6
ATOM      6  C   UNL     1      50.053  32.064  15.205  1.00  0.00     0.053 C 
BRANCH   6   7
ATOM      7  C   UNL     1      50.951  32.142  14.010  1.00  0.00     0.041 C 
ATOM      8  O   UNL     1      52.145  31.751  14.088  1.00  0.00    -0.550 OA
ATOM      9  O   UNL     1      50.483  32.693  12.824  1.00  0.00    -0.550 OA
ENDBRANCH   6   7
ENDBRANCH   5   6
ENDBRANCH   4   5
ENDBRANCH   3   4
ENDBRANCH   2   3
ENDBRANCH   1   2
BRANCH   1  10
ATOM     10  C   UNL     1      44.946  28.567  15.879  1.00  0.00     0.000 C 
BRANCH  10  11
ATOM     11  C   UNL     1      45.908  27.502  16.430  1.00  0.00    -0.000 C 
BRANCH  11  12
ATOM     12  C   UNL     1      45.408  26.861  17.738  1.00  0.00    -0.000 C 
BRANCH  12  13
ATOM     13  C   UNL     1      43.907  27.042  18.024  1.00  0.00    -0.000 C 
BRANCH  13  14
ATOM     14  C   UNL     1      43.186  25.716  18.310  1.00  0.00    -0.000 C 
BRANCH  14  15
ATOM     15  C   UNL     1      43.136  24.837  17.055  1.00  0.00    -0.003 C 
ATOM     16  C   UNL     1      43.314  23.362  17.408  1.00  0.00     0.004 C 
ENDBRANCH  14  15
ENDBRANCH  13  14
ENDBRANCH  12  13
ENDBRANCH  11  12
ENDBRANCH  10  11
ENDBRANCH   1  10
TORSDOF 12
ENDMDL
MODEL 5
REMARK VINA RESULT:    -4.356      1.771      3.030
REMARK INTER + INTRA:          -8.536
REMARK INTER:                  -7.173
REMARK INTRA:                  -1.362
REMARK UNBOUND:                -1.123
REMARK SMILES CCCCCCCCCCCCCC(=O)[O-]
REMARK SMILES IDX 8 1 9 2 10 3 11 4 12 5 13 6 14 7 15 8 16 9 7 10 6 11 5 12
REMARK SMILES IDX 4 13 3 14 2 15 1 16
REMARK H PARENT
REMARK Flexibility Score: inf
ROOT
ATOM      1  C   UNL     1      47.443  31.153  15.000  1.00  0.00     0.000 C 
ENDROOT
BRANCH   1   2
ATOM      2  C   UNL     1      47.918  29.849  14.341  1.00  0.00     0.000 C 
BRANCH   2   3
ATOM      3  C   UNL     1      46.803  28.793  14.343  1.00  0.00     0.000 C 
BRANCH   3   4
ATOM      4  C   UNL     1      45.448  29.376  14.797  1.00  0.00     0.000 C 
BRANCH   4   5
ATOM      5  C   UNL     1      44.761  28.552  15.899  1.00  0.00     0.006 C 
BRANCH   5   6
ATOM      6  C   UNL     1      45.731  27.631  16.648  1.00  0.00     0.053 C 
BRANCH   6   7
ATOM      7  C   UNL     1      44.989  26.776  17.627  1.00  0.00     0.041 C 
ATOM      8  O   UNL     1      45.398  25.615  17.892  1.00  0.00    -0.550 OA
ATOM      9  O   UNL     1      43.819  27.244  18.211  1.00  0.00    -0.550 OA
ENDBRANCH   6   7
ENDBRANCH   5   6
ENDBRANCH   4   5
ENDBRANCH   3   4
ENDBRANCH   2   3
ENDBRANCH   1   2
BRANCH   1  10
ATOM     10  C   UNL     1      48.505  32.264  14.954  1.00  0.00     0.000 C 
BRANCH  10  11
ATOM     11  C   UNL     1      49.576  32.012  13.880  1.00  0.00    -0.000 C 
BRANCH  11  12
ATOM     12  C   UNL     1      50.995  31.884  14.466  1.00  0.00    -0.000 C 
BRANCH  12  13
ATOM     13  C   UNL     1      51.056  31.658  15.987  1.00  0.00    -0.000 C 
BRANCH  13  14
ATOM     14  C   UNL     1      51.898  30.434  16.379  1.00  0.00    -0.000 C 
BRANCH  14  15
ATOM     15  C   UNL     1      51.367  29.164  15.704  1.00  0.00    -0.003 C 
ATOM     16  C   UNL     1      50.404  28.414  16.621  1.00  0.00     0.004 C 
ENDBRANCH  14  15
ENDBRANCH  13  14
ENDBRANCH  12  13
ENDBRANCH  11  12
ENDBRANCH  10  11
ENDBRANCH   1  10
TORSDOF 12
ENDMDL
MODEL 6
REMARK VINA RESULT:    -4.318      1.055      1.471
REMARK INTER + INTRA:          -8.470
REMARK INTER:                  -7.311
REMARK INTRA:                  -1.159
REMARK UNBOUND:                -1.123
REMARK SMILES CCCCCCCCCCCCCC(=O)[O-]
REMARK SMILES IDX 8 1 9 2 10 3 11 4 12 5 13 6 14 7 15 8 16 9 7 10 6 11 5 12
REMARK SMILES IDX 4 13 3 14 2 15 1 16
REMARK H PARENT
REMARK Flexibility Score: inf
ROOT
ATOM      1  C   UNL     1      48.626  27.388  14.223  1.00  0.00     0.000 C 
ENDROOT
BRANCH   1   2
ATOM      2  C   UNL     1      47.284  28.091  13.964  1.00  0.00     0.000 C 
BRANCH   2   3
ATOM      3  C   UNL     1      46.501  28.278  15.272  1.00  0.00     0.000 C 
BRANCH   3   4
ATOM      4  C   UNL     1      45.201  29.085  15.064  1.00  0.00     0.000 C 
BRANCH   4   5
ATOM      5  C   UNL     1      44.002  28.536  15.855  1.00  0.00     0.006 C 
BRANCH   5   6
ATOM      6  C   UNL     1      44.395  27.437  16.849  1.00  0.00     0.053 C 
BRANCH   6   7
ATOM      7  C   UNL     1      43.259  26.484  17.050  1.00  0.00     0.041 C 
ATOM      8  O   UNL     1      42.246  26.538  16.305  1.00  0.00    -0.550 OA
ATOM      9  O   UNL     1      43.298  25.567  18.092  1.00  0.00    -0.550 OA
ENDBRANCH   6   7
ENDBRANCH   5   6
ENDBRANCH   4   5
ENDBRANCH   3   4
ENDBRANCH   2   3
ENDBRANCH   1   2
BRANCH   1  10
ATOM     10  C   UNL     1      49.823  28.352  14.159  1.00  0.00     0.000 C 
BRANCH  10  11
ATOM     11  C   UNL     1      49.763  29.287  12.939  1.00  0.00    -0.000 C 
BRANCH  11  12
ATOM     12  C   UNL     1      50.315  30.694  13.236  1.00  0.00    -0.000 C 
BRANCH  12  13
ATOM     13  C   UNL     1      50.690  30.953  14.706  1.00  0.00    -0.000 C 
BRANCH  13  14
ATOM     14  C   UNL     1      50.029  32.216  15.280  1.00  0.00    -0.000 C 
BRANCH  14  15
ATOM     15  C   UNL     1      48.707  32.518  14.564  1.00  0.00    -0.003 C 
ATOM     16  C   UNL     1      47.528  31.874  15.289  1.00  0.00     0.004 C 
ENDBRANCH  14  15
ENDBRANCH  13  14
ENDBRANCH  12  13
ENDBRANCH  11  12
ENDBRANCH  10  11
ENDBRANCH   1  10
TORSDOF 12
ENDMDL
MODEL 7
REMARK VINA RESULT:    -4.302      1.580      2.605
REMARK INTER + INTRA:          -8.444
REMARK INTER:                  -7.554
REMARK INTRA:                  -0.889
REMARK UNBOUND:                -1.123
REMARK SMILES CCCCCCCCCCCCCC(=O)[O-]
REMARK SMILES IDX 8 1 9 2 10 3 11 4 12 5 13 6 14 7 15 8 16 9 7 10 6 11 5 12
REMARK SMILES IDX 4 13 3 14 2 15 1 16
REMARK H PARENT
REMARK Flexibility Score: inf
ROOT
ATOM      1  C   UNL     1      45.390  28.574  15.919  1.00  0.00     0.000 C 
ENDROOT
BRANCH   1   2
ATOM      2  C   UNL     1      46.414  27.439  16.069  1.00  0.00     0.000 C 
BRANCH   2   3
ATOM      3  C   UNL     1      46.506  26.971  17.529  1.00  0.00     0.000 C 
BRANCH   3   4
ATOM      4  C   UNL     1      46.287  25.449  17.670  1.00  0.00     0.000 C 
BRANCH   4   5
ATOM      5  C   UNL     1      45.065  25.080  18.527  1.00  0.00     0.006 C 
BRANCH   5   6
ATOM      6  C   UNL     1      43.923  26.096  18.408  1.00  0.00     0.053 C 
BRANCH   6   7
ATOM      7  C   UNL     1      43.032  25.750  17.256  1.00  0.00     0.041 C 
ATOM      8  O   UNL     1      42.855  24.547  16.931  1.00  0.00    -0.550 OA
ATOM      9  O   UNL     1      42.437  26.759  16.511  1.00  0.00    -0.550 OA
ENDBRANCH   6   7
ENDBRANCH   5   6
ENDBRANCH   4   5
ENDBRANCH   3   4
ENDBRANCH   2   3
ENDBRANCH   1   2
BRANCH   1  10
ATOM     10  C   UNL     1      45.847  29.660  14.930  1.00  0.00     0.000 C 
BRANCH  10  11
ATOM     11  C   UNL     1      47.091  29.241  14.127  1.00  0.00    -0.000 C 
BRANCH  11  12
ATOM     12  C   UNL     1      48.349  30.041  14.513  1.00  0.00    -0.000 C 
BRANCH  12  13
ATOM     13  C   UNL     1      48.097  31.505  14.916  1.00  0.00    -0.000 C 
BRANCH  13  14
ATOM     14  C   UNL     1      49.271  32.433  14.573  1.00  0.00    -0.000 C 
BRANCH  14  15
ATOM     15  C   UNL     1      50.045  31.913  13.355  1.00  0.00    -0.003 C 
ATOM     16  C   UNL     1      51.237  32.811  13.035  1.00  0.00     0.004 C 
ENDBRANCH  14  15
ENDBRANCH  13  14
ENDBRANCH  12  13
ENDBRANCH  11  12
ENDBRANCH  10  11
ENDBRANCH   1  10
TORSDOF 12
ENDMDL
MODEL 8
REMARK VINA RESULT:    -4.217      4.045      6.949
REMARK INTER + INTRA:          -8.298
REMARK INTER:                  -6.842
REMARK INTRA:                  -1.456
REMARK UNBOUND:                -1.123
REMARK SMILES CCCCCCCCCCCCCC(=O)[O-]
REMARK SMILES IDX 8 1 9 2 10 3 11 4 12 5 13 6 14 7 15 8 16 9 7 10 6 11 5 12
REMARK SMILES IDX 4 13 3 14 2 15 1 16
REMARK H PARENT
REMARK Flexibility Score: inf
ROOT
ATOM      1  C   UNL     1      44.009  28.303  15.697  1.00  0.00     0.000 C 
ENDROOT
BRANCH   1   2
ATOM      2  C   UNL     1      45.418  28.854  15.964  1.00  0.00     0.000 C 
BRANCH   2   3
ATOM      3  C   UNL     1      45.870  29.784  14.829  1.00  0.00     0.000 C 
BRANCH   3   4
ATOM      4  C   UNL     1      47.144  29.271  14.125  1.00  0.00     0.000 C 
BRANCH   4   5
ATOM      5  C   UNL     1      48.439  29.918  14.645  1.00  0.00     0.006 C 
BRANCH   5   6
ATOM      6  C   UNL     1      48.300  31.428  14.875  1.00  0.00     0.053 C 
BRANCH   6   7
ATOM      7  C   UNL     1      49.612  32.113  14.651  1.00  0.00     0.041 C 
ATOM      8  O   UNL     1      50.365  32.374  15.625  1.00  0.00    -0.550 OA
ATOM      9  O   UNL     1      49.980  32.507  13.372  1.00  0.00    -0.550 OA
ENDBRANCH   6   7
ENDBRANCH   5   6
ENDBRANCH   4   5
ENDBRANCH   3   4
ENDBRANCH   2   3
ENDBRANCH   1   2
BRANCH   1  10
ATOM     10  C   UNL     1      43.472  27.454  16.861  1.00  0.00     0.000 C 
BRANCH  10  11
ATOM     11  C   UNL     1      44.592  26.936  17.780  1.00  0.00    -0.000 C 
BRANCH  11  12
ATOM     12  C   UNL     1      44.953  25.463  17.512  1.00  0.00    -0.000 C 
BRANCH  12  13
ATOM     13  C   UNL     1      46.447  25.190  17.264  1.00  0.00    -0.000 C 
BRANCH  13  14
ATOM     14  C   UNL     1      47.359  26.302  17.806  1.00  0.00    -0.000 C 
BRANCH  14  15
ATOM     15  C   UNL     1      48.367  26.752  16.741  1.00  0.00    -0.003 C 
ATOM     16  C   UNL     1      48.126  26.034  15.416  1.00  0.00     0.004 C 
ENDBRANCH  14  15
ENDBRANCH  13  14
ENDBRANCH  12  13
ENDBRANCH  11  12
ENDBRANCH  10  11
ENDBRANCH   1  10
TORSDOF 12
ENDMDL
MODEL 9
REMARK VINA RESULT:    -4.212      1.903      2.904
REMARK INTER + INTRA:          -8.290
REMARK INTER:                  -7.481
REMARK INTRA:                  -0.809
REMARK UNBOUND:                -1.123
REMARK SMILES CCCCCCCCCCCCCC(=O)[O-]
REMARK SMILES IDX 8 1 9 2 10 3 11 4 12 5 13 6 14 7 15 8 16 9 7 10 6 11 5 12
REMARK SMILES IDX 4 13 3 14 2 15 1 16
REMARK H PARENT
REMARK Flexibility Score: inf
ROOT
ATOM      1  C   UNL     1      45.468  28.573  15.983  1.00  0.00     0.000 C 
ENDROOT
BRANCH   1   2
ATOM      2  C   UNL     1      43.967  28.242  15.986  1.00  0.00     0.000 C 
BRANCH   2   3
ATOM      3  C   UNL     1      43.556  27.564  17.302  1.00  0.00     0.000 C 
BRANCH   3   4
ATOM      4  C   UNL     1      43.145  26.091  17.097  1.00  0.00     0.000 C 
BRANCH   4   5
ATOM      5  C   UNL     1      44.042  25.090  17.845  1.00  0.00     0.006 C 
BRANCH   5   6
ATOM      6  C   UNL     1      45.107  25.775  18.710  1.00  0.00     0.053 C 
BRANCH   6   7
ATOM      7  C   UNL     1      46.471  25.550  18.136  1.00  0.00     0.041 C 
ATOM      8  O   UNL     1      46.605  25.241  16.923  1.00  0.00    -0.550 OA
ATOM      9  O   UNL     1      47.590  25.633  18.953  1.00  0.00    -0.550 OA
ENDBRANCH   6   7
ENDBRANCH   5   6
ENDBRANCH   4   5
ENDBRANCH   3   4
ENDBRANCH   2   3
ENDBRANCH   1   2
BRANCH   1  10
ATOM     10  C   UNL     1      45.843  29.620  14.921  1.00  0.00     0.000 C 
BRANCH  10  11
ATOM     11  C   UNL     1      47.133  29.258  14.166  1.00  0.00    -0.000 C 
BRANCH  11  12
ATOM     12  C   UNL     1      48.332  30.135  14.574  1.00  0.00    -0.000 C 
BRANCH  12  13
ATOM     13  C   UNL     1      47.984  31.588  14.944  1.00  0.00    -0.000 C 
BRANCH  13  14
ATOM     14  C   UNL     1      49.223  32.487  15.073  1.00  0.00    -0.000 C 
BRANCH  14  15
ATOM     15  C   UNL     1      50.410  31.900  14.299  1.00  0.00    -0.003 C 
ATOM     16  C   UNL     1      50.654  32.665  13.001  1.00  0.00     0.004 C 
ENDBRANCH  14  15
ENDBRANCH  13  14
ENDBRANCH  12  13
ENDBRANCH  11  12
ENDBRANCH  10  11
ENDBRANCH   1  10
TORSDOF 12
ENDMDL
