MODEL 1
REMARK VINA RESULT:    -3.218      0.000      0.000
REMARK INTER + INTRA:         -12.142
REMARK INTER:                  -8.108
REMARK INTRA:                  -4.034
REMARK UNBOUND:                -4.034
REMARK SMILES CCCCCCCCCCCCCCCCCCCCCCCCCCCC(=O)[O-]
REMARK SMILES IDX 15 1 16 2 17 3 18 4 19 5 20 6 21 7 22 8 23 9 24 10 25 11
REMARK SMILES IDX 26 12 27 13 28 14 29 15 30 16 14 17 13 18 12 19 11 20 10 21
REMARK SMILES IDX 9 22 8 23 7 24 6 25 5 26 4 27 3 28 2 29 1 30
REMARK H PARENT
REMARK Flexibility Score: inf
ROOT
ATOM      1  C   UNL     1       3.838 -18.409   2.241  1.00  0.00     0.000 C 
ENDROOT
BRANCH   1   2
ATOM      2  C   UNL     1       2.660 -17.900   3.098  1.00  0.00     0.000 C 
BRANCH   2   3
ATOM      3  C   UNL     1       1.356 -18.706   2.906  1.00  0.00     0.000 C 
BRANCH   3   4
ATOM      4  C   UNL     1       1.096 -19.745   4.014  1.00  0.00     0.000 C 
BRANCH   4   5
ATOM      5  C   UNL     1       1.891 -19.488   5.313  1.00  0.00     0.000 C 
BRANCH   5   6
ATOM      6  C   UNL     1       2.420 -20.763   6.005  1.00  0.00     0.000 C 
BRANCH   6   7
ATOM      7  C   UNL     1       3.836 -20.663   6.623  1.00  0.00     0.000 C 
BRANCH   7   8
ATOM      8  C   UNL     1       4.482 -19.262   6.595  1.00  0.00     0.000 C 
BRANCH   8   9
ATOM      9  C   UNL     1       5.941 -19.222   7.106  1.00  0.00     0.000 C 
BRANCH   9  10
ATOM     10  C   UNL     1       6.109 -18.477   8.440  1.00  0.00     0.000 C 
BRANCH  10  11
ATOM     11  C   UNL     1       5.076 -17.353   8.633  1.00  0.00     0.000 C 
BRANCH  11  12
ATOM     12  C   UNL     1       5.656 -15.961   8.332  1.00  0.00     0.006 C 
BRANCH  12  13
ATOM     13  C   UNL     1       4.737 -15.116   7.440  1.00  0.00     0.053 C 
BRANCH  13  14
ATOM     14  C   UNL     1       5.369 -13.792   7.147  1.00  0.00     0.041 C 
ATOM     15  O   UNL     1       6.530 -13.735   6.661  1.00  0.00    -0.550 OA
ATOM     16  O   UNL     1       4.702 -12.617   7.475  1.00  0.00    -0.550 OA
ENDBRANCH  13  14
ENDBRANCH  12  13
ENDBRANCH  11  12
ENDBRANCH  10  11
ENDBRANCH   9  10
ENDBRANCH   8   9
ENDBRANCH   7   8
ENDBRANCH   6   7
ENDBRANCH   5   6
ENDBRANCH   4   5
ENDBRANCH   3   4
ENDBRANCH   2   3
ENDBRANCH   1   2
BRANCH   1  17
ATOM     17  C   UNL     1       3.793 -19.915   1.911  1.00  0.00     0.000 C 
BRANCH  17  18
ATOM     18  C   UNL     1       4.686 -20.816   2.783  1.00  0.00     0.000 C 
BRANCH  18  19
ATOM     19  C   UNL     1       5.838 -20.074   3.488  1.00  0.00     0.000 C 
BRANCH  19  20
ATOM     20  C   UNL     1       6.859 -21.029   4.138  1.00  0.00     0.000 C 
BRANCH  20  21
ATOM     21  C   UNL     1       8.260 -20.400   4.243  1.00  0.00     0.000 C 
BRANCH  21  22
ATOM     22  C   UNL     1       8.503 -19.346   3.147  1.00  0.00    -0.000 C 
BRANCH  22  23
ATOM     23  C   UNL     1       8.855 -17.960   3.713  1.00  0.00    -0.000 C 
BRANCH  23  24
ATOM     24  C   UNL     1      10.013 -17.953   4.731  1.00  0.00    -0.000 C 
BRANCH  24  25
ATOM     25  C   UNL     1      10.542 -16.541   5.062  1.00  0.00    -0.000 C 
BRANCH  25  26
ATOM     26  C   UNL     1       9.497 -15.696   5.809  1.00  0.00    -0.000 C 
BRANCH  26  27
ATOM     27  C   UNL     1       8.844 -16.459   6.973  1.00  0.00    -0.000 C 
BRANCH  27  28
ATOM     28  C   UNL     1       9.386 -16.030   8.356  1.00  0.00    -0.000 C 
BRANCH  28  29
ATOM     29  C   UNL     1       9.840 -14.563   8.370  1.00  0.00    -0.003 C 
ATOM     30  C   UNL     1      11.114 -14.391   9.197  1.00  0.00     0.004 C 
ENDBRANCH  28  29
ENDBRANCH  27  28
ENDBRANCH  26  27
ENDBRANCH  25  26
ENDBRANCH  24  25
ENDBRANCH  23  24
ENDBRANCH  22  23
ENDBRANCH  21  22
ENDBRANCH  20  21
ENDBRANCH  19  20
ENDBRANCH  18  19
ENDBRANCH  17  18
ENDBRANCH   1  17
TORSDOF 26
ENDMDL
MODEL 2
REMARK VINA RESULT:    -3.132      2.515      6.064
REMARK INTER + INTRA:         -11.926
REMARK INTER:                  -6.934
REMARK INTRA:                  -4.993
REMARK UNBOUND:                -4.034
REMARK SMILES CCCCCCCCCCCCCCCCCCCCCCCCCCCC(=O)[O-]
REMARK SMILES IDX 15 1 16 2 17 3 18 4 19 5 20 6 21 7 22 8 23 9 24 10 25 11
REMARK SMILES IDX 26 12 27 13 28 14 29 15 30 16 14 17 13 18 12 19 11 20 10 21
REMARK SMILES IDX 9 22 8 23 7 24 6 25 5 26 4 27 3 28 2 29 1 30
REMARK H PARENT
REMARK Flexibility Score: inf
ROOT
ATOM      1  C   UNL     1       9.561 -15.356   5.893  1.00  0.00     0.000 C 
ENDROOT
BRANCH   1   2
ATOM      2  C   UNL     1       9.422 -16.845   5.511  1.00  0.00     0.000 C 
BRANCH   2   3
ATOM      3  C   UNL     1       9.781 -17.146   4.039  1.00  0.00     0.000 C 
BRANCH   3   4
ATOM      4  C   UNL     1       8.686 -17.916   3.275  1.00  0.00     0.000 C 
BRANCH   4   5
ATOM      5  C   UNL     1       9.094 -19.351   2.872  1.00  0.00     0.000 C 
BRANCH   5   6
ATOM      6  C   UNL     1       8.326 -20.468   3.611  1.00  0.00     0.000 C 
BRANCH   6   7
ATOM      7  C   UNL     1       8.797 -20.777   5.053  1.00  0.00     0.000 C 
BRANCH   7   8
ATOM      8  C   UNL     1       7.694 -20.781   6.132  1.00  0.00     0.000 C 
BRANCH   8   9
ATOM      9  C   UNL     1       6.944 -19.437   6.283  1.00  0.00     0.000 C 
BRANCH   9  10
ATOM     10  C   UNL     1       5.431 -19.541   6.025  1.00  0.00     0.000 C 
BRANCH  10  11
ATOM     11  C   UNL     1       5.046 -20.784   5.204  1.00  0.00     0.000 C 
BRANCH  11  12
ATOM     12  C   UNL     1       4.234 -20.433   3.947  1.00  0.00     0.006 C 
BRANCH  12  13
ATOM     13  C   UNL     1       4.837 -19.264   3.158  1.00  0.00     0.053 C 
BRANCH  13  14
ATOM     14  C   UNL     1       3.795 -18.624   2.296  1.00  0.00     0.041 C 
ATOM     15  O   UNL     1       3.197 -17.586   2.686  1.00  0.00    -0.550 OA
ATOM     16  O   UNL     1       3.435 -19.212   1.090  1.00  0.00    -0.550 OA
ENDBRANCH  13  14
ENDBRANCH  12  13
ENDBRANCH  11  12
ENDBRANCH  10  11
ENDBRANCH   9  10
ENDBRANCH   8   9
ENDBRANCH   7   8
ENDBRANCH   6   7
ENDBRANCH   5   6
ENDBRANCH   4   5
ENDBRANCH   3   4
ENDBRANCH   2   3
ENDBRANCH   1   2
BRANCH   1  17
ATOM     17  C   UNL     1       8.443 -14.817   6.808  1.00  0.00     0.000 C 
BRANCH  17  18
ATOM     18  C   UNL     1       7.988 -15.764   7.935  1.00  0.00     0.000 C 
BRANCH  18  19
ATOM     19  C   UNL     1       6.498 -16.152   7.873  1.00  0.00     0.000 C 
BRANCH  19  20
ATOM     20  C   UNL     1       6.056 -17.028   9.062  1.00  0.00     0.000 C 
BRANCH  20  21
ATOM     21  C   UNL     1       7.219 -17.336  10.023  1.00  0.00     0.000 C 
BRANCH  21  22
ATOM     22  C   UNL     1       7.660 -18.809   9.940  1.00  0.00    -0.000 C 
BRANCH  22  23
ATOM     23  C   UNL     1       9.186 -18.986  10.012  1.00  0.00    -0.000 C 
BRANCH  23  24
ATOM     24  C   UNL     1       9.939 -18.639   8.712  1.00  0.00    -0.000 C 
BRANCH  24  25
ATOM     25  C   UNL     1      10.979 -17.509   8.878  1.00  0.00    -0.000 C 
BRANCH  25  26
ATOM     26  C   UNL     1      10.961 -16.916  10.296  1.00  0.00    -0.000 C 
BRANCH  26  27
ATOM     27  C   UNL     1      10.556 -15.433  10.311  1.00  0.00    -0.000 C 
BRANCH  27  28
ATOM     28  C   UNL     1      11.217 -14.616   9.177  1.00  0.00    -0.000 C 
BRANCH  28  29
ATOM     29  C   UNL     1      12.425 -13.808   9.673  1.00  0.00    -0.003 C 
ATOM     30  C   UNL     1      11.993 -12.725  10.660  1.00  0.00     0.004 C 
ENDBRANCH  28  29
ENDBRANCH  27  28
ENDBRANCH  26  27
ENDBRANCH  25  26
ENDBRANCH  24  25
ENDBRANCH  23  24
ENDBRANCH  22  23
ENDBRANCH  21  22
ENDBRANCH  20  21
ENDBRANCH  19  20
ENDBRANCH  18  19
ENDBRANCH  17  18
ENDBRANCH   1  17
TORSDOF 26
ENDMDL
MODEL 3
REMARK VINA RESULT:    -3.128      2.245      4.861
REMARK INTER + INTRA:         -11.916
REMARK INTER:                  -7.367
REMARK INTRA:                  -4.548
REMARK UNBOUND:                -4.034
REMARK SMILES CCCCCCCCCCCCCCCCCCCCCCCCCCCC(=O)[O-]
REMARK SMILES IDX 15 1 16 2 17 3 18 4 19 5 20 6 21 7 22 8 23 9 24 10 25 11
REMARK SMILES IDX 26 12 27 13 28 14 29 15 30 16 14 17 13 18 12 19 11 20 10 21
REMARK SMILES IDX 9 22 8 23 7 24 6 25 5 26 4 27 3 28 2 29 1 30
REMARK H PARENT
REMARK Flexibility Score: inf
ROOT
ATOM      1  C   UNL     1       8.134 -18.399   3.061  1.00  0.00     0.000 C 
ENDROOT
BRANCH   1   2
ATOM      2  C   UNL     1       7.524 -19.769   3.425  1.00  0.00     0.000 C 
BRANCH   2   3
ATOM      3  C   UNL     1       6.044 -19.694   3.862  1.00  0.00     0.000 C 
BRANCH   3   4
ATOM      4  C   UNL     1       5.124 -20.685   3.121  1.00  0.00     0.000 C 
BRANCH   4   5
ATOM      5  C   UNL     1       3.902 -20.022   2.448  1.00  0.00     0.000 C 
BRANCH   5   6
ATOM      6  C   UNL     1       3.867 -18.482   2.554  1.00  0.00     0.000 C 
BRANCH   6   7
ATOM      7  C   UNL     1       2.755 -17.888   3.452  1.00  0.00     0.000 C 
BRANCH   7   8
ATOM      8  C   UNL     1       2.282 -18.786   4.615  1.00  0.00     0.000 C 
BRANCH   8   9
ATOM      9  C   UNL     1       2.798 -18.352   6.007  1.00  0.00     0.000 C 
BRANCH   9  10
ATOM     10  C   UNL     1       4.073 -19.088   6.451  1.00  0.00     0.000 C 
BRANCH  10  11
ATOM     11  C   UNL     1       4.877 -18.310   7.507  1.00  0.00     0.000 C 
BRANCH  11  12
ATOM     12  C   UNL     1       4.509 -18.711   8.944  1.00  0.00     0.006 C 
BRANCH  12  13
ATOM     13  C   UNL     1       5.371 -18.005   9.997  1.00  0.00     0.053 C 
BRANCH  13  14
ATOM     14  C   UNL     1       4.575 -17.751  11.239  1.00  0.00     0.041 C 
ATOM     15  O   UNL     1       4.820 -16.744  11.956  1.00  0.00    -0.550 OA
ATOM     16  O   UNL     1       3.608 -18.663  11.642  1.00  0.00    -0.550 OA
ENDBRANCH  13  14
ENDBRANCH  12  13
ENDBRANCH  11  12
ENDBRANCH  10  11
ENDBRANCH   9  10
ENDBRANCH   8   9
ENDBRANCH   7   8
ENDBRANCH   6   7
ENDBRANCH   5   6
ENDBRANCH   4   5
ENDBRANCH   3   4
ENDBRANCH   2   3
ENDBRANCH   1   2
BRANCH   1  17
ATOM     17  C   UNL     1       9.662 -18.410   2.846  1.00  0.00     0.000 C 
BRANCH  17  18
ATOM     18  C   UNL     1      10.509 -17.968   4.054  1.00  0.00     0.000 C 
BRANCH  18  19
ATOM     19  C   UNL     1      10.299 -16.500   4.472  1.00  0.00     0.000 C 
BRANCH  19  20
ATOM     20  C   UNL     1      11.506 -15.914   5.231  1.00  0.00     0.000 C 
BRANCH  20  21
ATOM     21  C   UNL     1      11.928 -16.794   6.422  1.00  0.00     0.000 C 
BRANCH  21  22
ATOM     22  C   UNL     1      12.142 -15.967   7.703  1.00  0.00    -0.000 C 
BRANCH  22  23
ATOM     23  C   UNL     1      11.435 -14.602   7.663  1.00  0.00    -0.000 C 
BRANCH  23  24
ATOM     24  C   UNL     1      10.061 -14.564   8.364  1.00  0.00    -0.000 C 
BRANCH  24  25
ATOM     25  C   UNL     1       8.865 -14.584   7.388  1.00  0.00    -0.000 C 
BRANCH  25  26
ATOM     26  C   UNL     1       8.141 -15.940   7.393  1.00  0.00    -0.000 C 
BRANCH  26  27
ATOM     27  C   UNL     1       8.424 -16.756   8.665  1.00  0.00    -0.000 C 
BRANCH  27  28
ATOM     28  C   UNL     1       9.035 -18.145   8.368  1.00  0.00    -0.000 C 
BRANCH  28  29
ATOM     29  C   UNL     1       8.440 -18.780   7.104  1.00  0.00    -0.003 C 
ATOM     30  C   UNL     1       9.216 -20.034   6.702  1.00  0.00     0.004 C 
ENDBRANCH  28  29
ENDBRANCH  27  28
ENDBRANCH  26  27
ENDBRANCH  25  26
ENDBRANCH  24  25
ENDBRANCH  23  24
ENDBRANCH  22  23
ENDBRANCH  21  22
ENDBRANCH  20  21
ENDBRANCH  19  20
ENDBRANCH  18  19
ENDBRANCH  17  18
ENDBRANCH   1  17
TORSDOF 26
ENDMDL
MODEL 4
REMARK VINA RESULT:    -3.122      2.833      4.458
REMARK INTER + INTRA:         -11.901
REMARK INTER:                  -7.927
REMARK INTRA:                  -3.974
REMARK UNBOUND:                -4.034
REMARK SMILES CCCCCCCCCCCCCCCCCCCCCCCCCCCC(=O)[O-]
REMARK SMILES IDX 15 1 16 2 17 3 18 4 19 5 20 6 21 7 22 8 23 9 24 10 25 11
REMARK SMILES IDX 26 12 27 13 28 14 29 15 30 16 14 17 13 18 12 19 11 20 10 21
REMARK SMILES IDX 9 22 8 23 7 24 6 25 5 26 4 27 3 28 2 29 1 30
REMARK H PARENT
REMARK Flexibility Score: inf
ROOT
ATOM      1  C   UNL     1       5.244 -20.084   3.331  1.00  0.00     0.000 C 
ENDROOT
BRANCH   1   2
ATOM      2  C   UNL     1       4.607 -18.822   2.713  1.00  0.00     0.000 C 
BRANCH   2   3
ATOM      3  C   UNL     1       3.589 -19.124   1.592  1.00  0.00     0.000 C 
BRANCH   3   4
ATOM      4  C   UNL     1       2.359 -19.925   2.065  1.00  0.00     0.000 C 
BRANCH   4   5
ATOM      5  C   UNL     1       1.425 -19.137   3.011  1.00  0.00     0.000 C 
BRANCH   5   6
ATOM      6  C   UNL     1       0.987 -19.913   4.272  1.00  0.00     0.000 C 
BRANCH   6   7
ATOM      7  C   UNL     1       1.947 -19.836   5.484  1.00  0.00     0.000 C 
BRANCH   7   8
ATOM      8  C   UNL     1       2.428 -18.422   5.869  1.00  0.00     0.000 C 
BRANCH   8   9
ATOM      9  C   UNL     1       3.541 -18.397   6.943  1.00  0.00     0.000 C 
BRANCH   9  10
ATOM     10  C   UNL     1       3.745 -19.745   7.654  1.00  0.00     0.000 C 
BRANCH  10  11
ATOM     11  C   UNL     1       3.339 -19.709   9.137  1.00  0.00     0.000 C 
BRANCH  11  12
ATOM     12  C   UNL     1       2.052 -20.502   9.416  1.00  0.00     0.006 C 
BRANCH  12  13
ATOM     13  C   UNL     1       0.850 -19.597   9.712  1.00  0.00     0.053 C 
BRANCH  13  14
ATOM     14  C   UNL     1      -0.207 -19.776   8.668  1.00  0.00     0.041 C 
ATOM     15  O   UNL     1      -0.486 -18.834   7.879  1.00  0.00    -0.550 OA
ATOM     16  O   UNL     1      -0.933 -20.959   8.611  1.00  0.00    -0.550 OA
ENDBRANCH  13  14
ENDBRANCH  12  13
ENDBRANCH  11  12
ENDBRANCH  10  11
ENDBRANCH   9  10
ENDBRANCH   8   9
ENDBRANCH   7   8
ENDBRANCH   6   7
ENDBRANCH   5   6
ENDBRANCH   4   5
ENDBRANCH   3   4
ENDBRANCH   2   3
ENDBRANCH   1   2
BRANCH   1  17
ATOM     17  C   UNL     1       5.881 -19.872   4.720  1.00  0.00     0.000 C 
BRANCH  17  18
ATOM     18  C   UNL     1       7.410 -19.686   4.731  1.00  0.00     0.000 C 
BRANCH  18  19
ATOM     19  C   UNL     1       8.016 -19.342   3.357  1.00  0.00     0.000 C 
BRANCH  19  20
ATOM     20  C   UNL     1       8.830 -18.033   3.370  1.00  0.00     0.000 C 
BRANCH  20  21
ATOM     21  C   UNL     1       9.036 -17.489   4.795  1.00  0.00     0.000 C 
BRANCH  21  22
ATOM     22  C   UNL     1      10.256 -16.554   4.885  1.00  0.00    -0.000 C 
BRANCH  22  23
ATOM     23  C   UNL     1      10.005 -15.320   5.767  1.00  0.00    -0.000 C 
BRANCH  23  24
ATOM     24  C   UNL     1       8.708 -15.374   6.600  1.00  0.00    -0.000 C 
BRANCH  24  25
ATOM     25  C   UNL     1       8.945 -15.646   8.102  1.00  0.00    -0.000 C 
BRANCH  25  26
ATOM     26  C   UNL     1       7.839 -16.526   8.708  1.00  0.00    -0.000 C 
BRANCH  26  27
ATOM     27  C   UNL     1       6.566 -16.552   7.846  1.00  0.00    -0.000 C 
BRANCH  27  28
ATOM     28  C   UNL     1       5.398 -15.756   8.472  1.00  0.00    -0.000 C 
BRANCH  28  29
ATOM     29  C   UNL     1       4.625 -14.943   7.424  1.00  0.00    -0.003 C 
ATOM     30  C   UNL     1       5.351 -13.640   7.095  1.00  0.00     0.004 C 
ENDBRANCH  28  29
ENDBRANCH  27  28
ENDBRANCH  26  27
ENDBRANCH  25  26
ENDBRANCH  24  25
ENDBRANCH  23  24
ENDBRANCH  22  23
ENDBRANCH  21  22
ENDBRANCH  20  21
ENDBRANCH  19  20
ENDBRANCH  18  19
ENDBRANCH  17  18
ENDBRANCH   1  17
TORSDOF 26
ENDMDL
MODEL 5
REMARK VINA RESULT:    -3.107      3.049      6.313
REMARK INTER + INTRA:         -11.864
REMARK INTER:                  -6.953
REMARK INTRA:                  -4.912
REMARK UNBOUND:                -4.034
REMARK SMILES CCCCCCCCCCCCCCCCCCCCCCCCCCCC(=O)[O-]
REMARK SMILES IDX 15 1 16 2 17 3 18 4 19 5 20 6 21 7 22 8 23 9 24 10 25 11
REMARK SMILES IDX 26 12 27 13 28 14 29 15 30 16 14 17 13 18 12 19 11 20 10 21
REMARK SMILES IDX 9 22 8 23 7 24 6 25 5 26 4 27 3 28 2 29 1 30
REMARK H PARENT
REMARK Flexibility Score: inf
ROOT
ATOM      1  C   UNL     1       4.940 -19.498   3.026  1.00  0.00     0.000 C 
ENDROOT
BRANCH   1   2
ATOM      2  C   UNL     1       4.547 -20.986   2.915  1.00  0.00     0.000 C 
BRANCH   2   3
ATOM      3  C   UNL     1       5.493 -21.938   3.682  1.00  0.00     0.000 C 
BRANCH   3   4
ATOM      4  C   UNL     1       6.832 -21.292   4.088  1.00  0.00     0.000 C 
BRANCH   4   5
ATOM      5  C   UNL     1       7.291 -21.650   5.519  1.00  0.00     0.000 C 
BRANCH   5   6
ATOM      6  C   UNL     1       7.800 -20.451   6.348  1.00  0.00     0.000 C 
BRANCH   6   7
ATOM      7  C   UNL     1       7.781 -19.076   5.636  1.00  0.00     0.000 C 
BRANCH   7   8
ATOM      8  C   UNL     1       9.149 -18.376   5.494  1.00  0.00     0.000 C 
BRANCH   8   9
ATOM      9  C   UNL     1       9.273 -17.465   4.251  1.00  0.00     0.000 C 
BRANCH   9  10
ATOM     10  C   UNL     1       8.642 -18.061   2.981  1.00  0.00     0.000 C 
BRANCH  10  11
ATOM     11  C   UNL     1       9.661 -18.794   2.092  1.00  0.00     0.000 C 
BRANCH  11  12
ATOM     12  C   UNL     1       9.844 -20.267   2.495  1.00  0.00     0.006 C 
BRANCH  12  13
ATOM     13  C   UNL     1      10.927 -20.976   1.672  1.00  0.00     0.053 C 
BRANCH  13  14
ATOM     14  C   UNL     1      12.246 -20.907   2.376  1.00  0.00     0.041 C 
ATOM     15  O   UNL     1      12.301 -20.574   3.590  1.00  0.00    -0.550 OA
ATOM     16  O   UNL     1      13.421 -21.144   1.674  1.00  0.00    -0.550 OA
ENDBRANCH  13  14
ENDBRANCH  12  13
ENDBRANCH  11  12
ENDBRANCH  10  11
ENDBRANCH   9  10
ENDBRANCH   8   9
ENDBRANCH   7   8
ENDBRANCH   6   7
ENDBRANCH   5   6
ENDBRANCH   4   5
ENDBRANCH   3   4
ENDBRANCH   2   3
ENDBRANCH   1   2
BRANCH   1  17
ATOM     17  C   UNL     1       4.036 -18.531   2.233  1.00  0.00     0.000 C 
BRANCH  17  18
ATOM     18  C   UNL     1       2.846 -17.941   3.012  1.00  0.00     0.000 C 
BRANCH  18  19
ATOM     19  C   UNL     1       1.538 -18.743   2.875  1.00  0.00     0.000 C 
BRANCH  19  20
ATOM     20  C   UNL     1       1.252 -19.640   4.096  1.00  0.00     0.000 C 
BRANCH  20  21
ATOM     21  C   UNL     1       2.012 -19.173   5.351  1.00  0.00     0.000 C 
BRANCH  21  22
ATOM     22  C   UNL     1       2.743 -20.336   6.048  1.00  0.00    -0.000 C 
BRANCH  22  23
ATOM     23  C   UNL     1       4.143 -19.951   6.554  1.00  0.00    -0.000 C 
BRANCH  23  24
ATOM     24  C   UNL     1       4.257 -18.516   7.107  1.00  0.00    -0.000 C 
BRANCH  24  25
ATOM     25  C   UNL     1       5.179 -18.397   8.340  1.00  0.00    -0.000 C 
BRANCH  25  26
ATOM     26  C   UNL     1       5.448 -16.930   8.717  1.00  0.00    -0.000 C 
BRANCH  26  27
ATOM     27  C   UNL     1       6.607 -16.317   7.915  1.00  0.00    -0.000 C 
BRANCH  27  28
ATOM     28  C   UNL     1       7.984 -16.534   8.582  1.00  0.00    -0.000 C 
BRANCH  28  29
ATOM     29  C   UNL     1       9.078 -15.661   7.951  1.00  0.00    -0.003 C 
ATOM     30  C   UNL     1       8.481 -14.665   6.958  1.00  0.00     0.004 C 
ENDBRANCH  28  29
ENDBRANCH  27  28
ENDBRANCH  26  27
ENDBRANCH  25  26
ENDBRANCH  24  25
ENDBRANCH  23  24
ENDBRANCH  22  23
ENDBRANCH  21  22
ENDBRANCH  20  21
ENDBRANCH  19  20
ENDBRANCH  18  19
ENDBRANCH  17  18
ENDBRANCH   1  17
TORSDOF 26
ENDMDL
MODEL 6
REMARK VINA RESULT:    -3.082      2.597      6.533
REMARK INTER + INTRA:         -11.801
REMARK INTER:                  -6.783
REMARK INTRA:                  -5.018
REMARK UNBOUND:                -4.034
REMARK SMILES CCCCCCCCCCCCCCCCCCCCCCCCCCCC(=O)[O-]
REMARK SMILES IDX 15 1 16 2 17 3 18 4 19 5 20 6 21 7 22 8 23 9 24 10 25 11
REMARK SMILES IDX 26 12 27 13 28 14 29 15 30 16 14 17 13 18 12 19 11 20 10 21
REMARK SMILES IDX 9 22 8 23 7 24 6 25 5 26 4 27 3 28 2 29 1 30
REMARK H PARENT
REMARK Flexibility Score: inf
ROOT
ATOM      1  C   UNL     1       9.648 -14.622   8.164  1.00  0.00     0.000 C 
ENDROOT
BRANCH   1   2
ATOM      2  C   UNL     1       9.970 -15.892   8.979  1.00  0.00     0.000 C 
BRANCH   2   3
ATOM      3  C   UNL     1       8.789 -16.395   9.839  1.00  0.00     0.000 C 
BRANCH   3   4
ATOM      4  C   UNL     1       8.145 -17.694   9.317  1.00  0.00     0.000 C 
BRANCH   4   5
ATOM      5  C   UNL     1       6.837 -17.470   8.525  1.00  0.00     0.000 C 
BRANCH   5   6
ATOM      6  C   UNL     1       6.667 -18.386   7.294  1.00  0.00     0.000 C 
BRANCH   6   7
ATOM      7  C   UNL     1       5.371 -19.232   7.251  1.00  0.00     0.000 C 
BRANCH   7   8
ATOM      8  C   UNL     1       5.291 -20.278   6.120  1.00  0.00     0.000 C 
BRANCH   8   9
ATOM      9  C   UNL     1       3.851 -20.641   5.686  1.00  0.00     0.000 C 
BRANCH   9  10
ATOM     10  C   UNL     1       2.772 -19.742   6.313  1.00  0.00     0.000 C 
BRANCH  10  11
ATOM     11  C   UNL     1       2.152 -18.758   5.307  1.00  0.00     0.000 C 
BRANCH  11  12
ATOM     12  C   UNL     1       2.268 -19.248   3.854  1.00  0.00     0.006 C 
BRANCH  12  13
ATOM     13  C   UNL     1       2.997 -18.248   2.947  1.00  0.00     0.053 C 
BRANCH  13  14
ATOM     14  C   UNL     1       3.969 -18.961   2.061  1.00  0.00     0.041 C 
ATOM     15  O   UNL     1       3.684 -19.184   0.854  1.00  0.00    -0.550 OA
ATOM     16  O   UNL     1       5.164 -19.441   2.585  1.00  0.00    -0.550 OA
ENDBRANCH  13  14
ENDBRANCH  12  13
ENDBRANCH  11  12
ENDBRANCH  10  11
ENDBRANCH   9  10
ENDBRANCH   8   9
ENDBRANCH   7   8
ENDBRANCH   6   7
ENDBRANCH   5   6
ENDBRANCH   4   5
ENDBRANCH   3   4
ENDBRANCH   2   3
ENDBRANCH   1   2
BRANCH   1  17
ATOM     17  C   UNL     1       8.819 -14.867   6.886  1.00  0.00     0.000 C 
BRANCH  17  18
ATOM     18  C   UNL     1       9.257 -16.068   6.027  1.00  0.00     0.000 C 
BRANCH  18  19
ATOM     19  C   UNL     1      10.257 -15.716   4.909  1.00  0.00     0.000 C 
BRANCH  19  20
ATOM     20  C   UNL     1      11.532 -16.580   4.950  1.00  0.00     0.000 C 
BRANCH  20  21
ATOM     21  C   UNL     1      12.508 -16.127   6.052  1.00  0.00     0.000 C 
BRANCH  21  22
ATOM     22  C   UNL     1      12.786 -17.247   7.072  1.00  0.00    -0.000 C 
BRANCH  22  23
ATOM     23  C   UNL     1      12.135 -18.586   6.688  1.00  0.00    -0.000 C 
BRANCH  23  24
ATOM     24  C   UNL     1      11.386 -19.292   7.837  1.00  0.00    -0.000 C 
BRANCH  24  25
ATOM     25  C   UNL     1      10.119 -20.048   7.381  1.00  0.00    -0.000 C 
BRANCH  25  26
ATOM     26  C   UNL     1       9.633 -19.575   6.001  1.00  0.00    -0.000 C 
BRANCH  26  27
ATOM     27  C   UNL     1       9.250 -20.743   5.077  1.00  0.00    -0.000 C 
BRANCH  27  28
ATOM     28  C   UNL     1       8.298 -20.321   3.934  1.00  0.00    -0.000 C 
BRANCH  28  29
ATOM     29  C   UNL     1       8.324 -18.806   3.689  1.00  0.00    -0.003 C 
ATOM     30  C   UNL     1       9.248 -18.454   2.523  1.00  0.00     0.004 C 
ENDBRANCH  28  29
ENDBRANCH  27  28
ENDBRANCH  26  27
ENDBRANCH  25  26
ENDBRANCH  24  25
ENDBRANCH  23  24
ENDBRANCH  22  23
ENDBRANCH  21  22
ENDBRANCH  20  21
ENDBRANCH  19  20
ENDBRANCH  18  19
ENDBRANCH  17  18
ENDBRANCH   1  17
TORSDOF 26
ENDMDL
MODEL 7
REMARK VINA RESULT:    -3.082      2.217      4.859
REMARK INTER + INTRA:         -11.800
REMARK INTER:                  -7.255
REMARK INTRA:                  -4.546
REMARK UNBOUND:                -4.034
REMARK SMILES CCCCCCCCCCCCCCCCCCCCCCCCCCCC(=O)[O-]
REMARK SMILES IDX 15 1 16 2 17 3 18 4 19 5 20 6 21 7 22 8 23 9 24 10 25 11
REMARK SMILES IDX 26 12 27 13 28 14 29 15 30 16 14 17 13 18 12 19 11 20 10 21
REMARK SMILES IDX 9 22 8 23 7 24 6 25 5 26 4 27 3 28 2 29 1 30
REMARK H PARENT
REMARK Flexibility Score: inf
ROOT
ATOM      1  C   UNL     1       2.887 -18.363   4.692  1.00  0.00     0.000 C 
ENDROOT
BRANCH   1   2
ATOM      2  C   UNL     1       2.558 -18.109   3.206  1.00  0.00     0.000 C 
BRANCH   2   3
ATOM      3  C   UNL     1       3.760 -18.320   2.258  1.00  0.00     0.000 C 
BRANCH   3   4
ATOM      4  C   UNL     1       3.529 -19.409   1.191  1.00  0.00     0.000 C 
BRANCH   4   5
ATOM      5  C   UNL     1       2.405 -20.408   1.548  1.00  0.00     0.000 C 
BRANCH   5   6
ATOM      6  C   UNL     1       2.902 -21.794   2.014  1.00  0.00     0.000 C 
BRANCH   6   7
ATOM      7  C   UNL     1       4.436 -21.960   2.134  1.00  0.00     0.000 C 
BRANCH   7   8
ATOM      8  C   UNL     1       5.017 -21.809   3.556  1.00  0.00     0.000 C 
BRANCH   8   9
ATOM      9  C   UNL     1       6.165 -20.780   3.670  1.00  0.00     0.000 C 
BRANCH   9  10
ATOM     10  C   UNL     1       6.180 -20.016   5.005  1.00  0.00     0.000 C 
BRANCH  10  11
ATOM     11  C   UNL     1       7.562 -20.017   5.681  1.00  0.00     0.000 C 
BRANCH  11  12
ATOM     12  C   UNL     1       8.325 -18.700   5.468  1.00  0.00     0.006 C 
BRANCH  12  13
ATOM     13  C   UNL     1       9.601 -18.881   4.637  1.00  0.00     0.053 C 
BRANCH  13  14
ATOM     14  C   UNL     1       9.396 -18.365   3.247  1.00  0.00     0.041 C 
ATOM     15  O   UNL     1       9.487 -17.132   3.007  1.00  0.00    -0.550 OA
ATOM     16  O   UNL     1       9.036 -19.239   2.228  1.00  0.00    -0.550 OA
ENDBRANCH  13  14
ENDBRANCH  12  13
ENDBRANCH  11  12
ENDBRANCH  10  11
ENDBRANCH   9  10
ENDBRANCH   8   9
ENDBRANCH   7   8
ENDBRANCH   6   7
ENDBRANCH   5   6
ENDBRANCH   4   5
ENDBRANCH   3   4
ENDBRANCH   2   3
ENDBRANCH   1   2
BRANCH   1  17
ATOM     17  C   UNL     1       2.515 -19.769   5.204  1.00  0.00     0.000 C 
BRANCH  17  18
ATOM     18  C   UNL     1       1.391 -19.820   6.256  1.00  0.00     0.000 C 
BRANCH  18  19
ATOM     19  C   UNL     1       1.795 -19.278   7.641  1.00  0.00     0.000 C 
BRANCH  19  20
ATOM     20  C   UNL     1       2.830 -20.168   8.356  1.00  0.00     0.000 C 
BRANCH  20  21
ATOM     21  C   UNL     1       3.953 -19.343   9.011  1.00  0.00     0.000 C 
BRANCH  21  22
ATOM     22  C   UNL     1       4.871 -18.685   7.965  1.00  0.00    -0.000 C 
BRANCH  22  23
ATOM     23  C   UNL     1       4.738 -17.153   7.925  1.00  0.00    -0.000 C 
BRANCH  23  24
ATOM     24  C   UNL     1       6.057 -16.384   8.141  1.00  0.00    -0.000 C 
BRANCH  24  25
ATOM     25  C   UNL     1       6.987 -17.028   9.193  1.00  0.00    -0.000 C 
BRANCH  25  26
ATOM     26  C   UNL     1       8.452 -17.050   8.729  1.00  0.00    -0.000 C 
BRANCH  26  27
ATOM     27  C   UNL     1       9.235 -15.807   9.184  1.00  0.00    -0.000 C 
BRANCH  27  28
ATOM     28  C   UNL     1       9.512 -14.814   8.033  1.00  0.00    -0.000 C 
BRANCH  28  29
ATOM     29  C   UNL     1       9.290 -15.449   6.653  1.00  0.00    -0.003 C 
ATOM     30  C   UNL     1      10.540 -15.324   5.783  1.00  0.00     0.004 C 
ENDBRANCH  28  29
ENDBRANCH  27  28
ENDBRANCH  26  27
ENDBRANCH  25  26
ENDBRANCH  24  25
ENDBRANCH  23  24
ENDBRANCH  22  23
ENDBRANCH  21  22
ENDBRANCH  20  21
ENDBRANCH  19  20
ENDBRANCH  18  19
ENDBRANCH  17  18
ENDBRANCH   1  17
TORSDOF 26
ENDMDL
MODEL 8
REMARK VINA RESULT:    -3.037      2.277      6.835
REMARK INTER + INTRA:         -11.686
REMARK INTER:                  -6.661
REMARK INTRA:                  -5.025
REMARK UNBOUND:                -4.034
REMARK SMILES CCCCCCCCCCCCCCCCCCCCCCCCCCCC(=O)[O-]
REMARK SMILES IDX 15 1 16 2 17 3 18 4 19 5 20 6 21 7 22 8 23 9 24 10 25 11
REMARK SMILES IDX 26 12 27 13 28 14 29 15 30 16 14 17 13 18 12 19 11 20 10 21
REMARK SMILES IDX 9 22 8 23 7 24 6 25 5 26 4 27 3 28 2 29 1 30
REMARK H PARENT
REMARK Flexibility Score: inf
ROOT
ATOM      1  C   UNL     1       8.282 -20.408   5.827  1.00  0.00     0.000 C 
ENDROOT
BRANCH   1   2
ATOM      2  C   UNL     1       9.141 -19.903   4.649  1.00  0.00     0.000 C 
BRANCH   2   3
ATOM      3  C   UNL     1       8.436 -18.843   3.774  1.00  0.00     0.000 C 
BRANCH   3   4
ATOM      4  C   UNL     1       9.301 -17.600   3.483  1.00  0.00     0.000 C 
BRANCH   4   5
ATOM      5  C   UNL     1      10.712 -17.657   4.109  1.00  0.00     0.000 C 
BRANCH   5   6
ATOM      6  C   UNL     1      11.069 -16.447   4.998  1.00  0.00     0.000 C 
BRANCH   6   7
ATOM      7  C   UNL     1       9.897 -15.506   5.367  1.00  0.00     0.000 C 
BRANCH   7   8
ATOM      8  C   UNL     1       9.621 -15.337   6.876  1.00  0.00     0.000 C 
BRANCH   8   9
ATOM      9  C   UNL     1       8.889 -16.533   7.528  1.00  0.00     0.000 C 
BRANCH   9  10
ATOM     10  C   UNL     1       7.408 -16.257   7.837  1.00  0.00     0.000 C 
BRANCH  10  11
ATOM     11  C   UNL     1       6.953 -16.857   9.179  1.00  0.00     0.000 C 
BRANCH  11  12
ATOM     12  C   UNL     1       5.497 -17.349   9.142  1.00  0.00     0.006 C 
BRANCH  12  13
ATOM     13  C   UNL     1       5.370 -18.849   9.437  1.00  0.00     0.053 C 
BRANCH  13  14
ATOM     14  C   UNL     1       4.254 -19.098  10.403  1.00  0.00     0.041 C 
ATOM     15  O   UNL     1       3.488 -20.086  10.248  1.00  0.00    -0.550 OA
ATOM     16  O   UNL     1       4.017 -18.199  11.436  1.00  0.00    -0.550 OA
ENDBRANCH  13  14
ENDBRANCH  12  13
ENDBRANCH  11  12
ENDBRANCH  10  11
ENDBRANCH   9  10
ENDBRANCH   8   9
ENDBRANCH   7   8
ENDBRANCH   6   7
ENDBRANCH   5   6
ENDBRANCH   4   5
ENDBRANCH   3   4
ENDBRANCH   2   3
ENDBRANCH   1   2
BRANCH   1  17
ATOM     17  C   UNL     1       7.078 -19.511   6.179  1.00  0.00     0.000 C 
BRANCH  17  18
ATOM     18  C   UNL     1       5.690 -20.113   5.891  1.00  0.00     0.000 C 
BRANCH  18  19
ATOM     19  C   UNL     1       5.684 -21.189   4.787  1.00  0.00     0.000 C 
BRANCH  19  20
ATOM     20  C   UNL     1       5.128 -20.671   3.447  1.00  0.00     0.000 C 
BRANCH  20  21
ATOM     21  C   UNL     1       4.792 -19.169   3.497  1.00  0.00     0.000 C 
BRANCH  21  22
ATOM     22  C   UNL     1       3.920 -18.733   2.305  1.00  0.00    -0.000 C 
BRANCH  22  23
ATOM     23  C   UNL     1       2.559 -18.159   2.732  1.00  0.00    -0.000 C 
BRANCH  23  24
ATOM     24  C   UNL     1       1.353 -19.078   2.451  1.00  0.00    -0.000 C 
BRANCH  24  25
ATOM     25  C   UNL     1       0.744 -19.710   3.722  1.00  0.00    -0.000 C 
BRANCH  25  26
ATOM     26  C   UNL     1       1.547 -20.933   4.197  1.00  0.00    -0.000 C 
BRANCH  26  27
ATOM     27  C   UNL     1       1.902 -20.863   5.691  1.00  0.00    -0.000 C 
BRANCH  27  28
ATOM     28  C   UNL     1       1.454 -19.542   6.356  1.00  0.00    -0.000 C 
BRANCH  28  29
ATOM     29  C   UNL     1       2.625 -18.801   7.017  1.00  0.00    -0.003 C 
ATOM     30  C   UNL     1       2.912 -17.480   6.304  1.00  0.00     0.004 C 
ENDBRANCH  28  29
ENDBRANCH  27  28
ENDBRANCH  26  27
ENDBRANCH  25  26
ENDBRANCH  24  25
ENDBRANCH  23  24
ENDBRANCH  22  23
ENDBRANCH  21  22
ENDBRANCH  20  21
ENDBRANCH  19  20
ENDBRANCH  18  19
ENDBRANCH  17  18
ENDBRANCH   1  17
TORSDOF 26
ENDMDL
MODEL 9
REMARK VINA RESULT:    -3.034      2.632      7.121
REMARK INTER + INTRA:         -11.679
REMARK INTER:                  -6.593
REMARK INTRA:                  -5.086
REMARK UNBOUND:                -4.034
REMARK SMILES CCCCCCCCCCCCCCCCCCCCCCCCCCCC(=O)[O-]
REMARK SMILES IDX 15 1 16 2 17 3 18 4 19 5 20 6 21 7 22 8 23 9 24 10 25 11
REMARK SMILES IDX 26 12 27 13 28 14 29 15 30 16 14 17 13 18 12 19 11 20 10 21
REMARK SMILES IDX 9 22 8 23 7 24 6 25 5 26 4 27 3 28 2 29 1 30
REMARK H PARENT
REMARK Flexibility Score: inf
ROOT
ATOM      1  C   UNL     1       9.246 -14.990   7.935  1.00  0.00     0.000 C 
ENDROOT
BRANCH   1   2
ATOM      2  C   UNL     1       9.196 -15.126   6.399  1.00  0.00     0.000 C 
BRANCH   2   3
ATOM      3  C   UNL     1      10.570 -15.411   5.753  1.00  0.00     0.000 C 
BRANCH   3   4
ATOM      4  C   UNL     1      10.503 -16.349   4.533  1.00  0.00     0.000 C 
BRANCH   4   5
ATOM      5  C   UNL     1       9.214 -17.198   4.464  1.00  0.00     0.000 C 
BRANCH   5   6
ATOM      6  C   UNL     1       9.269 -18.370   3.461  1.00  0.00     0.000 C 
BRANCH   6   7
ATOM      7  C   UNL     1       8.008 -19.265   3.392  1.00  0.00     0.000 C 
BRANCH   7   8
ATOM      8  C   UNL     1       7.891 -20.343   4.489  1.00  0.00     0.000 C 
BRANCH   8   9
ATOM      9  C   UNL     1       6.619 -21.219   4.391  1.00  0.00     0.000 C 
BRANCH   9  10
ATOM     10  C   UNL     1       5.527 -20.840   5.405  1.00  0.00     0.000 C 
BRANCH  10  11
ATOM     11  C   UNL     1       4.235 -20.341   4.737  1.00  0.00     0.000 C 
BRANCH  11  12
ATOM     12  C   UNL     1       3.812 -18.949   5.236  1.00  0.00     0.006 C 
BRANCH  12  13
ATOM     13  C   UNL     1       2.415 -18.544   4.749  1.00  0.00     0.053 C 
BRANCH  13  14
ATOM     14  C   UNL     1       2.411 -18.372   3.263  1.00  0.00     0.041 C 
ATOM     15  O   UNL     1       3.156 -17.512   2.720  1.00  0.00    -0.550 OA
ATOM     16  O   UNL     1       1.534 -19.113   2.480  1.00  0.00    -0.550 OA
ENDBRANCH  13  14
ENDBRANCH  12  13
ENDBRANCH  11  12
ENDBRANCH  10  11
ENDBRANCH   9  10
ENDBRANCH   8   9
ENDBRANCH   7   8
ENDBRANCH   6   7
ENDBRANCH   5   6
ENDBRANCH   4   5
ENDBRANCH   3   4
ENDBRANCH   2   3
ENDBRANCH   1   2
BRANCH   1  17
ATOM     17  C   UNL     1      10.668 -14.920   8.530  1.00  0.00     0.000 C 
BRANCH  17  18
ATOM     18  C   UNL     1      10.750 -14.972  10.067  1.00  0.00     0.000 C 
BRANCH  18  19
ATOM     19  C   UNL     1      10.593 -16.384  10.663  1.00  0.00     0.000 C 
BRANCH  19  20
ATOM     20  C   UNL     1       9.418 -16.490  11.655  1.00  0.00     0.000 C 
BRANCH  20  21
ATOM     21  C   UNL     1       8.052 -16.459  10.944  1.00  0.00     0.000 C 
BRANCH  21  22
ATOM     22  C   UNL     1       7.081 -17.509  11.516  1.00  0.00    -0.000 C 
BRANCH  22  23
ATOM     23  C   UNL     1       5.740 -17.561  10.764  1.00  0.00    -0.000 C 
BRANCH  23  24
ATOM     24  C   UNL     1       5.730 -16.826   9.409  1.00  0.00    -0.000 C 
BRANCH  24  25
ATOM     25  C   UNL     1       5.650 -17.770   8.190  1.00  0.00    -0.000 C 
BRANCH  25  26
ATOM     26  C   UNL     1       7.001 -17.893   7.467  1.00  0.00    -0.000 C 
BRANCH  26  27
ATOM     27  C   UNL     1       7.809 -19.117   7.928  1.00  0.00    -0.000 C 
BRANCH  27  28
ATOM     28  C   UNL     1       9.249 -18.761   8.363  1.00  0.00    -0.000 C 
BRANCH  28  29
ATOM     29  C   UNL     1      10.284 -19.124   7.290  1.00  0.00    -0.003 C 
ATOM     30  C   UNL     1      11.625 -18.446   7.568  1.00  0.00     0.004 C 
ENDBRANCH  28  29
ENDBRANCH  27  28
ENDBRANCH  26  27
ENDBRANCH  25  26
ENDBRANCH  24  25
ENDBRANCH  23  24
ENDBRANCH  22  23
ENDBRANCH  21  22
ENDBRANCH  20  21
ENDBRANCH  19  20
ENDBRANCH  18  19
ENDBRANCH  17  18
ENDBRANCH   1  17
TORSDOF 26
ENDMDL
