MODEL 1
REMARK VINA RESULT:    -4.037      0.000      0.000
REMARK INTER + INTRA:          -4.441
REMARK INTER:                  -4.391
REMARK INTRA:                  -0.049
REMARK UNBOUND:                -0.049
REMARK SMILES COc1cc2ccc(=O)oc2cc1O
REMARK SMILES IDX 3 1 13 2 12 3 11 4 5 5 4 6 6 7 7 8 8 9 9 10 10 11 2 12 1 13
REMARK SMILES IDX 14 14
REMARK H PARENT 14 15
REMARK Flexibility Score: inf
ROOT
ATOM      1  C   UNL     1      -3.534   1.279  18.827  1.00  0.00     0.161 A 
ATOM      2  C   UNL     1      -3.877   2.621  19.056  1.00  0.00     0.161 A 
ATOM      3  C   UNL     1      -4.536   3.363  18.065  1.00  0.00     0.098 A 
ATOM      4  C   UNL     1      -4.859   2.772  16.841  1.00  0.00     0.142 A 
ATOM      5  C   UNL     1      -4.520   1.424  16.604  1.00  0.00     0.022 A 
ATOM      6  C   UNL     1      -3.860   0.682  17.593  1.00  0.00     0.062 A 
ATOM      7  C   UNL     1      -4.856   0.860  15.367  1.00  0.00     0.019 A 
ATOM      8  C   UNL     1      -5.513   1.639  14.415  1.00  0.00     0.094 A 
ATOM      9  C   UNL     1      -5.817   2.969  14.722  1.00  0.00     0.336 A 
ATOM     10  O   UNL     1      -6.409   3.690  13.876  1.00  0.00    -0.246 OA
ATOM     11  O   UNL     1      -5.486   3.481  15.905  1.00  0.00    -0.423 OA
ENDROOT
BRANCH   1  12
ATOM     12  O   UNL     1      -2.875   0.575  19.847  1.00  0.00    -0.493 OA
ATOM     13  C   UNL     1      -3.088  -0.801  20.145  1.00  0.00     0.278 C 
ENDBRANCH   1  12
BRANCH   2  14
ATOM     14  O   UNL     1      -3.555   3.213  20.277  1.00  0.00    -0.504 OA
ATOM     15  H   UNL     1      -2.619   3.551  20.472  1.00  0.00     0.293 HD
ENDBRANCH   2  14
TORSDOF 2
ENDMDL
MODEL 2
REMARK VINA RESULT:    -3.081      1.325      5.378
REMARK INTER + INTRA:          -3.401
REMARK INTER:                  -3.497
REMARK INTRA:                   0.097
REMARK UNBOUND:                -0.049
REMARK SMILES COc1cc2ccc(=O)oc2cc1O
REMARK SMILES IDX 3 1 13 2 12 3 11 4 5 5 4 6 6 7 7 8 8 9 9 10 10 11 2 12 1 13
REMARK SMILES IDX 14 14
REMARK H PARENT 14 15
REMARK Flexibility Score: inf
ROOT
ATOM      1  C   UNL     1      -5.217   3.075  15.478  1.00  0.00     0.161 A 
ATOM      2  C   UNL     1      -5.141   1.715  15.139  1.00  0.00     0.161 A 
ATOM      3  C   UNL     1      -4.639   0.783  16.059  1.00  0.00     0.098 A 
ATOM      4  C   UNL     1      -4.211   1.201  17.322  1.00  0.00     0.142 A 
ATOM      5  C   UNL     1      -4.286   2.565  17.671  1.00  0.00     0.022 A 
ATOM      6  C   UNL     1      -4.786   3.498  16.751  1.00  0.00     0.062 A 
ATOM      7  C   UNL     1      -3.849   2.954  18.943  1.00  0.00     0.019 A 
ATOM      8  C   UNL     1      -3.359   1.988  19.822  1.00  0.00     0.094 A 
ATOM      9  C   UNL     1      -3.315   0.654  19.406  1.00  0.00     0.336 A 
ATOM     10  O   UNL     1      -2.875  -0.233  20.185  1.00  0.00    -0.246 OA
ATOM     11  O   UNL     1      -3.736   0.312  18.192  1.00  0.00    -0.423 OA
ENDROOT
BRANCH   1  12
ATOM     12  O   UNL     1      -5.726   3.972  14.525  1.00  0.00    -0.493 OA
ATOM     13  C   UNL     1      -7.100   4.073  14.165  1.00  0.00     0.278 C 
ENDBRANCH   1  12
BRANCH   2  14
ATOM     14  O   UNL     1      -5.566   1.296  13.879  1.00  0.00    -0.504 OA
ATOM     15  H   UNL     1      -6.197   1.858  13.319  1.00  0.00     0.293 HD
ENDBRANCH   2  14
TORSDOF 2
ENDMDL
MODEL 3
REMARK VINA RESULT:    -3.071      2.610      3.830
REMARK INTER + INTRA:          -3.390
REMARK INTER:                  -3.344
REMARK INTRA:                  -0.045
REMARK UNBOUND:                -0.049
REMARK SMILES COc1cc2ccc(=O)oc2cc1O
REMARK SMILES IDX 3 1 13 2 12 3 11 4 5 5 4 6 6 7 7 8 8 9 9 10 10 11 2 12 1 13
REMARK SMILES IDX 14 14
REMARK H PARENT 14 15
REMARK Flexibility Score: inf
ROOT
ATOM      1  C   UNL     1      -2.883   0.380  21.131  1.00  0.00     0.161 A 
ATOM      2  C   UNL     1      -2.883  -0.536  20.068  1.00  0.00     0.161 A 
ATOM      3  C   UNL     1      -2.891  -0.080  18.741  1.00  0.00     0.098 A 
ATOM      4  C   UNL     1      -2.898   1.290  18.467  1.00  0.00     0.142 A 
ATOM      5  C   UNL     1      -2.898   2.217  19.530  1.00  0.00     0.022 A 
ATOM      6  C   UNL     1      -2.890   1.763  20.857  1.00  0.00     0.062 A 
ATOM      7  C   UNL     1      -2.906   3.583  19.224  1.00  0.00     0.019 A 
ATOM      8  C   UNL     1      -2.913   3.985  17.889  1.00  0.00     0.094 A 
ATOM      9  C   UNL     1      -2.913   3.008  16.888  1.00  0.00     0.336 A 
ATOM     10  O   UNL     1      -2.920   3.350  15.676  1.00  0.00    -0.246 OA
ATOM     11  O   UNL     1      -2.905   1.716  17.206  1.00  0.00    -0.423 OA
ENDROOT
BRANCH   1  12
ATOM     12  O   UNL     1      -2.875  -0.120  22.443  1.00  0.00    -0.493 OA
ATOM     13  C   UNL     1      -3.075   0.671  23.610  1.00  0.00     0.278 C 
ENDBRANCH   1  12
BRANCH   2  14
ATOM     14  O   UNL     1      -2.875  -1.903  20.339  1.00  0.00    -0.504 OA
ATOM     15  H   UNL     1      -2.220  -2.309  20.997  1.00  0.00     0.293 HD
ENDBRANCH   2  14
TORSDOF 2
ENDMDL
MODEL 4
REMARK VINA RESULT:    -2.851      2.259      5.710
REMARK INTER + INTRA:          -3.151
REMARK INTER:                  -3.141
REMARK INTRA:                  -0.010
REMARK UNBOUND:                -0.049
REMARK SMILES COc1cc2ccc(=O)oc2cc1O
REMARK SMILES IDX 3 1 13 2 12 3 11 4 5 5 4 6 6 7 7 8 8 9 9 10 10 11 2 12 1 13
REMARK SMILES IDX 14 14
REMARK H PARENT 14 15
REMARK Flexibility Score: inf
ROOT
ATOM      1  C   UNL     1      -2.927   1.132  17.799  1.00  0.00     0.161 A 
ATOM      2  C   UNL     1      -2.932   2.375  18.451  1.00  0.00     0.161 A 
ATOM      3  C   UNL     1      -2.923   2.440  19.851  1.00  0.00     0.098 A 
ATOM      4  C   UNL     1      -2.907   1.267  20.611  1.00  0.00     0.142 A 
ATOM      5  C   UNL     1      -2.900   0.014  19.964  1.00  0.00     0.022 A 
ATOM      6  C   UNL     1      -2.910  -0.052  18.563  1.00  0.00     0.062 A 
ATOM      7  C   UNL     1      -2.885  -1.143  20.751  1.00  0.00     0.019 A 
ATOM      8  C   UNL     1      -2.875  -1.025  22.141  1.00  0.00     0.094 A 
ATOM      9  C   UNL     1      -2.883   0.252  22.712  1.00  0.00     0.336 A 
ATOM     10  O   UNL     1      -2.875   0.380  23.965  1.00  0.00    -0.246 OA
ATOM     11  O   UNL     1      -2.897   1.335  21.940  1.00  0.00    -0.423 OA
ENDROOT
BRANCH   1  12
ATOM     12  O   UNL     1      -2.936   1.114  16.395  1.00  0.00    -0.493 OA
ATOM     13  C   UNL     1      -4.112   1.194  15.595  1.00  0.00     0.278 C 
ENDBRANCH   1  12
BRANCH   2  14
ATOM     14  O   UNL     1      -2.948   3.547  17.695  1.00  0.00    -0.504 OA
ATOM     15  H   UNL     1      -2.104   4.084  17.532  1.00  0.00     0.293 HD
ENDBRANCH   2  14
TORSDOF 2
ENDMDL
MODEL 5
REMARK VINA RESULT:    -2.765      2.368      3.055
REMARK INTER + INTRA:          -3.057
REMARK INTER:                  -3.056
REMARK INTRA:                  -0.001
REMARK UNBOUND:                -0.049
REMARK SMILES COc1cc2ccc(=O)oc2cc1O
REMARK SMILES IDX 3 1 13 2 12 3 11 4 5 5 4 6 6 7 7 8 8 9 9 10 10 11 2 12 1 13
REMARK SMILES IDX 14 14
REMARK H PARENT 14 15
REMARK Flexibility Score: inf
ROOT
ATOM      1  C   UNL     1      -2.986  -0.500  20.648  1.00  0.00     0.161 A 
ATOM      2  C   UNL     1      -2.913   0.795  21.185  1.00  0.00     0.161 A 
ATOM      3  C   UNL     1      -2.878   1.912  20.338  1.00  0.00     0.098 A 
ATOM      4  C   UNL     1      -2.915   1.746  18.951  1.00  0.00     0.142 A 
ATOM      5  C   UNL     1      -2.989   0.448  18.404  1.00  0.00     0.022 A 
ATOM      6  C   UNL     1      -3.024  -0.669  19.250  1.00  0.00     0.062 A 
ATOM      7  C   UNL     1      -3.025   0.313  17.011  1.00  0.00     0.019 A 
ATOM      8  C   UNL     1      -2.988   1.455  16.211  1.00  0.00     0.094 A 
ATOM      9  C   UNL     1      -2.915   2.710  16.826  1.00  0.00     0.336 A 
ATOM     10  O   UNL     1      -2.880   3.753  16.122  1.00  0.00    -0.246 OA
ATOM     11  O   UNL     1      -2.882   2.810  18.152  1.00  0.00    -0.423 OA
ENDROOT
BRANCH   1  12
ATOM     12  O   UNL     1      -3.019  -1.588  21.534  1.00  0.00    -0.493 OA
ATOM     13  C   UNL     1      -4.197  -2.078  22.167  1.00  0.00     0.278 C 
ENDBRANCH   1  12
BRANCH   2  14
ATOM     14  O   UNL     1      -2.875   0.964  22.569  1.00  0.00    -0.504 OA
ATOM     15  H   UNL     1      -3.084   0.200  23.202  1.00  0.00     0.293 HD
ENDBRANCH   2  14
TORSDOF 2
ENDMDL
MODEL 6
REMARK VINA RESULT:    -2.219      2.314      5.848
REMARK INTER + INTRA:          -2.463
REMARK INTER:                  -2.436
REMARK INTRA:                  -0.027
REMARK UNBOUND:                -0.049
REMARK SMILES COc1cc2ccc(=O)oc2cc1O
REMARK SMILES IDX 3 1 13 2 12 3 11 4 5 5 4 6 6 7 7 8 8 9 9 10 10 11 2 12 1 13
REMARK SMILES IDX 14 14
REMARK H PARENT 14 15
REMARK Flexibility Score: inf
ROOT
ATOM      1  C   UNL     1      -3.179   2.266  17.767  1.00  0.00     0.161 A 
ATOM      2  C   UNL     1      -3.316   0.980  17.220  1.00  0.00     0.161 A 
ATOM      3  C   UNL     1      -3.305  -0.148  18.053  1.00  0.00     0.098 A 
ATOM      4  C   UNL     1      -3.160  -0.002  19.435  1.00  0.00     0.142 A 
ATOM      5  C   UNL     1      -3.023   1.287  19.992  1.00  0.00     0.022 A 
ATOM      6  C   UNL     1      -3.032   2.415  19.161  1.00  0.00     0.062 A 
ATOM      7  C   UNL     1      -2.878   1.401  21.380  1.00  0.00     0.019 A 
ATOM      8  C   UNL     1      -2.875   0.249  22.165  1.00  0.00     0.094 A 
ATOM      9  C   UNL     1      -3.016  -0.996  21.542  1.00  0.00     0.336 A 
ATOM     10  O   UNL     1      -3.014  -2.049  22.233  1.00  0.00    -0.246 OA
ATOM     11  O   UNL     1      -3.151  -1.076  20.221  1.00  0.00    -0.423 OA
ENDROOT
BRANCH   1  12
ATOM     12  O   UNL     1      -3.195   3.367  16.896  1.00  0.00    -0.493 OA
ATOM     13  C   UNL     1      -4.373   4.049  16.479  1.00  0.00     0.278 C 
ENDBRANCH   1  12
BRANCH   2  14
ATOM     14  O   UNL     1      -3.461   0.832  15.842  1.00  0.00    -0.504 OA
ATOM     15  H   UNL     1      -4.365   0.916  15.392  1.00  0.00     0.293 HD
ENDBRANCH   2  14
TORSDOF 2
ENDMDL
