MODEL 1
REMARK VINA RESULT:    -4.580      0.000      0.000
REMARK INTER + INTRA:         -15.109
REMARK INTER:                 -11.541
REMARK INTRA:                  -3.568
REMARK UNBOUND:                -3.568
REMARK SMILES CCCCCCCCCCCCCCCCCCCCCCCCCCCC(=O)[O-]
REMARK SMILES IDX 15 1 16 2 17 3 18 4 19 5 20 6 21 7 22 8 23 9 24 10 25 11
REMARK SMILES IDX 26 12 27 13 28 14 29 15 30 16 14 17 13 18 12 19 11 20 10 21
REMARK SMILES IDX 9 22 8 23 7 24 6 25 5 26 4 27 3 28 2 29 1 30
REMARK H PARENT
REMARK Flexibility Score: inf
ROOT
ATOM      1  C   UNL     1     173.331 169.054 150.130  1.00  0.00     0.000 C 
ENDROOT
BRANCH   1   2
ATOM      2  C   UNL     1     173.143 167.532 150.023  1.00  0.00     0.000 C 
BRANCH   2   3
ATOM      3  C   UNL     1     174.477 166.785 149.857  1.00  0.00     0.000 C 
BRANCH   3   4
ATOM      4  C   UNL     1     174.637 165.622 150.853  1.00  0.00     0.000 C 
BRANCH   4   5
ATOM      5  C   UNL     1     173.328 164.843 151.104  1.00  0.00     0.000 C 
BRANCH   5   6
ATOM      6  C   UNL     1     173.560 163.324 151.186  1.00  0.00     0.000 C 
BRANCH   6   7
ATOM      7  C   UNL     1     174.974 162.970 151.674  1.00  0.00     0.000 C 
BRANCH   7   8
ATOM      8  C   UNL     1     175.794 162.218 150.616  1.00  0.00     0.000 C 
BRANCH   8   9
ATOM      9  C   UNL     1     174.896 161.289 149.788  1.00  0.00     0.000 C 
BRANCH   9  10
ATOM     10  C   UNL     1     174.829 159.858 150.355  1.00  0.00     0.000 C 
BRANCH  10  11
ATOM     11  C   UNL     1     173.409 159.268 150.475  1.00  0.00     0.000 C 
BRANCH  11  12
ATOM     12  C   UNL     1     172.885 159.118 151.915  1.00  0.00     0.006 C 
BRANCH  12  13
ATOM     13  C   UNL     1     171.353 159.117 151.993  1.00  0.00     0.053 C 
BRANCH  13  14
ATOM     14  C   UNL     1     170.856 157.806 152.518  1.00  0.00     0.041 C 
ATOM     15  O   UNL     1     169.642 157.493 152.399  1.00  0.00    -0.550 OA
ATOM     16  O   UNL     1     171.732 156.936 153.155  1.00  0.00    -0.550 OA
ENDBRANCH  13  14
ENDBRANCH  12  13
ENDBRANCH  11  12
ENDBRANCH  10  11
ENDBRANCH   9  10
ENDBRANCH   8   9
ENDBRANCH   7   8
ENDBRANCH   6   7
ENDBRANCH   5   6
ENDBRANCH   4   5
ENDBRANCH   3   4
ENDBRANCH   2   3
ENDBRANCH   1   2
BRANCH   1  17
ATOM     17  C   UNL     1     174.806 169.451 150.311  1.00  0.00     0.000 C 
BRANCH  17  18
ATOM     18  C   UNL     1     175.029 170.971 150.228  1.00  0.00     0.000 C 
BRANCH  18  19
ATOM     19  C   UNL     1     173.741 171.817 150.159  1.00  0.00     0.000 C 
BRANCH  19  20
ATOM     20  C   UNL     1     173.951 173.298 149.799  1.00  0.00     0.000 C 
BRANCH  20  21
ATOM     21  C   UNL     1     175.005 173.985 150.680  1.00  0.00     0.000 C 
BRANCH  21  22
ATOM     22  C   UNL     1     174.484 174.176 152.108  1.00  0.00    -0.000 C 
BRANCH  22  23
ATOM     23  C   UNL     1     175.455 173.579 153.136  1.00  0.00    -0.000 C 
BRANCH  23  24
ATOM     24  C   UNL     1     174.734 172.918 154.326  1.00  0.00    -0.000 C 
BRANCH  24  25
ATOM     25  C   UNL     1     174.801 171.378 154.354  1.00  0.00    -0.000 C 
BRANCH  25  26
ATOM     26  C   UNL     1     173.622 170.664 153.665  1.00  0.00    -0.000 C 
BRANCH  26  27
ATOM     27  C   UNL     1     172.333 171.501 153.550  1.00  0.00    -0.000 C 
BRANCH  27  28
ATOM     28  C   UNL     1     171.199 170.846 152.736  1.00  0.00    -0.000 C 
BRANCH  28  29
ATOM     29  C   UNL     1     170.491 171.783 151.742  1.00  0.00    -0.003 C 
ATOM     30  C   UNL     1     170.806 173.259 151.985  1.00  0.00     0.004 C 
ENDBRANCH  28  29
ENDBRANCH  27  28
ENDBRANCH  26  27
ENDBRANCH  25  26
ENDBRANCH  24  25
ENDBRANCH  23  24
ENDBRANCH  22  23
ENDBRANCH  21  22
ENDBRANCH  20  21
ENDBRANCH  19  20
ENDBRANCH  18  19
ENDBRANCH  17  18
ENDBRANCH   1  17
TORSDOF 26
ENDMDL
MODEL 2
REMARK VINA RESULT:    -4.536      4.655     10.671
REMARK INTER + INTRA:         -14.997
REMARK INTER:                 -11.328
REMARK INTRA:                  -3.670
REMARK UNBOUND:                -3.568
REMARK SMILES CCCCCCCCCCCCCCCCCCCCCCCCCCCC(=O)[O-]
REMARK SMILES IDX 15 1 16 2 17 3 18 4 19 5 20 6 21 7 22 8 23 9 24 10 25 11
REMARK SMILES IDX 26 12 27 13 28 14 29 15 30 16 14 17 13 18 12 19 11 20 10 21
REMARK SMILES IDX 9 22 8 23 7 24 6 25 5 26 4 27 3 28 2 29 1 30
REMARK H PARENT
REMARK Flexibility Score: inf
ROOT
ATOM      1  C   UNL     1     174.338 168.152 153.557  1.00  0.00     0.000 C 
ENDROOT
BRANCH   1   2
ATOM      2  C   UNL     1     173.832 168.588 154.941  1.00  0.00     0.000 C 
BRANCH   2   3
ATOM      3  C   UNL     1     174.923 169.281 155.775  1.00  0.00     0.000 C 
BRANCH   3   4
ATOM      4  C   UNL     1     174.659 170.784 155.973  1.00  0.00     0.000 C 
BRANCH   4   5
ATOM      5  C   UNL     1     175.375 171.675 154.935  1.00  0.00     0.000 C 
BRANCH   5   6
ATOM      6  C   UNL     1     174.390 172.543 154.134  1.00  0.00     0.000 C 
BRANCH   6   7
ATOM      7  C   UNL     1     174.898 173.979 153.932  1.00  0.00     0.000 C 
BRANCH   7   8
ATOM      8  C   UNL     1     175.341 174.252 152.487  1.00  0.00     0.000 C 
BRANCH   8   9
ATOM      9  C   UNL     1     174.954 173.085 151.568  1.00  0.00     0.000 C 
BRANCH   9  10
ATOM     10  C   UNL     1     174.453 173.550 150.188  1.00  0.00     0.000 C 
BRANCH  10  11
ATOM     11  C   UNL     1     173.100 172.954 149.749  1.00  0.00     0.000 C 
BRANCH  11  12
ATOM     12  C   UNL     1     172.361 172.147 150.831  1.00  0.00     0.006 C 
BRANCH  12  13
ATOM     13  C   UNL     1     170.946 172.673 151.104  1.00  0.00     0.053 C 
BRANCH  13  14
ATOM     14  C   UNL     1     171.001 174.075 151.628  1.00  0.00     0.041 C 
ATOM     15  O   UNL     1     170.438 175.011 151.001  1.00  0.00    -0.550 OA
ATOM     16  O   UNL     1     171.692 174.351 152.802  1.00  0.00    -0.550 OA
ENDBRANCH  13  14
ENDBRANCH  12  13
ENDBRANCH  11  12
ENDBRANCH  10  11
ENDBRANCH   9  10
ENDBRANCH   8   9
ENDBRANCH   7   8
ENDBRANCH   6   7
ENDBRANCH   5   6
ENDBRANCH   4   5
ENDBRANCH   3   4
ENDBRANCH   2   3
ENDBRANCH   1   2
BRANCH   1  17
ATOM     17  C   UNL     1     174.071 169.210 152.474  1.00  0.00     0.000 C 
BRANCH  17  18
ATOM     18  C   UNL     1     175.292 169.466 151.574  1.00  0.00     0.000 C 
BRANCH  18  19
ATOM     19  C   UNL     1     174.992 169.501 150.061  1.00  0.00     0.000 C 
BRANCH  19  20
ATOM     20  C   UNL     1     174.846 168.123 149.392  1.00  0.00     0.000 C 
BRANCH  20  21
ATOM     21  C   UNL     1     173.396 167.618 149.369  1.00  0.00     0.000 C 
BRANCH  21  22
ATOM     22  C   UNL     1     173.252 166.334 150.194  1.00  0.00    -0.000 C 
BRANCH  22  23
ATOM     23  C   UNL     1     174.625 165.728 150.518  1.00  0.00    -0.000 C 
BRANCH  23  24
ATOM     24  C   UNL     1     174.525 164.358 151.213  1.00  0.00    -0.000 C 
BRANCH  24  25
ATOM     25  C   UNL     1     175.876 163.681 151.518  1.00  0.00    -0.000 C 
BRANCH  25  26
ATOM     26  C   UNL     1     175.867 162.143 151.431  1.00  0.00    -0.000 C 
BRANCH  26  27
ATOM     27  C   UNL     1     175.461 161.573 150.059  1.00  0.00    -0.000 C 
BRANCH  27  28
ATOM     28  C   UNL     1     174.160 160.743 150.055  1.00  0.00    -0.000 C 
BRANCH  28  29
ATOM     29  C   UNL     1     174.263 159.374 150.751  1.00  0.00    -0.003 C 
ATOM     30  C   UNL     1     173.146 158.413 150.344  1.00  0.00     0.004 C 
ENDBRANCH  28  29
ENDBRANCH  27  28
ENDBRANCH  26  27
ENDBRANCH  25  26
ENDBRANCH  24  25
ENDBRANCH  23  24
ENDBRANCH  22  23
ENDBRANCH  21  22
ENDBRANCH  20  21
ENDBRANCH  19  20
ENDBRANCH  18  19
ENDBRANCH  17  18
ENDBRANCH   1  17
TORSDOF 26
ENDMDL
MODEL 3
REMARK VINA RESULT:    -4.531      1.319      3.321
REMARK INTER + INTRA:         -14.986
REMARK INTER:                 -11.283
REMARK INTRA:                  -3.703
REMARK UNBOUND:                -3.568
REMARK SMILES CCCCCCCCCCCCCCCCCCCCCCCCCCCC(=O)[O-]
REMARK SMILES IDX 15 1 16 2 17 3 18 4 19 5 20 6 21 7 22 8 23 9 24 10 25 11
REMARK SMILES IDX 26 12 27 13 28 14 29 15 30 16 14 17 13 18 12 19 11 20 10 21
REMARK SMILES IDX 9 22 8 23 7 24 6 25 5 26 4 27 3 28 2 29 1 30
REMARK H PARENT
REMARK Flexibility Score: inf
ROOT
ATOM      1  C   UNL     1     173.293 166.638 150.093  1.00  0.00     0.000 C 
ENDROOT
BRANCH   1   2
ATOM      2  C   UNL     1     174.602 165.977 150.551  1.00  0.00     0.000 C 
BRANCH   2   3
ATOM      3  C   UNL     1     174.598 165.639 152.051  1.00  0.00     0.000 C 
BRANCH   3   4
ATOM      4  C   UNL     1     174.609 164.124 152.322  1.00  0.00     0.000 C 
BRANCH   4   5
ATOM      5  C   UNL     1     175.558 163.340 151.390  1.00  0.00     0.000 C 
BRANCH   5   6
ATOM      6  C   UNL     1     174.811 162.296 150.543  1.00  0.00     0.000 C 
BRANCH   6   7
ATOM      7  C   UNL     1     175.763 161.308 149.850  1.00  0.00     0.000 C 
BRANCH   7   8
ATOM      8  C   UNL     1     175.398 159.842 150.128  1.00  0.00     0.000 C 
BRANCH   8   9
ATOM      9  C   UNL     1     175.284 159.584 151.637  1.00  0.00     0.000 C 
BRANCH   9  10
ATOM     10  C   UNL     1     173.846 159.257 152.082  1.00  0.00     0.000 C 
BRANCH  10  11
ATOM     11  C   UNL     1     172.785 159.321 150.963  1.00  0.00     0.000 C 
BRANCH  11  12
ATOM     12  C   UNL     1     171.930 158.052 150.803  1.00  0.00     0.006 C 
BRANCH  12  13
ATOM     13  C   UNL     1     170.603 158.127 151.569  1.00  0.00     0.053 C 
BRANCH  13  14
ATOM     14  C   UNL     1     170.802 157.739 153.001  1.00  0.00     0.041 C 
ATOM     15  O   UNL     1     171.519 156.746 153.296  1.00  0.00    -0.550 OA
ATOM     16  O   UNL     1     170.179 158.463 154.010  1.00  0.00    -0.550 OA
ENDBRANCH  13  14
ENDBRANCH  12  13
ENDBRANCH  11  12
ENDBRANCH  10  11
ENDBRANCH   9  10
ENDBRANCH   8   9
ENDBRANCH   7   8
ENDBRANCH   6   7
ENDBRANCH   5   6
ENDBRANCH   4   5
ENDBRANCH   3   4
ENDBRANCH   2   3
ENDBRANCH   1   2
BRANCH   1  17
ATOM     17  C   UNL     1     173.536 167.946 149.320  1.00  0.00     0.000 C 
BRANCH  17  18
ATOM     18  C   UNL     1     175.010 168.386 149.340  1.00  0.00     0.000 C 
BRANCH  18  19
ATOM     19  C   UNL     1     175.310 169.619 150.216  1.00  0.00     0.000 C 
BRANCH  19  20
ATOM     20  C   UNL     1     175.433 169.336 151.723  1.00  0.00     0.000 C 
BRANCH  20  21
ATOM     21  C   UNL     1     174.481 170.189 152.573  1.00  0.00     0.000 C 
BRANCH  21  22
ATOM     22  C   UNL     1     173.468 169.306 153.311  1.00  0.00    -0.000 C 
BRANCH  22  23
ATOM     23  C   UNL     1     172.157 169.188 152.521  1.00  0.00    -0.000 C 
BRANCH  23  24
ATOM     24  C   UNL     1     171.614 170.553 152.058  1.00  0.00    -0.000 C 
BRANCH  24  25
ATOM     25  C   UNL     1     171.355 170.671 150.543  1.00  0.00    -0.000 C 
BRANCH  25  26
ATOM     26  C   UNL     1     172.401 171.495 149.768  1.00  0.00    -0.000 C 
BRANCH  26  27
ATOM     27  C   UNL     1     172.868 172.782 150.475  1.00  0.00    -0.000 C 
BRANCH  27  28
ATOM     28  C   UNL     1     174.040 173.515 149.791  1.00  0.00    -0.000 C 
BRANCH  28  29
ATOM     29  C   UNL     1     175.087 174.102 150.753  1.00  0.00    -0.003 C 
ATOM     30  C   UNL     1     174.724 173.902 152.224  1.00  0.00     0.004 C 
ENDBRANCH  28  29
ENDBRANCH  27  28
ENDBRANCH  26  27
ENDBRANCH  25  26
ENDBRANCH  24  25
ENDBRANCH  23  24
ENDBRANCH  22  23
ENDBRANCH  21  22
ENDBRANCH  20  21
ENDBRANCH  19  20
ENDBRANCH  18  19
ENDBRANCH  17  18
ENDBRANCH   1  17
TORSDOF 26
ENDMDL
MODEL 4
REMARK VINA RESULT:    -4.508      3.501      9.018
REMARK INTER + INTRA:         -14.927
REMARK INTER:                  -9.709
REMARK INTRA:                  -5.218
REMARK UNBOUND:                -3.568
REMARK SMILES CCCCCCCCCCCCCCCCCCCCCCCCCCCC(=O)[O-]
REMARK SMILES IDX 15 1 16 2 17 3 18 4 19 5 20 6 21 7 22 8 23 9 24 10 25 11
REMARK SMILES IDX 26 12 27 13 28 14 29 15 30 16 14 17 13 18 12 19 11 20 10 21
REMARK SMILES IDX 9 22 8 23 7 24 6 25 5 26 4 27 3 28 2 29 1 30
REMARK H PARENT
REMARK Flexibility Score: inf
ROOT
ATOM      1  C   UNL     1     170.930 170.568 152.543  1.00  0.00     0.000 C 
ENDROOT
BRANCH   1   2
ATOM      2  C   UNL     1     171.855 171.765 152.271  1.00  0.00     0.000 C 
BRANCH   2   3
ATOM      3  C   UNL     1     171.701 172.316 150.843  1.00  0.00     0.000 C 
BRANCH   3   4
ATOM      4  C   UNL     1     172.841 173.272 150.446  1.00  0.00     0.000 C 
BRANCH   4   5
ATOM      5  C   UNL     1     173.385 174.103 151.628  1.00  0.00     0.000 C 
BRANCH   5   6
ATOM      6  C   UNL     1     174.921 174.062 151.710  1.00  0.00     0.000 C 
BRANCH   6   7
ATOM      7  C   UNL     1     175.438 174.160 153.154  1.00  0.00     0.000 C 
BRANCH   7   8
ATOM      8  C   UNL     1     175.357 172.823 153.904  1.00  0.00     0.000 C 
BRANCH   8   9
ATOM      9  C   UNL     1     174.365 172.911 155.072  1.00  0.00     0.000 C 
BRANCH   9  10
ATOM     10  C   UNL     1     174.684 171.918 156.205  1.00  0.00     0.000 C 
BRANCH  10  11
ATOM     11  C   UNL     1     175.846 170.946 155.915  1.00  0.00     0.000 C 
BRANCH  11  12
ATOM     12  C   UNL     1     175.807 169.627 156.707  1.00  0.00     0.006 C 
BRANCH  12  13
ATOM     13  C   UNL     1     174.554 169.495 157.581  1.00  0.00     0.053 C 
BRANCH  13  14
ATOM     14  C   UNL     1     174.322 168.062 157.952  1.00  0.00     0.041 C 
ATOM     15  O   UNL     1     174.876 167.572 158.972  1.00  0.00    -0.550 OA
ATOM     16  O   UNL     1     173.509 167.262 157.158  1.00  0.00    -0.550 OA
ENDBRANCH  13  14
ENDBRANCH  12  13
ENDBRANCH  11  12
ENDBRANCH  10  11
ENDBRANCH   9  10
ENDBRANCH   8   9
ENDBRANCH   7   8
ENDBRANCH   6   7
ENDBRANCH   5   6
ENDBRANCH   4   5
ENDBRANCH   3   4
ENDBRANCH   2   3
ENDBRANCH   1   2
BRANCH   1  17
ATOM     17  C   UNL     1     171.686 169.365 153.130  1.00  0.00     0.000 C 
BRANCH  17  18
ATOM     18  C   UNL     1     173.091 169.732 153.638  1.00  0.00     0.000 C 
BRANCH  18  19
ATOM     19  C   UNL     1     174.155 168.628 153.472  1.00  0.00     0.000 C 
BRANCH  19  20
ATOM     20  C   UNL     1     175.297 168.963 152.498  1.00  0.00     0.000 C 
BRANCH  20  21
ATOM     21  C   UNL     1     174.971 170.147 151.577  1.00  0.00     0.000 C 
BRANCH  21  22
ATOM     22  C   UNL     1     174.822 169.684 150.123  1.00  0.00    -0.000 C 
BRANCH  22  23
ATOM     23  C   UNL     1     173.380 169.251 149.826  1.00  0.00    -0.000 C 
BRANCH  23  24
ATOM     24  C   UNL     1     173.278 167.783 149.372  1.00  0.00    -0.000 C 
BRANCH  24  25
ATOM     25  C   UNL     1     174.596 166.986 149.444  1.00  0.00    -0.000 C 
BRANCH  25  26
ATOM     26  C   UNL     1     174.606 165.839 150.472  1.00  0.00    -0.000 C 
BRANCH  26  27
ATOM     27  C   UNL     1     173.313 165.696 151.298  1.00  0.00    -0.000 C 
BRANCH  27  28
ATOM     28  C   UNL     1     172.670 164.294 151.268  1.00  0.00    -0.000 C 
BRANCH  28  29
ATOM     29  C   UNL     1     173.591 163.149 151.726  1.00  0.00    -0.003 C 
ATOM     30  C   UNL     1     173.857 162.121 150.627  1.00  0.00     0.004 C 
ENDBRANCH  28  29
ENDBRANCH  27  28
ENDBRANCH  26  27
ENDBRANCH  25  26
ENDBRANCH  24  25
ENDBRANCH  23  24
ENDBRANCH  22  23
ENDBRANCH  21  22
ENDBRANCH  20  21
ENDBRANCH  19  20
ENDBRANCH  18  19
ENDBRANCH  17  18
ENDBRANCH   1  17
TORSDOF 26
ENDMDL
MODEL 5
REMARK VINA RESULT:    -4.507      4.657     11.359
REMARK INTER + INTRA:         -14.926
REMARK INTER:                 -12.022
REMARK INTRA:                  -2.903
REMARK UNBOUND:                -3.568
REMARK SMILES CCCCCCCCCCCCCCCCCCCCCCCCCCCC(=O)[O-]
REMARK SMILES IDX 15 1 16 2 17 3 18 4 19 5 20 6 21 7 22 8 23 9 24 10 25 11
REMARK SMILES IDX 26 12 27 13 28 14 29 15 30 16 14 17 13 18 12 19 11 20 10 21
REMARK SMILES IDX 9 22 8 23 7 24 6 25 5 26 4 27 3 28 2 29 1 30
REMARK H PARENT
REMARK Flexibility Score: inf
ROOT
ATOM      1  C   UNL     1     172.104 168.701 149.756  1.00  0.00     0.000 C 
ENDROOT
BRANCH   1   2
ATOM      2  C   UNL     1     172.464 170.194 149.719  1.00  0.00     0.000 C 
BRANCH   2   3
ATOM      3  C   UNL     1     173.547 170.565 150.746  1.00  0.00     0.000 C 
BRANCH   3   4
ATOM      4  C   UNL     1     174.637 171.480 150.161  1.00  0.00     0.000 C 
BRANCH   4   5
ATOM      5  C   UNL     1     174.140 172.910 149.856  1.00  0.00     0.000 C 
BRANCH   5   6
ATOM      6  C   UNL     1     174.978 173.983 150.573  1.00  0.00     0.000 C 
BRANCH   6   7
ATOM      7  C   UNL     1     174.452 174.299 151.981  1.00  0.00     0.000 C 
BRANCH   7   8
ATOM      8  C   UNL     1     175.371 173.767 153.090  1.00  0.00     0.000 C 
BRANCH   8   9
ATOM      9  C   UNL     1     174.781 172.502 153.728  1.00  0.00     0.000 C 
BRANCH   9  10
ATOM     10  C   UNL     1     173.439 172.760 154.438  1.00  0.00     0.000 C 
BRANCH  10  11
ATOM     11  C   UNL     1     172.205 172.141 153.749  1.00  0.00     0.000 C 
BRANCH  11  12
ATOM     12  C   UNL     1     171.152 173.153 153.263  1.00  0.00     0.006 C 
BRANCH  12  13
ATOM     13  C   UNL     1     170.908 173.078 151.751  1.00  0.00     0.053 C 
BRANCH  13  14
ATOM     14  C   UNL     1     170.430 174.398 151.231  1.00  0.00     0.041 C 
ATOM     15  O   UNL     1     171.182 175.407 151.273  1.00  0.00    -0.550 OA
ATOM     16  O   UNL     1     169.145 174.518 150.717  1.00  0.00    -0.550 OA
ENDBRANCH  13  14
ENDBRANCH  12  13
ENDBRANCH  11  12
ENDBRANCH  10  11
ENDBRANCH   9  10
ENDBRANCH   8   9
ENDBRANCH   7   8
ENDBRANCH   6   7
ENDBRANCH   5   6
ENDBRANCH   4   5
ENDBRANCH   3   4
ENDBRANCH   2   3
ENDBRANCH   1   2
BRANCH   1  17
ATOM     17  C   UNL     1     172.872 167.886 148.701  1.00  0.00     0.000 C 
BRANCH  17  18
ATOM     18  C   UNL     1     174.320 167.579 149.121  1.00  0.00     0.000 C 
BRANCH  18  19
ATOM     19  C   UNL     1     174.494 166.313 149.985  1.00  0.00     0.000 C 
BRANCH  19  20
ATOM     20  C   UNL     1     174.504 166.556 151.504  1.00  0.00     0.000 C 
BRANCH  20  21
ATOM     21  C   UNL     1     174.628 165.259 152.317  1.00  0.00     0.000 C 
BRANCH  21  22
ATOM     22  C   UNL     1     175.479 164.225 151.571  1.00  0.00    -0.000 C 
BRANCH  22  23
ATOM     23  C   UNL     1     174.875 162.819 151.693  1.00  0.00    -0.000 C 
BRANCH  23  24
ATOM     24  C   UNL     1     174.585 162.172 150.326  1.00  0.00    -0.000 C 
BRANCH  24  25
ATOM     25  C   UNL     1     175.563 161.054 149.914  1.00  0.00    -0.000 C 
BRANCH  25  26
ATOM     26  C   UNL     1     175.012 159.623 150.056  1.00  0.00    -0.000 C 
BRANCH  26  27
ATOM     27  C   UNL     1     173.510 159.536 150.386  1.00  0.00    -0.000 C 
BRANCH  27  28
ATOM     28  C   UNL     1     172.939 158.105 150.462  1.00  0.00    -0.000 C 
BRANCH  28  29
ATOM     29  C   UNL     1     171.790 157.918 151.468  1.00  0.00    -0.003 C 
ATOM     30  C   UNL     1     172.109 158.487 152.850  1.00  0.00     0.004 C 
ENDBRANCH  28  29
ENDBRANCH  27  28
ENDBRANCH  26  27
ENDBRANCH  25  26
ENDBRANCH  24  25
ENDBRANCH  23  24
ENDBRANCH  22  23
ENDBRANCH  21  22
ENDBRANCH  20  21
ENDBRANCH  19  20
ENDBRANCH  18  19
ENDBRANCH  17  18
ENDBRANCH   1  17
TORSDOF 26
ENDMDL
MODEL 6
REMARK VINA RESULT:    -4.490      4.552     10.664
REMARK INTER + INTRA:         -14.883
REMARK INTER:                 -10.825
REMARK INTRA:                  -4.058
REMARK UNBOUND:                -3.568
REMARK SMILES CCCCCCCCCCCCCCCCCCCCCCCCCCCC(=O)[O-]
REMARK SMILES IDX 15 1 16 2 17 3 18 4 19 5 20 6 21 7 22 8 23 9 24 10 25 11
REMARK SMILES IDX 26 12 27 13 28 14 29 15 30 16 14 17 13 18 12 19 11 20 10 21
REMARK SMILES IDX 9 22 8 23 7 24 6 25 5 26 4 27 3 28 2 29 1 30
REMARK H PARENT
REMARK Flexibility Score: inf
ROOT
ATOM      1  C   UNL     1     174.481 166.727 150.574  1.00  0.00     0.000 C 
ENDROOT
BRANCH   1   2
ATOM      2  C   UNL     1     174.828 167.663 151.743  1.00  0.00     0.000 C 
BRANCH   2   3
ATOM      3  C   UNL     1     173.583 168.332 152.350  1.00  0.00     0.000 C 
BRANCH   3   4
ATOM      4  C   UNL     1     173.593 169.863 152.194  1.00  0.00     0.000 C 
BRANCH   4   5
ATOM      5  C   UNL     1     174.848 170.400 151.473  1.00  0.00     0.000 C 
BRANCH   5   6
ATOM      6  C   UNL     1     174.510 171.047 150.119  1.00  0.00     0.000 C 
BRANCH   6   7
ATOM      7  C   UNL     1     173.119 171.701 150.109  1.00  0.00     0.000 C 
BRANCH   7   8
ATOM      8  C   UNL     1     173.185 173.230 149.974  1.00  0.00     0.000 C 
BRANCH   8   9
ATOM      9  C   UNL     1     174.611 173.686 149.636  1.00  0.00     0.000 C 
BRANCH   9  10
ATOM     10  C   UNL     1     175.356 174.272 150.850  1.00  0.00     0.000 C 
BRANCH  10  11
ATOM     11  C   UNL     1     174.574 174.229 152.180  1.00  0.00     0.000 C 
BRANCH  11  12
ATOM     12  C   UNL     1     175.427 173.947 153.429  1.00  0.00     0.006 C 
BRANCH  12  13
ATOM     13  C   UNL     1     174.895 172.772 154.260  1.00  0.00     0.053 C 
BRANCH  13  14
ATOM     14  C   UNL     1     174.021 173.269 155.370  1.00  0.00     0.041 C 
ATOM     15  O   UNL     1     173.690 174.482 155.424  1.00  0.00    -0.550 OA
ATOM     16  O   UNL     1     173.588 172.392 156.358  1.00  0.00    -0.550 OA
ENDBRANCH  13  14
ENDBRANCH  12  13
ENDBRANCH  11  12
ENDBRANCH  10  11
ENDBRANCH   9  10
ENDBRANCH   8   9
ENDBRANCH   7   8
ENDBRANCH   6   7
ENDBRANCH   5   6
ENDBRANCH   4   5
ENDBRANCH   3   4
ENDBRANCH   2   3
ENDBRANCH   1   2
BRANCH   1  17
ATOM     17  C   UNL     1     174.462 167.459 149.222  1.00  0.00     0.000 C 
BRANCH  17  18
ATOM     18  C   UNL     1     173.086 167.410 148.535  1.00  0.00     0.000 C 
BRANCH  18  19
ATOM     19  C   UNL     1     172.086 168.489 148.998  1.00  0.00     0.000 C 
BRANCH  19  20
ATOM     20  C   UNL     1     170.974 167.990 149.936  1.00  0.00     0.000 C 
BRANCH  20  21
ATOM     21  C   UNL     1     170.852 166.459 149.959  1.00  0.00     0.000 C 
BRANCH  21  22
ATOM     22  C   UNL     1     170.632 165.951 151.388  1.00  0.00    -0.000 C 
BRANCH  22  23
ATOM     23  C   UNL     1     171.805 165.074 151.850  1.00  0.00    -0.000 C 
BRANCH  23  24
ATOM     24  C   UNL     1     172.050 163.868 150.925  1.00  0.00    -0.000 C 
BRANCH  24  25
ATOM     25  C   UNL     1     173.019 162.806 151.483  1.00  0.00    -0.000 C 
BRANCH  25  26
ATOM     26  C   UNL     1     174.362 162.696 150.737  1.00  0.00    -0.000 C 
BRANCH  26  27
ATOM     27  C   UNL     1     174.523 161.431 149.872  1.00  0.00    -0.000 C 
BRANCH  27  28
ATOM     28  C   UNL     1     175.159 160.224 150.591  1.00  0.00    -0.000 C 
BRANCH  28  29
ATOM     29  C   UNL     1     174.161 159.298 151.308  1.00  0.00    -0.003 C 
ATOM     30  C   UNL     1     172.983 158.891 150.422  1.00  0.00     0.004 C 
ENDBRANCH  28  29
ENDBRANCH  27  28
ENDBRANCH  26  27
ENDBRANCH  25  26
ENDBRANCH  24  25
ENDBRANCH  23  24
ENDBRANCH  22  23
ENDBRANCH  21  22
ENDBRANCH  20  21
ENDBRANCH  19  20
ENDBRANCH  18  19
ENDBRANCH  17  18
ENDBRANCH   1  17
TORSDOF 26
ENDMDL
MODEL 7
REMARK VINA RESULT:    -4.483      1.380      2.433
REMARK INTER + INTRA:         -14.866
REMARK INTER:                 -11.590
REMARK INTRA:                  -3.276
REMARK UNBOUND:                -3.568
REMARK SMILES CCCCCCCCCCCCCCCCCCCCCCCCCCCC(=O)[O-]
REMARK SMILES IDX 15 1 16 2 17 3 18 4 19 5 20 6 21 7 22 8 23 9 24 10 25 11
REMARK SMILES IDX 26 12 27 13 28 14 29 15 30 16 14 17 13 18 12 19 11 20 10 21
REMARK SMILES IDX 9 22 8 23 7 24 6 25 5 26 4 27 3 28 2 29 1 30
REMARK H PARENT
REMARK Flexibility Score: inf
ROOT
ATOM      1  C   UNL     1     172.815 167.697 150.036  1.00  0.00     0.000 C 
ENDROOT
BRANCH   1   2
ATOM      2  C   UNL     1     174.132 167.107 149.509  1.00  0.00     0.000 C 
BRANCH   2   3
ATOM      3  C   UNL     1     174.646 165.946 150.377  1.00  0.00     0.000 C 
BRANCH   3   4
ATOM      4  C   UNL     1     173.512 165.061 150.923  1.00  0.00     0.000 C 
BRANCH   4   5
ATOM      5  C   UNL     1     173.959 163.619 151.248  1.00  0.00     0.000 C 
BRANCH   5   6
ATOM      6  C   UNL     1     175.438 163.548 151.664  1.00  0.00     0.000 C 
BRANCH   6   7
ATOM      7  C   UNL     1     176.049 162.156 151.433  1.00  0.00     0.000 C 
BRANCH   7   8
ATOM      8  C   UNL     1     175.731 161.594 150.040  1.00  0.00     0.000 C 
BRANCH   8   9
ATOM      9  C   UNL     1     175.663 160.061 150.073  1.00  0.00     0.000 C 
BRANCH   9  10
ATOM     10  C   UNL     1     174.665 159.528 151.118  1.00  0.00     0.000 C 
BRANCH  10  11
ATOM     11  C   UNL     1     173.197 159.466 150.647  1.00  0.00     0.000 C 
BRANCH  11  12
ATOM     12  C   UNL     1     172.725 158.083 150.163  1.00  0.00     0.006 C 
BRANCH  12  13
ATOM     13  C   UNL     1     171.233 158.054 149.807  1.00  0.00     0.053 C 
BRANCH  13  14
ATOM     14  C   UNL     1     170.402 158.382 151.008  1.00  0.00     0.041 C 
ATOM     15  O   UNL     1     169.658 159.398 151.009  1.00  0.00    -0.550 OA
ATOM     16  O   UNL     1     170.463 157.573 152.137  1.00  0.00    -0.550 OA
ENDBRANCH  13  14
ENDBRANCH  12  13
ENDBRANCH  11  12
ENDBRANCH  10  11
ENDBRANCH   9  10
ENDBRANCH   8   9
ENDBRANCH   7   8
ENDBRANCH   6   7
ENDBRANCH   5   6
ENDBRANCH   4   5
ENDBRANCH   3   4
ENDBRANCH   2   3
ENDBRANCH   1   2
BRANCH   1  17
ATOM     17  C   UNL     1     172.672 169.193 149.710  1.00  0.00     0.000 C 
BRANCH  17  18
ATOM     18  C   UNL     1     173.334 170.100 150.762  1.00  0.00     0.000 C 
BRANCH  18  19
ATOM     19  C   UNL     1     174.745 170.604 150.394  1.00  0.00     0.000 C 
BRANCH  19  20
ATOM     20  C   UNL     1     174.849 172.114 150.121  1.00  0.00     0.000 C 
BRANCH  20  21
ATOM     21  C   UNL     1     173.492 172.830 150.187  1.00  0.00     0.000 C 
BRANCH  21  22
ATOM     22  C   UNL     1     173.580 174.088 151.058  1.00  0.00    -0.000 C 
BRANCH  22  23
ATOM     23  C   UNL     1     175.004 174.289 151.596  1.00  0.00    -0.000 C 
BRANCH  23  24
ATOM     24  C   UNL     1     175.080 174.203 153.131  1.00  0.00    -0.000 C 
BRANCH  24  25
ATOM     25  C   UNL     1     175.473 172.820 153.688  1.00  0.00    -0.000 C 
BRANCH  25  26
ATOM     26  C   UNL     1     174.456 172.199 154.664  1.00  0.00    -0.000 C 
BRANCH  26  27
ATOM     27  C   UNL     1     174.013 170.765 154.314  1.00  0.00    -0.000 C 
BRANCH  27  28
ATOM     28  C   UNL     1     175.027 169.661 154.676  1.00  0.00    -0.000 C 
BRANCH  28  29
ATOM     29  C   UNL     1     175.232 168.590 153.591  1.00  0.00    -0.003 C 
ATOM     30  C   UNL     1     174.111 167.551 153.558  1.00  0.00     0.004 C 
ENDBRANCH  28  29
ENDBRANCH  27  28
ENDBRANCH  26  27
ENDBRANCH  25  26
ENDBRANCH  24  25
ENDBRANCH  23  24
ENDBRANCH  22  23
ENDBRANCH  21  22
ENDBRANCH  20  21
ENDBRANCH  19  20
ENDBRANCH  18  19
ENDBRANCH  17  18
ENDBRANCH   1  17
TORSDOF 26
ENDMDL
MODEL 8
REMARK VINA RESULT:    -4.476      3.319     10.439
REMARK INTER + INTRA:         -14.848
REMARK INTER:                 -11.295
REMARK INTRA:                  -3.553
REMARK UNBOUND:                -3.568
REMARK SMILES CCCCCCCCCCCCCCCCCCCCCCCCCCCC(=O)[O-]
REMARK SMILES IDX 15 1 16 2 17 3 18 4 19 5 20 6 21 7 22 8 23 9 24 10 25 11
REMARK SMILES IDX 26 12 27 13 28 14 29 15 30 16 14 17 13 18 12 19 11 20 10 21
REMARK SMILES IDX 9 22 8 23 7 24 6 25 5 26 4 27 3 28 2 29 1 30
REMARK H PARENT
REMARK Flexibility Score: inf
ROOT
ATOM      1  C   UNL     1     173.302 168.538 149.982  1.00  0.00     0.000 C 
ENDROOT
BRANCH   1   2
ATOM      2  C   UNL     1     174.652 169.201 150.296  1.00  0.00     0.000 C 
BRANCH   2   3
ATOM      3  C   UNL     1     174.561 170.736 150.326  1.00  0.00     0.000 C 
BRANCH   3   4
ATOM      4  C   UNL     1     173.110 171.247 150.369  1.00  0.00     0.000 C 
BRANCH   4   5
ATOM      5  C   UNL     1     172.996 172.783 150.254  1.00  0.00     0.000 C 
BRANCH   5   6
ATOM      6  C   UNL     1     174.275 173.421 149.684  1.00  0.00     0.000 C 
BRANCH   6   7
ATOM      7  C   UNL     1     175.002 174.303 150.711  1.00  0.00     0.000 C 
BRANCH   7   8
ATOM      8  C   UNL     1     174.351 174.252 152.101  1.00  0.00     0.000 C 
BRANCH   8   9
ATOM      9  C   UNL     1     175.411 174.045 153.192  1.00  0.00     0.000 C 
BRANCH   9  10
ATOM     10  C   UNL     1     175.372 172.632 153.804  1.00  0.00     0.000 C 
BRANCH  10  11
ATOM     11  C   UNL     1     173.966 172.009 153.921  1.00  0.00     0.000 C 
BRANCH  11  12
ATOM     12  C   UNL     1     173.901 170.691 154.713  1.00  0.00     0.006 C 
BRANCH  12  13
ATOM     13  C   UNL     1     175.225 169.918 154.693  1.00  0.00     0.053 C 
BRANCH  13  14
ATOM     14  C   UNL     1     175.101 168.687 153.848  1.00  0.00     0.041 C 
ATOM     15  O   UNL     1     176.125 168.157 153.342  1.00  0.00    -0.550 OA
ATOM     16  O   UNL     1     173.848 168.137 153.604  1.00  0.00    -0.550 OA
ENDBRANCH  13  14
ENDBRANCH  12  13
ENDBRANCH  11  12
ENDBRANCH  10  11
ENDBRANCH   9  10
ENDBRANCH   8   9
ENDBRANCH   7   8
ENDBRANCH   6   7
ENDBRANCH   5   6
ENDBRANCH   4   5
ENDBRANCH   3   4
ENDBRANCH   2   3
ENDBRANCH   1   2
BRANCH   1  17
ATOM     17  C   UNL     1     173.445 167.040 149.661  1.00  0.00     0.000 C 
BRANCH  17  18
ATOM     18  C   UNL     1     173.657 166.177 150.917  1.00  0.00     0.000 C 
BRANCH  18  19
ATOM     19  C   UNL     1     174.515 164.914 150.703  1.00  0.00     0.000 C 
BRANCH  19  20
ATOM     20  C   UNL     1     175.360 164.485 151.915  1.00  0.00     0.000 C 
BRANCH  20  21
ATOM     21  C   UNL     1     174.675 163.411 152.773  1.00  0.00     0.000 C 
BRANCH  21  22
ATOM     22  C   UNL     1     175.575 162.180 152.927  1.00  0.00    -0.000 C 
BRANCH  22  23
ATOM     23  C   UNL     1     176.080 161.690 151.562  1.00  0.00    -0.000 C 
BRANCH  23  24
ATOM     24  C   UNL     1     175.944 160.166 151.387  1.00  0.00    -0.000 C 
BRANCH  24  25
ATOM     25  C   UNL     1     175.161 159.722 150.136  1.00  0.00    -0.000 C 
BRANCH  25  26
ATOM     26  C   UNL     1     173.885 158.907 150.423  1.00  0.00    -0.000 C 
BRANCH  26  27
ATOM     27  C   UNL     1     172.565 159.675 150.222  1.00  0.00    -0.000 C 
BRANCH  27  28
ATOM     28  C   UNL     1     172.724 161.137 149.756  1.00  0.00    -0.000 C 
BRANCH  28  29
ATOM     29  C   UNL     1     171.980 162.175 150.615  1.00  0.00    -0.003 C 
ATOM     30  C   UNL     1     171.611 161.648 152.002  1.00  0.00     0.004 C 
ENDBRANCH  28  29
ENDBRANCH  27  28
ENDBRANCH  26  27
ENDBRANCH  25  26
ENDBRANCH  24  25
ENDBRANCH  23  24
ENDBRANCH  22  23
ENDBRANCH  21  22
ENDBRANCH  20  21
ENDBRANCH  19  20
ENDBRANCH  18  19
ENDBRANCH  17  18
ENDBRANCH   1  17
TORSDOF 26
ENDMDL
MODEL 9
REMARK VINA RESULT:    -4.464      1.007      2.234
REMARK INTER + INTRA:         -14.816
REMARK INTER:                 -10.690
REMARK INTRA:                  -4.126
REMARK UNBOUND:                -3.568
REMARK SMILES CCCCCCCCCCCCCCCCCCCCCCCCCCCC(=O)[O-]
REMARK SMILES IDX 15 1 16 2 17 3 18 4 19 5 20 6 21 7 22 8 23 9 24 10 25 11
REMARK SMILES IDX 26 12 27 13 28 14 29 15 30 16 14 17 13 18 12 19 11 20 10 21
REMARK SMILES IDX 9 22 8 23 7 24 6 25 5 26 4 27 3 28 2 29 1 30
REMARK H PARENT
REMARK Flexibility Score: inf
ROOT
ATOM      1  C   UNL     1     175.080 170.934 150.192  1.00  0.00     0.000 C 
ENDROOT
BRANCH   1   2
ATOM      2  C   UNL     1     175.233 169.410 150.310  1.00  0.00     0.000 C 
BRANCH   2   3
ATOM      3  C   UNL     1     174.110 168.648 149.587  1.00  0.00     0.000 C 
BRANCH   3   4
ATOM      4  C   UNL     1     174.314 167.122 149.608  1.00  0.00     0.000 C 
BRANCH   4   5
ATOM      5  C   UNL     1     173.240 166.369 150.423  1.00  0.00     0.000 C 
BRANCH   5   6
ATOM      6  C   UNL     1     173.857 165.443 151.485  1.00  0.00     0.000 C 
BRANCH   6   7
ATOM      7  C   UNL     1     175.093 164.692 150.965  1.00  0.00     0.000 C 
BRANCH   7   8
ATOM      8  C   UNL     1     175.160 163.243 151.467  1.00  0.00     0.000 C 
BRANCH   8   9
ATOM      9  C   UNL     1     173.923 162.452 151.019  1.00  0.00     0.000 C 
BRANCH   9  10
ATOM     10  C   UNL     1     174.194 161.558 149.795  1.00  0.00     0.000 C 
BRANCH  10  11
ATOM     11  C   UNL     1     175.276 160.477 150.002  1.00  0.00     0.000 C 
BRANCH  11  12
ATOM     12  C   UNL     1     174.824 159.247 150.809  1.00  0.00     0.006 C 
BRANCH  12  13
ATOM     13  C   UNL     1     173.431 158.748 150.403  1.00  0.00     0.053 C 
BRANCH  13  14
ATOM     14  C   UNL     1     172.590 158.499 151.616  1.00  0.00     0.041 C 
ATOM     15  O   UNL     1     172.271 159.452 152.375  1.00  0.00    -0.550 OA
ATOM     16  O   UNL     1     172.173 157.208 151.919  1.00  0.00    -0.550 OA
ENDBRANCH  13  14
ENDBRANCH  12  13
ENDBRANCH  11  12
ENDBRANCH  10  11
ENDBRANCH   9  10
ENDBRANCH   8   9
ENDBRANCH   7   8
ENDBRANCH   6   7
ENDBRANCH   5   6
ENDBRANCH   4   5
ENDBRANCH   3   4
ENDBRANCH   2   3
ENDBRANCH   1   2
BRANCH   1  17
ATOM     17  C   UNL     1     173.608 171.370 150.092  1.00  0.00     0.000 C 
BRANCH  17  18
ATOM     18  C   UNL     1     173.438 172.899 150.057  1.00  0.00     0.000 C 
BRANCH  18  19
ATOM     19  C   UNL     1     174.636 173.700 150.604  1.00  0.00     0.000 C 
BRANCH  19  20
ATOM     20  C   UNL     1     174.465 174.235 152.037  1.00  0.00     0.000 C 
BRANCH  20  21
ATOM     21  C   UNL     1     175.342 173.498 153.060  1.00  0.00     0.000 C 
BRANCH  21  22
ATOM     22  C   UNL     1     174.479 172.699 154.043  1.00  0.00    -0.000 C 
BRANCH  22  23
ATOM     23  C   UNL     1     174.637 171.189 153.816  1.00  0.00    -0.000 C 
BRANCH  23  24
ATOM     24  C   UNL     1     173.356 170.398 154.142  1.00  0.00    -0.000 C 
BRANCH  24  25
ATOM     25  C   UNL     1     173.051 169.229 153.184  1.00  0.00    -0.000 C 
BRANCH  25  26
ATOM     26  C   UNL     1     171.733 169.360 152.398  1.00  0.00    -0.000 C 
BRANCH  26  27
ATOM     27  C   UNL     1     170.962 170.672 152.636  1.00  0.00    -0.000 C 
BRANCH  27  28
ATOM     28  C   UNL     1     170.052 171.116 151.473  1.00  0.00    -0.000 C 
BRANCH  28  29
ATOM     29  C   UNL     1     169.989 172.636 151.244  1.00  0.00    -0.003 C 
ATOM     30  C   UNL     1     170.609 173.438 152.388  1.00  0.00     0.004 C 
ENDBRANCH  28  29
ENDBRANCH  27  28
ENDBRANCH  26  27
ENDBRANCH  25  26
ENDBRANCH  24  25
ENDBRANCH  23  24
ENDBRANCH  22  23
ENDBRANCH  21  22
ENDBRANCH  20  21
ENDBRANCH  19  20
ENDBRANCH  18  19
ENDBRANCH  17  18
ENDBRANCH   1  17
TORSDOF 26
ENDMDL
