MODEL 1
REMARK VINA RESULT:    -1.561      0.000      0.000
REMARK INTER + INTRA:          -5.834
REMARK INTER:                  -4.116
REMARK INTRA:                  -1.718
REMARK UNBOUND:                -1.718
REMARK SMILES CCCCCCCCCCCCCCCCCCCCCCCCCCCCCC(=O)[O-]
REMARK SMILES IDX 16 1 17 2 18 3 19 4 20 5 21 6 22 7 23 8 24 9 25 10 26 11
REMARK SMILES IDX 27 12 28 13 29 14 30 15 31 16 32 17 15 18 14 19 13 20 12 21
REMARK SMILES IDX 11 22 10 23 9 24 8 25 7 26 6 27 5 28 4 29 3 30 2 31 1 32
REMARK H PARENT
REMARK Flexibility Score: inf
ROOT
ATOM      1  C   UNL     1      -1.052 -21.590  16.540  1.00  0.00     0.000 C 
ENDROOT
BRANCH   1   2
ATOM      2  C   UNL     1       0.474 -21.736  16.618  1.00  0.00     0.000 C 
BRANCH   2   3
ATOM      3  C   UNL     1       0.980 -22.856  15.700  1.00  0.00     0.000 C 
BRANCH   3   4
ATOM      4  C   UNL     1       1.882 -22.283  14.596  1.00  0.00     0.000 C 
BRANCH   4   5
ATOM      5  C   UNL     1       3.178 -23.097  14.406  1.00  0.00     0.000 C 
BRANCH   5   6
ATOM      6  C   UNL     1       4.101 -23.074  15.638  1.00  0.00     0.000 C 
BRANCH   6   7
ATOM      7  C   UNL     1       4.023 -21.751  16.416  1.00  0.00     0.000 C 
BRANCH   7   8
ATOM      8  C   UNL     1       5.415 -21.210  16.797  1.00  0.00     0.000 C 
BRANCH   8   9
ATOM      9  C   UNL     1       6.221 -22.143  17.724  1.00  0.00     0.000 C 
BRANCH   9  10
ATOM     10  C   UNL     1       7.708 -22.295  17.337  1.00  0.00     0.000 C 
BRANCH  10  11
ATOM     11  C   UNL     1       7.940 -23.116  16.056  1.00  0.00     0.000 C 
BRANCH  11  12
ATOM     12  C   UNL     1       8.734 -22.340  14.991  1.00  0.00     0.000 C 
BRANCH  12  13
ATOM     13  C   UNL     1       8.032 -21.040  14.557  1.00  0.00     0.006 C 
BRANCH  13  14
ATOM     14  C   UNL     1       8.963 -20.002  13.906  1.00  0.00     0.053 C 
BRANCH  14  15
ATOM     15  C   UNL     1       8.439 -19.514  12.591  1.00  0.00     0.041 C 
ATOM     16  O   UNL     1       8.807 -18.398  12.136  1.00  0.00    -0.550 OA
ATOM     17  O   UNL     1       7.528 -20.282  11.877  1.00  0.00    -0.550 OA
ENDBRANCH  14  15
ENDBRANCH  13  14
ENDBRANCH  12  13
ENDBRANCH  11  12
ENDBRANCH  10  11
ENDBRANCH   9  10
ENDBRANCH   8   9
ENDBRANCH   7   8
ENDBRANCH   6   7
ENDBRANCH   5   6
ENDBRANCH   4   5
ENDBRANCH   3   4
ENDBRANCH   2   3
ENDBRANCH   1   2
BRANCH   1  18
ATOM     18  C   UNL     1      -1.709 -22.754  15.764  1.00  0.00     0.000 C 
BRANCH  18  19
ATOM     19  C   UNL     1      -3.116 -23.124  16.272  1.00  0.00     0.000 C 
BRANCH  19  20
ATOM     20  C   UNL     1      -4.028 -21.927  16.585  1.00  0.00     0.000 C 
BRANCH  20  21
ATOM     21  C   UNL     1      -5.467 -22.047  16.045  1.00  0.00     0.000 C 
BRANCH  21  22
ATOM     22  C   UNL     1      -6.516 -22.368  17.130  1.00  0.00     0.000 C 
BRANCH  22  23
ATOM     23  C   UNL     1      -7.953 -22.172  16.625  1.00  0.00     0.000 C 
BRANCH  23  24
ATOM     24  C   UNL     1      -8.936 -23.053  17.403  1.00  0.00    -0.000 C 
BRANCH  24  25
ATOM     25  C   UNL     1      -9.408 -22.350  18.686  1.00  0.00    -0.000 C 
BRANCH  25  26
ATOM     26  C   UNL     1     -10.192 -21.058  18.399  1.00  0.00    -0.000 C 
BRANCH  26  27
ATOM     27  C   UNL     1     -10.074 -20.036  19.544  1.00  0.00    -0.000 C 
BRANCH  27  28
ATOM     28  C   UNL     1     -11.121 -20.256  20.648  1.00  0.00    -0.000 C 
BRANCH  28  29
ATOM     29  C   UNL     1     -11.093 -19.156  21.725  1.00  0.00    -0.000 C 
BRANCH  29  30
ATOM     30  C   UNL     1     -10.254 -19.563  22.953  1.00  0.00    -0.000 C 
BRANCH  30  31
ATOM     31  C   UNL     1     -10.150 -21.086  23.144  1.00  0.00    -0.003 C 
ATOM     32  C   UNL     1      -8.709 -21.581  23.257  1.00  0.00     0.004 C 
ENDBRANCH  30  31
ENDBRANCH  29  30
ENDBRANCH  28  29
ENDBRANCH  27  28
ENDBRANCH  26  27
ENDBRANCH  25  26
ENDBRANCH  24  25
ENDBRANCH  23  24
ENDBRANCH  22  23
ENDBRANCH  21  22
ENDBRANCH  20  21
ENDBRANCH  19  20
ENDBRANCH  18  19
ENDBRANCH   1  18
TORSDOF 28
ENDMDL
MODEL 2
REMARK VINA RESULT:    -1.359      5.242     15.595
REMARK INTER + INTRA:          -5.301
REMARK INTER:                  -3.611
REMARK INTRA:                  -1.690
REMARK UNBOUND:                -1.718
REMARK SMILES CCCCCCCCCCCCCCCCCCCCCCCCCCCCCC(=O)[O-]
REMARK SMILES IDX 16 1 17 2 18 3 19 4 20 5 21 6 22 7 23 8 24 9 25 10 26 11
REMARK SMILES IDX 27 12 28 13 29 14 30 15 31 16 32 17 15 18 14 19 13 20 12 21
REMARK SMILES IDX 11 22 10 23 9 24 8 25 7 26 6 27 5 28 4 29 3 30 2 31 1 32
REMARK H PARENT
REMARK Flexibility Score: inf
ROOT
ATOM      1  C   UNL     1      -1.982 -21.266  16.275  1.00  0.00     0.000 C 
ENDROOT
BRANCH   1   2
ATOM      2  C   UNL     1      -3.287 -21.949  15.843  1.00  0.00     0.000 C 
BRANCH   2   3
ATOM      3  C   UNL     1      -4.246 -22.129  17.026  1.00  0.00     0.000 C 
BRANCH   3   4
ATOM      4  C   UNL     1      -5.503 -22.898  16.590  1.00  0.00     0.000 C 
BRANCH   4   5
ATOM      5  C   UNL     1      -6.577 -21.978  15.973  1.00  0.00     0.000 C 
BRANCH   5   6
ATOM      6  C   UNL     1      -8.007 -22.531  16.110  1.00  0.00     0.000 C 
BRANCH   6   7
ATOM      7  C   UNL     1      -9.000 -21.487  16.647  1.00  0.00     0.000 C 
BRANCH   7   8
ATOM      8  C   UNL     1      -9.604 -21.893  18.005  1.00  0.00     0.000 C 
BRANCH   8   9
ATOM      9  C   UNL     1      -8.698 -22.816  18.846  1.00  0.00     0.000 C 
BRANCH   9  10
ATOM     10  C   UNL     1      -8.822 -22.612  20.372  1.00  0.00     0.000 C 
BRANCH  10  11
ATOM     11  C   UNL     1     -10.255 -22.779  20.910  1.00  0.00     0.000 C 
BRANCH  11  12
ATOM     12  C   UNL     1     -10.525 -21.914  22.154  1.00  0.00     0.000 C 
BRANCH  12  13
ATOM     13  C   UNL     1     -10.482 -20.405  21.848  1.00  0.00     0.006 C 
BRANCH  13  14
ATOM     14  C   UNL     1      -9.692 -19.573  22.873  1.00  0.00     0.053 C 
BRANCH  14  15
ATOM     15  C   UNL     1      -9.610 -18.128  22.489  1.00  0.00     0.041 C 
ATOM     16  O   UNL     1      -9.153 -17.280  23.302  1.00  0.00    -0.550 OA
ATOM     17  O   UNL     1     -10.057 -17.713  21.241  1.00  0.00    -0.550 OA
ENDBRANCH  14  15
ENDBRANCH  13  14
ENDBRANCH  12  13
ENDBRANCH  11  12
ENDBRANCH  10  11
ENDBRANCH   9  10
ENDBRANCH   8   9
ENDBRANCH   7   8
ENDBRANCH   6   7
ENDBRANCH   5   6
ENDBRANCH   4   5
ENDBRANCH   3   4
ENDBRANCH   2   3
ENDBRANCH   1   2
BRANCH   1  18
ATOM     18  C   UNL     1      -0.797 -22.256  16.329  1.00  0.00     0.000 C 
BRANCH  18  19
ATOM     19  C   UNL     1      -0.093 -22.457  14.973  1.00  0.00     0.000 C 
BRANCH  19  20
ATOM     20  C   UNL     1       1.294 -23.116  15.054  1.00  0.00     0.000 C 
BRANCH  20  21
ATOM     21  C   UNL     1       2.447 -22.279  14.465  1.00  0.00     0.000 C 
BRANCH  21  22
ATOM     22  C   UNL     1       3.634 -23.123  13.955  1.00  0.00     0.000 C 
BRANCH  22  23
ATOM     23  C   UNL     1       4.980 -22.622  14.501  1.00  0.00     0.000 C 
BRANCH  23  24
ATOM     24  C   UNL     1       5.026 -22.724  16.029  1.00  0.00    -0.000 C 
BRANCH  24  25
ATOM     25  C   UNL     1       5.760 -21.518  16.638  1.00  0.00    -0.000 C 
BRANCH  25  26
ATOM     26  C   UNL     1       7.055 -21.918  17.367  1.00  0.00    -0.000 C 
BRANCH  26  27
ATOM     27  C   UNL     1       7.839 -23.006  16.611  1.00  0.00    -0.000 C 
BRANCH  27  28
ATOM     28  C   UNL     1       9.083 -22.454  15.897  1.00  0.00    -0.000 C 
BRANCH  28  29
ATOM     29  C   UNL     1       8.834 -22.158  14.407  1.00  0.00    -0.000 C 
BRANCH  29  30
ATOM     30  C   UNL     1       8.054 -20.844  14.195  1.00  0.00    -0.000 C 
BRANCH  30  31
ATOM     31  C   UNL     1       8.953 -19.656  13.812  1.00  0.00    -0.003 C 
ATOM     32  C   UNL     1       8.545 -18.994  12.497  1.00  0.00     0.004 C 
ENDBRANCH  30  31
ENDBRANCH  29  30
ENDBRANCH  28  29
ENDBRANCH  27  28
ENDBRANCH  26  27
ENDBRANCH  25  26
ENDBRANCH  24  25
ENDBRANCH  23  24
ENDBRANCH  22  23
ENDBRANCH  21  22
ENDBRANCH  20  21
ENDBRANCH  19  20
ENDBRANCH  18  19
ENDBRANCH   1  18
TORSDOF 28
ENDMDL
MODEL 3
REMARK VINA RESULT:    -1.243      1.461      3.084
REMARK INTER + INTRA:          -4.995
REMARK INTER:                  -3.425
REMARK INTRA:                  -1.571
REMARK UNBOUND:                -1.718
REMARK SMILES CCCCCCCCCCCCCCCCCCCCCCCCCCCCCC(=O)[O-]
REMARK SMILES IDX 16 1 17 2 18 3 19 4 20 5 21 6 22 7 23 8 24 9 25 10 26 11
REMARK SMILES IDX 27 12 28 13 29 14 30 15 31 16 32 17 15 18 14 19 13 20 12 21
REMARK SMILES IDX 11 22 10 23 9 24 8 25 7 26 6 27 5 28 4 29 3 30 2 31 1 32
REMARK H PARENT
REMARK Flexibility Score: inf
ROOT
ATOM      1  C   UNL     1      -0.979 -21.963  16.493  1.00  0.00     0.000 C 
ENDROOT
BRANCH   1   2
ATOM      2  C   UNL     1       0.109 -22.836  15.852  1.00  0.00     0.000 C 
BRANCH   2   3
ATOM      3  C   UNL     1       1.444 -22.087  15.751  1.00  0.00     0.000 C 
BRANCH   3   4
ATOM      4  C   UNL     1       2.556 -23.028  15.265  1.00  0.00     0.000 C 
BRANCH   4   5
ATOM      5  C   UNL     1       3.910 -22.751  15.951  1.00  0.00     0.000 C 
BRANCH   5   6
ATOM      6  C   UNL     1       3.945 -21.418  16.719  1.00  0.00     0.000 C 
BRANCH   6   7
ATOM      7  C   UNL     1       5.192 -21.275  17.607  1.00  0.00     0.000 C 
BRANCH   7   8
ATOM      8  C   UNL     1       6.502 -21.467  16.818  1.00  0.00     0.000 C 
BRANCH   8   9
ATOM      9  C   UNL     1       7.030 -22.917  16.816  1.00  0.00     0.000 C 
BRANCH   9  10
ATOM     10  C   UNL     1       8.561 -23.036  16.661  1.00  0.00     0.000 C 
BRANCH  10  11
ATOM     11  C   UNL     1       9.036 -23.125  15.198  1.00  0.00     0.000 C 
BRANCH  11  12
ATOM     12  C   UNL     1       7.869 -23.118  14.196  1.00  0.00     0.000 C 
BRANCH  12  13
ATOM     13  C   UNL     1       8.182 -22.302  12.928  1.00  0.00     0.006 C 
BRANCH  13  14
ATOM     14  C   UNL     1       8.857 -20.945  13.196  1.00  0.00     0.053 C 
BRANCH  14  15
ATOM     15  C   UNL     1       8.579 -19.948  12.113  1.00  0.00     0.041 C 
ATOM     16  O   UNL     1       8.749 -20.260  10.904  1.00  0.00    -0.550 OA
ATOM     17  O   UNL     1       8.152 -18.668  12.441  1.00  0.00    -0.550 OA
ENDBRANCH  14  15
ENDBRANCH  13  14
ENDBRANCH  12  13
ENDBRANCH  11  12
ENDBRANCH  10  11
ENDBRANCH   9  10
ENDBRANCH   8   9
ENDBRANCH   7   8
ENDBRANCH   6   7
ENDBRANCH   5   6
ENDBRANCH   4   5
ENDBRANCH   3   4
ENDBRANCH   2   3
ENDBRANCH   1   2
BRANCH   1  18
ATOM     18  C   UNL     1      -2.332 -22.085  15.755  1.00  0.00     0.000 C 
BRANCH  18  19
ATOM     19  C   UNL     1      -3.302 -23.093  16.400  1.00  0.00     0.000 C 
BRANCH  19  20
ATOM     20  C   UNL     1      -4.761 -22.616  16.502  1.00  0.00     0.000 C 
BRANCH  20  21
ATOM     21  C   UNL     1      -5.384 -22.727  17.907  1.00  0.00     0.000 C 
BRANCH  21  22
ATOM     22  C   UNL     1      -6.824 -22.180  17.996  1.00  0.00     0.000 C 
BRANCH  22  23
ATOM     23  C   UNL     1      -7.755 -23.121  18.777  1.00  0.00     0.000 C 
BRANCH  23  24
ATOM     24  C   UNL     1      -8.052 -22.567  20.175  1.00  0.00    -0.000 C 
BRANCH  24  25
ATOM     25  C   UNL     1      -9.564 -22.536  20.444  1.00  0.00    -0.000 C 
BRANCH  25  26
ATOM     26  C   UNL     1     -10.098 -21.108  20.658  1.00  0.00    -0.000 C 
BRANCH  26  27
ATOM     27  C   UNL     1     -10.022 -20.258  19.377  1.00  0.00    -0.000 C 
BRANCH  27  28
ATOM     28  C   UNL     1     -11.048 -20.687  18.317  1.00  0.00    -0.000 C 
BRANCH  28  29
ATOM     29  C   UNL     1     -10.395 -21.343  17.086  1.00  0.00    -0.000 C 
BRANCH  29  30
ATOM     30  C   UNL     1     -10.981 -20.811  15.762  1.00  0.00    -0.000 C 
BRANCH  30  31
ATOM     31  C   UNL     1      -9.963 -20.793  14.608  1.00  0.00    -0.003 C 
ATOM     32  C   UNL     1      -9.026 -19.588  14.653  1.00  0.00     0.004 C 
ENDBRANCH  30  31
ENDBRANCH  29  30
ENDBRANCH  28  29
ENDBRANCH  27  28
ENDBRANCH  26  27
ENDBRANCH  25  26
ENDBRANCH  24  25
ENDBRANCH  23  24
ENDBRANCH  22  23
ENDBRANCH  21  22
ENDBRANCH  20  21
ENDBRANCH  19  20
ENDBRANCH  18  19
ENDBRANCH   1  18
TORSDOF 28
ENDMDL
MODEL 4
REMARK VINA RESULT:    -1.015      5.185     15.553
REMARK INTER + INTRA:          -4.396
REMARK INTER:                  -3.750
REMARK INTRA:                  -0.646
REMARK UNBOUND:                -1.718
REMARK SMILES CCCCCCCCCCCCCCCCCCCCCCCCCCCCCC(=O)[O-]
REMARK SMILES IDX 16 1 17 2 18 3 19 4 20 5 21 6 22 7 23 8 24 9 25 10 26 11
REMARK SMILES IDX 27 12 28 13 29 14 30 15 31 16 32 17 15 18 14 19 13 20 12 21
REMARK SMILES IDX 11 22 10 23 9 24 8 25 7 26 6 27 5 28 4 29 3 30 2 31 1 32
REMARK H PARENT
REMARK Flexibility Score: inf
ROOT
ATOM      1  C   UNL     1      -4.002 -22.111  16.252  1.00  0.00     0.000 C 
ENDROOT
BRANCH   1   2
ATOM      2  C   UNL     1      -5.288 -22.640  16.902  1.00  0.00     0.000 C 
BRANCH   2   3
ATOM      3  C   UNL     1      -6.496 -22.480  15.971  1.00  0.00     0.000 C 
BRANCH   3   4
ATOM      4  C   UNL     1      -7.806 -22.693  16.744  1.00  0.00     0.000 C 
BRANCH   4   5
ATOM      5  C   UNL     1      -8.661 -21.412  16.830  1.00  0.00     0.000 C 
BRANCH   5   6
ATOM      6  C   UNL     1     -10.149 -21.648  16.516  1.00  0.00     0.000 C 
BRANCH   6   7
ATOM      7  C   UNL     1     -10.790 -22.706  17.428  1.00  0.00     0.000 C 
BRANCH   7   8
ATOM      8  C   UNL     1     -10.985 -22.199  18.871  1.00  0.00     0.000 C 
BRANCH   8   9
ATOM      9  C   UNL     1     -10.215 -23.010  19.933  1.00  0.00     0.000 C 
BRANCH   9  10
ATOM     10  C   UNL     1      -9.408 -22.149  20.929  1.00  0.00     0.000 C 
BRANCH  10  11
ATOM     11  C   UNL     1     -10.112 -21.931  22.281  1.00  0.00     0.000 C 
BRANCH  11  12
ATOM     12  C   UNL     1     -11.105 -20.757  22.248  1.00  0.00     0.000 C 
BRANCH  12  13
ATOM     13  C   UNL     1     -10.801 -19.692  23.318  1.00  0.00     0.006 C 
BRANCH  13  14
ATOM     14  C   UNL     1      -9.894 -18.547  22.835  1.00  0.00     0.053 C 
BRANCH  14  15
ATOM     15  C   UNL     1     -10.175 -18.159  21.416  1.00  0.00     0.041 C 
ATOM     16  O   UNL     1     -10.874 -18.907  20.681  1.00  0.00    -0.550 OA
ATOM     17  O   UNL     1      -9.647 -16.983  20.899  1.00  0.00    -0.550 OA
ENDBRANCH  14  15
ENDBRANCH  13  14
ENDBRANCH  12  13
ENDBRANCH  11  12
ENDBRANCH  10  11
ENDBRANCH   9  10
ENDBRANCH   8   9
ENDBRANCH   7   8
ENDBRANCH   6   7
ENDBRANCH   5   6
ENDBRANCH   4   5
ENDBRANCH   3   4
ENDBRANCH   2   3
ENDBRANCH   1   2
BRANCH   1  18
ATOM     18  C   UNL     1      -2.839 -23.125  16.354  1.00  0.00     0.000 C 
BRANCH  18  19
ATOM     19  C   UNL     1      -1.608 -22.745  15.509  1.00  0.00     0.000 C 
BRANCH  19  20
ATOM     20  C   UNL     1      -0.259 -22.860  16.240  1.00  0.00     0.000 C 
BRANCH  20  21
ATOM     21  C   UNL     1       0.913 -22.127  15.560  1.00  0.00     0.000 C 
BRANCH  21  22
ATOM     22  C   UNL     1       1.713 -23.008  14.577  1.00  0.00     0.000 C 
BRANCH  22  23
ATOM     23  C   UNL     1       3.203 -23.084  14.945  1.00  0.00     0.000 C 
BRANCH  23  24
ATOM     24  C   UNL     1       3.520 -22.189  16.148  1.00  0.00    -0.000 C 
BRANCH  24  25
ATOM     25  C   UNL     1       5.004 -21.791  16.160  1.00  0.00    -0.000 C 
BRANCH  25  26
ATOM     26  C   UNL     1       5.661 -21.997  17.536  1.00  0.00    -0.000 C 
BRANCH  26  27
ATOM     27  C   UNL     1       7.155 -21.624  17.532  1.00  0.00    -0.000 C 
BRANCH  27  28
ATOM     28  C   UNL     1       7.691 -21.332  16.121  1.00  0.00    -0.000 C 
BRANCH  28  29
ATOM     29  C   UNL     1       8.310 -22.572  15.450  1.00  0.00    -0.000 C 
BRANCH  29  30
ATOM     30  C   UNL     1       7.495 -23.044  14.229  1.00  0.00    -0.000 C 
BRANCH  30  31
ATOM     31  C   UNL     1       7.083 -21.897  13.290  1.00  0.00    -0.003 C 
ATOM     32  C   UNL     1       6.467 -22.384  11.981  1.00  0.00     0.004 C 
ENDBRANCH  30  31
ENDBRANCH  29  30
ENDBRANCH  28  29
ENDBRANCH  27  28
ENDBRANCH  26  27
ENDBRANCH  25  26
ENDBRANCH  24  25
ENDBRANCH  23  24
ENDBRANCH  22  23
ENDBRANCH  21  22
ENDBRANCH  20  21
ENDBRANCH  19  20
ENDBRANCH  18  19
ENDBRANCH   1  18
TORSDOF 28
ENDMDL
MODEL 5
REMARK VINA RESULT:    -0.933      1.985      2.824
REMARK INTER + INTRA:          -4.179
REMARK INTER:                  -2.204
REMARK INTRA:                  -1.975
REMARK UNBOUND:                -1.718
REMARK SMILES CCCCCCCCCCCCCCCCCCCCCCCCCCCCCC(=O)[O-]
REMARK SMILES IDX 16 1 17 2 18 3 19 4 20 5 21 6 22 7 23 8 24 9 25 10 26 11
REMARK SMILES IDX 27 12 28 13 29 14 30 15 31 16 32 17 15 18 14 19 13 20 12 21
REMARK SMILES IDX 11 22 10 23 9 24 8 25 7 26 6 27 5 28 4 29 3 30 2 31 1 32
REMARK H PARENT
REMARK Flexibility Score: inf
ROOT
ATOM      1  C   UNL     1      -0.927 -21.879  16.731  1.00  0.00     0.000 C 
ENDROOT
BRANCH   1   2
ATOM      2  C   UNL     1       0.202 -22.690  16.080  1.00  0.00     0.000 C 
BRANCH   2   3
ATOM      3  C   UNL     1       1.493 -21.869  15.970  1.00  0.00     0.000 C 
BRANCH   3   4
ATOM      4  C   UNL     1       2.582 -22.671  15.243  1.00  0.00     0.000 C 
BRANCH   4   5
ATOM      5  C   UNL     1       3.863 -22.835  16.087  1.00  0.00     0.000 C 
BRANCH   5   6
ATOM      6  C   UNL     1       4.325 -21.528  16.757  1.00  0.00     0.000 C 
BRANCH   6   7
ATOM      7  C   UNL     1       5.601 -21.707  17.595  1.00  0.00     0.000 C 
BRANCH   7   8
ATOM      8  C   UNL     1       6.882 -21.617  16.743  1.00  0.00     0.000 C 
BRANCH   8   9
ATOM      9  C   UNL     1       7.297 -22.951  16.088  1.00  0.00     0.000 C 
BRANCH   9  10
ATOM     10  C   UNL     1       8.777 -23.012  15.652  1.00  0.00     0.000 C 
BRANCH  10  11
ATOM     11  C   UNL     1       9.013 -22.614  14.183  1.00  0.00     0.000 C 
BRANCH  11  12
ATOM     12  C   UNL     1       7.748 -22.759  13.320  1.00  0.00     0.000 C 
BRANCH  12  13
ATOM     13  C   UNL     1       7.637 -21.665  12.241  1.00  0.00     0.006 C 
BRANCH  13  14
ATOM     14  C   UNL     1       7.008 -22.139  10.919  1.00  0.00     0.053 C 
BRANCH  14  15
ATOM     15  C   UNL     1       7.962 -22.045   9.769  1.00  0.00     0.041 C 
ATOM     16  O   UNL     1       8.826 -21.129   9.735  1.00  0.00    -0.550 OA
ATOM     17  O   UNL     1       7.884 -22.958   8.725  1.00  0.00    -0.550 OA
ENDBRANCH  14  15
ENDBRANCH  13  14
ENDBRANCH  12  13
ENDBRANCH  11  12
ENDBRANCH  10  11
ENDBRANCH   9  10
ENDBRANCH   8   9
ENDBRANCH   7   8
ENDBRANCH   6   7
ENDBRANCH   5   6
ENDBRANCH   4   5
ENDBRANCH   3   4
ENDBRANCH   2   3
ENDBRANCH   1   2
BRANCH   1  18
ATOM     18  C   UNL     1      -2.194 -21.833  15.847  1.00  0.00     0.000 C 
BRANCH  18  19
ATOM     19  C   UNL     1      -3.051 -23.111  15.923  1.00  0.00     0.000 C 
BRANCH  19  20
ATOM     20  C   UNL     1      -4.473 -22.908  16.473  1.00  0.00     0.000 C 
BRANCH  20  21
ATOM     21  C   UNL     1      -5.254 -21.739  15.841  1.00  0.00     0.000 C 
BRANCH  21  22
ATOM     22  C   UNL     1      -6.780 -21.963  15.789  1.00  0.00     0.000 C 
BRANCH  22  23
ATOM     23  C   UNL     1      -7.558 -20.642  15.701  1.00  0.00     0.000 C 
BRANCH  23  24
ATOM     24  C   UNL     1      -8.689 -20.737  14.671  1.00  0.00    -0.000 C 
BRANCH  24  25
ATOM     25  C   UNL     1      -9.954 -20.025  15.177  1.00  0.00    -0.000 C 
BRANCH  25  26
ATOM     26  C   UNL     1     -11.124 -20.996  15.419  1.00  0.00    -0.000 C 
BRANCH  26  27
ATOM     27  C   UNL     1     -10.908 -21.871  16.667  1.00  0.00    -0.000 C 
BRANCH  27  28
ATOM     28  C   UNL     1     -10.692 -21.043  17.943  1.00  0.00    -0.000 C 
BRANCH  28  29
ATOM     29  C   UNL     1     -10.064 -21.862  19.086  1.00  0.00    -0.000 C 
BRANCH  29  30
ATOM     30  C   UNL     1      -9.131 -22.974  18.564  1.00  0.00    -0.000 C 
BRANCH  30  31
ATOM     31  C   UNL     1      -7.697 -22.876  19.111  1.00  0.00    -0.003 C 
ATOM     32  C   UNL     1      -7.627 -22.983  20.634  1.00  0.00     0.004 C 
ENDBRANCH  30  31
ENDBRANCH  29  30
ENDBRANCH  28  29
ENDBRANCH  27  28
ENDBRANCH  26  27
ENDBRANCH  25  26
ENDBRANCH  24  25
ENDBRANCH  23  24
ENDBRANCH  22  23
ENDBRANCH  21  22
ENDBRANCH  20  21
ENDBRANCH  19  20
ENDBRANCH  18  19
ENDBRANCH   1  18
TORSDOF 28
ENDMDL
MODEL 6
REMARK VINA RESULT:    -0.874      5.495     16.052
REMARK INTER + INTRA:          -4.023
REMARK INTER:                  -2.991
REMARK INTRA:                  -1.031
REMARK UNBOUND:                -1.718
REMARK SMILES CCCCCCCCCCCCCCCCCCCCCCCCCCCCCC(=O)[O-]
REMARK SMILES IDX 16 1 17 2 18 3 19 4 20 5 21 6 22 7 23 8 24 9 25 10 26 11
REMARK SMILES IDX 27 12 28 13 29 14 30 15 31 16 32 17 15 18 14 19 13 20 12 21
REMARK SMILES IDX 11 22 10 23 9 24 8 25 7 26 6 27 5 28 4 29 3 30 2 31 1 32
REMARK H PARENT
REMARK Flexibility Score: inf
ROOT
ATOM      1  C   UNL     1       1.993 -22.954  16.303  1.00  0.00     0.000 C 
ENDROOT
BRANCH   1   2
ATOM      2  C   UNL     1       0.666 -22.573  15.630  1.00  0.00     0.000 C 
BRANCH   2   3
ATOM      3  C   UNL     1      -0.321 -21.969  16.636  1.00  0.00     0.000 C 
BRANCH   3   4
ATOM      4  C   UNL     1      -1.711 -21.812  16.001  1.00  0.00     0.000 C 
BRANCH   4   5
ATOM      5  C   UNL     1      -2.521 -23.125  16.012  1.00  0.00     0.000 C 
BRANCH   5   6
ATOM      6  C   UNL     1      -3.856 -23.013  16.770  1.00  0.00     0.000 C 
BRANCH   6   7
ATOM      7  C   UNL     1      -4.791 -21.946  16.176  1.00  0.00     0.000 C 
BRANCH   7   8
ATOM      8  C   UNL     1      -6.279 -22.302  16.357  1.00  0.00     0.000 C 
BRANCH   8   9
ATOM      9  C   UNL     1      -6.651 -22.746  17.787  1.00  0.00     0.000 C 
BRANCH   9  10
ATOM     10  C   UNL     1      -8.003 -22.197  18.293  1.00  0.00     0.000 C 
BRANCH  10  11
ATOM     11  C   UNL     1      -8.903 -21.630  17.179  1.00  0.00     0.000 C 
BRANCH  11  12
ATOM     12  C   UNL     1     -10.400 -21.747  17.509  1.00  0.00     0.000 C 
BRANCH  12  13
ATOM     13  C   UNL     1     -10.817 -20.860  18.697  1.00  0.00     0.006 C 
BRANCH  13  14
ATOM     14  C   UNL     1      -9.989 -21.080  19.976  1.00  0.00     0.053 C 
BRANCH  14  15
ATOM     15  C   UNL     1     -10.341 -20.105  21.056  1.00  0.00     0.041 C 
ATOM     16  O   UNL     1     -10.474 -18.881  20.787  1.00  0.00    -0.550 OA
ATOM     17  O   UNL     1     -10.502 -20.544  22.364  1.00  0.00    -0.550 OA
ENDBRANCH  14  15
ENDBRANCH  13  14
ENDBRANCH  12  13
ENDBRANCH  11  12
ENDBRANCH  10  11
ENDBRANCH   9  10
ENDBRANCH   8   9
ENDBRANCH   7   8
ENDBRANCH   6   7
ENDBRANCH   5   6
ENDBRANCH   4   5
ENDBRANCH   3   4
ENDBRANCH   2   3
ENDBRANCH   1   2
BRANCH   1  18
ATOM     18  C   UNL     1       3.009 -21.789  16.284  1.00  0.00     0.000 C 
BRANCH  18  19
ATOM     19  C   UNL     1       4.480 -22.248  16.287  1.00  0.00     0.000 C 
BRANCH  19  20
ATOM     20  C   UNL     1       5.408 -21.447  17.216  1.00  0.00     0.000 C 
BRANCH  20  21
ATOM     21  C   UNL     1       6.616 -22.232  17.763  1.00  0.00     0.000 C 
BRANCH  21  22
ATOM     22  C   UNL     1       7.965 -21.818  17.136  1.00  0.00     0.000 C 
BRANCH  22  23
ATOM     23  C   UNL     1       7.800 -20.716  16.079  1.00  0.00     0.000 C 
BRANCH  23  24
ATOM     24  C   UNL     1       8.491 -21.103  14.767  1.00  0.00    -0.000 C 
BRANCH  24  25
ATOM     25  C   UNL     1       8.557 -22.630  14.611  1.00  0.00    -0.000 C 
BRANCH  25  26
ATOM     26  C   UNL     1       8.472 -23.080  13.142  1.00  0.00    -0.000 C 
BRANCH  26  27
ATOM     27  C   UNL     1       7.063 -22.888  12.552  1.00  0.00    -0.000 C 
BRANCH  27  28
ATOM     28  C   UNL     1       7.089 -22.493  11.067  1.00  0.00    -0.000 C 
BRANCH  28  29
ATOM     29  C   UNL     1       7.963 -21.254  10.794  1.00  0.00    -0.000 C 
BRANCH  29  30
ATOM     30  C   UNL     1       8.585 -21.279   9.383  1.00  0.00    -0.000 C 
BRANCH  30  31
ATOM     31  C   UNL     1       9.111 -22.666   8.972  1.00  0.00    -0.003 C 
ATOM     32  C   UNL     1       8.671 -23.083   7.570  1.00  0.00     0.004 C 
ENDBRANCH  30  31
ENDBRANCH  29  30
ENDBRANCH  28  29
ENDBRANCH  27  28
ENDBRANCH  26  27
ENDBRANCH  25  26
ENDBRANCH  24  25
ENDBRANCH  23  24
ENDBRANCH  22  23
ENDBRANCH  21  22
ENDBRANCH  20  21
ENDBRANCH  19  20
ENDBRANCH  18  19
ENDBRANCH   1  18
TORSDOF 28
ENDMDL
MODEL 7
REMARK VINA RESULT:    -0.783      5.318     15.946
REMARK INTER + INTRA:          -3.783
REMARK INTER:                  -2.672
REMARK INTRA:                  -1.110
REMARK UNBOUND:                -1.718
REMARK SMILES CCCCCCCCCCCCCCCCCCCCCCCCCCCCCC(=O)[O-]
REMARK SMILES IDX 16 1 17 2 18 3 19 4 20 5 21 6 22 7 23 8 24 9 25 10 26 11
REMARK SMILES IDX 27 12 28 13 29 14 30 15 31 16 32 17 15 18 14 19 13 20 12 21
REMARK SMILES IDX 11 22 10 23 9 24 8 25 7 26 6 27 5 28 4 29 3 30 2 31 1 32
REMARK H PARENT
REMARK Flexibility Score: inf
ROOT
ATOM      1  C   UNL     1      -0.567 -22.124  15.610  1.00  0.00     0.000 C 
ENDROOT
BRANCH   1   2
ATOM      2  C   UNL     1      -1.678 -22.825  16.405  1.00  0.00     0.000 C 
BRANCH   2   3
ATOM      3  C   UNL     1      -2.985 -22.022  16.372  1.00  0.00     0.000 C 
BRANCH   3   4
ATOM      4  C   UNL     1      -4.151 -22.907  15.908  1.00  0.00     0.000 C 
BRANCH   4   5
ATOM      5  C   UNL     1      -5.529 -22.306  16.256  1.00  0.00     0.000 C 
BRANCH   5   6
ATOM      6  C   UNL     1      -5.963 -22.573  17.708  1.00  0.00     0.000 C 
BRANCH   6   7
ATOM      7  C   UNL     1      -7.449 -22.950  17.826  1.00  0.00     0.000 C 
BRANCH   7   8
ATOM      8  C   UNL     1      -7.993 -22.755  19.255  1.00  0.00     0.000 C 
BRANCH   8   9
ATOM      9  C   UNL     1      -9.507 -22.461  19.318  1.00  0.00     0.000 C 
BRANCH   9  10
ATOM     10  C   UNL     1      -9.884 -20.997  19.007  1.00  0.00     0.000 C 
BRANCH  10  11
ATOM     11  C   UNL     1     -10.354 -20.198  20.237  1.00  0.00     0.000 C 
BRANCH  11  12
ATOM     12  C   UNL     1     -11.122 -21.066  21.248  1.00  0.00     0.000 C 
BRANCH  12  13
ATOM     13  C   UNL     1     -10.895 -20.622  22.705  1.00  0.00     0.006 C 
BRANCH  13  14
ATOM     14  C   UNL     1      -9.466 -20.859  23.225  1.00  0.00     0.053 C 
BRANCH  14  15
ATOM     15  C   UNL     1      -9.164 -22.313  23.414  1.00  0.00     0.041 C 
ATOM     16  O   UNL     1      -9.724 -22.963  24.338  1.00  0.00    -0.550 OA
ATOM     17  O   UNL     1      -8.247 -22.947  22.585  1.00  0.00    -0.550 OA
ENDBRANCH  14  15
ENDBRANCH  13  14
ENDBRANCH  12  13
ENDBRANCH  11  12
ENDBRANCH  10  11
ENDBRANCH   9  10
ENDBRANCH   8   9
ENDBRANCH   7   8
ENDBRANCH   6   7
ENDBRANCH   5   6
ENDBRANCH   4   5
ENDBRANCH   3   4
ENDBRANCH   2   3
ENDBRANCH   1   2
BRANCH   1  18
ATOM     18  C   UNL     1       0.605 -21.683  16.515  1.00  0.00     0.000 C 
BRANCH  18  19
ATOM     19  C   UNL     1       1.950 -22.344  16.156  1.00  0.00     0.000 C 
BRANCH  19  20
ATOM     20  C   UNL     1       2.461 -22.048  14.736  1.00  0.00     0.000 C 
BRANCH  20  21
ATOM     21  C   UNL     1       3.390 -23.124  14.142  1.00  0.00     0.000 C 
BRANCH  21  22
ATOM     22  C   UNL     1       4.811 -23.123  14.744  1.00  0.00     0.000 C 
BRANCH  22  23
ATOM     23  C   UNL     1       4.876 -22.364  16.078  1.00  0.00     0.000 C 
BRANCH  23  24
ATOM     24  C   UNL     1       6.219 -21.644  16.237  1.00  0.00    -0.000 C 
BRANCH  24  25
ATOM     25  C   UNL     1       7.229 -22.524  16.990  1.00  0.00    -0.000 C 
BRANCH  25  26
ATOM     26  C   UNL     1       8.678 -22.294  16.525  1.00  0.00    -0.000 C 
BRANCH  26  27
ATOM     27  C   UNL     1       8.977 -22.985  15.183  1.00  0.00    -0.000 C 
BRANCH  27  28
ATOM     28  C   UNL     1       8.699 -22.080  13.973  1.00  0.00    -0.000 C 
BRANCH  28  29
ATOM     29  C   UNL     1       7.944 -22.807  12.844  1.00  0.00    -0.000 C 
BRANCH  29  30
ATOM     30  C   UNL     1       8.727 -22.791  11.516  1.00  0.00    -0.000 C 
BRANCH  30  31
ATOM     31  C   UNL     1       7.961 -22.117  10.364  1.00  0.00    -0.003 C 
ATOM     32  C   UNL     1       6.759 -22.928   9.886  1.00  0.00     0.004 C 
ENDBRANCH  30  31
ENDBRANCH  29  30
ENDBRANCH  28  29
ENDBRANCH  27  28
ENDBRANCH  26  27
ENDBRANCH  25  26
ENDBRANCH  24  25
ENDBRANCH  23  24
ENDBRANCH  22  23
ENDBRANCH  21  22
ENDBRANCH  20  21
ENDBRANCH  19  20
ENDBRANCH  18  19
ENDBRANCH   1  18
TORSDOF 28
ENDMDL
MODEL 8
REMARK VINA RESULT:     1.268      1.562      2.329
REMARK INTER + INTRA:           1.626
REMARK INTER:                   2.999
REMARK INTRA:                  -1.373
REMARK UNBOUND:                -1.718
REMARK SMILES CCCCCCCCCCCCCCCCCCCCCCCCCCCCCC(=O)[O-]
REMARK SMILES IDX 16 1 17 2 18 3 19 4 20 5 21 6 22 7 23 8 24 9 25 10 26 11
REMARK SMILES IDX 27 12 28 13 29 14 30 15 31 16 32 17 15 18 14 19 13 20 12 21
REMARK SMILES IDX 11 22 10 23 9 24 8 25 7 26 6 27 5 28 4 29 3 30 2 31 1 32
REMARK H PARENT
REMARK Flexibility Score: inf
ROOT
ATOM      1  C   UNL     1      -1.564 -21.912  16.074  1.00  0.00     0.000 C 
ENDROOT
BRANCH   1   2
ATOM      2  C   UNL     1      -0.271 -22.672  15.744  1.00  0.00     0.000 C 
BRANCH   2   3
ATOM      3  C   UNL     1       0.969 -21.803  15.983  1.00  0.00     0.000 C 
BRANCH   3   4
ATOM      4  C   UNL     1       2.249 -22.645  15.868  1.00  0.00     0.000 C 
BRANCH   4   5
ATOM      5  C   UNL     1       2.610 -22.980  14.406  1.00  0.00     0.000 C 
BRANCH   5   6
ATOM      6  C   UNL     1       4.024 -22.524  14.006  1.00  0.00     0.000 C 
BRANCH   6   7
ATOM      7  C   UNL     1       5.115 -23.080  14.937  1.00  0.00     0.000 C 
BRANCH   7   8
ATOM      8  C   UNL     1       5.360 -22.176  16.161  1.00  0.00     0.000 C 
BRANCH   8   9
ATOM      9  C   UNL     1       6.842 -22.067  16.577  1.00  0.00     0.000 C 
BRANCH   9  10
ATOM     10  C   UNL     1       7.674 -21.090  15.718  1.00  0.00     0.000 C 
BRANCH  10  11
ATOM     11  C   UNL     1       8.933 -21.722  15.097  1.00  0.00     0.000 C 
BRANCH  11  12
ATOM     12  C   UNL     1       8.671 -23.125  14.524  1.00  0.00     0.000 C 
BRANCH  12  13
ATOM     13  C   UNL     1       8.540 -23.125  12.989  1.00  0.00     0.006 C 
BRANCH  13  14
ATOM     14  C   UNL     1       7.594 -22.047  12.433  1.00  0.00     0.053 C 
BRANCH  14  15
ATOM     15  C   UNL     1       7.389 -22.178  10.955  1.00  0.00     0.041 C 
ATOM     16  O   UNL     1       8.214 -21.664  10.153  1.00  0.00    -0.550 OA
ATOM     17  O   UNL     1       6.276 -22.849  10.464  1.00  0.00    -0.550 OA
ENDBRANCH  14  15
ENDBRANCH  13  14
ENDBRANCH  12  13
ENDBRANCH  11  12
ENDBRANCH  10  11
ENDBRANCH   9  10
ENDBRANCH   8   9
ENDBRANCH   7   8
ENDBRANCH   6   7
ENDBRANCH   5   6
ENDBRANCH   4   5
ENDBRANCH   3   4
ENDBRANCH   2   3
ENDBRANCH   1   2
BRANCH   1  18
ATOM     18  C   UNL     1      -2.690 -22.858  16.550  1.00  0.00     0.000 C 
BRANCH  18  19
ATOM     19  C   UNL     1      -4.096 -22.434  16.083  1.00  0.00     0.000 C 
BRANCH  19  20
ATOM     20  C   UNL     1      -5.246 -22.879  17.002  1.00  0.00     0.000 C 
BRANCH  20  21
ATOM     21  C   UNL     1      -6.572 -22.121  16.797  1.00  0.00     0.000 C 
BRANCH  21  22
ATOM     22  C   UNL     1      -7.707 -22.584  17.736  1.00  0.00     0.000 C 
BRANCH  22  23
ATOM     23  C   UNL     1      -9.026 -21.847  17.460  1.00  0.00     0.000 C 
BRANCH  23  24
ATOM     24  C   UNL     1      -9.802 -21.602  18.759  1.00  0.00    -0.000 C 
BRANCH  24  25
ATOM     25  C   UNL     1      -9.896 -22.889  19.593  1.00  0.00    -0.000 C 
BRANCH  25  26
ATOM     26  C   UNL     1      -9.065 -22.819  20.886  1.00  0.00    -0.000 C 
BRANCH  26  27
ATOM     27  C   UNL     1      -9.947 -22.821  22.148  1.00  0.00    -0.000 C 
BRANCH  27  28
ATOM     28  C   UNL     1     -10.067 -21.431  22.792  1.00  0.00    -0.000 C 
BRANCH  28  29
ATOM     29  C   UNL     1     -10.675 -20.383  21.841  1.00  0.00    -0.000 C 
BRANCH  29  30
ATOM     30  C   UNL     1      -9.988 -19.009  21.970  1.00  0.00    -0.000 C 
BRANCH  30  31
ATOM     31  C   UNL     1      -9.788 -18.297  20.621  1.00  0.00    -0.003 C 
ATOM     32  C   UNL     1     -11.090 -18.092  19.851  1.00  0.00     0.004 C 
ENDBRANCH  30  31
ENDBRANCH  29  30
ENDBRANCH  28  29
ENDBRANCH  27  28
ENDBRANCH  26  27
ENDBRANCH  25  26
ENDBRANCH  24  25
ENDBRANCH  23  24
ENDBRANCH  22  23
ENDBRANCH  21  22
ENDBRANCH  20  21
ENDBRANCH  19  20
ENDBRANCH  18  19
ENDBRANCH   1  18
TORSDOF 28
ENDMDL
