MODEL 1
REMARK VINA RESULT:    -5.618      0.000      0.000
REMARK INTER + INTRA:         -10.869
REMARK INTER:                 -10.216
REMARK INTRA:                  -0.653
REMARK UNBOUND:                -0.653
REMARK SMILES CCCCCCCCCCCCCCCC(=O)[O-]
REMARK SMILES IDX 9 1 10 2 11 3 12 4 13 5 14 6 15 7 16 8 17 9 18 10 8 11 7 12
REMARK SMILES IDX 6 13 5 14 4 15 3 16 2 17 1 18
REMARK H PARENT
REMARK Flexibility Score: inf
ROOT
ATOM      1  C   UNL     1      41.276  65.918  23.495  1.00  0.00     0.000 C 
ENDROOT
BRANCH   1   2
ATOM      2  C   UNL     1      41.358  65.180  24.843  1.00  0.00     0.000 C 
BRANCH   2   3
ATOM      3  C   UNL     1      41.869  63.732  24.686  1.00  0.00     0.000 C 
BRANCH   3   4
ATOM      4  C   UNL     1      42.305  63.087  26.012  1.00  0.00     0.000 C 
BRANCH   4   5
ATOM      5  C   UNL     1      43.109  61.791  25.810  1.00  0.00     0.000 C 
BRANCH   5   6
ATOM      6  C   UNL     1      44.511  61.862  26.435  1.00  0.00     0.006 C 
BRANCH   6   7
ATOM      7  C   UNL     1      45.602  62.170  25.402  1.00  0.00     0.053 C 
BRANCH   7   8
ATOM      8  C   UNL     1      46.692  62.986  26.022  1.00  0.00     0.041 C 
ATOM      9  O   UNL     1      47.647  63.405  25.319  1.00  0.00    -0.550 OA
ATOM     10  O   UNL     1      46.627  63.326  27.367  1.00  0.00    -0.550 OA
ENDBRANCH   7   8
ENDBRANCH   6   7
ENDBRANCH   5   6
ENDBRANCH   4   5
ENDBRANCH   3   4
ENDBRANCH   2   3
ENDBRANCH   1   2
BRANCH   1  11
ATOM     11  C   UNL     1      39.970  66.710  23.328  1.00  0.00     0.000 C 
BRANCH  11  12
ATOM     12  C   UNL     1      39.298  67.034  24.673  1.00  0.00    -0.000 C 
BRANCH  12  13
ATOM     13  C   UNL     1      37.773  67.176  24.552  1.00  0.00    -0.000 C 
BRANCH  13  14
ATOM     14  C   UNL     1      37.094  67.473  25.900  1.00  0.00    -0.000 C 
BRANCH  14  15
ATOM     15  C   UNL     1      35.586  67.733  25.756  1.00  0.00    -0.000 C 
BRANCH  15  16
ATOM     16  C   UNL     1      34.736  66.756  26.587  1.00  0.00    -0.000 C 
BRANCH  16  17
ATOM     17  C   UNL     1      34.742  65.333  26.008  1.00  0.00    -0.003 C 
ATOM     18  C   UNL     1      34.884  64.257  27.084  1.00  0.00     0.004 C 
ENDBRANCH  16  17
ENDBRANCH  15  16
ENDBRANCH  14  15
ENDBRANCH  13  14
ENDBRANCH  12  13
ENDBRANCH  11  12
ENDBRANCH   1  11
TORSDOF 14
ENDMDL
MODEL 2
REMARK VINA RESULT:    -5.561      5.444      6.994
REMARK INTER + INTRA:         -10.766
REMARK INTER:                 -10.135
REMARK INTRA:                  -0.631
REMARK UNBOUND:                -0.653
REMARK SMILES CCCCCCCCCCCCCCCC(=O)[O-]
REMARK SMILES IDX 9 1 10 2 11 3 12 4 13 5 14 6 15 7 16 8 17 9 18 10 8 11 7 12
REMARK SMILES IDX 6 13 5 14 4 15 3 16 2 17 1 18
REMARK H PARENT
REMARK Flexibility Score: inf
ROOT
ATOM      1  C   UNL     1      41.301  67.177  23.386  1.00  0.00     0.000 C 
ENDROOT
BRANCH   1   2
ATOM      2  C   UNL     1      42.009  67.932  24.525  1.00  0.00     0.000 C 
BRANCH   2   3
ATOM      3  C   UNL     1      42.934  69.050  23.998  1.00  0.00     0.000 C 
BRANCH   3   4
ATOM      4  C   UNL     1      43.508  69.947  25.108  1.00  0.00     0.000 C 
BRANCH   4   5
ATOM      5  C   UNL     1      44.186  71.214  24.560  1.00  0.00     0.000 C 
BRANCH   5   6
ATOM      6  C   UNL     1      43.579  72.504  25.135  1.00  0.00     0.006 C 
BRANCH   6   7
ATOM      7  C   UNL     1      42.640  73.205  24.145  1.00  0.00     0.053 C 
BRANCH   7   8
ATOM      8  C   UNL     1      41.450  73.761  24.861  1.00  0.00     0.041 C 
ATOM      9  O   UNL     1      40.466  74.196  24.209  1.00  0.00    -0.550 OA
ATOM     10  O   UNL     1      41.406  73.753  26.250  1.00  0.00    -0.550 OA
ENDBRANCH   7   8
ENDBRANCH   6   7
ENDBRANCH   5   6
ENDBRANCH   4   5
ENDBRANCH   3   4
ENDBRANCH   2   3
ENDBRANCH   1   2
BRANCH   1  11
ATOM     11  C   UNL     1      40.078  66.382  23.868  1.00  0.00     0.000 C 
BRANCH  11  12
ATOM     12  C   UNL     1      39.304  67.105  24.984  1.00  0.00    -0.000 C 
BRANCH  12  13
ATOM     13  C   UNL     1      37.810  67.264  24.657  1.00  0.00    -0.000 C 
BRANCH  13  14
ATOM     14  C   UNL     1      36.954  67.528  25.908  1.00  0.00    -0.000 C 
BRANCH  14  15
ATOM     15  C   UNL     1      35.447  67.466  25.613  1.00  0.00    -0.000 C 
BRANCH  15  16
ATOM     16  C   UNL     1      34.696  66.525  26.572  1.00  0.00    -0.000 C 
BRANCH  16  17
ATOM     17  C   UNL     1      34.647  65.078  26.056  1.00  0.00    -0.003 C 
ATOM     18  C   UNL     1      34.967  64.052  27.143  1.00  0.00     0.004 C 
ENDBRANCH  16  17
ENDBRANCH  15  16
ENDBRANCH  14  15
ENDBRANCH  13  14
ENDBRANCH  12  13
ENDBRANCH  11  12
ENDBRANCH   1  11
TORSDOF 14
ENDMDL
MODEL 3
REMARK VINA RESULT:    -5.560      0.931      1.715
REMARK INTER + INTRA:         -10.764
REMARK INTER:                  -9.907
REMARK INTRA:                  -0.857
REMARK UNBOUND:                -0.653
REMARK SMILES CCCCCCCCCCCCCCCC(=O)[O-]
REMARK SMILES IDX 9 1 10 2 11 3 12 4 13 5 14 6 15 7 16 8 17 9 18 10 8 11 7 12
REMARK SMILES IDX 6 13 5 14 4 15 3 16 2 17 1 18
REMARK H PARENT
REMARK Flexibility Score: inf
ROOT
ATOM      1  C   UNL     1      40.121  66.964  25.521  1.00  0.00     0.000 C 
ENDROOT
BRANCH   1   2
ATOM      2  C   UNL     1      41.328  66.012  25.568  1.00  0.00     0.000 C 
BRANCH   2   3
ATOM      3  C   UNL     1      41.577  65.317  24.213  1.00  0.00     0.000 C 
BRANCH   3   4
ATOM      4  C   UNL     1      41.788  63.798  24.331  1.00  0.00     0.000 C 
BRANCH   4   5
ATOM      5  C   UNL     1      42.268  63.369  25.729  1.00  0.00     0.000 C 
BRANCH   5   6
ATOM      6  C   UNL     1      42.857  61.949  25.741  1.00  0.00     0.006 C 
BRANCH   6   7
ATOM      7  C   UNL     1      44.062  61.820  26.681  1.00  0.00     0.053 C 
BRANCH   7   8
ATOM      8  C   UNL     1      45.332  62.099  25.942  1.00  0.00     0.041 C 
ATOM      9  O   UNL     1      45.544  61.564  24.823  1.00  0.00    -0.550 OA
ATOM     10  O   UNL     1      46.261  62.990  26.465  1.00  0.00    -0.550 OA
ENDBRANCH   7   8
ENDBRANCH   6   7
ENDBRANCH   5   6
ENDBRANCH   4   5
ENDBRANCH   3   4
ENDBRANCH   2   3
ENDBRANCH   1   2
BRANCH   1  11
ATOM     11  C   UNL     1      39.287  66.806  24.239  1.00  0.00     0.000 C 
BRANCH  11  12
ATOM     12  C   UNL     1      37.897  67.455  24.353  1.00  0.00    -0.000 C 
BRANCH  12  13
ATOM     13  C   UNL     1      37.242  67.209  25.722  1.00  0.00    -0.000 C 
BRANCH  13  14
ATOM     14  C   UNL     1      35.719  67.419  25.697  1.00  0.00    -0.000 C 
BRANCH  14  15
ATOM     15  C   UNL     1      34.970  66.403  26.574  1.00  0.00    -0.000 C 
BRANCH  15  16
ATOM     16  C   UNL     1      34.481  65.181  25.775  1.00  0.00    -0.000 C 
BRANCH  16  17
ATOM     17  C   UNL     1      34.858  63.852  26.446  1.00  0.00    -0.003 C 
ATOM     18  C   UNL     1      34.950  63.962  27.968  1.00  0.00     0.004 C 
ENDBRANCH  16  17
ENDBRANCH  15  16
ENDBRANCH  14  15
ENDBRANCH  13  14
ENDBRANCH  12  13
ENDBRANCH  11  12
ENDBRANCH   1  11
TORSDOF 14
ENDMDL
MODEL 4
REMARK VINA RESULT:    -5.542      4.118      9.133
REMARK INTER + INTRA:         -10.731
REMARK INTER:                  -9.922
REMARK INTRA:                  -0.809
REMARK UNBOUND:                -0.653
REMARK SMILES CCCCCCCCCCCCCCCC(=O)[O-]
REMARK SMILES IDX 9 1 10 2 11 3 12 4 13 5 14 6 15 7 16 8 17 9 18 10 8 11 7 12
REMARK SMILES IDX 6 13 5 14 4 15 3 16 2 17 1 18
REMARK H PARENT
REMARK Flexibility Score: inf
ROOT
ATOM      1  C   UNL     1      41.350  66.170  25.423  1.00  0.00     0.000 C 
ENDROOT
BRANCH   1   2
ATOM      2  C   UNL     1      40.148  67.131  25.396  1.00  0.00     0.000 C 
BRANCH   2   3
ATOM      3  C   UNL     1      39.126  66.756  24.303  1.00  0.00     0.000 C 
BRANCH   3   4
ATOM      4  C   UNL     1      37.804  67.537  24.402  1.00  0.00     0.000 C 
BRANCH   4   5
ATOM      5  C   UNL     1      37.083  67.321  25.744  1.00  0.00     0.000 C 
BRANCH   5   6
ATOM      6  C   UNL     1      35.567  67.551  25.642  1.00  0.00     0.006 C 
BRANCH   6   7
ATOM      7  C   UNL     1      34.785  66.819  26.741  1.00  0.00     0.053 C 
BRANCH   7   8
ATOM      8  C   UNL     1      34.706  65.357  26.437  1.00  0.00     0.041 C 
ATOM      9  O   UNL     1      34.330  64.966  25.301  1.00  0.00    -0.550 OA
ATOM     10  O   UNL     1      35.094  64.425  27.391  1.00  0.00    -0.550 OA
ENDBRANCH   7   8
ENDBRANCH   6   7
ENDBRANCH   5   6
ENDBRANCH   4   5
ENDBRANCH   3   4
ENDBRANCH   2   3
ENDBRANCH   1   2
BRANCH   1  11
ATOM     11  C   UNL     1      41.507  65.377  24.117  1.00  0.00     0.000 C 
BRANCH  11  12
ATOM     12  C   UNL     1      41.793  63.885  24.362  1.00  0.00    -0.000 C 
BRANCH  12  13
ATOM     13  C   UNL     1      42.185  63.591  25.818  1.00  0.00    -0.000 C 
BRANCH  13  14
ATOM     14  C   UNL     1      42.631  62.134  26.031  1.00  0.00    -0.000 C 
BRANCH  14  15
ATOM     15  C   UNL     1      44.035  61.860  25.471  1.00  0.00    -0.000 C 
BRANCH  15  16
ATOM     16  C   UNL     1      45.152  62.298  26.436  1.00  0.00    -0.000 C 
BRANCH  16  17
ATOM     17  C   UNL     1      46.410  62.782  25.699  1.00  0.00    -0.003 C 
ATOM     18  C   UNL     1      47.404  63.483  26.624  1.00  0.00     0.004 C 
ENDBRANCH  16  17
ENDBRANCH  15  16
ENDBRANCH  14  15
ENDBRANCH  13  14
ENDBRANCH  12  13
ENDBRANCH  11  12
ENDBRANCH   1  11
TORSDOF 14
ENDMDL
MODEL 5
REMARK VINA RESULT:    -5.502      5.395      8.862
REMARK INTER + INTRA:         -10.658
REMARK INTER:                  -9.885
REMARK INTRA:                  -0.773
REMARK UNBOUND:                -0.653
REMARK SMILES CCCCCCCCCCCCCCCC(=O)[O-]
REMARK SMILES IDX 9 1 10 2 11 3 12 4 13 5 14 6 15 7 16 8 17 9 18 10 8 11 7 12
REMARK SMILES IDX 6 13 5 14 4 15 3 16 2 17 1 18
REMARK H PARENT
REMARK Flexibility Score: inf
ROOT
ATOM      1  C   UNL     1      41.486  67.523  25.341  1.00  0.00     0.000 C 
ENDROOT
BRANCH   1   2
ATOM      2  C   UNL     1      41.716  67.983  23.891  1.00  0.00     0.000 C 
BRANCH   2   3
ATOM      3  C   UNL     1      42.990  68.843  23.748  1.00  0.00     0.000 C 
BRANCH   3   4
ATOM      4  C   UNL     1      43.233  69.784  24.940  1.00  0.00     0.000 C 
BRANCH   4   5
ATOM      5  C   UNL     1      44.100  71.001  24.573  1.00  0.00     0.000 C 
BRANCH   5   6
ATOM      6  C   UNL     1      43.573  72.308  25.188  1.00  0.00     0.006 C 
BRANCH   6   7
ATOM      7  C   UNL     1      42.715  73.116  24.206  1.00  0.00     0.053 C 
BRANCH   7   8
ATOM      8  C   UNL     1      41.536  73.709  24.911  1.00  0.00     0.041 C 
ATOM      9  O   UNL     1      40.574  74.179  24.249  1.00  0.00    -0.550 OA
ATOM     10  O   UNL     1      41.476  73.698  26.298  1.00  0.00    -0.550 OA
ENDBRANCH   7   8
ENDBRANCH   6   7
ENDBRANCH   5   6
ENDBRANCH   4   5
ENDBRANCH   3   4
ENDBRANCH   2   3
ENDBRANCH   1   2
BRANCH   1  11
ATOM     11  C   UNL     1      41.223  66.013  25.453  1.00  0.00     0.000 C 
BRANCH  11  12
ATOM     12  C   UNL     1      41.589  65.253  24.166  1.00  0.00    -0.000 C 
BRANCH  12  13
ATOM     13  C   UNL     1      41.704  63.737  24.391  1.00  0.00    -0.000 C 
BRANCH  13  14
ATOM     14  C   UNL     1      42.334  63.383  25.749  1.00  0.00    -0.000 C 
BRANCH  14  15
ATOM     15  C   UNL     1      42.896  61.953  25.782  1.00  0.00    -0.000 C 
BRANCH  15  16
ATOM     16  C   UNL     1      44.245  61.867  26.519  1.00  0.00    -0.000 C 
BRANCH  16  17
ATOM     17  C   UNL     1      45.433  62.230  25.616  1.00  0.00    -0.003 C 
ATOM     18  C   UNL     1      46.531  62.990  26.360  1.00  0.00     0.004 C 
ENDBRANCH  16  17
ENDBRANCH  15  16
ENDBRANCH  14  15
ENDBRANCH  13  14
ENDBRANCH  12  13
ENDBRANCH  11  12
ENDBRANCH   1  11
TORSDOF 14
ENDMDL
MODEL 6
REMARK VINA RESULT:    -5.462      5.796      8.937
REMARK INTER + INTRA:         -10.586
REMARK INTER:                  -9.881
REMARK INTRA:                  -0.705
REMARK UNBOUND:                -0.653
REMARK SMILES CCCCCCCCCCCCCCCC(=O)[O-]
REMARK SMILES IDX 9 1 10 2 11 3 12 4 13 5 14 6 15 7 16 8 17 9 18 10 8 11 7 12
REMARK SMILES IDX 6 13 5 14 4 15 3 16 2 17 1 18
REMARK H PARENT
REMARK Flexibility Score: inf
ROOT
ATOM      1  C   UNL     1      41.605  67.435  23.095  1.00  0.00     0.000 C 
ENDROOT
BRANCH   1   2
ATOM      2  C   UNL     1      40.590  66.346  23.485  1.00  0.00     0.000 C 
BRANCH   2   3
ATOM      3  C   UNL     1      39.769  66.732  24.733  1.00  0.00     0.000 C 
BRANCH   3   4
ATOM      4  C   UNL     1      38.303  67.077  24.422  1.00  0.00     0.000 C 
BRANCH   4   5
ATOM      5  C   UNL     1      37.474  67.357  25.688  1.00  0.00     0.000 C 
BRANCH   5   6
ATOM      6  C   UNL     1      36.019  67.736  25.369  1.00  0.00     0.006 C 
BRANCH   6   7
ATOM      7  C   UNL     1      35.035  67.247  26.439  1.00  0.00     0.053 C 
BRANCH   7   8
ATOM      8  C   UNL     1      34.680  65.813  26.204  1.00  0.00     0.041 C 
ATOM      9  O   UNL     1      35.042  64.929  27.023  1.00  0.00    -0.550 OA
ATOM     10  O   UNL     1      33.906  65.458  25.107  1.00  0.00    -0.550 OA
ENDBRANCH   7   8
ENDBRANCH   6   7
ENDBRANCH   5   6
ENDBRANCH   4   5
ENDBRANCH   3   4
ENDBRANCH   2   3
ENDBRANCH   1   2
BRANCH   1  11
ATOM     11  C   UNL     1      42.088  68.257  24.301  1.00  0.00     0.000 C 
BRANCH  11  12
ATOM     12  C   UNL     1      43.187  69.266  23.926  1.00  0.00    -0.000 C 
BRANCH  12  13
ATOM     13  C   UNL     1      43.576  70.177  25.101  1.00  0.00    -0.000 C 
BRANCH  13  14
ATOM     14  C   UNL     1      44.237  71.488  24.643  1.00  0.00    -0.000 C 
BRANCH  14  15
ATOM     15  C   UNL     1      43.455  72.731  25.097  1.00  0.00    -0.000 C 
BRANCH  15  16
ATOM     16  C   UNL     1      42.449  73.215  24.037  1.00  0.00    -0.000 C 
BRANCH  16  17
ATOM     17  C   UNL     1      41.223  73.899  24.659  1.00  0.00    -0.003 C 
ATOM     18  C   UNL     1      41.252  73.889  26.188  1.00  0.00     0.004 C 
ENDBRANCH  16  17
ENDBRANCH  15  16
ENDBRANCH  14  15
ENDBRANCH  13  14
ENDBRANCH  12  13
ENDBRANCH  11  12
ENDBRANCH   1  11
TORSDOF 14
ENDMDL
MODEL 7
REMARK VINA RESULT:    -5.279      3.621      5.610
REMARK INTER + INTRA:         -10.253
REMARK INTER:                  -9.601
REMARK INTRA:                  -0.652
REMARK UNBOUND:                -0.653
REMARK SMILES CCCCCCCCCCCCCCCC(=O)[O-]
REMARK SMILES IDX 9 1 10 2 11 3 12 4 13 5 14 6 15 7 16 8 17 9 18 10 8 11 7 12
REMARK SMILES IDX 6 13 5 14 4 15 3 16 2 17 1 18
REMARK H PARENT
REMARK Flexibility Score: inf
ROOT
ATOM      1  C   UNL     1      40.805  66.068  23.479  1.00  0.00     0.000 C 
ENDROOT
BRANCH   1   2
ATOM      2  C   UNL     1      41.374  65.483  24.784  1.00  0.00     0.000 C 
BRANCH   2   3
ATOM      3  C   UNL     1      42.036  64.106  24.565  1.00  0.00     0.000 C 
BRANCH   3   4
ATOM      4  C   UNL     1      42.094  63.243  25.838  1.00  0.00     0.000 C 
BRANCH   4   5
ATOM      5  C   UNL     1      42.907  61.952  25.647  1.00  0.00     0.000 C 
BRANCH   5   6
ATOM      6  C   UNL     1      44.271  62.003  26.353  1.00  0.00     0.006 C 
BRANCH   6   7
ATOM      7  C   UNL     1      45.444  62.058  25.366  1.00  0.00     0.053 C 
BRANCH   7   8
ATOM      8  C   UNL     1      46.524  62.953  25.889  1.00  0.00     0.041 C 
ATOM      9  O   UNL     1      46.551  63.265  27.108  1.00  0.00    -0.550 OA
ATOM     10  O   UNL     1      47.528  63.401  25.041  1.00  0.00    -0.550 OA
ENDBRANCH   7   8
ENDBRANCH   6   7
ENDBRANCH   5   6
ENDBRANCH   4   5
ENDBRANCH   3   4
ENDBRANCH   2   3
ENDBRANCH   1   2
BRANCH   1  11
ATOM     11  C   UNL     1      41.302  67.495  23.200  1.00  0.00     0.000 C 
BRANCH  11  12
ATOM     12  C   UNL     1      42.084  68.091  24.382  1.00  0.00    -0.000 C 
BRANCH  12  13
ATOM     13  C   UNL     1      43.101  69.156  23.940  1.00  0.00    -0.000 C 
BRANCH  13  14
ATOM     14  C   UNL     1      43.556  70.060  25.099  1.00  0.00    -0.000 C 
BRANCH  14  15
ATOM     15  C   UNL     1      44.193  71.370  24.608  1.00  0.00    -0.000 C 
BRANCH  15  16
ATOM     16  C   UNL     1      43.544  72.615  25.239  1.00  0.00    -0.000 C 
BRANCH  16  17
ATOM     17  C   UNL     1      42.329  73.112  24.441  1.00  0.00    -0.003 C 
ATOM     18  C   UNL     1      41.363  73.940  25.290  1.00  0.00     0.004 C 
ENDBRANCH  16  17
ENDBRANCH  15  16
ENDBRANCH  14  15
ENDBRANCH  13  14
ENDBRANCH  12  13
ENDBRANCH  11  12
ENDBRANCH   1  11
TORSDOF 14
ENDMDL
MODEL 8
REMARK VINA RESULT:    -5.230      5.360      8.887
REMARK INTER + INTRA:         -10.163
REMARK INTER:                  -9.374
REMARK INTRA:                  -0.789
REMARK UNBOUND:                -0.653
REMARK SMILES CCCCCCCCCCCCCCCC(=O)[O-]
REMARK SMILES IDX 9 1 10 2 11 3 12 4 13 5 14 6 15 7 16 8 17 9 18 10 8 11 7 12
REMARK SMILES IDX 6 13 5 14 4 15 3 16 2 17 1 18
REMARK H PARENT
REMARK Flexibility Score: inf
ROOT
ATOM      1  C   UNL     1      40.233  66.989  25.531  1.00  0.00     0.000 C 
ENDROOT
BRANCH   1   2
ATOM      2  C   UNL     1      39.456  66.764  24.222  1.00  0.00     0.000 C 
BRANCH   2   3
ATOM      3  C   UNL     1      38.035  67.363  24.278  1.00  0.00     0.000 C 
BRANCH   3   4
ATOM      4  C   UNL     1      37.380  67.263  25.667  1.00  0.00     0.000 C 
BRANCH   4   5
ATOM      5  C   UNL     1      35.914  67.729  25.670  1.00  0.00     0.000 C 
BRANCH   5   6
ATOM      6  C   UNL     1      35.023  66.868  26.580  1.00  0.00     0.006 C 
BRANCH   6   7
ATOM      7  C   UNL     1      34.573  65.567  25.902  1.00  0.00     0.053 C 
BRANCH   7   8
ATOM      8  C   UNL     1      34.861  64.394  26.784  1.00  0.00     0.041 C 
ATOM      9  O   UNL     1      35.068  64.562  28.014  1.00  0.00    -0.550 OA
ATOM     10  O   UNL     1      34.851  63.109  26.258  1.00  0.00    -0.550 OA
ENDBRANCH   7   8
ENDBRANCH   6   7
ENDBRANCH   5   6
ENDBRANCH   4   5
ENDBRANCH   3   4
ENDBRANCH   2   3
ENDBRANCH   1   2
BRANCH   1  11
ATOM     11  C   UNL     1      41.617  67.617  25.302  1.00  0.00     0.000 C 
BRANCH  11  12
ATOM     12  C   UNL     1      41.816  68.097  23.854  1.00  0.00    -0.000 C 
BRANCH  12  13
ATOM     13  C   UNL     1      43.110  68.907  23.674  1.00  0.00    -0.000 C 
BRANCH  13  14
ATOM     14  C   UNL     1      43.428  69.796  24.889  1.00  0.00    -0.000 C 
BRANCH  14  15
ATOM     15  C   UNL     1      44.164  71.087  24.496  1.00  0.00    -0.000 C 
BRANCH  15  16
ATOM     16  C   UNL     1      43.603  72.327  25.216  1.00  0.00    -0.000 C 
BRANCH  16  17
ATOM     17  C   UNL     1      42.558  73.073  24.373  1.00  0.00    -0.003 C 
ATOM     18  C   UNL     1      41.507  73.783  25.227  1.00  0.00     0.004 C 
ENDBRANCH  16  17
ENDBRANCH  15  16
ENDBRANCH  14  15
ENDBRANCH  13  14
ENDBRANCH  12  13
ENDBRANCH  11  12
ENDBRANCH   1  11
TORSDOF 14
ENDMDL
MODEL 9
REMARK VINA RESULT:    -4.541     12.065     13.050
REMARK INTER + INTRA:          -8.911
REMARK INTER:                  -8.325
REMARK INTRA:                  -0.586
REMARK UNBOUND:                -0.653
REMARK SMILES CCCCCCCCCCCCCCCC(=O)[O-]
REMARK SMILES IDX 9 1 10 2 11 3 12 4 13 5 14 6 15 7 16 8 17 9 18 10 8 11 7 12
REMARK SMILES IDX 6 13 5 14 4 15 3 16 2 17 1 18
REMARK H PARENT
REMARK Flexibility Score: inf
ROOT
ATOM      1  C   UNL     1      36.775  61.619  13.941  1.00  0.00     0.000 C 
ENDROOT
BRANCH   1   2
ATOM      2  C   UNL     1      37.780  60.756  13.160  1.00  0.00     0.000 C 
BRANCH   2   3
ATOM      3  C   UNL     1      39.243  61.132  13.478  1.00  0.00     0.000 C 
BRANCH   3   4
ATOM      4  C   UNL     1      40.145  61.198  12.234  1.00  0.00     0.000 C 
BRANCH   4   5
ATOM      5  C   UNL     1      41.643  61.209  12.583  1.00  0.00     0.000 C 
BRANCH   5   6
ATOM      6  C   UNL     1      42.345  62.500  12.133  1.00  0.00     0.006 C 
BRANCH   6   7
ATOM      7  C   UNL     1      43.572  62.834  12.990  1.00  0.00     0.053 C 
BRANCH   7   8
ATOM      8  C   UNL     1      43.964  64.266  12.806  1.00  0.00     0.041 C 
ATOM      9  O   UNL     1      45.152  64.628  13.005  1.00  0.00    -0.550 OA
ATOM     10  O   UNL     1      43.027  65.192  12.365  1.00  0.00    -0.550 OA
ENDBRANCH   7   8
ENDBRANCH   6   7
ENDBRANCH   5   6
ENDBRANCH   4   5
ENDBRANCH   3   4
ENDBRANCH   2   3
ENDBRANCH   1   2
BRANCH   1  11
ATOM     11  C   UNL     1      36.812  63.099  13.527  1.00  0.00     0.000 C 
BRANCH  11  12
ATOM     12  C   UNL     1      35.747  63.445  12.472  1.00  0.00    -0.000 C 
BRANCH  12  13
ATOM     13  C   UNL     1      34.915  64.679  12.857  1.00  0.00    -0.000 C 
BRANCH  13  14
ATOM     14  C   UNL     1      33.420  64.511  12.537  1.00  0.00    -0.000 C 
BRANCH  14  15
ATOM     15  C   UNL     1      32.635  65.824  12.686  1.00  0.00    -0.000 C 
BRANCH  15  16
ATOM     16  C   UNL     1      31.307  65.635  13.439  1.00  0.00    -0.000 C 
BRANCH  16  17
ATOM     17  C   UNL     1      31.189  66.555  14.664  1.00  0.00    -0.003 C 
ATOM     18  C   UNL     1      32.330  66.358  15.662  1.00  0.00     0.004 C 
ENDBRANCH  16  17
ENDBRANCH  15  16
ENDBRANCH  14  15
ENDBRANCH  13  14
ENDBRANCH  12  13
ENDBRANCH  11  12
ENDBRANCH   1  11
TORSDOF 14
ENDMDL
