MODEL 1
REMARK VINA RESULT:    -7.652      0.000      0.000
REMARK INTER + INTRA:          -8.568
REMARK INTER:                  -8.323
REMARK INTRA:                  -0.245
REMARK UNBOUND:                -0.245
REMARK SMILES C[C@@H]1[C@H]2C3=CC[C@@H]4[C@]5(C)CC[C@@H](O)C(C)(C)[C@@H]5CC[C@]4(C)[C@]3(C)CC[C@@]2(C(=O)[O-])CC[C@@H]1C
REMARK SMILES IDX 26 1 30 2 25 3 3 4 31 5 24 6 4 7 2 8 32 9 22 10 5 11 1 12
REMARK SMILES IDX 33 13 23 14 20 15 6 16 7 17 19 18 21 19 8 20 18 21 17 22
REMARK SMILES IDX 10 23 9 24 14 25 11 26 12 27 15 28 16 29 27 30 28 31 29 32
REMARK SMILES IDX 13 33
REMARK H PARENT 13 34
REMARK Flexibility Score: inf
ROOT
ATOM      1  C   UNL     1       2.315 -10.988 -24.705  1.00  0.00     0.017 C 
ATOM      2  C   UNL     1       1.982  -9.695 -23.911  1.00  0.00     0.014 C 
ATOM      3  C   UNL     1       3.381 -10.662 -25.814  1.00  0.00     0.014 C 
ATOM      4  C   UNL     1       1.052 -11.718 -25.350  1.00  0.00     0.030 C 
ATOM      5  C   UNL     1       0.713  -9.823 -23.070  1.00  0.00     0.004 C 
ATOM      6  C   UNL     1       2.886 -10.015 -27.148  1.00  0.00     0.013 C 
ATOM      7  C   UNL     1       1.107 -11.716 -26.893  1.00  0.00    -0.063 C 
ATOM      8  C   UNL     1      -0.384 -11.416 -24.761  1.00  0.00    -0.003 C 
ATOM      9  C   UNL     1      -0.505 -10.078 -23.958  1.00  0.00    -0.011 C 
ATOM     10  C   UNL     1       1.447 -10.421 -27.641  1.00  0.00    -0.006 C 
ATOM     11  C   UNL     1       1.432 -12.887 -27.482  1.00  0.00    -0.027 C 
ATOM     12  C   UNL     1      -0.909 -12.629 -23.952  1.00  0.00     0.008 C 
ATOM     13  C   UNL     1      -1.800  -9.958 -23.135  1.00  0.00     0.008 C 
ATOM     14  C   UNL     1       0.473  -9.287 -27.203  1.00  0.00     0.017 C 
ATOM     15  C   UNL     1       1.304 -10.622 -29.260  1.00  0.00    -0.020 C 
ATOM     16  C   UNL     1       2.358 -12.918 -28.656  1.00  0.00     0.032 C 
ATOM     17  C   UNL     1       1.814 -12.036 -29.794  1.00  0.00     0.006 C 
ATOM     18  C   UNL     1       2.047  -9.485 -30.010  1.00  0.00     0.008 C 
ATOM     19  C   UNL     1      -0.213 -10.529 -29.659  1.00  0.00     0.012 C 
ATOM     20  C   UNL     1       2.708 -12.043 -31.125  1.00  0.00    -0.025 C 
ATOM     21  C   UNL     1       1.953  -9.564 -31.530  1.00  0.00     0.005 C 
ATOM     22  C   UNL     1       2.157 -10.982 -32.170  1.00  0.00     0.003 C 
ATOM     23  C   UNL     1       4.227 -11.780 -30.837  1.00  0.00     0.010 C 
ATOM     24  C   UNL     1       2.576 -13.479 -31.729  1.00  0.00     0.012 C 
ATOM     25  C   UNL     1       2.970 -10.923 -33.558  1.00  0.00    -0.006 C 
ATOM     26  C   UNL     1       4.953 -10.911 -31.887  1.00  0.00     0.033 C 
ATOM     27  C   UNL     1       4.513 -11.180 -33.339  1.00  0.00     0.120 C 
ATOM     28  C   UNL     1       2.364 -11.932 -34.583  1.00  0.00     0.014 C 
ATOM     29  C   UNL     1       2.810  -9.546 -34.283  1.00  0.00     0.014 C 
ENDROOT
BRANCH   1  30
ATOM     30  C   UNL     1       2.996 -11.920 -23.692  1.00  0.00     0.048 C 
ATOM     31  O   UNL     1       2.462 -13.013 -23.359  1.00  0.00    -0.550 OA
ATOM     32  O   UNL     1       4.160 -11.528 -23.039  1.00  0.00    -0.550 OA
ENDBRANCH   1  30
BRANCH  27  33
ATOM     33  O   UNL     1       4.892 -12.479 -33.722  1.00  0.00    -0.393 OA
ATOM     34  H   UNL     1       4.059 -12.993 -33.891  1.00  0.00     0.210 HD
ENDBRANCH  27  33
TORSDOF 2
ENDMDL
MODEL 2
REMARK VINA RESULT:    -7.309      4.402     10.029
REMARK INTER + INTRA:          -8.195
REMARK INTER:                  -8.105
REMARK INTRA:                  -0.090
REMARK UNBOUND:                -0.245
REMARK SMILES C[C@@H]1[C@H]2C3=CC[C@@H]4[C@]5(C)CC[C@@H](O)C(C)(C)[C@@H]5CC[C@]4(C)[C@]3(C)CC[C@@]2(C(=O)[O-])CC[C@@H]1C
REMARK SMILES IDX 26 1 30 2 25 3 3 4 31 5 24 6 4 7 2 8 32 9 22 10 5 11 1 12
REMARK SMILES IDX 33 13 23 14 20 15 6 16 7 17 19 18 21 19 8 20 18 21 17 22
REMARK SMILES IDX 10 23 9 24 14 25 11 26 12 27 15 28 16 29 27 30 28 31 29 32
REMARK SMILES IDX 13 33
REMARK H PARENT 13 34
REMARK Flexibility Score: inf
ROOT
ATOM      1  C   UNL     1       7.350  -7.354 -36.399  1.00  0.00     0.017 C 
ATOM      2  C   UNL     1       6.951  -6.609 -37.703  1.00  0.00     0.014 C 
ATOM      3  C   UNL     1       6.689  -8.780 -36.388  1.00  0.00     0.014 C 
ATOM      4  C   UNL     1       7.004  -6.573 -35.052  1.00  0.00     0.030 C 
ATOM      5  C   UNL     1       7.235  -5.109 -37.642  1.00  0.00     0.004 C 
ATOM      6  C   UNL     1       5.194  -8.899 -35.953  1.00  0.00     0.013 C 
ATOM      7  C   UNL     1       5.951  -7.320 -34.204  1.00  0.00    -0.063 C 
ATOM      8  C   UNL     1       6.780  -5.008 -35.115  1.00  0.00    -0.003 C 
ATOM      9  C   UNL     1       6.421  -4.445 -36.530  1.00  0.00    -0.011 C 
ATOM     10  C   UNL     1       4.686  -7.871 -34.873  1.00  0.00    -0.006 C 
ATOM     11  C   UNL     1       6.411  -7.957 -33.106  1.00  0.00    -0.027 C 
ATOM     12  C   UNL     1       7.978  -4.260 -34.478  1.00  0.00     0.008 C 
ATOM     13  C   UNL     1       6.522  -2.913 -36.637  1.00  0.00     0.008 C 
ATOM     14  C   UNL     1       3.951  -6.728 -35.636  1.00  0.00     0.017 C 
ATOM     15  C   UNL     1       3.655  -8.490 -33.762  1.00  0.00    -0.020 C 
ATOM     16  C   UNL     1       5.898  -9.313 -32.741  1.00  0.00     0.032 C 
ATOM     17  C   UNL     1       4.367  -9.283 -32.575  1.00  0.00     0.006 C 
ATOM     18  C   UNL     1       2.613  -9.411 -34.451  1.00  0.00     0.008 C 
ATOM     19  C   UNL     1       2.861  -7.316 -33.085  1.00  0.00     0.012 C 
ATOM     20  C   UNL     1       3.720 -10.681 -32.129  1.00  0.00    -0.025 C 
ATOM     21  C   UNL     1       1.585 -10.021 -33.503  1.00  0.00     0.005 C 
ATOM     22  C   UNL     1       2.135 -10.591 -32.148  1.00  0.00     0.003 C 
ATOM     23  C   UNL     1       4.204 -11.883 -33.013  1.00  0.00     0.010 C 
ATOM     24  C   UNL     1       4.205 -10.936 -30.665  1.00  0.00     0.012 C 
ATOM     25  C   UNL     1       1.380 -11.937 -31.692  1.00  0.00    -0.006 C 
ATOM     26  C   UNL     1       3.125 -12.943 -33.326  1.00  0.00     0.033 C 
ATOM     27  C   UNL     1       2.165 -13.228 -32.154  1.00  0.00     0.120 C 
ATOM     28  C   UNL     1       1.151 -11.932 -30.148  1.00  0.00     0.014 C 
ATOM     29  C   UNL     1      -0.073 -12.028 -32.263  1.00  0.00     0.014 C 
ENDROOT
BRANCH   1  30
ATOM     30  C   UNL     1       8.868  -7.565 -36.504  1.00  0.00     0.048 C 
ATOM     31  O   UNL     1       9.342  -8.662 -36.905  1.00  0.00    -0.550 OA
ATOM     32  O   UNL     1       9.751  -6.589 -36.052  1.00  0.00    -0.550 OA
ENDBRANCH   1  30
BRANCH  27  33
ATOM     33  O   UNL     1       2.867 -13.829 -31.094  1.00  0.00    -0.393 OA
ATOM     34  H   UNL     1       3.080 -14.759 -31.369  1.00  0.00     0.210 HD
ENDBRANCH  27  33
TORSDOF 2
ENDMDL
MODEL 3
REMARK VINA RESULT:    -7.207      1.294      7.920
REMARK INTER + INTRA:          -8.085
REMARK INTER:                  -7.862
REMARK INTRA:                  -0.223
REMARK UNBOUND:                -0.245
REMARK SMILES C[C@@H]1[C@H]2C3=CC[C@@H]4[C@]5(C)CC[C@@H](O)C(C)(C)[C@@H]5CC[C@]4(C)[C@]3(C)CC[C@@]2(C(=O)[O-])CC[C@@H]1C
REMARK SMILES IDX 26 1 30 2 25 3 3 4 31 5 24 6 4 7 2 8 32 9 22 10 5 11 1 12
REMARK SMILES IDX 33 13 23 14 20 15 6 16 7 17 19 18 21 19 8 20 18 21 17 22
REMARK SMILES IDX 10 23 9 24 14 25 11 26 12 27 15 28 16 29 27 30 28 31 29 32
REMARK SMILES IDX 13 33
REMARK H PARENT 13 34
REMARK Flexibility Score: inf
ROOT
ATOM      1  C   UNL     1       3.089 -11.802 -31.508  1.00  0.00     0.017 C 
ATOM      2  C   UNL     1       2.114 -12.450 -32.529  1.00  0.00     0.014 C 
ATOM      3  C   UNL     1       3.192 -12.714 -30.231  1.00  0.00     0.014 C 
ATOM      4  C   UNL     1       2.723 -10.307 -31.093  1.00  0.00     0.030 C 
ATOM      5  C   UNL     1       1.669 -11.483 -33.625  1.00  0.00     0.004 C 
ATOM      6  C   UNL     1       2.062 -12.612 -29.158  1.00  0.00     0.013 C 
ATOM      7  C   UNL     1       2.356 -10.195 -29.597  1.00  0.00    -0.063 C 
ATOM      8  C   UNL     1       1.787  -9.460 -32.045  1.00  0.00    -0.003 C 
ATOM      9  C   UNL     1       0.906 -10.299 -33.029  1.00  0.00    -0.011 C 
ATOM     10  C   UNL     1       1.384 -11.204 -28.973  1.00  0.00    -0.006 C 
ATOM     11  C   UNL     1       3.288  -9.640 -28.793  1.00  0.00    -0.027 C 
ATOM     12  C   UNL     1       2.602  -8.368 -32.783  1.00  0.00     0.008 C 
ATOM     13  C   UNL     1       0.253  -9.468 -34.148  1.00  0.00     0.008 C 
ATOM     14  C   UNL     1       0.053 -11.224 -29.784  1.00  0.00     0.017 C 
ATOM     15  C   UNL     1       1.033 -10.803 -27.425  1.00  0.00    -0.020 C 
ATOM     16  C   UNL     1       3.563 -10.210 -27.438  1.00  0.00     0.032 C 
ATOM     17  C   UNL     1       2.274 -10.240 -26.595  1.00  0.00     0.006 C 
ATOM     18  C   UNL     1       0.420 -12.020 -26.682  1.00  0.00     0.008 C 
ATOM     19  C   UNL     1      -0.047  -9.663 -27.419  1.00  0.00     0.012 C 
ATOM     20  C   UNL     1       2.470 -10.786 -25.101  1.00  0.00    -0.025 C 
ATOM     21  C   UNL     1       0.033 -11.745 -25.232  1.00  0.00     0.005 C 
ATOM     22  C   UNL     1       1.066 -10.934 -24.374  1.00  0.00     0.003 C 
ATOM     23  C   UNL     1       3.253 -12.144 -25.048  1.00  0.00     0.010 C 
ATOM     24  C   UNL     1       3.326  -9.710 -24.355  1.00  0.00     0.012 C 
ATOM     25  C   UNL     1       1.149 -11.454 -22.853  1.00  0.00    -0.006 C 
ATOM     26  C   UNL     1       2.756 -13.147 -23.984  1.00  0.00     0.033 C 
ATOM     27  C   UNL     1       2.323 -12.493 -22.657  1.00  0.00     0.120 C 
ATOM     28  C   UNL     1       1.289 -10.246 -21.875  1.00  0.00     0.014 C 
ATOM     29  C   UNL     1      -0.179 -12.135 -22.383  1.00  0.00     0.014 C 
ENDROOT
BRANCH   1  30
ATOM     30  C   UNL     1       4.465 -11.832 -32.190  1.00  0.00     0.048 C 
ATOM     31  O   UNL     1       5.085 -12.917 -32.350  1.00  0.00    -0.550 OA
ATOM     32  O   UNL     1       5.104 -10.648 -32.547  1.00  0.00    -0.550 OA
ENDBRANCH   1  30
BRANCH  27  33
ATOM     33  O   UNL     1       3.437 -11.918 -22.020  1.00  0.00    -0.393 OA
ATOM     34  H   UNL     1       3.696 -12.522 -21.275  1.00  0.00     0.210 HD
ENDBRANCH  27  33
TORSDOF 2
ENDMDL
MODEL 4
REMARK VINA RESULT:    -7.126      1.951      3.094
REMARK INTER + INTRA:          -7.997
REMARK INTER:                  -7.732
REMARK INTRA:                  -0.265
REMARK UNBOUND:                -0.245
REMARK SMILES C[C@@H]1[C@H]2C3=CC[C@@H]4[C@]5(C)CC[C@@H](O)C(C)(C)[C@@H]5CC[C@]4(C)[C@]3(C)CC[C@@]2(C(=O)[O-])CC[C@@H]1C
REMARK SMILES IDX 26 1 30 2 25 3 3 4 31 5 24 6 4 7 2 8 32 9 22 10 5 11 1 12
REMARK SMILES IDX 33 13 23 14 20 15 6 16 7 17 19 18 21 19 8 20 18 21 17 22
REMARK SMILES IDX 10 23 9 24 14 25 11 26 12 27 15 28 16 29 27 30 28 31 29 32
REMARK SMILES IDX 13 33
REMARK H PARENT 13 34
REMARK Flexibility Score: inf
ROOT
ATOM      1  C   UNL     1      -0.286 -12.078 -25.827  1.00  0.00     0.017 C 
ATOM      2  C   UNL     1       0.557 -12.251 -24.534  1.00  0.00     0.014 C 
ATOM      3  C   UNL     1       0.309 -12.984 -26.966  1.00  0.00     0.014 C 
ATOM      4  C   UNL     1      -0.429 -10.573 -26.335  1.00  0.00     0.030 C 
ATOM      5  C   UNL     1       0.290 -11.160 -23.499  1.00  0.00     0.004 C 
ATOM      6  C   UNL     1       1.552 -12.460 -27.754  1.00  0.00     0.013 C 
ATOM      7  C   UNL     1       0.245 -10.358 -27.707  1.00  0.00    -0.063 C 
ATOM      8  C   UNL     1      -0.177  -9.396 -25.308  1.00  0.00    -0.003 C 
ATOM      9  C   UNL     1       0.667  -9.783 -24.049  1.00  0.00    -0.011 C 
ATOM     10  C   UNL     1       1.658 -10.902 -27.955  1.00  0.00    -0.006 C 
ATOM     11  C   UNL     1      -0.581 -10.248 -28.769  1.00  0.00    -0.027 C 
ATOM     12  C   UNL     1      -1.513  -8.711 -24.925  1.00  0.00     0.008 C 
ATOM     13  C   UNL     1       0.630  -8.732 -22.925  1.00  0.00     0.008 C 
ATOM     14  C   UNL     1       2.630 -10.362 -26.863  1.00  0.00     0.017 C 
ATOM     15  C   UNL     1       2.221 -10.431 -29.419  1.00  0.00    -0.020 C 
ATOM     16  C   UNL     1      -0.248 -10.913 -30.067  1.00  0.00     0.032 C 
ATOM     17  C   UNL     1       1.124 -10.439 -30.578  1.00  0.00     0.006 C 
ATOM     18  C   UNL     1       3.427 -11.313 -29.839  1.00  0.00     0.008 C 
ATOM     19  C   UNL     1       2.739  -8.952 -29.321  1.00  0.00     0.012 C 
ATOM     20  C   UNL     1       1.554 -11.053 -31.995  1.00  0.00    -0.025 C 
ATOM     21  C   UNL     1       4.045 -10.940 -31.183  1.00  0.00     0.005 C 
ATOM     22  C   UNL     1       3.044 -10.638 -32.353  1.00  0.00     0.003 C 
ATOM     23  C   UNL     1       1.398 -12.613 -32.053  1.00  0.00     0.010 C 
ATOM     24  C   UNL     1       0.578 -10.435 -33.049  1.00  0.00     0.012 C 
ATOM     25  C   UNL     1       3.571 -11.184 -33.772  1.00  0.00    -0.006 C 
ATOM     26  C   UNL     1       2.504 -13.354 -32.836  1.00  0.00     0.033 C 
ATOM     27  C   UNL     1       2.983 -12.613 -34.100  1.00  0.00     0.120 C 
ATOM     28  C   UNL     1       3.239 -10.160 -34.902  1.00  0.00     0.014 C 
ATOM     29  C   UNL     1       5.131 -11.280 -33.832  1.00  0.00     0.014 C 
ENDROOT
BRANCH   1  30
ATOM     30  C   UNL     1      -1.672 -12.646 -25.483  1.00  0.00     0.048 C 
ATOM     31  O   UNL     1      -1.789 -13.749 -24.885  1.00  0.00    -0.550 OA
ATOM     32  O   UNL     1      -2.828 -12.007 -25.924  1.00  0.00    -0.550 OA
ENDBRANCH   1  30
BRANCH  27  33
ATOM     33  O   UNL     1       1.944 -12.555 -35.045  1.00  0.00    -0.393 OA
ATOM     34  H   UNL     1       2.330 -12.198 -35.888  1.00  0.00     0.210 HD
ENDBRANCH  27  33
TORSDOF 2
ENDMDL
MODEL 5
REMARK VINA RESULT:    -7.097      2.356      4.334
REMARK INTER + INTRA:          -7.965
REMARK INTER:                  -7.697
REMARK INTRA:                  -0.268
REMARK UNBOUND:                -0.245
REMARK SMILES C[C@@H]1[C@H]2C3=CC[C@@H]4[C@]5(C)CC[C@@H](O)C(C)(C)[C@@H]5CC[C@]4(C)[C@]3(C)CC[C@@]2(C(=O)[O-])CC[C@@H]1C
REMARK SMILES IDX 26 1 30 2 25 3 3 4 31 5 24 6 4 7 2 8 32 9 22 10 5 11 1 12
REMARK SMILES IDX 33 13 23 14 20 15 6 16 7 17 19 18 21 19 8 20 18 21 17 22
REMARK SMILES IDX 10 23 9 24 14 25 11 26 12 27 15 28 16 29 27 30 28 31 29 32
REMARK SMILES IDX 13 33
REMARK H PARENT 13 34
REMARK Flexibility Score: inf
ROOT
ATOM      1  C   UNL     1       1.604  -9.200 -27.637  1.00  0.00     0.017 C 
ATOM      2  C   UNL     1       0.496 -10.088 -27.007  1.00  0.00     0.014 C 
ATOM      3  C   UNL     1       1.200  -8.826 -29.110  1.00  0.00     0.014 C 
ATOM      4  C   UNL     1       3.066  -9.837 -27.609  1.00  0.00     0.030 C 
ATOM      5  C   UNL     1       0.953 -10.794 -25.731  1.00  0.00     0.004 C 
ATOM      6  C   UNL     1       1.456  -9.878 -30.237  1.00  0.00     0.013 C 
ATOM      7  C   UNL     1       3.603 -10.117 -29.029  1.00  0.00    -0.063 C 
ATOM      8  C   UNL     1       3.374 -10.989 -26.570  1.00  0.00    -0.003 C 
ATOM      9  C   UNL     1       2.117 -11.743 -26.022  1.00  0.00    -0.011 C 
ATOM     10  C   UNL     1       2.707 -10.817 -30.058  1.00  0.00    -0.006 C 
ATOM     11  C   UNL     1       4.545  -9.267 -29.491  1.00  0.00    -0.027 C 
ATOM     12  C   UNL     1       4.282 -10.466 -25.429  1.00  0.00     0.008 C 
ATOM     13  C   UNL     1       2.404 -12.626 -24.795  1.00  0.00     0.008 C 
ATOM     14  C   UNL     1       2.189 -12.167 -29.475  1.00  0.00     0.017 C 
ATOM     15  C   UNL     1       3.532 -11.137 -31.436  1.00  0.00    -0.020 C 
ATOM     16  C   UNL     1       4.513  -8.791 -30.908  1.00  0.00     0.032 C 
ATOM     17  C   UNL     1       4.543  -9.986 -31.878  1.00  0.00     0.006 C 
ATOM     18  C   UNL     1       2.545 -11.436 -32.595  1.00  0.00     0.008 C 
ATOM     19  C   UNL     1       4.406 -12.426 -31.226  1.00  0.00     0.012 C 
ATOM     20  C   UNL     1       4.567  -9.582 -33.429  1.00  0.00    -0.025 C 
ATOM     21  C   UNL     1       3.214 -11.773 -33.924  1.00  0.00     0.005 C 
ATOM     22  C   UNL     1       4.429 -10.873 -34.343  1.00  0.00     0.003 C 
ATOM     23  C   UNL     1       3.460  -8.535 -33.801  1.00  0.00     0.010 C 
ATOM     24  C   UNL     1       5.960  -8.917 -33.683  1.00  0.00     0.012 C 
ATOM     25  C   UNL     1       4.466 -10.583 -35.926  1.00  0.00    -0.006 C 
ATOM     26  C   UNL     1       2.797  -8.743 -35.181  1.00  0.00     0.033 C 
ATOM     27  C   UNL     1       3.770  -9.210 -36.281  1.00  0.00     0.120 C 
ATOM     28  C   UNL     1       5.935 -10.629 -36.450  1.00  0.00     0.014 C 
ATOM     29  C   UNL     1       3.762 -11.708 -36.754  1.00  0.00     0.014 C 
ENDROOT
BRANCH   1  30
ATOM     30  C   UNL     1       1.587  -7.896 -26.825  1.00  0.00     0.048 C 
ATOM     31  O   UNL     1       0.518  -7.248 -26.665  1.00  0.00    -0.550 OA
ATOM     32  O   UNL     1       2.772  -7.347 -26.343  1.00  0.00    -0.550 OA
ENDBRANCH   1  30
BRANCH  27  33
ATOM     33  O   UNL     1       4.707  -8.197 -36.556  1.00  0.00    -0.393 OA
ATOM     34  H   UNL     1       4.293  -7.583 -37.218  1.00  0.00     0.210 HD
ENDBRANCH  27  33
TORSDOF 2
ENDMDL
MODEL 6
REMARK VINA RESULT:    -7.078      1.595      2.455
REMARK INTER + INTRA:          -7.944
REMARK INTER:                  -7.688
REMARK INTRA:                  -0.256
REMARK UNBOUND:                -0.245
REMARK SMILES C[C@@H]1[C@H]2C3=CC[C@@H]4[C@]5(C)CC[C@@H](O)C(C)(C)[C@@H]5CC[C@]4(C)[C@]3(C)CC[C@@]2(C(=O)[O-])CC[C@@H]1C
REMARK SMILES IDX 26 1 30 2 25 3 3 4 31 5 24 6 4 7 2 8 32 9 22 10 5 11 1 12
REMARK SMILES IDX 33 13 23 14 20 15 6 16 7 17 19 18 21 19 8 20 18 21 17 22
REMARK SMILES IDX 10 23 9 24 14 25 11 26 12 27 15 28 16 29 27 30 28 31 29 32
REMARK SMILES IDX 13 33
REMARK H PARENT 13 34
REMARK Flexibility Score: inf
ROOT
ATOM      1  C   UNL     1       2.066 -10.803 -26.856  1.00  0.00     0.017 C 
ATOM      2  C   UNL     1       1.241  -9.754 -26.062  1.00  0.00     0.014 C 
ATOM      3  C   UNL     1       3.131 -10.067 -27.747  1.00  0.00     0.014 C 
ATOM      4  C   UNL     1       1.195 -11.802 -27.745  1.00  0.00     0.030 C 
ATOM      5  C   UNL     1      -0.037 -10.334 -25.458  1.00  0.00     0.004 C 
ATOM      6  C   UNL     1       2.663  -9.461 -29.109  1.00  0.00     0.013 C 
ATOM      7  C   UNL     1       1.473 -11.625 -29.254  1.00  0.00    -0.063 C 
ATOM      8  C   UNL     1      -0.334 -11.996 -27.394  1.00  0.00    -0.003 C 
ATOM      9  C   UNL     1      -0.975 -10.842 -26.554  1.00  0.00    -0.011 C 
ATOM     10  C   UNL     1       1.507 -10.218 -29.862  1.00  0.00    -0.006 C 
ATOM     11  C   UNL     1       2.224 -12.583 -29.839  1.00  0.00    -0.027 C 
ATOM     12  C   UNL     1      -0.576 -13.386 -26.753  1.00  0.00     0.008 C 
ATOM     13  C   UNL     1      -2.351 -11.192 -25.958  1.00  0.00     0.008 C 
ATOM     14  C   UNL     1       0.178  -9.471 -29.537  1.00  0.00     0.017 C 
ATOM     15  C   UNL     1       1.671 -10.285 -31.490  1.00  0.00    -0.020 C 
ATOM     16  C   UNL     1       3.277 -12.220 -30.838  1.00  0.00     0.032 C 
ATOM     17  C   UNL     1       2.662 -11.425 -32.004  1.00  0.00     0.006 C 
ATOM     18  C   UNL     1       2.131  -8.909 -32.040  1.00  0.00     0.008 C 
ATOM     19  C   UNL     1       0.274 -10.600 -32.136  1.00  0.00     0.012 C 
ATOM     20  C   UNL     1       3.700 -11.033 -33.161  1.00  0.00    -0.025 C 
ATOM     21  C   UNL     1       2.291  -8.856 -33.556  1.00  0.00     0.005 C 
ATOM     22  C   UNL     1       3.010 -10.078 -34.227  1.00  0.00     0.003 C 
ATOM     23  C   UNL     1       5.006 -10.367 -32.604  1.00  0.00     0.010 C 
ATOM     24  C   UNL     1       4.104 -12.375 -33.855  1.00  0.00     0.012 C 
ATOM     25  C   UNL     1       3.960  -9.641 -35.450  1.00  0.00    -0.006 C 
ATOM     26  C   UNL     1       5.576  -9.220 -33.467  1.00  0.00     0.033 C 
ATOM     27  C   UNL     1       5.458  -9.456 -34.985  1.00  0.00     0.120 C 
ATOM     28  C   UNL     1       3.850 -10.673 -36.616  1.00  0.00     0.014 C 
ATOM     29  C   UNL     1       3.495  -8.305 -36.118  1.00  0.00     0.014 C 
ENDROOT
BRANCH   1  30
ATOM     30  C   UNL     1       2.843 -11.594 -25.793  1.00  0.00     0.048 C 
ATOM     31  O   UNL     1       2.679 -12.837 -25.663  1.00  0.00    -0.550 OA
ATOM     32  O   UNL     1       3.661 -10.937 -24.879  1.00  0.00    -0.550 OA
ENDBRANCH   1  30
BRANCH  27  33
ATOM     33  O   UNL     1       6.269 -10.540 -35.366  1.00  0.00    -0.393 OA
ATOM     34  H   UNL     1       5.724 -11.365 -35.271  1.00  0.00     0.210 HD
ENDBRANCH  27  33
TORSDOF 2
ENDMDL
MODEL 7
REMARK VINA RESULT:    -6.992      1.636      8.241
REMARK INTER + INTRA:          -7.851
REMARK INTER:                  -7.720
REMARK INTRA:                  -0.131
REMARK UNBOUND:                -0.245
REMARK SMILES C[C@@H]1[C@H]2C3=CC[C@@H]4[C@]5(C)CC[C@@H](O)C(C)(C)[C@@H]5CC[C@]4(C)[C@]3(C)CC[C@@]2(C(=O)[O-])CC[C@@H]1C
REMARK SMILES IDX 26 1 30 2 25 3 3 4 31 5 24 6 4 7 2 8 32 9 22 10 5 11 1 12
REMARK SMILES IDX 33 13 23 14 20 15 6 16 7 17 19 18 21 19 8 20 18 21 17 22
REMARK SMILES IDX 10 23 9 24 14 25 11 26 12 27 15 28 16 29 27 30 28 31 29 32
REMARK SMILES IDX 13 33
REMARK H PARENT 13 34
REMARK Flexibility Score: inf
ROOT
ATOM      1  C   UNL     1       1.756 -10.783 -33.197  1.00  0.00     0.017 C 
ATOM      2  C   UNL     1       1.773  -9.465 -34.018  1.00  0.00     0.014 C 
ATOM      3  C   UNL     1       0.674 -10.679 -32.061  1.00  0.00     0.014 C 
ATOM      4  C   UNL     1       3.167 -11.203 -32.581  1.00  0.00     0.030 C 
ATOM      5  C   UNL     1       3.016  -9.326 -34.895  1.00  0.00     0.004 C 
ATOM      6  C   UNL     1       1.048  -9.913 -30.752  1.00  0.00     0.013 C 
ATOM      7  C   UNL     1       3.153 -11.183 -31.037  1.00  0.00    -0.063 C 
ATOM      8  C   UNL     1       4.484 -10.602 -33.216  1.00  0.00    -0.003 C 
ATOM      9  C   UNL     1       4.284  -9.287 -34.040  1.00  0.00    -0.011 C 
ATOM     10  C   UNL     1       2.553  -9.981 -30.296  1.00  0.00    -0.006 C 
ATOM     11  C   UNL     1       3.111 -12.385 -30.423  1.00  0.00    -0.027 C 
ATOM     12  C   UNL     1       5.243 -11.685 -34.024  1.00  0.00     0.008 C 
ATOM     13  C   UNL     1       5.498  -8.900 -34.904  1.00  0.00     0.008 C 
ATOM     14  C   UNL     1       3.240  -8.668 -30.778  1.00  0.00     0.017 C 
ATOM     15  C   UNL     1       2.780 -10.113 -28.679  1.00  0.00    -0.020 C 
ATOM     16  C   UNL     1       2.246 -12.597 -29.221  1.00  0.00     0.032 C 
ATOM     17  C   UNL     1       2.611 -11.594 -28.111  1.00  0.00     0.006 C 
ATOM     18  C   UNL     1       1.823  -9.154 -27.924  1.00  0.00     0.008 C 
ATOM     19  C   UNL     1       4.248  -9.678 -28.328  1.00  0.00     0.012 C 
ATOM     20  C   UNL     1       1.776 -11.772 -26.755  1.00  0.00    -0.025 C 
ATOM     21  C   UNL     1       1.972  -9.180 -26.406  1.00  0.00     0.005 C 
ATOM     22  C   UNL     1       2.105 -10.595 -25.741  1.00  0.00     0.003 C 
ATOM     23  C   UNL     1       0.229 -11.858 -27.000  1.00  0.00     0.010 C 
ATOM     24  C   UNL     1       2.239 -13.132 -26.136  1.00  0.00     0.012 C 
ATOM     25  C   UNL     1       1.335 -10.690 -24.330  1.00  0.00    -0.006 C 
ATOM     26  C   UNL     1      -0.644 -11.150 -25.941  1.00  0.00     0.033 C 
ATOM     27  C   UNL     1      -0.117 -11.287 -24.499  1.00  0.00     0.120 C 
ATOM     28  C   UNL     1       2.176 -11.519 -23.310  1.00  0.00     0.014 C 
ATOM     29  C   UNL     1       1.204  -9.298 -23.628  1.00  0.00     0.014 C 
ENDROOT
BRANCH   1  30
ATOM     30  C   UNL     1       1.273 -11.864 -34.176  1.00  0.00     0.048 C 
ATOM     31  O   UNL     1       0.046 -12.123 -34.298  1.00  0.00    -0.550 OA
ATOM     32  O   UNL     1       2.188 -12.653 -34.867  1.00  0.00    -0.550 OA
ENDBRANCH   1  30
BRANCH  27  33
ATOM     33  O   UNL     1      -0.189 -12.630 -24.088  1.00  0.00    -0.393 OA
ATOM     34  H   UNL     1      -0.999 -13.025 -24.506  1.00  0.00     0.210 HD
ENDBRANCH  27  33
TORSDOF 2
ENDMDL
MODEL 8
REMARK VINA RESULT:    -6.910      4.713     10.477
REMARK INTER + INTRA:          -7.761
REMARK INTER:                  -7.568
REMARK INTRA:                  -0.193
REMARK UNBOUND:                -0.245
REMARK SMILES C[C@@H]1[C@H]2C3=CC[C@@H]4[C@]5(C)CC[C@@H](O)C(C)(C)[C@@H]5CC[C@]4(C)[C@]3(C)CC[C@@]2(C(=O)[O-])CC[C@@H]1C
REMARK SMILES IDX 26 1 30 2 25 3 3 4 31 5 24 6 4 7 2 8 32 9 22 10 5 11 1 12
REMARK SMILES IDX 33 13 23 14 20 15 6 16 7 17 19 18 21 19 8 20 18 21 17 22
REMARK SMILES IDX 10 23 9 24 14 25 11 26 12 27 15 28 16 29 27 30 28 31 29 32
REMARK SMILES IDX 13 33
REMARK H PARENT 13 34
REMARK Flexibility Score: inf
ROOT
ATOM      1  C   UNL     1       3.558  -4.763 -36.372  1.00  0.00     0.017 C 
ATOM      2  C   UNL     1       4.030  -3.420 -35.750  1.00  0.00     0.014 C 
ATOM      3  C   UNL     1       2.504  -5.440 -35.422  1.00  0.00     0.014 C 
ATOM      4  C   UNL     1       4.730  -5.788 -36.717  1.00  0.00     0.030 C 
ATOM      5  C   UNL     1       5.299  -2.875 -36.403  1.00  0.00     0.004 C 
ATOM      6  C   UNL     1       3.029  -6.241 -34.188  1.00  0.00     0.013 C 
ATOM      7  C   UNL     1       4.642  -7.075 -35.869  1.00  0.00    -0.063 C 
ATOM      8  C   UNL     1       6.201  -5.232 -36.885  1.00  0.00    -0.003 C 
ATOM      9  C   UNL     1       6.467  -3.844 -36.214  1.00  0.00    -0.011 C 
ATOM     10  C   UNL     1       4.411  -6.976 -34.356  1.00  0.00    -0.006 C 
ATOM     11  C   UNL     1       4.193  -8.179 -36.503  1.00  0.00    -0.027 C 
ATOM     12  C   UNL     1       6.625  -5.249 -38.375  1.00  0.00     0.008 C 
ATOM     13  C   UNL     1       7.786  -3.181 -36.652  1.00  0.00     0.008 C 
ATOM     14  C   UNL     1       5.499  -6.063 -33.715  1.00  0.00     0.017 C 
ATOM     15  C   UNL     1       4.499  -8.451 -33.649  1.00  0.00    -0.020 C 
ATOM     16  C   UNL     1       3.242  -9.114 -35.824  1.00  0.00     0.032 C 
ATOM     17  C   UNL     1       3.844  -9.628 -34.504  1.00  0.00     0.006 C 
ATOM     18  C   UNL     1       3.852  -8.409 -32.239  1.00  0.00     0.008 C 
ATOM     19  C   UNL     1       6.008  -8.841 -33.457  1.00  0.00     0.012 C 
ATOM     20  C   UNL     1       2.925 -10.683 -33.721  1.00  0.00    -0.025 C 
ATOM     21  C   UNL     1       3.905  -9.733 -31.482  1.00  0.00     0.005 C 
ATOM     22  C   UNL     1       3.552 -11.023 -32.302  1.00  0.00     0.003 C 
ATOM     23  C   UNL     1       1.444 -10.192 -33.555  1.00  0.00     0.010 C 
ATOM     24  C   UNL     1       2.905 -11.977 -34.600  1.00  0.00     0.012 C 
ATOM     25  C   UNL     1       2.718 -12.095 -31.439  1.00  0.00    -0.006 C 
ATOM     26  C   UNL     1       0.783 -10.549 -32.206  1.00  0.00     0.033 C 
ATOM     27  C   UNL     1       1.162 -11.942 -31.668  1.00  0.00     0.120 C 
ATOM     28  C   UNL     1       3.201 -13.543 -31.763  1.00  0.00     0.014 C 
ATOM     29  C   UNL     1       2.993 -11.968 -29.904  1.00  0.00     0.014 C 
ENDROOT
BRANCH   1  30
ATOM     30  C   UNL     1       2.813  -4.372 -37.658  1.00  0.00     0.048 C 
ATOM     31  O   UNL     1       3.349  -4.524 -38.788  1.00  0.00    -0.550 OA
ATOM     32  O   UNL     1       1.575  -3.739 -37.594  1.00  0.00    -0.550 OA
ENDBRANCH   1  30
BRANCH  27  33
ATOM     33  O   UNL     1       0.652 -12.940 -32.518  1.00  0.00    -0.393 OA
ATOM     34  H   UNL     1       1.317 -13.082 -33.241  1.00  0.00     0.210 HD
ENDBRANCH  27  33
TORSDOF 2
ENDMDL
MODEL 9
REMARK VINA RESULT:    -6.809      2.173      3.449
REMARK INTER + INTRA:          -7.652
REMARK INTER:                  -7.385
REMARK INTRA:                  -0.266
REMARK UNBOUND:                -0.245
REMARK SMILES C[C@@H]1[C@H]2C3=CC[C@@H]4[C@]5(C)CC[C@@H](O)C(C)(C)[C@@H]5CC[C@]4(C)[C@]3(C)CC[C@@]2(C(=O)[O-])CC[C@@H]1C
REMARK SMILES IDX 26 1 30 2 25 3 3 4 31 5 24 6 4 7 2 8 32 9 22 10 5 11 1 12
REMARK SMILES IDX 33 13 23 14 20 15 6 16 7 17 19 18 21 19 8 20 18 21 17 22
REMARK SMILES IDX 10 23 9 24 14 25 11 26 12 27 15 28 16 29 27 30 28 31 29 32
REMARK SMILES IDX 13 33
REMARK H PARENT 13 34
REMARK Flexibility Score: inf
ROOT
ATOM      1  C   UNL     1      -1.158  -9.351 -25.241  1.00  0.00     0.017 C 
ATOM      2  C   UNL     1      -2.564  -9.945 -24.952  1.00  0.00     0.014 C 
ATOM      3  C   UNL     1      -1.031  -9.027 -26.774  1.00  0.00     0.014 C 
ATOM      4  C   UNL     1       0.062 -10.261 -24.764  1.00  0.00     0.030 C 
ATOM      5  C   UNL     1      -2.655 -10.621 -23.585  1.00  0.00     0.004 C 
ATOM      6  C   UNL     1      -0.693 -10.198 -27.752  1.00  0.00     0.013 C 
ATOM      7  C   UNL     1       0.912 -10.759 -25.954  1.00  0.00    -0.063 C 
ATOM      8  C   UNL     1      -0.196 -11.361 -23.658  1.00  0.00    -0.003 C 
ATOM      9  C   UNL     1      -1.688 -11.802 -23.496  1.00  0.00    -0.011 C 
ATOM     10  C   UNL     1       0.222 -11.349 -27.189  1.00  0.00    -0.006 C 
ATOM     11  C   UNL     1       2.107 -10.154 -26.130  1.00  0.00    -0.027 C 
ATOM     12  C   UNL     1       0.436 -10.937 -22.308  1.00  0.00     0.008 C 
ATOM     13  C   UNL     1      -1.963 -12.620 -22.221  1.00  0.00     0.008 C 
ATOM     14  C   UNL     1      -0.718 -12.516 -26.761  1.00  0.00     0.017 C 
ATOM     15  C   UNL     1       1.320 -11.940 -28.251  1.00  0.00    -0.020 C 
ATOM     16  C   UNL     1       2.587  -9.799 -27.501  1.00  0.00     0.032 C 
ATOM     17  C   UNL     1       2.638 -11.053 -28.394  1.00  0.00     0.006 C 
ATOM     18  C   UNL     1       0.668 -12.131 -29.646  1.00  0.00     0.008 C 
ATOM     19  C   UNL     1       1.799 -13.354 -27.764  1.00  0.00     0.012 C 
ATOM     20  C   UNL     1       3.193 -10.791 -29.875  1.00  0.00    -0.025 C 
ATOM     21  C   UNL     1       1.603 -12.703 -30.707  1.00  0.00     0.005 C 
ATOM     22  C   UNL     1       3.050 -12.100 -30.762  1.00  0.00     0.003 C 
ATOM     23  C   UNL     1       2.490  -9.580 -30.581  1.00  0.00     0.010 C 
ATOM     24  C   UNL     1       4.708 -10.439 -29.714  1.00  0.00     0.012 C 
ATOM     25  C   UNL     1       3.602 -11.955 -32.267  1.00  0.00    -0.006 C 
ATOM     26  C   UNL     1       2.224  -9.765 -32.091  1.00  0.00     0.033 C 
ATOM     27  C   UNL     1       3.349 -10.505 -32.841  1.00  0.00     0.120 C 
ATOM     28  C   UNL     1       5.115 -12.335 -32.327  1.00  0.00     0.014 C 
ATOM     29  C   UNL     1       2.942 -12.982 -33.245  1.00  0.00     0.014 C 
ENDROOT
BRANCH   1  30
ATOM     30  C   UNL     1      -1.128  -8.007 -24.497  1.00  0.00     0.048 C 
ATOM     31  O   UNL     1      -2.082  -7.190 -24.599  1.00  0.00    -0.550 OA
ATOM     32  O   UNL     1       0.002  -7.618 -23.784  1.00  0.00    -0.550 OA
ENDBRANCH   1  30
BRANCH  27  33
ATOM     33  O   UNL     1       4.519  -9.725 -32.844  1.00  0.00    -0.393 OA
ATOM     34  H   UNL     1       4.785  -9.594 -33.792  1.00  0.00     0.210 HD
ENDBRANCH  27  33
TORSDOF 2
ENDMDL
