MODEL 1
REMARK VINA RESULT:     0.171      0.000      0.000
REMARK INTER + INTRA:           5.254
REMARK INTER:                   0.271
REMARK INTRA:                   4.984
REMARK UNBOUND:                 4.984
REMARK SMILES CCCCCCCCCCCC(=O)[O-]
REMARK SMILES IDX 7 1 8 2 9 3 10 4 11 5 12 6 13 7 14 8 6 9 5 10 4 11 3 12 2 13
REMARK SMILES IDX 1 14
REMARK H PARENT
REMARK Flexibility Score: inf
ROOT
ATOM      1  C   UNL     1     -17.819  26.984  -3.056  1.00  0.00     0.000 C 
ENDROOT
BRANCH   1   2
ATOM      2  C   UNL     1     -18.659  25.699  -2.995  1.00  0.00     0.000 C 
BRANCH   2   3
ATOM      3  C   UNL     1     -20.167  25.980  -2.911  1.00  0.00     0.000 C 
BRANCH   3   4
ATOM      4  C   UNL     1     -20.994  25.060  -3.827  1.00  0.00     0.006 C 
BRANCH   4   5
ATOM      5  C   UNL     1     -20.358  24.903  -5.215  1.00  0.00     0.053 C 
BRANCH   5   6
ATOM      6  C   UNL     1     -20.875  25.923  -6.183  1.00  0.00     0.041 C 
ATOM      7  O   UNL     1     -21.111  25.600  -7.377  1.00  0.00    -0.550 OA
ATOM      8  O   UNL     1     -21.123  27.222  -5.760  1.00  0.00    -0.550 OA
ENDBRANCH   5   6
ENDBRANCH   4   5
ENDBRANCH   3   4
ENDBRANCH   2   3
ENDBRANCH   1   2
BRANCH   1   9
ATOM      9  C   UNL     1     -18.704  28.227  -2.906  1.00  0.00     0.000 C 
BRANCH   9  10
ATOM     10  C   UNL     1     -18.419  29.246  -4.017  1.00  0.00    -0.000 C 
BRANCH  10  11
ATOM     11  C   UNL     1     -19.151  28.865  -5.312  1.00  0.00    -0.000 C 
BRANCH  11  12
ATOM     12  C   UNL     1     -20.547  29.499  -5.411  1.00  0.00    -0.000 C 
BRANCH  12  13
ATOM     13  C   UNL     1     -20.950  30.245  -4.130  1.00  0.00    -0.003 C 
ATOM     14  C   UNL     1     -20.522  29.472  -2.886  1.00  0.00     0.004 C 
ENDBRANCH  12  13
ENDBRANCH  11  12
ENDBRANCH  10  11
ENDBRANCH   9  10
ENDBRANCH   1   9
TORSDOF 10
ENDMDL
MODEL 2
REMARK VINA RESULT:     2.891      1.869      4.640
REMARK INTER + INTRA:           9.564
REMARK INTER:                   9.400
REMARK INTRA:                   0.164
REMARK UNBOUND:                 4.984
REMARK SMILES CCCCCCCCCCCC(=O)[O-]
REMARK SMILES IDX 7 1 8 2 9 3 10 4 11 5 12 6 13 7 14 8 6 9 5 10 4 11 3 12 2 13
REMARK SMILES IDX 1 14
REMARK H PARENT
REMARK Flexibility Score: inf
ROOT
ATOM      1  C   UNL     1     -18.920  26.326  -3.162  1.00  0.00     0.000 C 
ENDROOT
BRANCH   1   2
ATOM      2  C   UNL     1     -18.595  27.102  -4.448  1.00  0.00     0.000 C 
BRANCH   2   3
ATOM      3  C   UNL     1     -18.144  28.545  -4.172  1.00  0.00     0.000 C 
BRANCH   3   4
ATOM      4  C   UNL     1     -18.792  29.137  -2.908  1.00  0.00     0.006 C 
BRANCH   4   5
ATOM      5  C   UNL     1     -20.324  29.087  -2.966  1.00  0.00     0.053 C 
BRANCH   5   6
ATOM      6  C   UNL     1     -20.873  30.022  -4.000  1.00  0.00     0.041 C 
ATOM      7  O   UNL     1     -21.125  31.219  -3.703  1.00  0.00    -0.550 OA
ATOM      8  O   UNL     1     -21.079  29.579  -5.300  1.00  0.00    -0.550 OA
ENDBRANCH   5   6
ENDBRANCH   4   5
ENDBRANCH   3   4
ENDBRANCH   2   3
ENDBRANCH   1   2
BRANCH   1   9
ATOM      9  C   UNL     1     -20.295  25.654  -3.260  1.00  0.00     0.000 C 
BRANCH   9  10
ATOM     10  C   UNL     1     -20.436  24.875  -4.575  1.00  0.00    -0.000 C 
BRANCH  10  11
ATOM     11  C   UNL     1     -21.071  25.750  -5.666  1.00  0.00    -0.000 C 
BRANCH  11  12
ATOM     12  C   UNL     1     -21.124  25.046  -7.031  1.00  0.00    -0.000 C 
BRANCH  12  13
ATOM     13  C   UNL     1     -20.551  25.910  -8.164  1.00  0.00    -0.003 C 
ATOM     14  C   UNL     1     -20.794  25.262  -9.525  1.00  0.00     0.004 C 
ENDBRANCH  12  13
ENDBRANCH  11  12
ENDBRANCH  10  11
ENDBRANCH   9  10
ENDBRANCH   1   9
TORSDOF 10
ENDMDL
