MODEL 1
REMARK VINA RESULT:    -5.353      0.000      0.000
REMARK INTER + INTRA:          -6.431
REMARK INTER:                  -6.292
REMARK INTRA:                  -0.139
REMARK UNBOUND:                -0.139
REMARK SMILES O=C([O-])C=Cc1ccc(O)c(O)c1
REMARK SMILES IDX 6 1 13 2 7 3 11 4 8 5 9 6 5 7 4 8 2 9 1 10 3 11 12 12 10 14
REMARK H PARENT 12 13 10 15
REMARK Flexibility Score: inf
ROOT
ATOM      1  C   UNL     1     -25.802 -26.790 105.673  1.00  0.00    -0.022 A 
ATOM      2  C   UNL     1     -24.956 -27.819 106.114  1.00  0.00     0.058 A 
ATOM      3  C   UNL     1     -27.115 -26.730 106.173  1.00  0.00     0.012 A 
ATOM      4  C   UNL     1     -25.390 -28.762 107.054  1.00  0.00     0.157 A 
ATOM      5  C   UNL     1     -27.556 -27.667 107.110  1.00  0.00     0.051 A 
ATOM      6  C   UNL     1     -26.708 -28.683 107.561  1.00  0.00     0.157 A 
ENDROOT
BRANCH   1   7
ATOM      7  C   UNL     1     -25.286 -25.826 104.668  1.00  0.00     0.010 C 
ATOM      8  C   UNL     1     -25.835 -24.626 104.437  1.00  0.00     0.025 C 
BRANCH   8   9
ATOM      9  C   UNL     1     -25.288 -23.692 103.439  1.00  0.00     0.064 C 
ATOM     10  O   UNL     1     -25.808 -22.559 103.251  1.00  0.00    -0.545 OA
ATOM     11  O   UNL     1     -24.179 -24.065 102.691  1.00  0.00    -0.545 OA
ENDBRANCH   8   9
ENDBRANCH   1   7
BRANCH   4  12
ATOM     12  O   UNL     1     -24.488 -29.752 107.450  1.00  0.00    -0.504 OA
ATOM     13  H   UNL     1     -24.756 -30.609 107.910  1.00  0.00     0.293 HD
ENDBRANCH   4  12
BRANCH   6  14
ATOM     14  O   UNL     1     -27.210 -29.584 108.502  1.00  0.00    -0.504 OA
ATOM     15  H   UNL     1     -26.680 -29.938 109.285  1.00  0.00     0.293 HD
ENDBRANCH   6  14
TORSDOF 4
ENDMDL
MODEL 2
REMARK VINA RESULT:    -5.315      2.455      3.291
REMARK INTER + INTRA:          -6.386
REMARK INTER:                  -6.261
REMARK INTRA:                  -0.125
REMARK UNBOUND:                -0.139
REMARK SMILES O=C([O-])C=Cc1ccc(O)c(O)c1
REMARK SMILES IDX 6 1 13 2 7 3 11 4 8 5 9 6 5 7 4 8 2 9 1 10 3 11 12 12 10 14
REMARK H PARENT 12 13 10 15
REMARK Flexibility Score: inf
ROOT
ATOM      1  C   UNL     1     -27.212 -27.089 105.666  1.00  0.00    -0.022 A 
ATOM      2  C   UNL     1     -27.689 -27.909 106.701  1.00  0.00     0.058 A 
ATOM      3  C   UNL     1     -25.832 -27.074 105.394  1.00  0.00     0.012 A 
ATOM      4  C   UNL     1     -26.821 -28.722 107.441  1.00  0.00     0.157 A 
ATOM      5  C   UNL     1     -24.960 -27.881 106.129  1.00  0.00     0.051 A 
ATOM      6  C   UNL     1     -25.438 -28.709 107.148  1.00  0.00     0.157 A 
ENDROOT
BRANCH   1   7
ATOM      7  C   UNL     1     -28.181 -26.244 104.924  1.00  0.00     0.010 C 
ATOM      8  C   UNL     1     -28.410 -26.353 103.608  1.00  0.00     0.025 C 
BRANCH   8   9
ATOM      9  C   UNL     1     -29.388 -25.504 102.908  1.00  0.00     0.064 C 
ATOM     10  O   UNL     1     -29.070 -24.364 102.473  1.00  0.00    -0.545 OA
ATOM     11  O   UNL     1     -30.684 -25.966 102.724  1.00  0.00    -0.545 OA
ENDBRANCH   8   9
ENDBRANCH   1   7
BRANCH   4  12
ATOM     12  O   UNL     1     -27.372 -29.515 108.450  1.00  0.00    -0.504 OA
ATOM     13  H   UNL     1     -27.171 -29.400 109.432  1.00  0.00     0.293 HD
ENDBRANCH   4  12
BRANCH   6  14
ATOM     14  O   UNL     1     -24.512 -29.493 107.840  1.00  0.00    -0.504 OA
ATOM     15  H   UNL     1     -23.608 -29.163 108.146  1.00  0.00     0.293 HD
ENDBRANCH   6  14
TORSDOF 4
ENDMDL
MODEL 3
REMARK VINA RESULT:    -5.240      3.202      6.721
REMARK INTER + INTRA:          -6.298
REMARK INTER:                  -6.161
REMARK INTRA:                  -0.136
REMARK UNBOUND:                -0.139
REMARK SMILES O=C([O-])C=Cc1ccc(O)c(O)c1
REMARK SMILES IDX 6 1 13 2 7 3 11 4 8 5 9 6 5 7 4 8 2 9 1 10 3 11 12 12 10 14
REMARK H PARENT 12 13 10 15
REMARK Flexibility Score: inf
ROOT
ATOM      1  C   UNL     1     -27.972 -25.723 103.042  1.00  0.00    -0.022 A 
ATOM      2  C   UNL     1     -28.211 -26.190 101.740  1.00  0.00     0.058 A 
ATOM      3  C   UNL     1     -27.611 -24.376 103.223  1.00  0.00     0.012 A 
ATOM      4  C   UNL     1     -28.122 -25.335 100.635  1.00  0.00     0.157 A 
ATOM      5  C   UNL     1     -27.518 -23.517 102.125  1.00  0.00     0.051 A 
ATOM      6  C   UNL     1     -27.773 -23.979 100.831  1.00  0.00     0.157 A 
ENDROOT
BRANCH   1   7
ATOM      7  C   UNL     1     -28.073 -26.681 104.171  1.00  0.00     0.010 C 
ATOM      8  C   UNL     1     -27.337 -26.597 105.288  1.00  0.00     0.025 C 
BRANCH   8   9
ATOM      9  C   UNL     1     -27.474 -27.560 106.393  1.00  0.00     0.064 C 
ATOM     10  O   UNL     1     -26.805 -28.629 106.415  1.00  0.00    -0.545 OA
ATOM     11  O   UNL     1     -28.355 -27.287 107.431  1.00  0.00    -0.545 OA
ENDBRANCH   8   9
ENDBRANCH   1   7
BRANCH   4  12
ATOM     12  O   UNL     1     -28.382 -25.872  99.372  1.00  0.00    -0.504 OA
ATOM     13  H   UNL     1     -29.225 -26.374  99.134  1.00  0.00     0.293 HD
ENDBRANCH   4  12
BRANCH   6  14
ATOM     14  O   UNL     1     -27.667 -23.067  99.779  1.00  0.00    -0.504 OA
ATOM     15  H   UNL     1     -27.050 -23.186  98.988  1.00  0.00     0.293 HD
ENDBRANCH   6  14
TORSDOF 4
ENDMDL
MODEL 4
REMARK VINA RESULT:    -5.195      4.715      5.814
REMARK INTER + INTRA:          -6.245
REMARK INTER:                  -6.117
REMARK INTRA:                  -0.129
REMARK UNBOUND:                -0.139
REMARK SMILES O=C([O-])C=Cc1ccc(O)c(O)c1
REMARK SMILES IDX 6 1 13 2 7 3 11 4 8 5 9 6 5 7 4 8 2 9 1 10 3 11 12 12 10 14
REMARK H PARENT 12 13 10 15
REMARK Flexibility Score: inf
ROOT
ATOM      1  C   UNL     1     -26.812 -23.741 101.715  1.00  0.00    -0.022 A 
ATOM      2  C   UNL     1     -27.250 -24.369 100.540  1.00  0.00     0.058 A 
ATOM      3  C   UNL     1     -27.181 -24.291 102.956  1.00  0.00     0.012 A 
ATOM      4  C   UNL     1     -28.021 -25.538 100.586  1.00  0.00     0.157 A 
ATOM      5  C   UNL     1     -27.950 -25.455 103.011  1.00  0.00     0.051 A 
ATOM      6  C   UNL     1     -28.373 -26.090 101.840  1.00  0.00     0.157 A 
ENDROOT
BRANCH   1   7
ATOM      7  C   UNL     1     -26.005 -22.500 101.600  1.00  0.00     0.010 C 
ATOM      8  C   UNL     1     -24.665 -22.480 101.603  1.00  0.00     0.025 C 
BRANCH   8   9
ATOM      9  C   UNL     1     -23.898 -21.229 101.475  1.00  0.00     0.064 C 
ATOM     10  O   UNL     1     -22.642 -21.219 101.580  1.00  0.00    -0.545 OA
ATOM     11  O   UNL     1     -24.571 -20.038 101.234  1.00  0.00    -0.545 OA
ENDBRANCH   8   9
ENDBRANCH   1   7
BRANCH   4  12
ATOM     12  O   UNL     1     -28.414 -26.109  99.373  1.00  0.00    -0.504 OA
ATOM     13  H   UNL     1     -29.299 -25.929  98.924  1.00  0.00     0.293 HD
ENDBRANCH   4  12
BRANCH   6  14
ATOM     14  O   UNL     1     -29.136 -27.253 101.965  1.00  0.00    -0.504 OA
ATOM     15  H   UNL     1     -29.263 -27.754 102.833  1.00  0.00     0.293 HD
ENDBRANCH   6  14
TORSDOF 4
ENDMDL
MODEL 5
REMARK VINA RESULT:    -5.155      4.970      7.072
REMARK INTER + INTRA:          -6.198
REMARK INTER:                  -6.069
REMARK INTRA:                  -0.129
REMARK UNBOUND:                -0.139
REMARK SMILES O=C([O-])C=Cc1ccc(O)c(O)c1
REMARK SMILES IDX 6 1 13 2 7 3 11 4 8 5 9 6 5 7 4 8 2 9 1 10 3 11 12 12 10 14
REMARK H PARENT 12 13 10 15
REMARK Flexibility Score: inf
ROOT
ATOM      1  C   UNL     1     -29.468 -24.732 103.142  1.00  0.00    -0.022 A 
ATOM      2  C   UNL     1     -29.145 -23.735 102.208  1.00  0.00     0.058 A 
ATOM      3  C   UNL     1     -29.345 -26.081 102.765  1.00  0.00     0.012 A 
ATOM      4  C   UNL     1     -28.683 -24.064 100.928  1.00  0.00     0.157 A 
ATOM      5  C   UNL     1     -28.885 -26.417 101.489  1.00  0.00     0.051 A 
ATOM      6  C   UNL     1     -28.548 -25.424 100.565  1.00  0.00     0.157 A 
ENDROOT
BRANCH   1   7
ATOM      7  C   UNL     1     -29.962 -24.319 104.480  1.00  0.00     0.010 C 
ATOM      8  C   UNL     1     -29.469 -24.791 105.634  1.00  0.00     0.025 C 
BRANCH   8   9
ATOM      9  C   UNL     1     -29.978 -24.350 106.944  1.00  0.00     0.064 C 
ATOM     10  O   UNL     1     -29.606 -23.259 107.455  1.00  0.00    -0.545 OA
ATOM     11  O   UNL     1     -30.884 -25.149 107.628  1.00  0.00    -0.545 OA
ENDBRANCH   8   9
ENDBRANCH   1   7
BRANCH   4  12
ATOM     12  O   UNL     1     -28.374 -23.016 100.057  1.00  0.00    -0.504 OA
ATOM     13  H   UNL     1     -29.039 -22.592  99.426  1.00  0.00     0.293 HD
ENDBRANCH   4  12
BRANCH   6  14
ATOM     14  O   UNL     1     -28.091 -25.829  99.309  1.00  0.00    -0.504 OA
ATOM     15  H   UNL     1     -28.669 -26.284  98.617  1.00  0.00     0.293 HD
ENDBRANCH   6  14
TORSDOF 4
ENDMDL
MODEL 6
REMARK VINA RESULT:    -5.122      5.093      6.151
REMARK INTER + INTRA:          -6.160
REMARK INTER:                  -6.021
REMARK INTRA:                  -0.139
REMARK UNBOUND:                -0.139
REMARK SMILES O=C([O-])C=Cc1ccc(O)c(O)c1
REMARK SMILES IDX 6 1 13 2 7 3 11 4 8 5 9 6 5 7 4 8 2 9 1 10 3 11 12 12 10 14
REMARK H PARENT 12 13 10 15
REMARK Flexibility Score: inf
ROOT
ATOM      1  C   UNL     1     -28.217 -23.764 102.164  1.00  0.00    -0.022 A 
ATOM      2  C   UNL     1     -28.180 -24.290 100.863  1.00  0.00     0.058 A 
ATOM      3  C   UNL     1     -28.508 -24.627 103.236  1.00  0.00     0.012 A 
ATOM      4  C   UNL     1     -28.402 -25.652 100.624  1.00  0.00     0.157 A 
ATOM      5  C   UNL     1     -28.732 -25.986 103.006  1.00  0.00     0.051 A 
ATOM      6  C   UNL     1     -28.679 -26.512 101.712  1.00  0.00     0.157 A 
ENDROOT
BRANCH   1   7
ATOM      7  C   UNL     1     -27.982 -22.310 102.350  1.00  0.00     0.010 C 
ATOM      8  C   UNL     1     -28.669 -21.549 103.214  1.00  0.00     0.025 C 
BRANCH   8   9
ATOM      9  C   UNL     1     -28.401 -20.111 103.379  1.00  0.00     0.064 C 
ATOM     10  O   UNL     1     -27.847 -19.441 102.466  1.00  0.00    -0.545 OA
ATOM     11  O   UNL     1     -28.764 -19.481 104.562  1.00  0.00    -0.545 OA
ENDBRANCH   8   9
ENDBRANCH   1   7
BRANCH   4  12
ATOM     12  O   UNL     1     -28.342 -26.102  99.303  1.00  0.00    -0.504 OA
ATOM     13  H   UNL     1     -28.852 -26.899  98.954  1.00  0.00     0.293 HD
ENDBRANCH   4  12
BRANCH   6  14
ATOM     14  O   UNL     1     -28.908 -27.881 101.553  1.00  0.00    -0.504 OA
ATOM     15  H   UNL     1     -28.207 -28.592 101.701  1.00  0.00     0.293 HD
ENDBRANCH   6  14
TORSDOF 4
ENDMDL
MODEL 7
REMARK VINA RESULT:    -5.109      7.063     10.319
REMARK INTER + INTRA:          -6.144
REMARK INTER:                  -6.012
REMARK INTRA:                  -0.133
REMARK UNBOUND:                -0.139
REMARK SMILES O=C([O-])C=Cc1ccc(O)c(O)c1
REMARK SMILES IDX 6 1 13 2 7 3 11 4 8 5 9 6 5 7 4 8 2 9 1 10 3 11 12 12 10 14
REMARK H PARENT 12 13 10 15
REMARK Flexibility Score: inf
ROOT
ATOM      1  C   UNL     1     -24.877 -28.484 114.277  1.00  0.00    -0.022 A 
ATOM      2  C   UNL     1     -24.949 -29.453 113.264  1.00  0.00     0.058 A 
ATOM      3  C   UNL     1     -24.113 -27.325 114.053  1.00  0.00     0.012 A 
ATOM      4  C   UNL     1     -24.297 -29.270 112.038  1.00  0.00     0.157 A 
ATOM      5  C   UNL     1     -23.459 -27.136 112.834  1.00  0.00     0.051 A 
ATOM      6  C   UNL     1     -23.544 -28.093 111.819  1.00  0.00     0.157 A 
ENDROOT
BRANCH   1   7
ATOM      7  C   UNL     1     -25.583 -28.740 115.558  1.00  0.00     0.010 C 
ATOM      8  C   UNL     1     -26.558 -29.649 115.702  1.00  0.00     0.025 C 
BRANCH   8   9
ATOM      9  C   UNL     1     -27.228 -29.883 116.992  1.00  0.00     0.064 C 
ATOM     10  O   UNL     1     -27.743 -28.934 117.642  1.00  0.00    -0.545 OA
ATOM     11  O   UNL     1     -27.295 -31.173 117.501  1.00  0.00    -0.545 OA
ENDBRANCH   8   9
ENDBRANCH   1   7
BRANCH   4  12
ATOM     12  O   UNL     1     -24.421 -30.276 111.077  1.00  0.00    -0.504 OA
ATOM     13  H   UNL     1     -24.975 -30.189 110.237  1.00  0.00     0.293 HD
ENDBRANCH   4  12
BRANCH   6  14
ATOM     14  O   UNL     1     -22.869 -27.840 110.623  1.00  0.00    -0.504 OA
ATOM     15  H   UNL     1     -21.989 -27.348 110.564  1.00  0.00     0.293 HD
ENDBRANCH   6  14
TORSDOF 4
ENDMDL
MODEL 8
REMARK VINA RESULT:    -5.040      3.753      6.353
REMARK INTER + INTRA:          -6.063
REMARK INTER:                  -5.935
REMARK INTRA:                  -0.128
REMARK UNBOUND:                -0.139
REMARK SMILES O=C([O-])C=Cc1ccc(O)c(O)c1
REMARK SMILES IDX 6 1 13 2 7 3 11 4 8 5 9 6 5 7 4 8 2 9 1 10 3 11 12 12 10 14
REMARK H PARENT 12 13 10 15
REMARK Flexibility Score: inf
ROOT
ATOM      1  C   UNL     1     -28.015 -25.899 103.267  1.00  0.00    -0.022 A 
ATOM      2  C   UNL     1     -28.699 -26.868 102.516  1.00  0.00     0.058 A 
ATOM      3  C   UNL     1     -27.358 -24.856 102.590  1.00  0.00     0.012 A 
ATOM      4  C   UNL     1     -28.755 -26.796 101.118  1.00  0.00     0.157 A 
ATOM      5  C   UNL     1     -27.409 -24.777 101.197  1.00  0.00     0.051 A 
ATOM      6  C   UNL     1     -28.103 -25.733 100.450  1.00  0.00     0.157 A 
ENDROOT
BRANCH   1   7
ATOM      7  C   UNL     1     -27.984 -26.037 104.745  1.00  0.00     0.010 C 
ATOM      8  C   UNL     1     -27.394 -27.056 105.385  1.00  0.00     0.025 C 
BRANCH   8   9
ATOM      9  C   UNL     1     -27.374 -27.154 106.854  1.00  0.00     0.064 C 
ATOM     10  O   UNL     1     -27.293 -26.123 107.576  1.00  0.00    -0.545 OA
ATOM     11  O   UNL     1     -27.445 -28.403 107.456  1.00  0.00    -0.545 OA
ENDBRANCH   8   9
ENDBRANCH   1   7
BRANCH   4  12
ATOM     12  O   UNL     1     -29.461 -27.793 100.441  1.00  0.00    -0.504 OA
ATOM     13  H   UNL     1     -29.766 -28.656 100.865  1.00  0.00     0.293 HD
ENDBRANCH   4  12
BRANCH   6  14
ATOM     14  O   UNL     1     -28.118 -25.593  99.061  1.00  0.00    -0.504 OA
ATOM     15  H   UNL     1     -28.895 -25.860  98.474  1.00  0.00     0.293 HD
ENDBRANCH   6  14
TORSDOF 4
ENDMDL
MODEL 9
REMARK VINA RESULT:    -4.962      5.366      6.388
REMARK INTER + INTRA:          -5.971
REMARK INTER:                  -5.845
REMARK INTRA:                  -0.126
REMARK UNBOUND:                -0.139
REMARK SMILES O=C([O-])C=Cc1ccc(O)c(O)c1
REMARK SMILES IDX 6 1 13 2 7 3 11 4 8 5 9 6 5 7 4 8 2 9 1 10 3 11 12 12 10 14
REMARK H PARENT 12 13 10 15
REMARK Flexibility Score: inf
ROOT
ATOM      1  C   UNL     1     -29.815 -23.424 102.775  1.00  0.00    -0.022 A 
ATOM      2  C   UNL     1     -30.161 -24.411 103.711  1.00  0.00     0.058 A 
ATOM      3  C   UNL     1     -29.141 -23.808 101.601  1.00  0.00     0.012 A 
ATOM      4  C   UNL     1     -29.870 -25.762 103.481  1.00  0.00     0.157 A 
ATOM      5  C   UNL     1     -28.847 -25.153 101.366  1.00  0.00     0.051 A 
ATOM      6  C   UNL     1     -29.206 -26.138 102.290  1.00  0.00     0.157 A 
ENDROOT
BRANCH   1   7
ATOM      7  C   UNL     1     -30.143 -22.009 103.081  1.00  0.00     0.010 C 
ATOM      8  C   UNL     1     -29.250 -21.120 103.541  1.00  0.00     0.025 C 
BRANCH   8   9
ATOM      9  C   UNL     1     -29.610 -19.721 103.823  1.00  0.00     0.064 C 
ATOM     10  O   UNL     1     -28.946 -18.765 103.337  1.00  0.00    -0.545 OA
ATOM     11  O   UNL     1     -30.700 -19.448 104.639  1.00  0.00    -0.545 OA
ENDBRANCH   8   9
ENDBRANCH   1   7
BRANCH   4  12
ATOM     12  O   UNL     1     -30.252 -26.687 104.455  1.00  0.00    -0.504 OA
ATOM     13  H   UNL     1     -31.202 -26.813 104.772  1.00  0.00     0.293 HD
ENDBRANCH   4  12
BRANCH   6  14
ATOM     14  O   UNL     1     -28.885 -27.463 101.990  1.00  0.00    -0.504 OA
ATOM     15  H   UNL     1     -29.387 -28.261 102.351  1.00  0.00     0.293 HD
ENDBRANCH   6  14
TORSDOF 4
ENDMDL
