MODEL 1
REMARK VINA RESULT:    -4.740      0.000      0.000
REMARK INTER + INTRA:          -5.841
REMARK INTER:                  -5.572
REMARK INTRA:                  -0.270
REMARK UNBOUND:                -0.270
REMARK SMILES O=c1c(O)c(-c2ccc(O)cc2)oc2cc(O)cc(O)c12
REMARK SMILES IDX 5 1 3 2 2 3 1 4 21 5 19 6 18 7 16 8 15 9 14 10 13 11 6 12
REMARK SMILES IDX 7 13 8 14 9 15 12 16 11 17 10 18 4 20 20 22 17 24
REMARK H PARENT 10 19 4 21 20 23 17 25
REMARK Flexibility Score: inf
ROOT
ATOM      1  C   UNL     1      41.002   0.541  -2.743  1.00  0.00     0.180 A 
ATOM      2  C   UNL     1      41.880  -0.538  -2.537  1.00  0.00     0.208 A 
ATOM      3  C   UNL     1      41.873  -1.607  -3.447  1.00  0.00     0.238 A 
ATOM      4  O   UNL     1      42.608  -2.601  -3.215  1.00  0.00    -0.285 OA
ATOM      5  C   UNL     1      41.029  -1.559  -4.584  1.00  0.00     0.111 A 
ATOM      6  C   UNL     1      40.972  -2.565  -5.596  1.00  0.00     0.134 A 
ATOM      7  C   UNL     1      40.022  -2.461  -6.620  1.00  0.00     0.093 A 
ATOM      8  C   UNL     1      39.171  -1.358  -6.704  1.00  0.00     0.123 A 
ATOM      9  C   UNL     1      39.256  -0.345  -5.753  1.00  0.00     0.094 A 
ATOM     10  C   UNL     1      40.167  -0.437  -4.697  1.00  0.00     0.146 A 
ATOM     11  O   UNL     1      40.199   0.542  -3.801  1.00  0.00    -0.452 OA
ENDROOT
BRANCH   1  12
ATOM     12  C   UNL     1      40.940   1.696  -1.821  1.00  0.00     0.021 A 
ATOM     13  C   UNL     1      41.875   2.736  -1.951  1.00  0.00     0.016 A 
ATOM     14  C   UNL     1      41.823   3.848  -1.105  1.00  0.00     0.047 A 
ATOM     15  C   UNL     1      40.827   3.942  -0.129  1.00  0.00     0.115 A 
ATOM     16  C   UNL     1      39.928   1.806  -0.850  1.00  0.00     0.016 A 
ATOM     17  C   UNL     1      39.876   2.919  -0.005  1.00  0.00     0.047 A 
BRANCH  15  18
ATOM     18  O   UNL     1      40.785   5.054   0.708  1.00  0.00    -0.508 OA
ATOM     19  H   UNL     1      41.628   5.550   0.973  1.00  0.00     0.293 HD
ENDBRANCH  15  18
ENDBRANCH   1  12
BRANCH   2  20
ATOM     20  O   UNL     1      42.759  -0.529  -1.451  1.00  0.00    -0.502 OA
ATOM     21  H   UNL     1      42.451  -0.700  -0.501  1.00  0.00     0.293 HD
ENDBRANCH   2  20
BRANCH   6  22
ATOM     22  O   UNL     1      41.835  -3.664  -5.657  1.00  0.00    -0.507 OA
ATOM     23  H   UNL     1      42.342  -3.955  -6.479  1.00  0.00     0.293 HD
ENDBRANCH   6  22
BRANCH   8  24
ATOM     24  O   UNL     1      38.241  -1.255  -7.736  1.00  0.00    -0.508 OA
ATOM     25  H   UNL     1      37.768  -0.381  -7.938  1.00  0.00     0.293 HD
ENDBRANCH   8  24
TORSDOF 5
ENDMDL
MODEL 2
REMARK VINA RESULT:    -4.652      0.708      1.285
REMARK INTER + INTRA:          -5.738
REMARK INTER:                  -5.468
REMARK INTRA:                  -0.269
REMARK UNBOUND:                -0.270
REMARK SMILES O=c1c(O)c(-c2ccc(O)cc2)oc2cc(O)cc(O)c12
REMARK SMILES IDX 5 1 3 2 2 3 1 4 21 5 19 6 18 7 16 8 15 9 14 10 13 11 6 12
REMARK SMILES IDX 7 13 8 14 9 15 12 16 11 17 10 18 4 20 20 22 17 24
REMARK H PARENT 10 19 4 21 20 23 17 25
REMARK Flexibility Score: inf
ROOT
ATOM      1  C   UNL     1      40.846   0.332  -3.266  1.00  0.00     0.180 A 
ATOM      2  C   UNL     1      41.623  -0.835  -3.165  1.00  0.00     0.208 A 
ATOM      3  C   UNL     1      41.461  -1.848  -4.124  1.00  0.00     0.238 A 
ATOM      4  O   UNL     1      42.105  -2.919  -3.985  1.00  0.00    -0.285 OA
ATOM      5  C   UNL     1      40.566  -1.657  -5.205  1.00  0.00     0.111 A 
ATOM      6  C   UNL     1      40.355  -2.597  -6.259  1.00  0.00     0.134 A 
ATOM      7  C   UNL     1      39.365  -2.348  -7.219  1.00  0.00     0.093 A 
ATOM      8  C   UNL     1      38.624  -1.164  -7.199  1.00  0.00     0.123 A 
ATOM      9  C   UNL     1      38.860  -0.217  -6.206  1.00  0.00     0.094 A 
ATOM     10  C   UNL     1      39.814  -0.454  -5.212  1.00  0.00     0.146 A 
ATOM     11  O   UNL     1      39.991   0.467  -4.273  1.00  0.00    -0.452 OA
ENDROOT
BRANCH   1  12
ATOM     12  C   UNL     1      40.949   1.436  -2.286  1.00  0.00     0.021 A 
ATOM     13  C   UNL     1      40.036   1.503  -1.221  1.00  0.00     0.016 A 
ATOM     14  C   UNL     1      40.128   2.525  -0.271  1.00  0.00     0.047 A 
ATOM     15  C   UNL     1      41.142   3.482  -0.364  1.00  0.00     0.115 A 
ATOM     16  C   UNL     1      41.980   2.391  -2.363  1.00  0.00     0.016 A 
ATOM     17  C   UNL     1      42.071   3.411  -1.411  1.00  0.00     0.047 A 
BRANCH  15  18
ATOM     18  O   UNL     1      41.223   4.495   0.589  1.00  0.00    -0.508 OA
ATOM     19  H   UNL     1      42.089   4.698   1.075  1.00  0.00     0.293 HD
ENDBRANCH  15  18
ENDBRANCH   1  12
BRANCH   2  20
ATOM     20  O   UNL     1      42.557  -0.970  -2.134  1.00  0.00    -0.502 OA
ATOM     21  H   UNL     1      42.926  -0.174  -1.628  1.00  0.00     0.293 HD
ENDBRANCH   2  20
BRANCH   6  22
ATOM     22  O   UNL     1      41.100  -3.769  -6.425  1.00  0.00    -0.507 OA
ATOM     23  H   UNL     1      41.636  -4.221  -5.700  1.00  0.00     0.293 HD
ENDBRANCH   6  22
BRANCH   8  24
ATOM     24  O   UNL     1      37.653  -0.917  -8.167  1.00  0.00    -0.508 OA
ATOM     25  H   UNL     1      37.364   0.026  -8.398  1.00  0.00     0.293 HD
ENDBRANCH   8  24
TORSDOF 5
ENDMDL
MODEL 3
REMARK VINA RESULT:    -4.257      2.695      6.568
REMARK INTER + INTRA:          -5.274
REMARK INTER:                  -4.998
REMARK INTRA:                  -0.275
REMARK UNBOUND:                -0.270
REMARK SMILES O=c1c(O)c(-c2ccc(O)cc2)oc2cc(O)cc(O)c12
REMARK SMILES IDX 5 1 3 2 2 3 1 4 21 5 19 6 18 7 16 8 15 9 14 10 13 11 6 12
REMARK SMILES IDX 7 13 8 14 9 15 12 16 11 17 10 18 4 20 20 22 17 24
REMARK H PARENT 10 19 4 21 20 23 17 25
REMARK Flexibility Score: inf
ROOT
ATOM      1  C   UNL     1      38.502  -0.449  -6.778  1.00  0.00     0.180 A 
ATOM      2  C   UNL     1      38.923  -1.761  -7.061  1.00  0.00     0.208 A 
ATOM      3  C   UNL     1      39.918  -2.345  -6.261  1.00  0.00     0.238 A 
ATOM      4  O   UNL     1      40.342  -3.489  -6.564  1.00  0.00    -0.285 OA
ATOM      5  C   UNL     1      40.439  -1.632  -5.153  1.00  0.00     0.111 A 
ATOM      6  C   UNL     1      41.418  -2.143  -4.247  1.00  0.00     0.134 A 
ATOM      7  C   UNL     1      41.938  -1.308  -3.250  1.00  0.00     0.093 A 
ATOM      8  C   UNL     1      41.470  -0.003  -3.085  1.00  0.00     0.123 A 
ATOM      9  C   UNL     1      40.476   0.486  -3.929  1.00  0.00     0.094 A 
ATOM     10  C   UNL     1      39.965  -0.309  -4.958  1.00  0.00     0.146 A 
ATOM     11  O   UNL     1      39.034   0.205  -5.753  1.00  0.00    -0.452 OA
ENDROOT
BRANCH   1  12
ATOM     12  C   UNL     1      37.470   0.239  -7.585  1.00  0.00     0.021 A 
ATOM     13  C   UNL     1      36.161   0.348  -7.085  1.00  0.00     0.016 A 
ATOM     14  C   UNL     1      35.175   1.014  -7.820  1.00  0.00     0.047 A 
ATOM     15  C   UNL     1      35.487   1.591  -9.054  1.00  0.00     0.115 A 
ATOM     16  C   UNL     1      37.782   0.840  -8.818  1.00  0.00     0.016 A 
ATOM     17  C   UNL     1      36.795   1.505  -9.551  1.00  0.00     0.047 A 
BRANCH  15  18
ATOM     18  O   UNL     1      34.495   2.251  -9.776  1.00  0.00    -0.508 OA
ATOM     19  H   UNL     1      34.509   3.256  -9.899  1.00  0.00     0.293 HD
ENDBRANCH  15  18
ENDBRANCH   1  12
BRANCH   2  20
ATOM     20  O   UNL     1      38.340  -2.475  -8.111  1.00  0.00    -0.502 OA
ATOM     21  H   UNL     1      37.395  -2.297  -8.430  1.00  0.00     0.293 HD
ENDBRANCH   2  20
BRANCH   6  22
ATOM     22  O   UNL     1      41.892  -3.459  -4.265  1.00  0.00    -0.507 OA
ATOM     23  H   UNL     1      41.467  -4.219  -4.774  1.00  0.00     0.293 HD
ENDBRANCH   6  22
BRANCH   8  24
ATOM     24  O   UNL     1      41.980   0.814  -2.080  1.00  0.00    -0.508 OA
ATOM     25  H   UNL     1      41.588   1.730  -1.890  1.00  0.00     0.293 HD
ENDBRANCH   8  24
TORSDOF 5
ENDMDL
MODEL 4
REMARK VINA RESULT:    -4.210     11.102     13.928
REMARK INTER + INTRA:          -5.218
REMARK INTER:                  -4.936
REMARK INTRA:                  -0.282
REMARK UNBOUND:                -0.270
REMARK SMILES O=c1c(O)c(-c2ccc(O)cc2)oc2cc(O)cc(O)c12
REMARK SMILES IDX 5 1 3 2 2 3 1 4 21 5 19 6 18 7 16 8 15 9 14 10 13 11 6 12
REMARK SMILES IDX 7 13 8 14 9 15 12 16 11 17 10 18 4 20 20 22 17 24
REMARK H PARENT 10 19 4 21 20 23 17 25
REMARK Flexibility Score: inf
ROOT
ATOM      1  C   UNL     1      29.754   4.835   3.504  1.00  0.00     0.180 A 
ATOM      2  C   UNL     1      29.158   3.587   3.253  1.00  0.00     0.208 A 
ATOM      3  C   UNL     1      29.951   2.430   3.305  1.00  0.00     0.238 A 
ATOM      4  O   UNL     1      29.428   1.325   3.007  1.00  0.00    -0.285 OA
ATOM      5  C   UNL     1      31.319   2.528   3.661  1.00  0.00     0.111 A 
ATOM      6  C   UNL     1      32.207   1.417   3.788  1.00  0.00     0.134 A 
ATOM      7  C   UNL     1      33.565   1.644   4.043  1.00  0.00     0.093 A 
ATOM      8  C   UNL     1      34.056   2.937   4.238  1.00  0.00     0.123 A 
ATOM      9  C   UNL     1      33.187   4.023   4.170  1.00  0.00     0.094 A 
ATOM     10  C   UNL     1      31.834   3.832   3.880  1.00  0.00     0.146 A 
ATOM     11  O   UNL     1      31.046   4.899   3.804  1.00  0.00    -0.452 OA
ENDROOT
BRANCH   1  12
ATOM     12  C   UNL     1      28.987   6.100   3.454  1.00  0.00     0.021 A 
ATOM     13  C   UNL     1      28.567   6.701   4.652  1.00  0.00     0.016 A 
ATOM     14  C   UNL     1      27.861   7.908   4.631  1.00  0.00     0.047 A 
ATOM     15  C   UNL     1      27.579   8.536   3.414  1.00  0.00     0.115 A 
ATOM     16  C   UNL     1      28.719   6.748   2.234  1.00  0.00     0.016 A 
ATOM     17  C   UNL     1      28.013   7.954   2.215  1.00  0.00     0.047 A 
BRANCH  15  18
ATOM     18  O   UNL     1      26.875   9.737   3.406  1.00  0.00    -0.508 OA
ATOM     19  H   UNL     1      27.339  10.625   3.563  1.00  0.00     0.293 HD
ENDBRANCH  15  18
ENDBRANCH   1  12
BRANCH   2  20
ATOM     20  O   UNL     1      27.790   3.504   2.979  1.00  0.00    -0.502 OA
ATOM     21  H   UNL     1      27.430   3.080   2.133  1.00  0.00     0.293 HD
ENDBRANCH   2  20
BRANCH   6  22
ATOM     22  O   UNL     1      31.806   0.079   3.700  1.00  0.00    -0.507 OA
ATOM     23  H   UNL     1      32.181  -0.674   4.256  1.00  0.00     0.293 HD
ENDBRANCH   6  22
BRANCH   8  24
ATOM     24  O   UNL     1      35.405   3.152   4.507  1.00  0.00    -0.508 OA
ATOM     25  H   UNL     1      35.813   2.906   5.402  1.00  0.00     0.293 HD
ENDBRANCH   8  24
TORSDOF 5
ENDMDL
MODEL 5
REMARK VINA RESULT:    -4.198     10.631     13.115
REMARK INTER + INTRA:          -5.204
REMARK INTER:                  -4.918
REMARK INTRA:                  -0.286
REMARK UNBOUND:                -0.270
REMARK SMILES O=c1c(O)c(-c2ccc(O)cc2)oc2cc(O)cc(O)c12
REMARK SMILES IDX 5 1 3 2 2 3 1 4 21 5 19 6 18 7 16 8 15 9 14 10 13 11 6 12
REMARK SMILES IDX 7 13 8 14 9 15 12 16 11 17 10 18 4 20 20 22 17 24
REMARK H PARENT 10 19 4 21 20 23 17 25
REMARK Flexibility Score: inf
ROOT
ATOM      1  C   UNL     1      31.627   5.257  -6.872  1.00  0.00     0.180 A 
ATOM      2  C   UNL     1      31.620   6.512  -7.506  1.00  0.00     0.208 A 
ATOM      3  C   UNL     1      30.632   7.446  -7.156  1.00  0.00     0.238 A 
ATOM      4  O   UNL     1      30.587   8.539  -7.779  1.00  0.00    -0.285 OA
ATOM      5  C   UNL     1      29.697   7.136  -6.138  1.00  0.00     0.111 A 
ATOM      6  C   UNL     1      28.680   8.024  -5.672  1.00  0.00     0.134 A 
ATOM      7  C   UNL     1      27.744   7.570  -4.734  1.00  0.00     0.093 A 
ATOM      8  C   UNL     1      27.826   6.282  -4.198  1.00  0.00     0.123 A 
ATOM      9  C   UNL     1      28.847   5.428  -4.607  1.00  0.00     0.094 A 
ATOM     10  C   UNL     1      29.773   5.838  -5.570  1.00  0.00     0.146 A 
ATOM     11  O   UNL     1      30.717   4.983  -5.945  1.00  0.00    -0.452 OA
ENDROOT
BRANCH   1  12
ATOM     12  C   UNL     1      32.626   4.215  -7.197  1.00  0.00     0.021 A 
ATOM     13  C   UNL     1      33.859   4.205  -6.523  1.00  0.00     0.016 A 
ATOM     14  C   UNL     1      34.810   3.217  -6.798  1.00  0.00     0.047 A 
ATOM     15  C   UNL     1      34.535   2.219  -7.736  1.00  0.00     0.115 A 
ATOM     16  C   UNL     1      32.348   3.195  -8.126  1.00  0.00     0.016 A 
ATOM     17  C   UNL     1      33.299   2.208  -8.398  1.00  0.00     0.047 A 
BRANCH  15  18
ATOM     18  O   UNL     1      35.490   1.241  -8.000  1.00  0.00    -0.508 OA
ATOM     19  H   UNL     1      36.398   1.476  -8.385  1.00  0.00     0.293 HD
ENDBRANCH  15  18
ENDBRANCH   1  12
BRANCH   2  20
ATOM     20  O   UNL     1      32.599   6.827  -8.452  1.00  0.00    -0.502 OA
ATOM     21  H   UNL     1      32.373   7.233  -9.352  1.00  0.00     0.293 HD
ENDBRANCH   2  20
BRANCH   6  22
ATOM     22  O   UNL     1      28.561   9.359  -6.073  1.00  0.00    -0.507 OA
ATOM     23  H   UNL     1      28.921   9.737  -6.935  1.00  0.00     0.293 HD
ENDBRANCH   6  22
BRANCH   8  24
ATOM     24  O   UNL     1      26.901   5.845  -3.254  1.00  0.00    -0.508 OA
ATOM     25  H   UNL     1      25.952   5.601  -3.514  1.00  0.00     0.293 HD
ENDBRANCH   8  24
TORSDOF 5
ENDMDL
MODEL 6
REMARK VINA RESULT:    -4.172      3.375      5.182
REMARK INTER + INTRA:          -5.174
REMARK INTER:                  -4.887
REMARK INTRA:                  -0.287
REMARK UNBOUND:                -0.270
REMARK SMILES O=c1c(O)c(-c2ccc(O)cc2)oc2cc(O)cc(O)c12
REMARK SMILES IDX 5 1 3 2 2 3 1 4 21 5 19 6 18 7 16 8 15 9 14 10 13 11 6 12
REMARK SMILES IDX 7 13 8 14 9 15 12 16 11 17 10 18 4 20 20 22 17 24
REMARK H PARENT 10 19 4 21 20 23 17 25
REMARK Flexibility Score: inf
ROOT
ATOM      1  C   UNL     1      41.774  -0.465  -0.254  1.00  0.00     0.180 A 
ATOM      2  C   UNL     1      42.319  -0.996  -1.436  1.00  0.00     0.208 A 
ATOM      3  C   UNL     1      42.674  -2.354  -1.474  1.00  0.00     0.238 A 
ATOM      4  O   UNL     1      43.229  -2.804  -2.509  1.00  0.00    -0.285 OA
ATOM      5  C   UNL     1      42.426  -3.178  -0.348  1.00  0.00     0.111 A 
ATOM      6  C   UNL     1      42.704  -4.578  -0.291  1.00  0.00     0.134 A 
ATOM      7  C   UNL     1      42.516  -5.270   0.913  1.00  0.00     0.093 A 
ATOM      8  C   UNL     1      42.001  -4.627   2.041  1.00  0.00     0.123 A 
ATOM      9  C   UNL     1      41.676  -3.275   1.978  1.00  0.00     0.094 A 
ATOM     10  C   UNL     1      41.888  -2.548   0.804  1.00  0.00     0.146 A 
ATOM     11  O   UNL     1      41.584  -1.256   0.796  1.00  0.00    -0.452 OA
ENDROOT
BRANCH   1  12
ATOM     12  C   UNL     1      41.389   0.959  -0.133  1.00  0.00     0.021 A 
ATOM     13  C   UNL     1      42.355   1.906   0.244  1.00  0.00     0.016 A 
ATOM     14  C   UNL     1      42.020   3.260   0.343  1.00  0.00     0.047 A 
ATOM     15  C   UNL     1      40.721   3.686   0.053  1.00  0.00     0.115 A 
ATOM     16  C   UNL     1      40.088   1.397  -0.444  1.00  0.00     0.016 A 
ATOM     17  C   UNL     1      39.755   2.751  -0.344  1.00  0.00     0.047 A 
BRANCH  15  18
ATOM     18  O   UNL     1      40.400   5.037   0.156  1.00  0.00    -0.508 OA
ATOM     19  H   UNL     1      40.003   5.549  -0.624  1.00  0.00     0.293 HD
ENDBRANCH  15  18
ENDBRANCH   1  12
BRANCH   2  20
ATOM     20  O   UNL     1      42.483  -0.183  -2.561  1.00  0.00    -0.502 OA
ATOM     21  H   UNL     1      43.110  -0.425  -3.319  1.00  0.00     0.293 HD
ENDBRANCH   2  20
BRANCH   6  22
ATOM     22  O   UNL     1      43.137  -5.337  -1.383  1.00  0.00    -0.507 OA
ATOM     23  H   UNL     1      44.081  -5.353  -1.737  1.00  0.00     0.293 HD
ENDBRANCH   6  22
BRANCH   8  24
ATOM     24  O   UNL     1      41.802  -5.327   3.228  1.00  0.00    -0.508 OA
ATOM     25  H   UNL     1      42.342  -6.155   3.453  1.00  0.00     0.293 HD
ENDBRANCH   8  24
TORSDOF 5
ENDMDL
MODEL 7
REMARK VINA RESULT:    -4.141      7.663     11.004
REMARK INTER + INTRA:          -5.137
REMARK INTER:                  -4.840
REMARK INTRA:                  -0.297
REMARK UNBOUND:                -0.270
REMARK SMILES O=c1c(O)c(-c2ccc(O)cc2)oc2cc(O)cc(O)c12
REMARK SMILES IDX 5 1 3 2 2 3 1 4 21 5 19 6 18 7 16 8 15 9 14 10 13 11 6 12
REMARK SMILES IDX 7 13 8 14 9 15 12 16 11 17 10 18 4 20 20 22 17 24
REMARK H PARENT 10 19 4 21 20 23 17 25
REMARK Flexibility Score: inf
ROOT
ATOM      1  C   UNL     1      36.120   6.651  -6.666  1.00  0.00     0.180 A 
ATOM      2  C   UNL     1      35.412   7.841  -6.905  1.00  0.00     0.208 A 
ATOM      3  C   UNL     1      35.936   9.054  -6.431  1.00  0.00     0.238 A 
ATOM      4  O   UNL     1      35.261  10.104  -6.584  1.00  0.00    -0.285 OA
ATOM      5  C   UNL     1      37.190   9.069  -5.772  1.00  0.00     0.111 A 
ATOM      6  C   UNL     1      37.838  10.246  -5.288  1.00  0.00     0.134 A 
ATOM      7  C   UNL     1      39.027  10.129  -4.557  1.00  0.00     0.093 A 
ATOM      8  C   UNL     1      39.624   8.884  -4.347  1.00  0.00     0.123 A 
ATOM      9  C   UNL     1      39.028   7.736  -4.862  1.00  0.00     0.094 A 
ATOM     10  C   UNL     1      37.821   7.816  -5.562  1.00  0.00     0.146 A 
ATOM     11  O   UNL     1      37.277   6.693  -6.016  1.00  0.00    -0.452 OA
ENDROOT
BRANCH   1  12
ATOM     12  C   UNL     1      35.625   5.332  -7.122  1.00  0.00     0.021 A 
ATOM     13  C   UNL     1      36.047   4.827  -8.362  1.00  0.00     0.016 A 
ATOM     14  C   UNL     1      35.610   3.574  -8.804  1.00  0.00     0.047 A 
ATOM     15  C   UNL     1      34.759   2.805  -8.005  1.00  0.00     0.115 A 
ATOM     16  C   UNL     1      34.785   4.545  -6.313  1.00  0.00     0.016 A 
ATOM     17  C   UNL     1      34.350   3.292  -6.756  1.00  0.00     0.047 A 
BRANCH  15  18
ATOM     18  O   UNL     1      34.331   1.559  -8.456  1.00  0.00    -0.508 OA
ATOM     19  H   UNL     1      33.702   1.468  -9.245  1.00  0.00     0.293 HD
ENDBRANCH  15  18
ENDBRANCH   1  12
BRANCH   2  20
ATOM     20  O   UNL     1      34.214   7.813  -7.626  1.00  0.00    -0.502 OA
ATOM     21  H   UNL     1      34.188   7.691  -8.631  1.00  0.00     0.293 HD
ENDBRANCH   2  20
BRANCH   6  22
ATOM     22  O   UNL     1      37.376  11.546  -5.518  1.00  0.00    -0.507 OA
ATOM     23  H   UNL     1      36.735  11.811  -6.250  1.00  0.00     0.293 HD
ENDBRANCH   6  22
BRANCH   8  24
ATOM     24  O   UNL     1      40.816   8.778  -3.633  1.00  0.00    -0.508 OA
ATOM     25  H   UNL     1      41.236   9.582  -3.182  1.00  0.00     0.293 HD
ENDBRANCH   8  24
TORSDOF 5
ENDMDL
MODEL 8
REMARK VINA RESULT:    -4.137      1.777      3.584
REMARK INTER + INTRA:          -5.133
REMARK INTER:                  -4.852
REMARK INTRA:                  -0.281
REMARK UNBOUND:                -0.270
REMARK SMILES O=c1c(O)c(-c2ccc(O)cc2)oc2cc(O)cc(O)c12
REMARK SMILES IDX 5 1 3 2 2 3 1 4 21 5 19 6 18 7 16 8 15 9 14 10 13 11 6 12
REMARK SMILES IDX 7 13 8 14 9 15 12 16 11 17 10 18 4 20 20 22 17 24
REMARK H PARENT 10 19 4 21 20 23 17 25
REMARK Flexibility Score: inf
ROOT
ATOM      1  C   UNL     1      41.536   0.256  -2.203  1.00  0.00     0.180 A 
ATOM      2  C   UNL     1      41.316   0.106  -3.583  1.00  0.00     0.208 A 
ATOM      3  C   UNL     1      41.648  -1.112  -4.198  1.00  0.00     0.238 A 
ATOM      4  O   UNL     1      41.517  -1.214  -5.444  1.00  0.00    -0.285 OA
ATOM      5  C   UNL     1      42.144  -2.184  -3.415  1.00  0.00     0.111 A 
ATOM      6  C   UNL     1      42.472  -3.477  -3.925  1.00  0.00     0.134 A 
ATOM      7  C   UNL     1      43.055  -4.426  -3.076  1.00  0.00     0.093 A 
ATOM      8  C   UNL     1      43.264  -4.152  -1.723  1.00  0.00     0.123 A 
ATOM      9  C   UNL     1      42.897  -2.912  -1.205  1.00  0.00     0.094 A 
ATOM     10  C   UNL     1      42.349  -1.931  -2.034  1.00  0.00     0.146 A 
ATOM     11  O   UNL     1      42.034  -0.756  -1.502  1.00  0.00    -0.452 OA
ENDROOT
BRANCH   1  12
ATOM     12  C   UNL     1      41.225   1.514  -1.487  1.00  0.00     0.021 A 
ATOM     13  C   UNL     1      42.163   2.560  -1.488  1.00  0.00     0.016 A 
ATOM     14  C   UNL     1      41.881   3.765  -0.837  1.00  0.00     0.047 A 
ATOM     15  C   UNL     1      40.655   3.946  -0.191  1.00  0.00     0.115 A 
ATOM     16  C   UNL     1      39.985   1.709  -0.852  1.00  0.00     0.016 A 
ATOM     17  C   UNL     1      39.705   2.915  -0.202  1.00  0.00     0.047 A 
BRANCH  15  18
ATOM     18  O   UNL     1      40.387   5.151   0.454  1.00  0.00    -0.508 OA
ATOM     19  H   UNL     1      41.108   5.655   0.957  1.00  0.00     0.293 HD
ENDBRANCH  15  18
ENDBRANCH   1  12
BRANCH   2  20
ATOM     20  O   UNL     1      40.753   1.149  -4.323  1.00  0.00    -0.502 OA
ATOM     21  H   UNL     1      39.996   1.003  -4.981  1.00  0.00     0.293 HD
ENDBRANCH   2  20
BRANCH   6  22
ATOM     22  O   UNL     1      42.223  -3.888  -5.239  1.00  0.00    -0.507 OA
ATOM     23  H   UNL     1      41.310  -4.077  -5.622  1.00  0.00     0.293 HD
ENDBRANCH   6  22
BRANCH   8  24
ATOM     24  O   UNL     1      43.829  -5.107  -0.882  1.00  0.00    -0.508 OA
ATOM     25  H   UNL     1      43.687  -5.081   0.121  1.00  0.00     0.293 HD
ENDBRANCH   8  24
TORSDOF 5
ENDMDL
MODEL 9
REMARK VINA RESULT:    -4.124      3.141      4.253
REMARK INTER + INTRA:          -5.117
REMARK INTER:                  -4.829
REMARK INTRA:                  -0.288
REMARK UNBOUND:                -0.270
REMARK SMILES O=c1c(O)c(-c2ccc(O)cc2)oc2cc(O)cc(O)c12
REMARK SMILES IDX 5 1 3 2 2 3 1 4 21 5 19 6 18 7 16 8 15 9 14 10 13 11 6 12
REMARK SMILES IDX 7 13 8 14 9 15 12 16 11 17 10 18 4 20 20 22 17 24
REMARK H PARENT 10 19 4 21 20 23 17 25
REMARK Flexibility Score: inf
ROOT
ATOM      1  C   UNL     1      41.874  -0.605  -0.383  1.00  0.00     0.180 A 
ATOM      2  C   UNL     1      41.890  -1.406   0.773  1.00  0.00     0.208 A 
ATOM      3  C   UNL     1      42.240  -2.761   0.658  1.00  0.00     0.238 A 
ATOM      4  O   UNL     1      42.180  -3.488   1.682  1.00  0.00    -0.285 OA
ATOM      5  C   UNL     1      42.625  -3.285  -0.601  1.00  0.00     0.111 A 
ATOM      6  C   UNL     1      43.043  -4.632  -0.826  1.00  0.00     0.134 A 
ATOM      7  C   UNL     1      43.299  -5.066  -2.133  1.00  0.00     0.093 A 
ATOM      8  C   UNL     1      43.214  -4.187  -3.214  1.00  0.00     0.123 A 
ATOM      9  C   UNL     1      42.860  -2.857  -2.998  1.00  0.00     0.094 A 
ATOM     10  C   UNL     1      42.562  -2.403  -1.711  1.00  0.00     0.146 A 
ATOM     11  O   UNL     1      42.208  -1.133  -1.554  1.00  0.00    -0.452 OA
ENDROOT
BRANCH   1  12
ATOM     12  C   UNL     1      41.501   0.827  -0.345  1.00  0.00     0.021 A 
ATOM     13  C   UNL     1      40.149   1.193  -0.453  1.00  0.00     0.016 A 
ATOM     14  C   UNL     1      39.772   2.538  -0.397  1.00  0.00     0.047 A 
ATOM     15  C   UNL     1      40.738   3.533  -0.217  1.00  0.00     0.115 A 
ATOM     16  C   UNL     1      42.466   1.831  -0.143  1.00  0.00     0.016 A 
ATOM     17  C   UNL     1      42.087   3.175  -0.087  1.00  0.00     0.047 A 
BRANCH  15  18
ATOM     18  O   UNL     1      40.349   4.869  -0.163  1.00  0.00    -0.508 OA
ATOM     19  H   UNL     1      39.890   5.319  -0.946  1.00  0.00     0.293 HD
ENDBRANCH  15  18
ENDBRANCH   1  12
BRANCH   2  20
ATOM     20  O   UNL     1      41.581  -0.850   2.017  1.00  0.00    -0.502 OA
ATOM     21  H   UNL     1      42.285  -0.679   2.725  1.00  0.00     0.293 HD
ENDBRANCH   2  20
BRANCH   6  22
ATOM     22  O   UNL     1      43.246  -5.570   0.192  1.00  0.00    -0.507 OA
ATOM     23  H   UNL     1      43.665  -6.478   0.065  1.00  0.00     0.293 HD
ENDBRANCH   6  22
BRANCH   8  24
ATOM     24  O   UNL     1      43.487  -4.623  -4.508  1.00  0.00    -0.508 OA
ATOM     25  H   UNL     1      44.090  -4.096  -5.130  1.00  0.00     0.293 HD
ENDBRANCH   8  24
TORSDOF 5
ENDMDL
