MODEL 1
REMARK VINA RESULT:    -4.298      0.000      0.000
REMARK INTER + INTRA:          -9.067
REMARK INTER:                  -7.815
REMARK INTRA:                  -1.252
REMARK UNBOUND:                -1.252
REMARK SMILES CCCCCCCCCCCCCCCC(=O)[O-]
REMARK SMILES IDX 9 1 10 2 11 3 12 4 13 5 14 6 15 7 16 8 17 9 18 10 8 11 7 12
REMARK SMILES IDX 6 13 5 14 4 15 3 16 2 17 1 18
REMARK H PARENT
REMARK Flexibility Score: inf
ROOT
ATOM      1  C   UNL     1      26.595  -0.387  42.886  1.00  0.00     0.000 C 
ENDROOT
BRANCH   1   2
ATOM      2  C   UNL     1      26.604   0.514  44.136  1.00  0.00     0.000 C 
BRANCH   2   3
ATOM      3  C   UNL     1      26.394   2.014  43.858  1.00  0.00     0.000 C 
BRANCH   3   4
ATOM      4  C   UNL     1      25.674   2.306  42.524  1.00  0.00     0.000 C 
BRANCH   4   5
ATOM      5  C   UNL     1      26.411   3.359  41.677  1.00  0.00     0.000 C 
BRANCH   5   6
ATOM      6  C   UNL     1      26.457   2.989  40.185  1.00  0.00     0.006 C 
BRANCH   6   7
ATOM      7  C   UNL     1      25.761   1.655  39.888  1.00  0.00     0.053 C 
BRANCH   7   8
ATOM      8  C   UNL     1      26.552   0.864  38.895  1.00  0.00     0.041 C 
ATOM      9  O   UNL     1      25.985   0.353  37.894  1.00  0.00    -0.550 OA
ATOM     10  O   UNL     1      27.910   0.650  39.101  1.00  0.00    -0.550 OA
ENDBRANCH   7   8
ENDBRANCH   6   7
ENDBRANCH   5   6
ENDBRANCH   4   5
ENDBRANCH   3   4
ENDBRANCH   2   3
ENDBRANCH   1   2
BRANCH   1  11
ATOM     11  C   UNL     1      27.817  -1.314  42.747  1.00  0.00     0.000 C 
BRANCH  11  12
ATOM     12  C   UNL     1      28.046  -2.191  43.989  1.00  0.00    -0.000 C 
BRANCH  12  13
ATOM     13  C   UNL     1      27.375  -3.570  43.857  1.00  0.00    -0.000 C 
BRANCH  13  14
ATOM     14  C   UNL     1      26.863  -4.134  45.202  1.00  0.00    -0.000 C 
BRANCH  14  15
ATOM     15  C   UNL     1      27.924  -4.125  46.319  1.00  0.00    -0.000 C 
BRANCH  15  16
ATOM     16  C   UNL     1      29.050  -5.158  46.140  1.00  0.00    -0.000 C 
BRANCH  16  17
ATOM     17  C   UNL     1      30.431  -4.602  46.519  1.00  0.00    -0.003 C 
ATOM     18  C   UNL     1      30.344  -3.124  46.889  1.00  0.00     0.004 C 
ENDBRANCH  16  17
ENDBRANCH  15  16
ENDBRANCH  14  15
ENDBRANCH  13  14
ENDBRANCH  12  13
ENDBRANCH  11  12
ENDBRANCH   1  11
TORSDOF 14
ENDMDL
MODEL 2
REMARK VINA RESULT:    -4.291      1.647      2.519
REMARK INTER + INTRA:          -9.056
REMARK INTER:                  -8.021
REMARK INTRA:                  -1.035
REMARK UNBOUND:                -1.252
REMARK SMILES CCCCCCCCCCCCCCCC(=O)[O-]
REMARK SMILES IDX 9 1 10 2 11 3 12 4 13 5 14 6 15 7 16 8 17 9 18 10 8 11 7 12
REMARK SMILES IDX 6 13 5 14 4 15 3 16 2 17 1 18
REMARK H PARENT
REMARK Flexibility Score: inf
ROOT
ATOM      1  C   UNL     1      27.827  -1.484  43.354  1.00  0.00     0.000 C 
ENDROOT
BRANCH   1   2
ATOM      2  C   UNL     1      26.524  -0.695  43.125  1.00  0.00     0.000 C 
BRANCH   2   3
ATOM      3  C   UNL     1      26.426   0.638  43.890  1.00  0.00     0.000 C 
BRANCH   3   4
ATOM      4  C   UNL     1      25.613   1.723  43.152  1.00  0.00     0.000 C 
BRANCH   4   5
ATOM      5  C   UNL     1      26.467   2.950  42.786  1.00  0.00     0.000 C 
BRANCH   5   6
ATOM      6  C   UNL     1      26.083   3.551  41.425  1.00  0.00     0.006 C 
BRANCH   6   7
ATOM      7  C   UNL     1      25.139   2.644  40.626  1.00  0.00     0.053 C 
BRANCH   7   8
ATOM      8  C   UNL     1      25.870   2.002  39.490  1.00  0.00     0.041 C 
ATOM      9  O   UNL     1      26.040   0.755  39.469  1.00  0.00    -0.550 OA
ATOM     10  O   UNL     1      26.407   2.787  38.477  1.00  0.00    -0.550 OA
ENDBRANCH   7   8
ENDBRANCH   6   7
ENDBRANCH   5   6
ENDBRANCH   4   5
ENDBRANCH   3   4
ENDBRANCH   2   3
ENDBRANCH   1   2
BRANCH   1  11
ATOM     11  C   UNL     1      27.935  -2.171  44.728  1.00  0.00     0.000 C 
BRANCH  11  12
ATOM     12  C   UNL     1      28.253  -3.672  44.622  1.00  0.00    -0.000 C 
BRANCH  12  13
ATOM     13  C   UNL     1      27.320  -4.394  43.633  1.00  0.00    -0.000 C 
BRANCH  13  14
ATOM     14  C   UNL     1      25.859  -4.490  44.129  1.00  0.00    -0.000 C 
BRANCH  14  15
ATOM     15  C   UNL     1      25.461  -5.899  44.609  1.00  0.00    -0.000 C 
BRANCH  15  16
ATOM     16  C   UNL     1      25.038  -5.976  46.087  1.00  0.00    -0.000 C 
BRANCH  16  17
ATOM     17  C   UNL     1      26.096  -5.396  47.037  1.00  0.00    -0.003 C 
ATOM     18  C   UNL     1      25.534  -5.230  48.447  1.00  0.00     0.004 C 
ENDBRANCH  16  17
ENDBRANCH  15  16
ENDBRANCH  14  15
ENDBRANCH  13  14
ENDBRANCH  12  13
ENDBRANCH  11  12
ENDBRANCH   1  11
TORSDOF 14
ENDMDL
MODEL 3
REMARK VINA RESULT:    -4.289      3.012      7.444
REMARK INTER + INTRA:          -9.051
REMARK INTER:                  -7.686
REMARK INTRA:                  -1.365
REMARK UNBOUND:                -1.252
REMARK SMILES CCCCCCCCCCCCCCCC(=O)[O-]
REMARK SMILES IDX 9 1 10 2 11 3 12 4 13 5 14 6 15 7 16 8 17 9 18 10 8 11 7 12
REMARK SMILES IDX 6 13 5 14 4 15 3 16 2 17 1 18
REMARK H PARENT
REMARK Flexibility Score: inf
ROOT
ATOM      1  C   UNL     1      26.600   0.062  42.725  1.00  0.00     0.000 C 
ENDROOT
BRANCH   1   2
ATOM      2  C   UNL     1      26.581  -1.288  43.469  1.00  0.00     0.000 C 
BRANCH   2   3
ATOM      3  C   UNL     1      27.956  -1.967  43.617  1.00  0.00     0.000 C 
BRANCH   3   4
ATOM      4  C   UNL     1      28.580  -1.810  45.020  1.00  0.00     0.000 C 
BRANCH   4   5
ATOM      5  C   UNL     1      28.664  -3.146  45.779  1.00  0.00     0.000 C 
BRANCH   5   6
ATOM      6  C   UNL     1      27.969  -4.295  45.030  1.00  0.00     0.006 C 
BRANCH   6   7
ATOM      7  C   UNL     1      26.621  -4.676  45.655  1.00  0.00     0.053 C 
BRANCH   7   8
ATOM      8  C   UNL     1      25.692  -5.202  44.609  1.00  0.00     0.041 C 
ATOM      9  O   UNL     1      25.352  -4.476  43.638  1.00  0.00    -0.550 OA
ATOM     10  O   UNL     1      25.161  -6.481  44.731  1.00  0.00    -0.550 OA
ENDBRANCH   7   8
ENDBRANCH   6   7
ENDBRANCH   5   6
ENDBRANCH   4   5
ENDBRANCH   3   4
ENDBRANCH   2   3
ENDBRANCH   1   2
BRANCH   1  11
ATOM     11  C   UNL     1      25.964   1.234  43.496  1.00  0.00     0.000 C 
BRANCH  11  12
ATOM     12  C   UNL     1      26.239   2.598  42.840  1.00  0.00    -0.000 C 
BRANCH  12  13
ATOM     13  C   UNL     1      25.282   2.881  41.668  1.00  0.00    -0.000 C 
BRANCH  13  14
ATOM     14  C   UNL     1      25.985   2.884  40.291  1.00  0.00    -0.000 C 
BRANCH  14  15
ATOM     15  C   UNL     1      25.326   1.948  39.259  1.00  0.00    -0.000 C 
BRANCH  15  16
ATOM     16  C   UNL     1      26.131   0.674  38.946  1.00  0.00    -0.000 C 
BRANCH  16  17
ATOM     17  C   UNL     1      27.646   0.875  39.106  1.00  0.00    -0.003 C 
ATOM     18  C   UNL     1      28.334  -0.431  39.494  1.00  0.00     0.004 C 
ENDBRANCH  16  17
ENDBRANCH  15  16
ENDBRANCH  14  15
ENDBRANCH  13  14
ENDBRANCH  12  13
ENDBRANCH  11  12
ENDBRANCH   1  11
TORSDOF 14
ENDMDL
MODEL 4
REMARK VINA RESULT:    -4.224      5.595      8.094
REMARK INTER + INTRA:          -8.934
REMARK INTER:                  -7.794
REMARK INTRA:                  -1.140
REMARK UNBOUND:                -1.252
REMARK SMILES CCCCCCCCCCCCCCCC(=O)[O-]
REMARK SMILES IDX 9 1 10 2 11 3 12 4 13 5 14 6 15 7 16 8 17 9 18 10 8 11 7 12
REMARK SMILES IDX 6 13 5 14 4 15 3 16 2 17 1 18
REMARK H PARENT
REMARK Flexibility Score: inf
ROOT
ATOM      1  C   UNL     1      23.949  -2.981  36.621  1.00  0.00     0.000 C 
ENDROOT
BRANCH   1   2
ATOM      2  C   UNL     1      24.297  -1.493  36.426  1.00  0.00     0.000 C 
BRANCH   2   3
ATOM      3  C   UNL     1      25.577  -1.024  37.144  1.00  0.00     0.000 C 
BRANCH   3   4
ATOM      4  C   UNL     1      25.543   0.457  37.575  1.00  0.00     0.000 C 
BRANCH   4   5
ATOM      5  C   UNL     1      26.697   0.819  38.527  1.00  0.00     0.000 C 
BRANCH   5   6
ATOM      6  C   UNL     1      26.210   1.137  39.950  1.00  0.00     0.006 C 
BRANCH   6   7
ATOM      7  C   UNL     1      25.283   2.358  39.996  1.00  0.00     0.053 C 
BRANCH   7   8
ATOM      8  C   UNL     1      25.461   3.099  41.283  1.00  0.00     0.041 C 
ATOM      9  O   UNL     1      24.605   2.991  42.200  1.00  0.00    -0.550 OA
ATOM     10  O   UNL     1      26.547   3.948  41.452  1.00  0.00    -0.550 OA
ENDBRANCH   7   8
ENDBRANCH   6   7
ENDBRANCH   5   6
ENDBRANCH   4   5
ENDBRANCH   3   4
ENDBRANCH   2   3
ENDBRANCH   1   2
BRANCH   1  11
ATOM     11  C   UNL     1      22.444  -3.283  36.748  1.00  0.00     0.000 C 
BRANCH  11  12
ATOM     12  C   UNL     1      22.078  -4.700  36.275  1.00  0.00    -0.000 C 
BRANCH  12  13
ATOM     13  C   UNL     1      22.724  -5.045  34.922  1.00  0.00    -0.000 C 
BRANCH  13  14
ATOM     14  C   UNL     1      23.514  -6.373  34.940  1.00  0.00    -0.000 C 
BRANCH  14  15
ATOM     15  C   UNL     1      24.291  -6.611  36.249  1.00  0.00    -0.000 C 
BRANCH  15  16
ATOM     16  C   UNL     1      25.819  -6.693  36.080  1.00  0.00    -0.000 C 
BRANCH  16  17
ATOM     17  C   UNL     1      26.400  -5.476  35.346  1.00  0.00    -0.003 C 
ATOM     18  C   UNL     1      27.230  -4.611  36.291  1.00  0.00     0.004 C 
ENDBRANCH  16  17
ENDBRANCH  15  16
ENDBRANCH  14  15
ENDBRANCH  13  14
ENDBRANCH  12  13
ENDBRANCH  11  12
ENDBRANCH   1  11
TORSDOF 14
ENDMDL
MODEL 5
REMARK VINA RESULT:    -4.208      3.772      5.988
REMARK INTER + INTRA:          -8.903
REMARK INTER:                  -7.740
REMARK INTRA:                  -1.163
REMARK UNBOUND:                -1.252
REMARK SMILES CCCCCCCCCCCCCCCC(=O)[O-]
REMARK SMILES IDX 9 1 10 2 11 3 12 4 13 5 14 6 15 7 16 8 17 9 18 10 8 11 7 12
REMARK SMILES IDX 6 13 5 14 4 15 3 16 2 17 1 18
REMARK H PARENT
REMARK Flexibility Score: inf
ROOT
ATOM      1  C   UNL     1      25.833  -5.032  44.391  1.00  0.00     0.000 C 
ENDROOT
BRANCH   1   2
ATOM      2  C   UNL     1      27.056  -5.164  43.464  1.00  0.00     0.000 C 
BRANCH   2   3
ATOM      3  C   UNL     1      27.872  -3.872  43.274  1.00  0.00     0.000 C 
BRANCH   3   4
ATOM      4  C   UNL     1      27.886  -2.955  44.516  1.00  0.00     0.000 C 
BRANCH   4   5
ATOM      5  C   UNL     1      27.809  -1.463  44.146  1.00  0.00     0.000 C 
BRANCH   5   6
ATOM      6  C   UNL     1      26.499  -1.099  43.429  1.00  0.00     0.006 C 
BRANCH   6   7
ATOM      7  C   UNL     1      26.521   0.320  42.847  1.00  0.00     0.053 C 
BRANCH   7   8
ATOM      8  C   UNL     1      26.049   1.308  43.866  1.00  0.00     0.041 C 
ATOM      9  O   UNL     1      26.879   2.015  44.496  1.00  0.00    -0.550 OA
ATOM     10  O   UNL     1      24.694   1.414  44.155  1.00  0.00    -0.550 OA
ENDBRANCH   7   8
ENDBRANCH   6   7
ENDBRANCH   5   6
ENDBRANCH   4   5
ENDBRANCH   3   4
ENDBRANCH   2   3
ENDBRANCH   1   2
BRANCH   1  11
ATOM     11  C   UNL     1      25.365  -6.348  45.039  1.00  0.00     0.000 C 
BRANCH  11  12
ATOM     12  C   UNL     1      24.962  -6.178  46.513  1.00  0.00    -0.000 C 
BRANCH  12  13
ATOM     13  C   UNL     1      25.874  -5.183  47.253  1.00  0.00    -0.000 C 
BRANCH  13  14
ATOM     14  C   UNL     1      25.623  -5.139  48.777  1.00  0.00    -0.000 C 
BRANCH  14  15
ATOM     15  C   UNL     1      24.486  -6.068  49.244  1.00  0.00    -0.000 C 
BRANCH  15  16
ATOM     16  C   UNL     1      23.410  -5.381  50.104  1.00  0.00    -0.000 C 
BRANCH  16  17
ATOM     17  C   UNL     1      22.056  -5.274  49.387  1.00  0.00    -0.003 C 
ATOM     18  C   UNL     1      21.861  -6.430  48.410  1.00  0.00     0.004 C 
ENDBRANCH  16  17
ENDBRANCH  15  16
ENDBRANCH  14  15
ENDBRANCH  13  14
ENDBRANCH  12  13
ENDBRANCH  11  12
ENDBRANCH   1  11
TORSDOF 14
ENDMDL
MODEL 6
REMARK VINA RESULT:    -4.186      7.577      9.986
REMARK INTER + INTRA:          -8.865
REMARK INTER:                  -6.929
REMARK INTRA:                  -1.936
REMARK UNBOUND:                -1.252
REMARK SMILES CCCCCCCCCCCCCCCC(=O)[O-]
REMARK SMILES IDX 9 1 10 2 11 3 12 4 13 5 14 6 15 7 16 8 17 9 18 10 8 11 7 12
REMARK SMILES IDX 6 13 5 14 4 15 3 16 2 17 1 18
REMARK H PARENT
REMARK Flexibility Score: inf
ROOT
ATOM      1  C   UNL     1      26.166  -5.840  36.462  1.00  0.00     0.000 C 
ENDROOT
BRANCH   1   2
ATOM      2  C   UNL     1      26.990  -5.490  35.208  1.00  0.00     0.000 C 
BRANCH   2   3
ATOM      3  C   UNL     1      27.915  -4.267  35.356  1.00  0.00     0.000 C 
BRANCH   3   4
ATOM      4  C   UNL     1      27.870  -3.619  36.757  1.00  0.00     0.000 C 
BRANCH   4   5
ATOM      5  C   UNL     1      29.063  -4.037  37.636  1.00  0.00     0.000 C 
BRANCH   5   6
ATOM      6  C   UNL     1      30.151  -4.775  36.840  1.00  0.00     0.006 C 
BRANCH   6   7
ATOM      7  C   UNL     1      31.468  -3.991  36.775  1.00  0.00     0.053 C 
BRANCH   7   8
ATOM      8  C   UNL     1      31.720  -3.512  35.381  1.00  0.00     0.041 C 
ATOM      9  O   UNL     1      31.108  -2.506  34.935  1.00  0.00    -0.550 OA
ATOM     10  O   UNL     1      32.596  -4.206  34.555  1.00  0.00    -0.550 OA
ENDBRANCH   7   8
ENDBRANCH   6   7
ENDBRANCH   5   6
ENDBRANCH   4   5
ENDBRANCH   3   4
ENDBRANCH   2   3
ENDBRANCH   1   2
BRANCH   1  11
ATOM     11  C   UNL     1      24.999  -6.814  36.219  1.00  0.00     0.000 C 
BRANCH  11  12
ATOM     12  C   UNL     1      24.584  -6.891  34.740  1.00  0.00    -0.000 C 
BRANCH  12  13
ATOM     13  C   UNL     1      23.225  -6.216  34.483  1.00  0.00    -0.000 C 
BRANCH  13  14
ATOM     14  C   UNL     1      22.560  -5.669  35.767  1.00  0.00    -0.000 C 
BRANCH  14  15
ATOM     15  C   UNL     1      22.058  -4.218  35.633  1.00  0.00    -0.000 C 
BRANCH  15  16
ATOM     16  C   UNL     1      22.547  -3.268  36.740  1.00  0.00    -0.000 C 
BRANCH  16  17
ATOM     17  C   UNL     1      24.059  -3.002  36.668  1.00  0.00    -0.003 C 
ATOM     18  C   UNL     1      24.487  -2.655  35.245  1.00  0.00     0.004 C 
ENDBRANCH  16  17
ENDBRANCH  15  16
ENDBRANCH  14  15
ENDBRANCH  13  14
ENDBRANCH  12  13
ENDBRANCH  11  12
ENDBRANCH   1  11
TORSDOF 14
ENDMDL
MODEL 7
REMARK VINA RESULT:    -4.181      5.469      8.954
REMARK INTER + INTRA:          -8.856
REMARK INTER:                  -7.485
REMARK INTRA:                  -1.371
REMARK UNBOUND:                -1.252
REMARK SMILES CCCCCCCCCCCCCCCC(=O)[O-]
REMARK SMILES IDX 9 1 10 2 11 3 12 4 13 5 14 6 15 7 16 8 17 9 18 10 8 11 7 12
REMARK SMILES IDX 6 13 5 14 4 15 3 16 2 17 1 18
REMARK H PARENT
REMARK Flexibility Score: inf
ROOT
ATOM      1  C   UNL     1      25.636  -5.067  44.002  1.00  0.00     0.000 C 
ENDROOT
BRANCH   1   2
ATOM      2  C   UNL     1      24.938  -6.329  44.543  1.00  0.00     0.000 C 
BRANCH   2   3
ATOM      3  C   UNL     1      25.439  -6.811  45.918  1.00  0.00     0.000 C 
BRANCH   3   4
ATOM      4  C   UNL     1      24.759  -6.105  47.111  1.00  0.00     0.000 C 
BRANCH   4   5
ATOM      5  C   UNL     1      25.756  -5.294  47.958  1.00  0.00     0.000 C 
BRANCH   5   6
ATOM      6  C   UNL     1      25.294  -5.132  49.416  1.00  0.00     0.006 C 
BRANCH   6   7
ATOM      7  C   UNL     1      24.130  -6.065  49.772  1.00  0.00     0.053 C 
BRANCH   7   8
ATOM      8  C   UNL     1      23.015  -5.289  50.399  1.00  0.00     0.041 C 
ATOM      9  O   UNL     1      22.582  -4.243  49.849  1.00  0.00    -0.550 OA
ATOM     10  O   UNL     1      22.485  -5.696  51.618  1.00  0.00    -0.550 OA
ENDBRANCH   7   8
ENDBRANCH   6   7
ENDBRANCH   5   6
ENDBRANCH   4   5
ENDBRANCH   3   4
ENDBRANCH   2   3
ENDBRANCH   1   2
BRANCH   1  11
ATOM     11  C   UNL     1      27.082  -5.284  43.517  1.00  0.00     0.000 C 
BRANCH  11  12
ATOM     12  C   UNL     1      28.127  -4.647  44.448  1.00  0.00    -0.000 C 
BRANCH  12  13
ATOM     13  C   UNL     1      27.564  -3.431  45.205  1.00  0.00    -0.000 C 
BRANCH  13  14
ATOM     14  C   UNL     1      28.291  -2.109  44.870  1.00  0.00    -0.000 C 
BRANCH  14  15
ATOM     15  C   UNL     1      27.898  -1.518  43.502  1.00  0.00    -0.000 C 
BRANCH  15  16
ATOM     16  C   UNL     1      26.442  -1.027  43.412  1.00  0.00    -0.000 C 
BRANCH  16  17
ATOM     17  C   UNL     1      26.340   0.490  43.193  1.00  0.00    -0.003 C 
ATOM     18  C   UNL     1      25.322   1.114  44.143  1.00  0.00     0.004 C 
ENDBRANCH  16  17
ENDBRANCH  15  16
ENDBRANCH  14  15
ENDBRANCH  13  14
ENDBRANCH  12  13
ENDBRANCH  11  12
ENDBRANCH   1  11
TORSDOF 14
ENDMDL
MODEL 8
REMARK VINA RESULT:    -4.180      5.479      8.282
REMARK INTER + INTRA:          -8.852
REMARK INTER:                  -7.940
REMARK INTRA:                  -0.913
REMARK UNBOUND:                -1.252
REMARK SMILES CCCCCCCCCCCCCCCC(=O)[O-]
REMARK SMILES IDX 9 1 10 2 11 3 12 4 13 5 14 6 15 7 16 8 17 9 18 10 8 11 7 12
REMARK SMILES IDX 6 13 5 14 4 15 3 16 2 17 1 18
REMARK H PARENT
REMARK Flexibility Score: inf
ROOT
ATOM      1  C   UNL     1      24.255  -1.291  36.706  1.00  0.00     0.000 C 
ENDROOT
BRANCH   1   2
ATOM      2  C   UNL     1      25.614  -0.844  37.277  1.00  0.00     0.000 C 
BRANCH   2   3
ATOM      3  C   UNL     1      25.654   0.602  37.805  1.00  0.00     0.000 C 
BRANCH   3   4
ATOM      4  C   UNL     1      26.496   0.775  39.087  1.00  0.00     0.000 C 
BRANCH   4   5
ATOM      5  C   UNL     1      26.516   2.231  39.586  1.00  0.00     0.000 C 
BRANCH   5   6
ATOM      6  C   UNL     1      25.453   2.500  40.663  1.00  0.00     0.006 C 
BRANCH   6   7
ATOM      7  C   UNL     1      26.062   2.685  42.058  1.00  0.00     0.053 C 
BRANCH   7   8
ATOM      8  C   UNL     1      25.775   1.493  42.914  1.00  0.00     0.041 C 
ATOM      9  O   UNL     1      24.946   1.574  43.858  1.00  0.00    -0.550 OA
ATOM     10  O   UNL     1      26.460   0.303  42.701  1.00  0.00    -0.550 OA
ENDBRANCH   7   8
ENDBRANCH   6   7
ENDBRANCH   5   6
ENDBRANCH   4   5
ENDBRANCH   3   4
ENDBRANCH   2   3
ENDBRANCH   1   2
BRANCH   1  11
ATOM     11  C   UNL     1      24.120  -2.806  36.465  1.00  0.00     0.000 C 
BRANCH  11  12
ATOM     12  C   UNL     1      22.670  -3.304  36.584  1.00  0.00    -0.000 C 
BRANCH  12  13
ATOM     13  C   UNL     1      22.314  -4.323  35.486  1.00  0.00    -0.000 C 
BRANCH  13  14
ATOM     14  C   UNL     1      22.897  -5.731  35.745  1.00  0.00    -0.000 C 
BRANCH  14  15
ATOM     15  C   UNL     1      23.211  -6.516  34.457  1.00  0.00    -0.000 C 
BRANCH  15  16
ATOM     16  C   UNL     1      24.679  -6.440  34.003  1.00  0.00    -0.000 C 
BRANCH  16  17
ATOM     17  C   UNL     1      25.626  -5.999  35.130  1.00  0.00    -0.003 C 
ATOM     18  C   UNL     1      26.583  -4.913  34.647  1.00  0.00     0.004 C 
ENDBRANCH  16  17
ENDBRANCH  15  16
ENDBRANCH  14  15
ENDBRANCH  13  14
ENDBRANCH  12  13
ENDBRANCH  11  12
ENDBRANCH   1  11
TORSDOF 14
ENDMDL
MODEL 9
REMARK VINA RESULT:    -4.159      1.345      2.634
REMARK INTER + INTRA:          -8.816
REMARK INTER:                  -7.595
REMARK INTRA:                  -1.221
REMARK UNBOUND:                -1.252
REMARK SMILES CCCCCCCCCCCCCCCC(=O)[O-]
REMARK SMILES IDX 9 1 10 2 11 3 12 4 13 5 14 6 15 7 16 8 17 9 18 10 8 11 7 12
REMARK SMILES IDX 6 13 5 14 4 15 3 16 2 17 1 18
REMARK H PARENT
REMARK Flexibility Score: inf
ROOT
ATOM      1  C   UNL     1      27.314  -3.640  43.436  1.00  0.00     0.000 C 
ENDROOT
BRANCH   1   2
ATOM      2  C   UNL     1      27.735  -2.244  43.935  1.00  0.00     0.000 C 
BRANCH   2   3
ATOM      3  C   UNL     1      27.163  -1.064  43.128  1.00  0.00     0.000 C 
BRANCH   3   4
ATOM      4  C   UNL     1      26.802   0.165  43.990  1.00  0.00     0.000 C 
BRANCH   4   5
ATOM      5  C   UNL     1      25.666   1.001  43.375  1.00  0.00     0.000 C 
BRANCH   5   6
ATOM      6  C   UNL     1      26.166   2.322  42.770  1.00  0.00     0.006 C 
BRANCH   6   7
ATOM      7  C   UNL     1      25.465   2.669  41.450  1.00  0.00     0.053 C 
BRANCH   7   8
ATOM      8  C   UNL     1      26.238   2.125  40.291  1.00  0.00     0.041 C 
ATOM      9  O   UNL     1      26.745   2.907  39.444  1.00  0.00    -0.550 OA
ATOM     10  O   UNL     1      26.358   0.752  40.119  1.00  0.00    -0.550 OA
ENDBRANCH   7   8
ENDBRANCH   6   7
ENDBRANCH   5   6
ENDBRANCH   4   5
ENDBRANCH   3   4
ENDBRANCH   2   3
ENDBRANCH   1   2
BRANCH   1  11
ATOM     11  C   UNL     1      25.868  -4.042  43.781  1.00  0.00     0.000 C 
BRANCH  11  12
ATOM     12  C   UNL     1      25.763  -5.468  44.347  1.00  0.00    -0.000 C 
BRANCH  12  13
ATOM     13  C   UNL     1      25.484  -5.473  45.860  1.00  0.00    -0.000 C 
BRANCH  13  14
ATOM     14  C   UNL     1      26.748  -5.235  46.717  1.00  0.00    -0.000 C 
BRANCH  14  15
ATOM     15  C   UNL     1      27.911  -6.189  46.382  1.00  0.00    -0.000 C 
BRANCH  15  16
ATOM     16  C   UNL     1      29.299  -5.524  46.362  1.00  0.00    -0.000 C 
BRANCH  16  17
ATOM     17  C   UNL     1      29.230  -4.001  46.556  1.00  0.00    -0.003 C 
ATOM     18  C   UNL     1      30.596  -3.435  46.934  1.00  0.00     0.004 C 
ENDBRANCH  16  17
ENDBRANCH  15  16
ENDBRANCH  14  15
ENDBRANCH  13  14
ENDBRANCH  12  13
ENDBRANCH  11  12
ENDBRANCH   1  11
TORSDOF 14
ENDMDL
