MODEL 1
REMARK VINA RESULT:    10.760      0.000      0.000
REMARK INTER + INTRA:          13.434
REMARK INTER:                  12.962
REMARK INTRA:                   0.471
REMARK UNBOUND:                 0.471
REMARK SMILES O=c1c(O)c(-c2ccc(O)c(O)c2)oc2cc(O)cc(O)c12
REMARK SMILES IDX 5 1 3 2 2 3 1 4 22 5 20 6 19 7 17 8 16 9 15 10 14 11 6 12
REMARK SMILES IDX 7 13 8 14 9 15 13 16 11 17 10 18 12 20 4 22 21 24 18 26
REMARK H PARENT 10 19 12 21 4 23 21 25 18 27
REMARK Flexibility Score: inf
ROOT
ATOM      1  C   UNL     1      24.298  -9.818   7.909  1.00  0.00     0.180 A 
ATOM      2  C   UNL     1      22.908  -9.967   8.051  1.00  0.00     0.208 A 
ATOM      3  C   UNL     1      22.345  -9.929   9.337  1.00  0.00     0.238 A 
ATOM      4  O   UNL     1      21.094 -10.009   9.452  1.00  0.00    -0.285 OA
ATOM      5  C   UNL     1      23.182  -9.756  10.466  1.00  0.00     0.111 A 
ATOM      6  C   UNL     1      22.725  -9.742  11.819  1.00  0.00     0.134 A 
ATOM      7  C   UNL     1      23.623  -9.433  12.848  1.00  0.00     0.093 A 
ATOM      8  C   UNL     1      24.974  -9.203  12.579  1.00  0.00     0.123 A 
ATOM      9  C   UNL     1      25.442  -9.274  11.269  1.00  0.00     0.094 A 
ATOM     10  C   UNL     1      24.563  -9.545  10.217  1.00  0.00     0.146 A 
ATOM     11  O   UNL     1      25.047  -9.592   8.982  1.00  0.00    -0.452 OA
ENDROOT
BRANCH   1  12
ATOM     12  C   UNL     1      24.966  -9.873   6.589  1.00  0.00     0.025 A 
ATOM     13  C   UNL     1      24.226  -9.957   5.396  1.00  0.00     0.016 A 
ATOM     14  C   UNL     1      24.879 -10.033   4.164  1.00  0.00     0.051 A 
ATOM     15  C   UNL     1      26.278 -10.039   4.104  1.00  0.00     0.157 A 
ATOM     16  C   UNL     1      26.370  -9.901   6.525  1.00  0.00     0.062 A 
ATOM     17  C   UNL     1      27.025  -9.977   5.287  1.00  0.00     0.158 A 
BRANCH  15  18
ATOM     18  O   UNL     1      26.933 -10.112   2.876  1.00  0.00    -0.504 OA
ATOM     19  H   UNL     1      26.429 -10.026   2.001  1.00  0.00     0.293 HD
ENDBRANCH  15  18
BRANCH  17  20
ATOM     20  O   UNL     1      28.417  -9.990   5.226  1.00  0.00    -0.504 OA
ATOM     21  H   UNL     1      28.921 -10.716   4.731  1.00  0.00     0.293 HD
ENDBRANCH  17  20
ENDBRANCH   1  12
BRANCH   2  22
ATOM     22  O   UNL     1      22.098 -10.115   6.921  1.00  0.00    -0.502 OA
ATOM     23  H   UNL     1      21.239  -9.595   6.796  1.00  0.00     0.293 HD
ENDBRANCH   2  22
BRANCH   6  24
ATOM     24  O   UNL     1      21.416 -10.047  12.203  1.00  0.00    -0.507 OA
ATOM     25  H   UNL     1      21.014 -10.972  12.189  1.00  0.00     0.293 HD
ENDBRANCH   6  24
BRANCH   8  26
ATOM     26  O   UNL     1      25.865  -8.912  13.611  1.00  0.00    -0.508 OA
ATOM     27  H   UNL     1      25.557  -8.848  14.575  1.00  0.00     0.293 HD
ENDBRANCH   8  26
TORSDOF 6
ENDMDL
MODEL 2
REMARK VINA RESULT:    12.999      0.788      1.551
REMARK INTER + INTRA:          16.130
REMARK INTER:                  15.585
REMARK INTRA:                   0.545
REMARK UNBOUND:                 0.471
REMARK SMILES O=c1c(O)c(-c2ccc(O)c(O)c2)oc2cc(O)cc(O)c12
REMARK SMILES IDX 5 1 3 2 2 3 1 4 22 5 20 6 19 7 17 8 16 9 15 10 14 11 6 12
REMARK SMILES IDX 7 13 8 14 9 15 13 16 11 17 10 18 12 20 4 22 21 24 18 26
REMARK H PARENT 10 19 12 21 4 23 21 25 18 27
REMARK Flexibility Score: inf
ROOT
ATOM      1  C   UNL     1      24.140  -9.730   8.101  1.00  0.00     0.180 A 
ATOM      2  C   UNL     1      22.764  -9.933   8.306  1.00  0.00     0.208 A 
ATOM      3  C   UNL     1      22.263  -9.933   9.618  1.00  0.00     0.238 A 
ATOM      4  O   UNL     1      21.023 -10.060   9.791  1.00  0.00    -0.285 OA
ATOM      5  C   UNL     1      23.146  -9.745  10.709  1.00  0.00     0.111 A 
ATOM      6  C   UNL     1      22.754  -9.766  12.082  1.00  0.00     0.134 A 
ATOM      7  C   UNL     1      23.688  -9.439  13.072  1.00  0.00     0.093 A 
ATOM      8  C   UNL     1      25.016  -9.155  12.743  1.00  0.00     0.123 A 
ATOM      9  C   UNL     1      25.422  -9.191  11.412  1.00  0.00     0.094 A 
ATOM     10  C   UNL     1      24.505  -9.479  10.398  1.00  0.00     0.146 A 
ATOM     11  O   UNL     1      24.931  -9.491   9.141  1.00  0.00    -0.452 OA
ENDROOT
BRANCH   1  12
ATOM     12  C   UNL     1      24.746  -9.742   6.750  1.00  0.00     0.025 A 
ATOM     13  C   UNL     1      26.137  -9.636   6.570  1.00  0.00     0.016 A 
ATOM     14  C   UNL     1      26.683  -9.624   5.285  1.00  0.00     0.051 A 
ATOM     15  C   UNL     1      25.850  -9.707   4.162  1.00  0.00     0.157 A 
ATOM     16  C   UNL     1      23.913  -9.802   5.620  1.00  0.00     0.062 A 
ATOM     17  C   UNL     1      24.463  -9.792   4.330  1.00  0.00     0.158 A 
BRANCH  15  18
ATOM     18  O   UNL     1      26.392  -9.698   2.878  1.00  0.00    -0.504 OA
ATOM     19  H   UNL     1      26.075 -10.345   2.164  1.00  0.00     0.293 HD
ENDBRANCH  15  18
BRANCH  17  20
ATOM     20  O   UNL     1      23.635  -9.867   3.211  1.00  0.00    -0.504 OA
ATOM     21  H   UNL     1      22.743  -9.388   3.177  1.00  0.00     0.293 HD
ENDBRANCH  17  20
ENDBRANCH   1  12
BRANCH   2  22
ATOM     22  O   UNL     1      21.908 -10.095   7.214  1.00  0.00    -0.502 OA
ATOM     23  H   UNL     1      21.754  -9.363   6.530  1.00  0.00     0.293 HD
ENDBRANCH   2  22
BRANCH   6  24
ATOM     24  O   UNL     1      21.477 -10.125  12.522  1.00  0.00    -0.507 OA
ATOM     25  H   UNL     1      20.628  -9.990  11.995  1.00  0.00     0.293 HD
ENDBRANCH   6  24
BRANCH   8  26
ATOM     26  O   UNL     1      25.944  -8.846  13.736  1.00  0.00    -0.508 OA
ATOM     27  H   UNL     1      25.698  -8.262  14.528  1.00  0.00     0.293 HD
ENDBRANCH   8  26
TORSDOF 6
ENDMDL
