MODEL 1
REMARK VINA RESULT:    -3.917      0.000      0.000
REMARK INTER + INTRA:          -9.688
REMARK INTER:                  -7.122
REMARK INTRA:                  -2.566
REMARK UNBOUND:                -2.566
REMARK SMILES CCCCCCCCCCCCCCCC(=O)[O-]
REMARK SMILES IDX 9 1 10 2 11 3 12 4 13 5 14 6 15 7 16 8 17 9 18 10 8 11 7 12
REMARK SMILES IDX 6 13 5 14 4 15 3 16 2 17 1 18
REMARK H PARENT
REMARK Flexibility Score: inf
ROOT
ATOM      1  C   UNL     1     -12.596 -33.986 -26.996  1.00  0.00     0.000 C 
ENDROOT
BRANCH   1   2
ATOM      2  C   UNL     1     -13.979 -34.471 -27.460  1.00  0.00     0.000 C 
BRANCH   2   3
ATOM      3  C   UNL     1     -14.349 -35.858 -26.900  1.00  0.00     0.000 C 
BRANCH   3   4
ATOM      4  C   UNL     1     -14.312 -37.010 -27.922  1.00  0.00     0.000 C 
BRANCH   4   5
ATOM      5  C   UNL     1     -13.053 -36.988 -28.807  1.00  0.00     0.000 C 
BRANCH   5   6
ATOM      6  C   UNL     1     -13.394 -36.981 -30.312  1.00  0.00     0.006 C 
BRANCH   6   7
ATOM      7  C   UNL     1     -13.559 -35.569 -30.896  1.00  0.00     0.053 C 
BRANCH   7   8
ATOM      8  C   UNL     1     -14.974 -35.274 -31.281  1.00  0.00     0.041 C 
ATOM      9  O   UNL     1     -15.751 -34.717 -30.460  1.00  0.00    -0.550 OA
ATOM     10  O   UNL     1     -15.430 -35.587 -32.556  1.00  0.00    -0.550 OA
ENDBRANCH   7   8
ENDBRANCH   6   7
ENDBRANCH   5   6
ENDBRANCH   4   5
ENDBRANCH   3   4
ENDBRANCH   2   3
ENDBRANCH   1   2
BRANCH   1  11
ATOM     11  C   UNL     1     -12.253 -34.432 -25.563  1.00  0.00     0.000 C 
BRANCH  11  12
ATOM     12  C   UNL     1     -10.909 -35.168 -25.408  1.00  0.00    -0.000 C 
BRANCH  12  13
ATOM     13  C   UNL     1     -11.068 -36.690 -25.291  1.00  0.00    -0.000 C 
BRANCH  13  14
ATOM     14  C   UNL     1     -10.269 -37.411 -26.384  1.00  0.00    -0.000 C 
BRANCH  14  15
ATOM     15  C   UNL     1      -9.654 -36.405 -27.369  1.00  0.00    -0.000 C 
BRANCH  15  16
ATOM     16  C   UNL     1      -9.259 -37.045 -28.712  1.00  0.00    -0.000 C 
BRANCH  16  17
ATOM     17  C   UNL     1      -9.497 -36.158 -29.946  1.00  0.00    -0.003 C 
ATOM     18  C   UNL     1     -10.000 -34.759 -29.589  1.00  0.00     0.004 C 
ENDBRANCH  16  17
ENDBRANCH  15  16
ENDBRANCH  14  15
ENDBRANCH  13  14
ENDBRANCH  12  13
ENDBRANCH  11  12
ENDBRANCH   1  11
TORSDOF 14
ENDMDL
MODEL 2
REMARK VINA RESULT:    -3.873     19.064     21.173
REMARK INTER + INTRA:          -9.609
REMARK INTER:                  -7.084
REMARK INTRA:                  -2.525
REMARK UNBOUND:                -2.566
REMARK SMILES CCCCCCCCCCCCCCCC(=O)[O-]
REMARK SMILES IDX 9 1 10 2 11 3 12 4 13 5 14 6 15 7 16 8 17 9 18 10 8 11 7 12
REMARK SMILES IDX 6 13 5 14 4 15 3 16 2 17 1 18
REMARK H PARENT
REMARK Flexibility Score: inf
ROOT
ATOM      1  C   UNL     1     -26.758 -23.288 -31.788  1.00  0.00     0.000 C 
ENDROOT
BRANCH   1   2
ATOM      2  C   UNL     1     -28.295 -23.268 -31.772  1.00  0.00     0.000 C 
BRANCH   2   3
ATOM      3  C   UNL     1     -28.888 -22.034 -32.478  1.00  0.00     0.000 C 
BRANCH   3   4
ATOM      4  C   UNL     1     -28.773 -22.037 -34.013  1.00  0.00     0.000 C 
BRANCH   4   5
ATOM      5  C   UNL     1     -27.837 -20.940 -34.548  1.00  0.00     0.000 C 
BRANCH   5   6
ATOM      6  C   UNL     1     -26.502 -21.509 -35.070  1.00  0.00     0.006 C 
BRANCH   6   7
ATOM      7  C   UNL     1     -25.268 -20.923 -34.365  1.00  0.00     0.053 C 
BRANCH   7   8
ATOM      8  C   UNL     1     -24.211 -21.953 -34.116  1.00  0.00     0.041 C 
ATOM      9  O   UNL     1     -24.306 -23.095 -34.637  1.00  0.00    -0.550 OA
ATOM     10  O   UNL     1     -23.108 -21.642 -33.331  1.00  0.00    -0.550 OA
ENDBRANCH   7   8
ENDBRANCH   6   7
ENDBRANCH   5   6
ENDBRANCH   4   5
ENDBRANCH   3   4
ENDBRANCH   2   3
ENDBRANCH   1   2
BRANCH   1  11
ATOM     11  C   UNL     1     -26.134 -22.205 -30.889  1.00  0.00     0.000 C 
BRANCH  11  12
ATOM     12  C   UNL     1     -26.193 -22.492 -29.377  1.00  0.00    -0.000 C 
BRANCH  12  13
ATOM     13  C   UNL     1     -26.568 -21.257 -28.545  1.00  0.00    -0.000 C 
BRANCH  13  14
ATOM     14  C   UNL     1     -28.019 -20.837 -28.810  1.00  0.00    -0.000 C 
BRANCH  14  15
ATOM     15  C   UNL     1     -28.099 -19.356 -29.208  1.00  0.00    -0.000 C 
BRANCH  15  16
ATOM     16  C   UNL     1     -28.964 -19.117 -30.459  1.00  0.00    -0.000 C 
BRANCH  16  17
ATOM     17  C   UNL     1     -28.234 -18.439 -31.631  1.00  0.00    -0.003 C 
ATOM     18  C   UNL     1     -26.738 -18.754 -31.666  1.00  0.00     0.004 C 
ENDBRANCH  16  17
ENDBRANCH  15  16
ENDBRANCH  14  15
ENDBRANCH  13  14
ENDBRANCH  12  13
ENDBRANCH  11  12
ENDBRANCH   1  11
TORSDOF 14
ENDMDL
MODEL 3
REMARK VINA RESULT:    -3.849     17.757     20.411
REMARK INTER + INTRA:          -9.565
REMARK INTER:                  -7.176
REMARK INTRA:                  -2.389
REMARK UNBOUND:                -2.566
REMARK SMILES CCCCCCCCCCCCCCCC(=O)[O-]
REMARK SMILES IDX 9 1 10 2 11 3 12 4 13 5 14 6 15 7 16 8 17 9 18 10 8 11 7 12
REMARK SMILES IDX 6 13 5 14 4 15 3 16 2 17 1 18
REMARK H PARENT
REMARK Flexibility Score: inf
ROOT
ATOM      1  C   UNL     1     -26.530 -21.515 -28.287  1.00  0.00     0.000 C 
ENDROOT
BRANCH   1   2
ATOM      2  C   UNL     1     -25.899 -21.935 -29.625  1.00  0.00     0.000 C 
BRANCH   2   3
ATOM      3  C   UNL     1     -24.997 -20.845 -30.232  1.00  0.00     0.000 C 
BRANCH   3   4
ATOM      4  C   UNL     1     -24.509 -21.120 -31.667  1.00  0.00     0.000 C 
BRANCH   4   5
ATOM      5  C   UNL     1     -24.484 -22.618 -32.016  1.00  0.00     0.000 C 
BRANCH   5   6
ATOM      6  C   UNL     1     -24.610 -22.870 -33.533  1.00  0.00     0.006 C 
BRANCH   6   7
ATOM      7  C   UNL     1     -23.676 -23.976 -34.050  1.00  0.00     0.053 C 
BRANCH   7   8
ATOM      8  C   UNL     1     -22.271 -23.809 -33.564  1.00  0.00     0.041 C 
ATOM      9  O   UNL     1     -21.744 -24.689 -32.834  1.00  0.00    -0.550 OA
ATOM     10  O   UNL     1     -21.532 -22.694 -33.942  1.00  0.00    -0.550 OA
ENDBRANCH   7   8
ENDBRANCH   6   7
ENDBRANCH   5   6
ENDBRANCH   4   5
ENDBRANCH   3   4
ENDBRANCH   2   3
ENDBRANCH   1   2
BRANCH   1  11
ATOM     11  C   UNL     1     -27.865 -20.769 -28.461  1.00  0.00     0.000 C 
BRANCH  11  12
ATOM     12  C   UNL     1     -27.787 -19.238 -28.310  1.00  0.00    -0.000 C 
BRANCH  12  13
ATOM     13  C   UNL     1     -28.228 -18.487 -29.575  1.00  0.00    -0.000 C 
BRANCH  13  14
ATOM     14  C   UNL     1     -28.820 -19.453 -30.608  1.00  0.00    -0.000 C 
BRANCH  14  15
ATOM     15  C   UNL     1     -27.994 -19.447 -31.903  1.00  0.00    -0.000 C 
BRANCH  15  16
ATOM     16  C   UNL     1     -28.168 -20.734 -32.731  1.00  0.00    -0.000 C 
BRANCH  16  17
ATOM     17  C   UNL     1     -28.929 -21.864 -32.018  1.00  0.00    -0.003 C 
ATOM     18  C   UNL     1     -28.211 -23.211 -32.097  1.00  0.00     0.004 C 
ENDBRANCH  16  17
ENDBRANCH  15  16
ENDBRANCH  14  15
ENDBRANCH  13  14
ENDBRANCH  12  13
ENDBRANCH  11  12
ENDBRANCH   1  11
TORSDOF 14
ENDMDL
MODEL 4
REMARK VINA RESULT:    -3.828     18.617     21.178
REMARK INTER + INTRA:          -9.527
REMARK INTER:                  -6.686
REMARK INTRA:                  -2.842
REMARK UNBOUND:                -2.566
REMARK SMILES CCCCCCCCCCCCCCCC(=O)[O-]
REMARK SMILES IDX 9 1 10 2 11 3 12 4 13 5 14 6 15 7 16 8 17 9 18 10 8 11 7 12
REMARK SMILES IDX 6 13 5 14 4 15 3 16 2 17 1 18
REMARK H PARENT
REMARK Flexibility Score: inf
ROOT
ATOM      1  C   UNL     1     -26.500 -22.768 -30.217  1.00  0.00     0.000 C 
ENDROOT
BRANCH   1   2
ATOM      2  C   UNL     1     -24.990 -22.482 -30.267  1.00  0.00     0.000 C 
BRANCH   2   3
ATOM      3  C   UNL     1     -24.642 -21.025 -29.911  1.00  0.00     0.000 C 
BRANCH   3   4
ATOM      4  C   UNL     1     -24.069 -20.185 -31.068  1.00  0.00     0.000 C 
BRANCH   4   5
ATOM      5  C   UNL     1     -25.063 -19.139 -31.602  1.00  0.00     0.000 C 
BRANCH   5   6
ATOM      6  C   UNL     1     -25.494 -19.425 -33.055  1.00  0.00     0.006 C 
BRANCH   6   7
ATOM      7  C   UNL     1     -24.516 -20.336 -33.816  1.00  0.00     0.053 C 
BRANCH   7   8
ATOM      8  C   UNL     1     -25.167 -21.594 -34.298  1.00  0.00     0.041 C 
ATOM      9  O   UNL     1     -26.253 -21.541 -34.934  1.00  0.00    -0.550 OA
ATOM     10  O   UNL     1     -24.561 -22.823 -34.071  1.00  0.00    -0.550 OA
ENDBRANCH   7   8
ENDBRANCH   6   7
ENDBRANCH   5   6
ENDBRANCH   4   5
ENDBRANCH   3   4
ENDBRANCH   2   3
ENDBRANCH   1   2
BRANCH   1  11
ATOM     11  C   UNL     1     -27.126 -22.933 -31.614  1.00  0.00     0.000 C 
BRANCH  11  12
ATOM     12  C   UNL     1     -28.242 -21.928 -31.957  1.00  0.00    -0.000 C 
BRANCH  12  13
ATOM     13  C   UNL     1     -28.752 -21.155 -30.733  1.00  0.00    -0.000 C 
BRANCH  13  14
ATOM     14  C   UNL     1     -28.593 -19.643 -30.934  1.00  0.00    -0.000 C 
BRANCH  14  15
ATOM     15  C   UNL     1     -28.399 -18.926 -29.589  1.00  0.00    -0.000 C 
BRANCH  15  16
ATOM     16  C   UNL     1     -28.016 -19.886 -28.448  1.00  0.00    -0.000 C 
BRANCH  16  17
ATOM     17  C   UNL     1     -26.865 -19.398 -27.552  1.00  0.00    -0.003 C 
ATOM     18  C   UNL     1     -26.186 -18.136 -28.084  1.00  0.00     0.004 C 
ENDBRANCH  16  17
ENDBRANCH  15  16
ENDBRANCH  14  15
ENDBRANCH  13  14
ENDBRANCH  12  13
ENDBRANCH  11  12
ENDBRANCH   1  11
TORSDOF 14
ENDMDL
MODEL 5
REMARK VINA RESULT:    -3.817     19.212     21.317
REMARK INTER + INTRA:          -9.507
REMARK INTER:                  -6.933
REMARK INTRA:                  -2.574
REMARK UNBOUND:                -2.566
REMARK SMILES CCCCCCCCCCCCCCCC(=O)[O-]
REMARK SMILES IDX 9 1 10 2 11 3 12 4 13 5 14 6 15 7 16 8 17 9 18 10 8 11 7 12
REMARK SMILES IDX 6 13 5 14 4 15 3 16 2 17 1 18
REMARK H PARENT
REMARK Flexibility Score: inf
ROOT
ATOM      1  C   UNL     1     -24.613 -21.237 -30.028  1.00  0.00     0.000 C 
ENDROOT
BRANCH   1   2
ATOM      2  C   UNL     1     -25.215 -22.130 -31.126  1.00  0.00     0.000 C 
BRANCH   2   3
ATOM      3  C   UNL     1     -26.487 -22.869 -30.669  1.00  0.00     0.000 C 
BRANCH   3   4
ATOM      4  C   UNL     1     -27.458 -23.262 -31.797  1.00  0.00     0.000 C 
BRANCH   4   5
ATOM      5  C   UNL     1     -28.421 -22.126 -32.186  1.00  0.00     0.000 C 
BRANCH   5   6
ATOM      6  C   UNL     1     -28.589 -21.995 -33.714  1.00  0.00     0.006 C 
BRANCH   6   7
ATOM      7  C   UNL     1     -27.879 -20.767 -34.305  1.00  0.00     0.053 C 
BRANCH   7   8
ATOM      8  C   UNL     1     -26.403 -20.971 -34.438  1.00  0.00     0.041 C 
ATOM      9  O   UNL     1     -25.604 -20.066 -34.078  1.00  0.00    -0.550 OA
ATOM     10  O   UNL     1     -25.907 -22.171 -34.932  1.00  0.00    -0.550 OA
ENDBRANCH   7   8
ENDBRANCH   6   7
ENDBRANCH   5   6
ENDBRANCH   4   5
ENDBRANCH   3   4
ENDBRANCH   2   3
ENDBRANCH   1   2
BRANCH   1  11
ATOM     11  C   UNL     1     -24.109 -19.884 -30.563  1.00  0.00     0.000 C 
BRANCH  11  12
ATOM     12  C   UNL     1     -24.920 -18.655 -30.110  1.00  0.00    -0.000 C 
BRANCH  12  13
ATOM     13  C   UNL     1     -25.834 -18.100 -31.212  1.00  0.00    -0.000 C 
BRANCH  13  14
ATOM     14  C   UNL     1     -27.210 -18.777 -31.175  1.00  0.00    -0.000 C 
BRANCH  14  15
ATOM     15  C   UNL     1     -27.817 -18.712 -29.766  1.00  0.00    -0.000 C 
BRANCH  15  16
ATOM     16  C   UNL     1     -28.225 -20.094 -29.224  1.00  0.00    -0.000 C 
BRANCH  16  17
ATOM     17  C   UNL     1     -27.562 -20.488 -27.893  1.00  0.00    -0.003 C 
ATOM     18  C   UNL     1     -26.923 -19.303 -27.169  1.00  0.00     0.004 C 
ENDBRANCH  16  17
ENDBRANCH  15  16
ENDBRANCH  14  15
ENDBRANCH  13  14
ENDBRANCH  12  13
ENDBRANCH  11  12
ENDBRANCH   1  11
TORSDOF 14
ENDMDL
MODEL 6
REMARK VINA RESULT:    -3.805      2.204      4.114
REMARK INTER + INTRA:          -9.485
REMARK INTER:                  -7.377
REMARK INTRA:                  -2.108
REMARK UNBOUND:                -2.566
REMARK SMILES CCCCCCCCCCCCCCCC(=O)[O-]
REMARK SMILES IDX 9 1 10 2 11 3 12 4 13 5 14 6 15 7 16 8 17 9 18 10 8 11 7 12
REMARK SMILES IDX 6 13 5 14 4 15 3 16 2 17 1 18
REMARK H PARENT
REMARK Flexibility Score: inf
ROOT
ATOM      1  C   UNL     1     -11.957 -34.861 -28.201  1.00  0.00     0.000 C 
ENDROOT
BRANCH   1   2
ATOM      2  C   UNL     1     -12.695 -33.998 -27.164  1.00  0.00     0.000 C 
BRANCH   2   3
ATOM      3  C   UNL     1     -12.315 -34.347 -25.712  1.00  0.00     0.000 C 
BRANCH   3   4
ATOM      4  C   UNL     1     -11.011 -35.151 -25.550  1.00  0.00     0.000 C 
BRANCH   4   5
ATOM      5  C   UNL     1     -11.208 -36.466 -24.776  1.00  0.00     0.000 C 
BRANCH   5   6
ATOM      6  C   UNL     1     -11.796 -37.586 -25.660  1.00  0.00     0.006 C 
BRANCH   6   7
ATOM      7  C   UNL     1     -13.296 -37.824 -25.430  1.00  0.00     0.053 C 
BRANCH   7   8
ATOM      8  C   UNL     1     -14.120 -37.472 -26.629  1.00  0.00     0.041 C 
ATOM      9  O   UNL     1     -13.841 -37.965 -27.755  1.00  0.00    -0.550 OA
ATOM     10  O   UNL     1     -15.212 -36.623 -26.500  1.00  0.00    -0.550 OA
ENDBRANCH   7   8
ENDBRANCH   6   7
ENDBRANCH   5   6
ENDBRANCH   4   5
ENDBRANCH   3   4
ENDBRANCH   2   3
ENDBRANCH   1   2
BRANCH   1  11
ATOM     11  C   UNL     1     -11.271 -34.026 -29.298  1.00  0.00     0.000 C 
BRANCH  11  12
ATOM     12  C   UNL     1      -9.809 -34.408 -29.597  1.00  0.00    -0.000 C 
BRANCH  12  13
ATOM     13  C   UNL     1      -9.273 -35.506 -28.667  1.00  0.00    -0.000 C 
BRANCH  13  14
ATOM     14  C   UNL     1      -8.894 -36.762 -29.461  1.00  0.00    -0.000 C 
BRANCH  14  15
ATOM     15  C   UNL     1     -10.083 -37.730 -29.559  1.00  0.00    -0.000 C 
BRANCH  15  16
ATOM     16  C   UNL     1     -10.725 -37.750 -30.958  1.00  0.00    -0.000 C 
BRANCH  16  17
ATOM     17  C   UNL     1     -12.149 -37.171 -31.025  1.00  0.00    -0.003 C 
ATOM     18  C   UNL     1     -12.658 -36.999 -32.456  1.00  0.00     0.004 C 
ENDBRANCH  16  17
ENDBRANCH  15  16
ENDBRANCH  14  15
ENDBRANCH  13  14
ENDBRANCH  12  13
ENDBRANCH  11  12
ENDBRANCH   1  11
TORSDOF 14
ENDMDL
MODEL 7
REMARK VINA RESULT:    -3.792     17.545     20.095
REMARK INTER + INTRA:          -9.462
REMARK INTER:                  -6.992
REMARK INTRA:                  -2.471
REMARK UNBOUND:                -2.566
REMARK SMILES CCCCCCCCCCCCCCCC(=O)[O-]
REMARK SMILES IDX 9 1 10 2 11 3 12 4 13 5 14 6 15 7 16 8 17 9 18 10 8 11 7 12
REMARK SMILES IDX 6 13 5 14 4 15 3 16 2 17 1 18
REMARK H PARENT
REMARK Flexibility Score: inf
ROOT
ATOM      1  C   UNL     1     -28.956 -21.296 -31.303  1.00  0.00     0.000 C 
ENDROOT
BRANCH   1   2
ATOM      2  C   UNL     1     -28.160 -22.041 -32.387  1.00  0.00     0.000 C 
BRANCH   2   3
ATOM      3  C   UNL     1     -27.893 -21.179 -33.635  1.00  0.00     0.000 C 
BRANCH   3   4
ATOM      4  C   UNL     1     -26.415 -21.067 -34.052  1.00  0.00     0.000 C 
BRANCH   4   5
ATOM      5  C   UNL     1     -25.631 -22.375 -33.845  1.00  0.00     0.000 C 
BRANCH   5   6
ATOM      6  C   UNL     1     -24.105 -22.164 -33.922  1.00  0.00     0.006 C 
BRANCH   6   7
ATOM      7  C   UNL     1     -23.303 -23.184 -33.099  1.00  0.00     0.053 C 
BRANCH   7   8
ATOM      8  C   UNL     1     -21.952 -23.453 -33.683  1.00  0.00     0.041 C 
ATOM      9  O   UNL     1     -21.268 -22.508 -34.157  1.00  0.00    -0.550 OA
ATOM     10  O   UNL     1     -21.436 -24.743 -33.679  1.00  0.00    -0.550 OA
ENDBRANCH   7   8
ENDBRANCH   6   7
ENDBRANCH   5   6
ENDBRANCH   4   5
ENDBRANCH   3   4
ENDBRANCH   2   3
ENDBRANCH   1   2
BRANCH   1  11
ATOM     11  C   UNL     1     -28.435 -19.870 -31.047  1.00  0.00     0.000 C 
BRANCH  11  12
ATOM     12  C   UNL     1     -28.102 -19.546 -29.578  1.00  0.00    -0.000 C 
BRANCH  12  13
ATOM     13  C   UNL     1     -28.052 -20.794 -28.684  1.00  0.00    -0.000 C 
BRANCH  13  14
ATOM     14  C   UNL     1     -26.603 -21.172 -28.350  1.00  0.00    -0.000 C 
BRANCH  14  15
ATOM     15  C   UNL     1     -26.124 -22.338 -29.227  1.00  0.00    -0.000 C 
BRANCH  15  16
ATOM     16  C   UNL     1     -25.047 -21.920 -30.245  1.00  0.00    -0.000 C 
BRANCH  16  17
ATOM     17  C   UNL     1     -24.482 -20.504 -30.044  1.00  0.00    -0.003 C 
ATOM     18  C   UNL     1     -24.686 -19.600 -31.259  1.00  0.00     0.004 C 
ENDBRANCH  16  17
ENDBRANCH  15  16
ENDBRANCH  14  15
ENDBRANCH  13  14
ENDBRANCH  12  13
ENDBRANCH  11  12
ENDBRANCH   1  11
TORSDOF 14
ENDMDL
MODEL 8
REMARK VINA RESULT:    -3.784      1.016      2.073
REMARK INTER + INTRA:          -9.446
REMARK INTER:                  -7.128
REMARK INTRA:                  -2.318
REMARK UNBOUND:                -2.566
REMARK SMILES CCCCCCCCCCCCCCCC(=O)[O-]
REMARK SMILES IDX 9 1 10 2 11 3 12 4 13 5 14 6 15 7 16 8 17 9 18 10 8 11 7 12
REMARK SMILES IDX 6 13 5 14 4 15 3 16 2 17 1 18
REMARK H PARENT
REMARK Flexibility Score: inf
ROOT
ATOM      1  C   UNL     1     -11.141 -35.311 -24.932  1.00  0.00     0.000 C 
ENDROOT
BRANCH   1   2
ATOM      2  C   UNL     1     -12.269 -34.392 -25.431  1.00  0.00     0.000 C 
BRANCH   2   3
ATOM      3  C   UNL     1     -12.211 -34.140 -26.949  1.00  0.00     0.000 C 
BRANCH   3   4
ATOM      4  C   UNL     1     -13.465 -34.566 -27.734  1.00  0.00     0.000 C 
BRANCH   4   5
ATOM      5  C   UNL     1     -13.492 -36.071 -28.054  1.00  0.00     0.000 C 
BRANCH   5   6
ATOM      6  C   UNL     1     -14.057 -36.364 -29.459  1.00  0.00     0.006 C 
BRANCH   6   7
ATOM      7  C   UNL     1     -14.166 -35.116 -30.348  1.00  0.00     0.053 C 
BRANCH   7   8
ATOM      8  C   UNL     1     -14.503 -35.453 -31.766  1.00  0.00     0.041 C 
ATOM      9  O   UNL     1     -13.812 -36.296 -32.397  1.00  0.00    -0.550 OA
ATOM     10  O   UNL     1     -15.597 -34.859 -32.382  1.00  0.00    -0.550 OA
ENDBRANCH   7   8
ENDBRANCH   6   7
ENDBRANCH   5   6
ENDBRANCH   4   5
ENDBRANCH   3   4
ENDBRANCH   2   3
ENDBRANCH   1   2
BRANCH   1  11
ATOM     11  C   UNL     1     -11.490 -36.806 -25.046  1.00  0.00     0.000 C 
BRANCH  11  12
ATOM     12  C   UNL     1     -10.360 -37.705 -25.582  1.00  0.00    -0.000 C 
BRANCH  12  13
ATOM     13  C   UNL     1     -10.338 -37.794 -27.115  1.00  0.00    -0.000 C 
BRANCH  13  14
ATOM     14  C   UNL     1      -8.990 -37.320 -27.673  1.00  0.00    -0.000 C 
BRANCH  14  15
ATOM     15  C   UNL     1      -8.969 -35.793 -27.835  1.00  0.00    -0.000 C 
BRANCH  15  16
ATOM     16  C   UNL     1      -9.012 -35.346 -29.308  1.00  0.00    -0.000 C 
BRANCH  16  17
ATOM     17  C   UNL     1     -10.407 -35.384 -29.955  1.00  0.00    -0.003 C 
ATOM     18  C   UNL     1     -10.592 -36.564 -30.909  1.00  0.00     0.004 C 
ENDBRANCH  16  17
ENDBRANCH  15  16
ENDBRANCH  14  15
ENDBRANCH  13  14
ENDBRANCH  12  13
ENDBRANCH  11  12
ENDBRANCH   1  11
TORSDOF 14
ENDMDL
MODEL 9
REMARK VINA RESULT:    -3.758      3.059      5.026
REMARK INTER + INTRA:          -9.399
REMARK INTER:                  -6.970
REMARK INTRA:                  -2.429
REMARK UNBOUND:                -2.566
REMARK SMILES CCCCCCCCCCCCCCCC(=O)[O-]
REMARK SMILES IDX 9 1 10 2 11 3 12 4 13 5 14 6 15 7 16 8 17 9 18 10 8 11 7 12
REMARK SMILES IDX 6 13 5 14 4 15 3 16 2 17 1 18
REMARK H PARENT
REMARK Flexibility Score: inf
ROOT
ATOM      1  C   UNL     1     -12.261 -34.103 -28.317  1.00  0.00     0.000 C 
ENDROOT
BRANCH   1   2
ATOM      2  C   UNL     1     -13.234 -34.263 -27.137  1.00  0.00     0.000 C 
BRANCH   2   3
ATOM      3  C   UNL     1     -14.579 -34.890 -27.548  1.00  0.00     0.000 C 
BRANCH   3   4
ATOM      4  C   UNL     1     -14.922 -36.222 -26.856  1.00  0.00     0.000 C 
BRANCH   4   5
ATOM      5  C   UNL     1     -14.052 -37.394 -27.344  1.00  0.00     0.000 C 
BRANCH   5   6
ATOM      6  C   UNL     1     -13.057 -37.875 -26.268  1.00  0.00     0.006 C 
BRANCH   6   7
ATOM      7  C   UNL     1     -13.353 -37.318 -24.867  1.00  0.00     0.053 C 
BRANCH   7   8
ATOM      8  C   UNL     1     -12.178 -36.603 -24.277  1.00  0.00     0.041 C 
ATOM      9  O   UNL     1     -12.222 -36.186 -23.090  1.00  0.00    -0.550 OA
ATOM     10  O   UNL     1     -11.025 -36.421 -25.030  1.00  0.00    -0.550 OA
ENDBRANCH   7   8
ENDBRANCH   6   7
ENDBRANCH   5   6
ENDBRANCH   4   5
ENDBRANCH   3   4
ENDBRANCH   2   3
ENDBRANCH   1   2
BRANCH   1  11
ATOM     11  C   UNL     1     -11.187 -35.205 -28.363  1.00  0.00     0.000 C 
BRANCH  11  12
ATOM     12  C   UNL     1     -10.188 -35.101 -29.532  1.00  0.00    -0.000 C 
BRANCH  12  13
ATOM     13  C   UNL     1     -10.274 -36.289 -30.502  1.00  0.00    -0.000 C 
BRANCH  13  14
ATOM     14  C   UNL     1     -11.533 -37.125 -30.236  1.00  0.00    -0.000 C 
BRANCH  14  15
ATOM     15  C   UNL     1     -12.535 -36.993 -31.393  1.00  0.00    -0.000 C 
BRANCH  15  16
ATOM     16  C   UNL     1     -13.932 -36.544 -30.928  1.00  0.00    -0.000 C 
BRANCH  16  17
ATOM     17  C   UNL     1     -14.287 -35.085 -31.263  1.00  0.00    -0.003 C 
ATOM     18  C   UNL     1     -15.755 -34.751 -30.997  1.00  0.00     0.004 C 
ENDBRANCH  16  17
ENDBRANCH  15  16
ENDBRANCH  14  15
ENDBRANCH  13  14
ENDBRANCH  12  13
ENDBRANCH  11  12
ENDBRANCH   1  11
TORSDOF 14
ENDMDL
