MODEL 1
REMARK VINA RESULT:    -4.291      0.000      0.000
REMARK INTER + INTRA:          -8.382
REMARK INTER:                  -7.301
REMARK INTRA:                  -1.082
REMARK UNBOUND:                -1.082
REMARK SMILES CCCCCCCCCCCCCC(=O)[O-]
REMARK SMILES IDX 8 1 9 2 10 3 11 4 12 5 13 6 14 7 15 8 16 9 7 10 6 11 5 12
REMARK SMILES IDX 4 13 3 14 2 15 1 16
REMARK H PARENT
REMARK Flexibility Score: inf
ROOT
ATOM      1  C   UNL     1      31.511   9.588  48.602  1.00  0.00     0.000 C 
ENDROOT
BRANCH   1   2
ATOM      2  C   UNL     1      31.040   8.656  49.731  1.00  0.00     0.000 C 
BRANCH   2   3
ATOM      3  C   UNL     1      29.598   8.163  49.528  1.00  0.00     0.000 C 
BRANCH   3   4
ATOM      4  C   UNL     1      29.518   6.643  49.321  1.00  0.00     0.000 C 
BRANCH   4   5
ATOM      5  C   UNL     1      29.915   6.263  47.886  1.00  0.00     0.006 C 
BRANCH   5   6
ATOM      6  C   UNL     1      31.068   5.252  47.850  1.00  0.00     0.053 C 
BRANCH   6   7
ATOM      7  C   UNL     1      32.394   5.925  47.671  1.00  0.00     0.041 C 
ATOM      8  O   UNL     1      32.766   6.300  46.528  1.00  0.00    -0.550 OA
ATOM      9  O   UNL     1      33.204   6.171  48.773  1.00  0.00    -0.550 OA
ENDBRANCH   6   7
ENDBRANCH   5   6
ENDBRANCH   4   5
ENDBRANCH   3   4
ENDBRANCH   2   3
ENDBRANCH   1   2
BRANCH   1  10
ATOM     10  C   UNL     1      32.439  10.705  49.105  1.00  0.00     0.000 C 
BRANCH  10  11
ATOM     11  C   UNL     1      33.869  10.574  48.562  1.00  0.00    -0.000 C 
BRANCH  11  12
ATOM     12  C   UNL     1      33.978   9.397  47.581  1.00  0.00    -0.000 C 
BRANCH  12  13
ATOM     13  C   UNL     1      35.073   9.600  46.518  1.00  0.00    -0.000 C 
BRANCH  13  14
ATOM     14  C   UNL     1      34.868  10.817  45.597  1.00  0.00    -0.000 C 
BRANCH  14  15
ATOM     15  C   UNL     1      34.200  10.452  44.263  1.00  0.00    -0.003 C 
ATOM     16  C   UNL     1      34.515   9.013  43.867  1.00  0.00     0.004 C 
ENDBRANCH  14  15
ENDBRANCH  13  14
ENDBRANCH  12  13
ENDBRANCH  11  12
ENDBRANCH  10  11
ENDBRANCH   1  10
TORSDOF 12
ENDMDL
MODEL 2
REMARK VINA RESULT:    -4.121     18.725     20.242
REMARK INTER + INTRA:          -8.093
REMARK INTER:                  -6.253
REMARK INTRA:                  -1.840
REMARK UNBOUND:                -1.082
REMARK SMILES CCCCCCCCCCCCCC(=O)[O-]
REMARK SMILES IDX 8 1 9 2 10 3 11 4 12 5 13 6 14 7 15 8 16 9 7 10 6 11 5 12
REMARK SMILES IDX 4 13 3 14 2 15 1 16
REMARK H PARENT
REMARK Flexibility Score: inf
ROOT
ATOM      1  C   UNL     1      20.743  11.493  35.701  1.00  0.00     0.000 C 
ENDROOT
BRANCH   1   2
ATOM      2  C   UNL     1      19.669  12.575  35.908  1.00  0.00     0.000 C 
BRANCH   2   3
ATOM      3  C   UNL     1      19.742  13.690  34.854  1.00  0.00     0.000 C 
BRANCH   3   4
ATOM      4  C   UNL     1      21.057  13.666  34.060  1.00  0.00     0.000 C 
BRANCH   4   5
ATOM      5  C   UNL     1      20.824  14.081  32.599  1.00  0.00     0.006 C 
BRANCH   5   6
ATOM      6  C   UNL     1      20.217  15.485  32.483  1.00  0.00     0.053 C 
BRANCH   6   7
ATOM      7  C   UNL     1      18.927  15.474  31.722  1.00  0.00     0.041 C 
ATOM      8  O   UNL     1      18.530  16.513  31.131  1.00  0.00    -0.550 OA
ATOM      9  O   UNL     1      18.181  14.305  31.636  1.00  0.00    -0.550 OA
ENDBRANCH   6   7
ENDBRANCH   5   6
ENDBRANCH   4   5
ENDBRANCH   3   4
ENDBRANCH   2   3
ENDBRANCH   1   2
BRANCH   1  10
ATOM     10  C   UNL     1      20.161  10.071  35.722  1.00  0.00     0.000 C 
BRANCH  10  11
ATOM     11  C   UNL     1      18.652  10.046  35.439  1.00  0.00    -0.000 C 
BRANCH  11  12
ATOM     12  C   UNL     1      18.371   9.575  34.004  1.00  0.00    -0.000 C 
BRANCH  12  13
ATOM     13  C   UNL     1      18.261  10.738  33.001  1.00  0.00    -0.000 C 
BRANCH  13  14
ATOM     14  C   UNL     1      19.133  10.593  31.740  1.00  0.00    -0.000 C 
BRANCH  14  15
ATOM     15  C   UNL     1      20.627  10.441  32.060  1.00  0.00    -0.003 C 
ATOM     16  C   UNL     1      21.422  10.072  30.811  1.00  0.00     0.004 C 
ENDBRANCH  14  15
ENDBRANCH  13  14
ENDBRANCH  12  13
ENDBRANCH  11  12
ENDBRANCH  10  11
ENDBRANCH   1  10
TORSDOF 12
ENDMDL
MODEL 3
REMARK VINA RESULT:    -4.109      1.830      5.505
REMARK INTER + INTRA:          -8.073
REMARK INTER:                  -6.854
REMARK INTRA:                  -1.219
REMARK UNBOUND:                -1.082
REMARK SMILES CCCCCCCCCCCCCC(=O)[O-]
REMARK SMILES IDX 8 1 9 2 10 3 11 4 12 5 13 6 14 7 15 8 16 9 7 10 6 11 5 12
REMARK SMILES IDX 4 13 3 14 2 15 1 16
REMARK H PARENT
REMARK Flexibility Score: inf
ROOT
ATOM      1  C   UNL     1      31.597   9.424  48.618  1.00  0.00     0.000 C 
ENDROOT
BRANCH   1   2
ATOM      2  C   UNL     1      32.942  10.136  48.843  1.00  0.00     0.000 C 
BRANCH   2   3
ATOM      3  C   UNL     1      34.128   9.367  48.239  1.00  0.00     0.000 C 
BRANCH   3   4
ATOM      4  C   UNL     1      35.344  10.268  47.980  1.00  0.00     0.000 C 
BRANCH   4   5
ATOM      5  C   UNL     1      35.507  10.554  46.479  1.00  0.00     0.006 C 
BRANCH   5   6
ATOM      6  C   UNL     1      35.422   9.277  45.633  1.00  0.00     0.053 C 
BRANCH   6   7
ATOM      7  C   UNL     1      34.528   9.455  44.444  1.00  0.00     0.041 C 
ATOM      8  O   UNL     1      34.170   8.457  43.764  1.00  0.00    -0.550 OA
ATOM      9  O   UNL     1      34.062  10.719  44.107  1.00  0.00    -0.550 OA
ENDBRANCH   6   7
ENDBRANCH   5   6
ENDBRANCH   4   5
ENDBRANCH   3   4
ENDBRANCH   2   3
ENDBRANCH   1   2
BRANCH   1  10
ATOM     10  C   UNL     1      31.115   8.663  49.863  1.00  0.00     0.000 C 
BRANCH  10  11
ATOM     11  C   UNL     1      29.661   8.187  49.738  1.00  0.00    -0.000 C 
BRANCH  11  12
ATOM     12  C   UNL     1      29.556   6.675  49.991  1.00  0.00    -0.000 C 
BRANCH  12  13
ATOM     13  C   UNL     1      29.184   5.879  48.727  1.00  0.00    -0.000 C 
BRANCH  13  14
ATOM     14  C   UNL     1      30.120   6.096  47.523  1.00  0.00    -0.000 C 
BRANCH  14  15
ATOM     15  C   UNL     1      31.550   5.596  47.779  1.00  0.00    -0.003 C 
ATOM     16  C   UNL     1      32.555   6.332  46.897  1.00  0.00     0.004 C 
ENDBRANCH  14  15
ENDBRANCH  13  14
ENDBRANCH  12  13
ENDBRANCH  11  12
ENDBRANCH  10  11
ENDBRANCH   1  10
TORSDOF 12
ENDMDL
MODEL 4
REMARK VINA RESULT:    -4.078     17.801     19.075
REMARK INTER + INTRA:          -8.021
REMARK INTER:                  -6.234
REMARK INTRA:                  -1.788
REMARK UNBOUND:                -1.082
REMARK SMILES CCCCCCCCCCCCCC(=O)[O-]
REMARK SMILES IDX 8 1 9 2 10 3 11 4 12 5 13 6 14 7 15 8 16 9 7 10 6 11 5 12
REMARK SMILES IDX 4 13 3 14 2 15 1 16
REMARK H PARENT
REMARK Flexibility Score: inf
ROOT
ATOM      1  C   UNL     1      20.667  13.704  34.354  1.00  0.00     0.000 C 
ENDROOT
BRANCH   1   2
ATOM      2  C   UNL     1      19.992  12.882  35.466  1.00  0.00     0.000 C 
BRANCH   2   3
ATOM      3  C   UNL     1      20.763  11.596  35.802  1.00  0.00     0.000 C 
BRANCH   3   4
ATOM      4  C   UNL     1      20.246  10.378  35.023  1.00  0.00     0.000 C 
BRANCH   4   5
ATOM      5  C   UNL     1      18.711  10.318  35.054  1.00  0.00     0.006 C 
BRANCH   5   6
ATOM      6  C   UNL     1      18.192   8.952  35.522  1.00  0.00     0.053 C 
BRANCH   6   7
ATOM      7  C   UNL     1      18.524   8.693  36.959  1.00  0.00     0.041 C 
ATOM      8  O   UNL     1      18.208   9.532  37.844  1.00  0.00    -0.550 OA
ATOM      9  O   UNL     1      19.151   7.509  37.326  1.00  0.00    -0.550 OA
ENDBRANCH   6   7
ENDBRANCH   5   6
ENDBRANCH   4   5
ENDBRANCH   3   4
ENDBRANCH   2   3
ENDBRANCH   1   2
BRANCH   1  10
ATOM     10  C   UNL     1      19.660  14.248  33.328  1.00  0.00     0.000 C 
BRANCH  10  11
ATOM     11  C   UNL     1      20.281  14.443  31.938  1.00  0.00    -0.000 C 
BRANCH  11  12
ATOM     12  C   UNL     1      21.418  13.437  31.699  1.00  0.00    -0.000 C 
BRANCH  12  13
ATOM     13  C   UNL     1      21.001  12.264  30.793  1.00  0.00    -0.000 C 
BRANCH  13  14
ATOM     14  C   UNL     1      20.850  10.910  31.512  1.00  0.00    -0.000 C 
BRANCH  14  15
ATOM     15  C   UNL     1      19.487  10.248  31.261  1.00  0.00    -0.003 C 
ATOM     16  C   UNL     1      18.343  11.203  31.587  1.00  0.00     0.004 C 
ENDBRANCH  14  15
ENDBRANCH  13  14
ENDBRANCH  12  13
ENDBRANCH  11  12
ENDBRANCH  10  11
ENDBRANCH   1  10
TORSDOF 12
ENDMDL
MODEL 5
REMARK VINA RESULT:    -4.057     18.256     19.762
REMARK INTER + INTRA:          -7.985
REMARK INTER:                  -6.051
REMARK INTRA:                  -1.934
REMARK UNBOUND:                -1.082
REMARK SMILES CCCCCCCCCCCCCC(=O)[O-]
REMARK SMILES IDX 8 1 9 2 10 3 11 4 12 5 13 6 14 7 15 8 16 9 7 10 6 11 5 12
REMARK SMILES IDX 4 13 3 14 2 15 1 16
REMARK H PARENT
REMARK Flexibility Score: inf
ROOT
ATOM      1  C   UNL     1      21.230  11.252  30.196  1.00  0.00     0.000 C 
ENDROOT
BRANCH   1   2
ATOM      2  C   UNL     1      20.910  10.384  31.425  1.00  0.00     0.000 C 
BRANCH   2   3
ATOM      3  C   UNL     1      19.414  10.383  31.775  1.00  0.00     0.000 C 
BRANCH   3   4
ATOM      4  C   UNL     1      19.152  10.752  33.243  1.00  0.00     0.000 C 
BRANCH   4   5
ATOM      5  C   UNL     1      20.404  10.517  34.100  1.00  0.00     0.006 C 
BRANCH   5   6
ATOM      6  C   UNL     1      20.231  11.031  35.536  1.00  0.00     0.053 C 
BRANCH   6   7
ATOM      7  C   UNL     1      19.172  10.271  36.275  1.00  0.00     0.041 C 
ATOM      8  O   UNL     1      19.219   9.014  36.333  1.00  0.00    -0.550 OA
ATOM      9  O   UNL     1      18.155  10.954  36.930  1.00  0.00    -0.550 OA
ENDBRANCH   6   7
ENDBRANCH   5   6
ENDBRANCH   4   5
ENDBRANCH   3   4
ENDBRANCH   2   3
ENDBRANCH   1   2
BRANCH   1  10
ATOM     10  C   UNL     1      21.929  12.569  30.568  1.00  0.00     0.000 C 
BRANCH  10  11
ATOM     11  C   UNL     1      21.120  13.805  30.151  1.00  0.00    -0.000 C 
BRANCH  11  12
ATOM     12  C   UNL     1      20.647  14.592  31.383  1.00  0.00    -0.000 C 
BRANCH  12  13
ATOM     13  C   UNL     1      21.077  13.943  32.712  1.00  0.00    -0.000 C 
BRANCH  13  14
ATOM     14  C   UNL     1      20.281  14.403  33.947  1.00  0.00    -0.000 C 
BRANCH  14  15
ATOM     15  C   UNL     1      18.763  14.415  33.711  1.00  0.00    -0.003 C 
ATOM     16  C   UNL     1      18.014  13.870  34.923  1.00  0.00     0.004 C 
ENDBRANCH  14  15
ENDBRANCH  13  14
ENDBRANCH  12  13
ENDBRANCH  11  12
ENDBRANCH  10  11
ENDBRANCH   1  10
TORSDOF 12
ENDMDL
MODEL 6
REMARK VINA RESULT:    -4.008      1.838      2.439
REMARK INTER + INTRA:          -7.902
REMARK INTER:                  -6.511
REMARK INTRA:                  -1.391
REMARK UNBOUND:                -1.082
REMARK SMILES CCCCCCCCCCCCCC(=O)[O-]
REMARK SMILES IDX 8 1 9 2 10 3 11 4 12 5 13 6 14 7 15 8 16 9 7 10 6 11 5 12
REMARK SMILES IDX 4 13 3 14 2 15 1 16
REMARK H PARENT
REMARK Flexibility Score: inf
ROOT
ATOM      1  C   UNL     1      31.771  10.055  48.857  1.00  0.00     0.000 C 
ENDROOT
BRANCH   1   2
ATOM      2  C   UNL     1      31.373   8.863  49.745  1.00  0.00     0.000 C 
BRANCH   2   3
ATOM      3  C   UNL     1      32.399   7.720  49.695  1.00  0.00     0.000 C 
BRANCH   3   4
ATOM      4  C   UNL     1      32.547   7.121  48.289  1.00  0.00     0.000 C 
BRANCH   4   5
ATOM      5  C   UNL     1      31.627   5.903  48.111  1.00  0.00     0.006 C 
BRANCH   5   6
ATOM      6  C   UNL     1      30.284   6.278  47.471  1.00  0.00     0.053 C 
BRANCH   6   7
ATOM      7  C   UNL     1      29.126   5.893  48.340  1.00  0.00     0.041 C 
ATOM      8  O   UNL     1      29.220   5.973  49.594  1.00  0.00    -0.550 OA
ATOM      9  O   UNL     1      27.932   5.479  47.765  1.00  0.00    -0.550 OA
ENDBRANCH   6   7
ENDBRANCH   5   6
ENDBRANCH   4   5
ENDBRANCH   3   4
ENDBRANCH   2   3
ENDBRANCH   1   2
BRANCH   1  10
ATOM     10  C   UNL     1      32.805  10.972  49.528  1.00  0.00     0.000 C 
BRANCH  10  11
ATOM     11  C   UNL     1      33.994  11.292  48.610  1.00  0.00    -0.000 C 
BRANCH  11  12
ATOM     12  C   UNL     1      35.074  10.204  48.711  1.00  0.00    -0.000 C 
BRANCH  12  13
ATOM     13  C   UNL     1      35.565   9.715  47.336  1.00  0.00    -0.000 C 
BRANCH  13  14
ATOM     14  C   UNL     1      34.449   9.347  46.340  1.00  0.00    -0.000 C 
BRANCH  14  15
ATOM     15  C   UNL     1      34.554  10.114  45.014  1.00  0.00    -0.003 C 
ATOM     16  C   UNL     1      34.447   9.168  43.822  1.00  0.00     0.004 C 
ENDBRANCH  14  15
ENDBRANCH  13  14
ENDBRANCH  12  13
ENDBRANCH  11  12
ENDBRANCH  10  11
ENDBRANCH   1  10
TORSDOF 12
ENDMDL
MODEL 7
REMARK VINA RESULT:    -3.935     17.935     19.642
REMARK INTER + INTRA:          -7.777
REMARK INTER:                  -6.663
REMARK INTRA:                  -1.115
REMARK UNBOUND:                -1.082
REMARK SMILES CCCCCCCCCCCCCC(=O)[O-]
REMARK SMILES IDX 8 1 9 2 10 3 11 4 12 5 13 6 14 7 15 8 16 9 7 10 6 11 5 12
REMARK SMILES IDX 4 13 3 14 2 15 1 16
REMARK H PARENT
REMARK Flexibility Score: inf
ROOT
ATOM      1  C   UNL     1      21.114  13.375  34.471  1.00  0.00     0.000 C 
ENDROOT
BRANCH   1   2
ATOM      2  C   UNL     1      20.243  14.392  33.714  1.00  0.00     0.000 C 
BRANCH   2   3
ATOM      3  C   UNL     1      20.263  14.174  32.194  1.00  0.00     0.000 C 
BRANCH   3   4
ATOM      4  C   UNL     1      21.351  13.183  31.754  1.00  0.00     0.000 C 
BRANCH   4   5
ATOM      5  C   UNL     1      20.730  11.942  31.095  1.00  0.00     0.006 C 
BRANCH   5   6
ATOM      6  C   UNL     1      20.515  10.799  32.097  1.00  0.00     0.053 C 
BRANCH   6   7
ATOM      7  C   UNL     1      19.060  10.507  32.304  1.00  0.00     0.041 C 
ATOM      8  O   UNL     1      18.601   9.362  32.049  1.00  0.00    -0.550 OA
ATOM      9  O   UNL     1      18.219  11.488  32.813  1.00  0.00    -0.550 OA
ENDBRANCH   6   7
ENDBRANCH   5   6
ENDBRANCH   4   5
ENDBRANCH   3   4
ENDBRANCH   2   3
ENDBRANCH   1   2
BRANCH   1  10
ATOM     10  C   UNL     1      20.309  12.543  35.481  1.00  0.00     0.000 C 
BRANCH  10  11
ATOM     11  C   UNL     1      18.987  13.214  35.878  1.00  0.00    -0.000 C 
BRANCH  11  12
ATOM     12  C   UNL     1      17.876  12.169  36.066  1.00  0.00    -0.000 C 
BRANCH  12  13
ATOM     13  C   UNL     1      18.332  10.949  36.887  1.00  0.00    -0.000 C 
BRANCH  13  14
ATOM     14  C   UNL     1      18.653   9.691  36.058  1.00  0.00    -0.000 C 
BRANCH  14  15
ATOM     15  C   UNL     1      19.220   8.543  36.907  1.00  0.00    -0.003 C 
ATOM     16  C   UNL     1      18.241   7.375  36.976  1.00  0.00     0.004 C 
ENDBRANCH  14  15
ENDBRANCH  13  14
ENDBRANCH  12  13
ENDBRANCH  11  12
ENDBRANCH  10  11
ENDBRANCH   1  10
TORSDOF 12
ENDMDL
MODEL 8
REMARK VINA RESULT:    -3.916     19.067     20.687
REMARK INTER + INTRA:          -7.745
REMARK INTER:                  -6.119
REMARK INTRA:                  -1.626
REMARK UNBOUND:                -1.082
REMARK SMILES CCCCCCCCCCCCCC(=O)[O-]
REMARK SMILES IDX 8 1 9 2 10 3 11 4 12 5 13 6 14 7 15 8 16 9 7 10 6 11 5 12
REMARK SMILES IDX 4 13 3 14 2 15 1 16
REMARK H PARENT
REMARK Flexibility Score: inf
ROOT
ATOM      1  C   UNL     1      20.626  13.086  35.508  1.00  0.00     0.000 C 
ENDROOT
BRANCH   1   2
ATOM      2  C   UNL     1      20.908  13.753  34.151  1.00  0.00     0.000 C 
BRANCH   2   3
ATOM      3  C   UNL     1      19.698  14.530  33.610  1.00  0.00     0.000 C 
BRANCH   3   4
ATOM      4  C   UNL     1      19.438  14.256  32.121  1.00  0.00     0.000 C 
BRANCH   4   5
ATOM      5  C   UNL     1      20.389  15.077  31.238  1.00  0.00     0.006 C 
BRANCH   5   6
ATOM      6  C   UNL     1      20.535  16.524  31.730  1.00  0.00     0.053 C 
BRANCH   6   7
ATOM      7  C   UNL     1      19.839  17.493  30.824  1.00  0.00     0.041 C 
ATOM      8  O   UNL     1      18.606  17.374  30.596  1.00  0.00    -0.550 OA
ATOM      9  O   UNL     1      20.545  18.548  30.260  1.00  0.00    -0.550 OA
ENDBRANCH   6   7
ENDBRANCH   5   6
ENDBRANCH   4   5
ENDBRANCH   3   4
ENDBRANCH   2   3
ENDBRANCH   1   2
BRANCH   1  10
ATOM     10  C   UNL     1      19.123  12.933  35.791  1.00  0.00     0.000 C 
BRANCH  10  11
ATOM     11  C   UNL     1      18.777  11.579  36.426  1.00  0.00    -0.000 C 
BRANCH  11  12
ATOM     12  C   UNL     1      19.465  10.429  35.674  1.00  0.00    -0.000 C 
BRANCH  12  13
ATOM     13  C   UNL     1      18.609   9.866  34.524  1.00  0.00    -0.000 C 
BRANCH  13  14
ATOM     14  C   UNL     1      18.985  10.382  33.122  1.00  0.00    -0.000 C 
BRANCH  14  15
ATOM     15  C   UNL     1      20.500  10.386  32.872  1.00  0.00    -0.003 C 
ATOM     16  C   UNL     1      20.819  10.804  31.440  1.00  0.00     0.004 C 
ENDBRANCH  14  15
ENDBRANCH  13  14
ENDBRANCH  12  13
ENDBRANCH  11  12
ENDBRANCH  10  11
ENDBRANCH   1  10
TORSDOF 12
ENDMDL
MODEL 9
REMARK VINA RESULT:    -3.912     18.029     19.979
REMARK INTER + INTRA:          -7.738
REMARK INTER:                  -6.363
REMARK INTRA:                  -1.375
REMARK UNBOUND:                -1.082
REMARK SMILES CCCCCCCCCCCCCC(=O)[O-]
REMARK SMILES IDX 8 1 9 2 10 3 11 4 12 5 13 6 14 7 15 8 16 9 7 10 6 11 5 12
REMARK SMILES IDX 4 13 3 14 2 15 1 16
REMARK H PARENT
REMARK Flexibility Score: inf
ROOT
ATOM      1  C   UNL     1      21.298  11.085  30.215  1.00  0.00     0.000 C 
ENDROOT
BRANCH   1   2
ATOM      2  C   UNL     1      21.640  12.432  30.876  1.00  0.00     0.000 C 
BRANCH   2   3
ATOM      3  C   UNL     1      20.765  13.584  30.358  1.00  0.00     0.000 C 
BRANCH   3   4
ATOM      4  C   UNL     1      20.092  14.369  31.494  1.00  0.00     0.000 C 
BRANCH   4   5
ATOM      5  C   UNL     1      20.885  14.229  32.803  1.00  0.00     0.006 C 
BRANCH   5   6
ATOM      6  C   UNL     1      20.070  14.671  34.025  1.00  0.00     0.053 C 
BRANCH   6   7
ATOM      7  C   UNL     1      20.072  13.629  35.102  1.00  0.00     0.041 C 
ATOM      8  O   UNL     1      19.018  13.383  35.747  1.00  0.00    -0.550 OA
ATOM      9  O   UNL     1      21.227  12.905  35.368  1.00  0.00    -0.550 OA
ENDBRANCH   6   7
ENDBRANCH   5   6
ENDBRANCH   4   5
ENDBRANCH   3   4
ENDBRANCH   2   3
ENDBRANCH   1   2
BRANCH   1  10
ATOM     10  C   UNL     1      20.782  10.046  31.223  1.00  0.00     0.000 C 
BRANCH  10  11
ATOM     11  C   UNL     1      20.564  10.639  32.623  1.00  0.00    -0.000 C 
BRANCH  11  12
ATOM     12  C   UNL     1      19.066  10.753  32.943  1.00  0.00    -0.000 C 
BRANCH  12  13
ATOM     13  C   UNL     1      18.636   9.866  34.126  1.00  0.00    -0.000 C 
BRANCH  13  14
ATOM     14  C   UNL     1      19.566   9.921  35.352  1.00  0.00    -0.000 C 
BRANCH  14  15
ATOM     15  C   UNL     1      18.834   9.639  36.672  1.00  0.00    -0.003 C 
ATOM     16  C   UNL     1      18.865   8.151  37.011  1.00  0.00     0.004 C 
ENDBRANCH  14  15
ENDBRANCH  13  14
ENDBRANCH  12  13
ENDBRANCH  11  12
ENDBRANCH  10  11
ENDBRANCH   1  10
TORSDOF 12
ENDMDL
