MODEL 1
REMARK VINA RESULT:    -4.159      0.000      0.000
REMARK INTER + INTRA:          -8.886
REMARK INTER:                  -7.563
REMARK INTRA:                  -1.323
REMARK UNBOUND:                -1.323
REMARK SMILES CCCCCCCCCCCCCCCC(=O)[O-]
REMARK SMILES IDX 9 1 10 2 11 3 12 4 13 5 14 6 15 7 16 8 17 9 18 10 8 11 7 12
REMARK SMILES IDX 6 13 5 14 4 15 3 16 2 17 1 18
REMARK H PARENT
REMARK Flexibility Score: inf
ROOT
ATOM      1  C   UNL     1       8.892 -15.953  -3.973  1.00  0.00     0.000 C 
ENDROOT
BRANCH   1   2
ATOM      2  C   UNL     1      10.146 -15.088  -3.753  1.00  0.00     0.000 C 
BRANCH   2   3
ATOM      3  C   UNL     1      10.720 -14.535  -5.068  1.00  0.00     0.000 C 
BRANCH   3   4
ATOM      4  C   UNL     1      11.879 -13.552  -4.838  1.00  0.00     0.000 C 
BRANCH   4   5
ATOM      5  C   UNL     1      11.480 -12.128  -5.253  1.00  0.00     0.000 C 
BRANCH   5   6
ATOM      6  C   UNL     1      12.696 -11.234  -5.560  1.00  0.00     0.006 C 
BRANCH   6   7
ATOM      7  C   UNL     1      12.459 -10.208  -6.679  1.00  0.00     0.053 C 
BRANCH   7   8
ATOM      8  C   UNL     1      11.551  -9.099  -6.243  1.00  0.00     0.041 C 
ATOM      9  O   UNL     1      11.903  -8.318  -5.320  1.00  0.00    -0.550 OA
ATOM     10  O   UNL     1      10.333  -8.905  -6.881  1.00  0.00    -0.550 OA
ENDBRANCH   7   8
ENDBRANCH   6   7
ENDBRANCH   5   6
ENDBRANCH   4   5
ENDBRANCH   3   4
ENDBRANCH   2   3
ENDBRANCH   1   2
BRANCH   1  11
ATOM     11  C   UNL     1       9.223 -17.444  -4.144  1.00  0.00     0.000 C 
BRANCH  11  12
ATOM     12  C   UNL     1       9.967 -18.025  -2.929  1.00  0.00    -0.000 C 
BRANCH  12  13
ATOM     13  C   UNL     1      11.170 -18.893  -3.334  1.00  0.00    -0.000 C 
BRANCH  13  14
ATOM     14  C   UNL     1      11.910 -18.338  -4.563  1.00  0.00    -0.000 C 
BRANCH  14  15
ATOM     15  C   UNL     1      13.377 -18.797  -4.627  1.00  0.00    -0.000 C 
BRANCH  15  16
ATOM     16  C   UNL     1      14.366 -17.672  -4.290  1.00  0.00    -0.000 C 
BRANCH  16  17
ATOM     17  C   UNL     1      13.628 -16.357  -4.015  1.00  0.00    -0.003 C 
ATOM     18  C   UNL     1      14.084 -15.733  -2.700  1.00  0.00     0.004 C 
ENDBRANCH  16  17
ENDBRANCH  15  16
ENDBRANCH  14  15
ENDBRANCH  13  14
ENDBRANCH  12  13
ENDBRANCH  11  12
ENDBRANCH   1  11
TORSDOF 14
ENDMDL
MODEL 2
REMARK VINA RESULT:    -3.925      2.696      6.796
REMARK INTER + INTRA:          -8.460
REMARK INTER:                  -7.024
REMARK INTRA:                  -1.436
REMARK UNBOUND:                -1.323
REMARK SMILES CCCCCCCCCCCCCCCC(=O)[O-]
REMARK SMILES IDX 9 1 10 2 11 3 12 4 13 5 14 6 15 7 16 8 17 9 18 10 8 11 7 12
REMARK SMILES IDX 6 13 5 14 4 15 3 16 2 17 1 18
REMARK H PARENT
REMARK Flexibility Score: inf
ROOT
ATOM      1  C   UNL     1      13.857 -16.276  -3.251  1.00  0.00     0.000 C 
ENDROOT
BRANCH   1   2
ATOM      2  C   UNL     1      13.996 -17.060  -4.568  1.00  0.00     0.000 C 
BRANCH   2   3
ATOM      3  C   UNL     1      13.579 -18.533  -4.425  1.00  0.00     0.000 C 
BRANCH   3   4
ATOM      4  C   UNL     1      12.136 -18.786  -4.891  1.00  0.00     0.000 C 
BRANCH   4   5
ATOM      5  C   UNL     1      11.225 -19.109  -3.698  1.00  0.00     0.000 C 
BRANCH   5   6
ATOM      6  C   UNL     1      10.403 -17.893  -3.229  1.00  0.00     0.006 C 
BRANCH   6   7
ATOM      7  C   UNL     1       9.445 -17.331  -4.290  1.00  0.00     0.053 C 
BRANCH   7   8
ATOM      8  C   UNL     1       8.752 -16.088  -3.822  1.00  0.00     0.041 C 
ATOM      9  O   UNL     1       7.642 -15.758  -4.313  1.00  0.00    -0.550 OA
ATOM     10  O   UNL     1       9.317 -15.314  -2.815  1.00  0.00    -0.550 OA
ENDBRANCH   7   8
ENDBRANCH   6   7
ENDBRANCH   5   6
ENDBRANCH   4   5
ENDBRANCH   3   4
ENDBRANCH   2   3
ENDBRANCH   1   2
BRANCH   1  11
ATOM     11  C   UNL     1      12.890 -15.087  -3.369  1.00  0.00     0.000 C 
BRANCH  11  12
ATOM     12  C   UNL     1      12.200 -15.022  -4.742  1.00  0.00    -0.000 C 
BRANCH  12  13
ATOM     13  C   UNL     1      11.360 -13.746  -4.921  1.00  0.00    -0.000 C 
BRANCH  13  14
ATOM     14  C   UNL     1      12.228 -12.489  -5.098  1.00  0.00    -0.000 C 
BRANCH  14  15
ATOM     15  C   UNL     1      11.482 -11.353  -5.819  1.00  0.00    -0.000 C 
BRANCH  15  16
ATOM     16  C   UNL     1      12.390 -10.157  -6.140  1.00  0.00    -0.000 C 
BRANCH  16  17
ATOM     17  C   UNL     1      11.581  -8.855  -6.196  1.00  0.00    -0.003 C 
ATOM     18  C   UNL     1      10.266  -9.055  -6.942  1.00  0.00     0.004 C 
ENDBRANCH  16  17
ENDBRANCH  15  16
ENDBRANCH  14  15
ENDBRANCH  13  14
ENDBRANCH  12  13
ENDBRANCH  11  12
ENDBRANCH   1  11
TORSDOF 14
ENDMDL
MODEL 3
REMARK VINA RESULT:    -3.912      3.325      7.351
REMARK INTER + INTRA:          -8.437
REMARK INTER:                  -7.326
REMARK INTRA:                  -1.111
REMARK UNBOUND:                -1.323
REMARK SMILES CCCCCCCCCCCCCCCC(=O)[O-]
REMARK SMILES IDX 9 1 10 2 11 3 12 4 13 5 14 6 15 7 16 8 17 9 18 10 8 11 7 12
REMARK SMILES IDX 6 13 5 14 4 15 3 16 2 17 1 18
REMARK H PARENT
REMARK Flexibility Score: inf
ROOT
ATOM      1  C   UNL     1      10.334 -15.080  -3.715  1.00  0.00     0.000 C 
ENDROOT
BRANCH   1   2
ATOM      2  C   UNL     1       9.006 -15.850  -3.831  1.00  0.00     0.000 C 
BRANCH   2   3
ATOM      3  C   UNL     1       9.214 -17.366  -3.984  1.00  0.00     0.000 C 
BRANCH   3   4
ATOM      4  C   UNL     1       9.968 -17.981  -2.794  1.00  0.00     0.000 C 
BRANCH   4   5
ATOM      5  C   UNL     1      11.080 -18.923  -3.279  1.00  0.00     0.000 C 
BRANCH   5   6
ATOM      6  C   UNL     1      11.683 -18.489  -4.628  1.00  0.00     0.006 C 
BRANCH   6   7
ATOM      7  C   UNL     1      13.126 -18.965  -4.857  1.00  0.00     0.053 C 
BRANCH   7   8
ATOM      8  C   UNL     1      14.132 -17.971  -4.365  1.00  0.00     0.041 C 
ATOM      9  O   UNL     1      13.765 -16.821  -4.010  1.00  0.00    -0.550 OA
ATOM     10  O   UNL     1      15.471 -18.328  -4.263  1.00  0.00    -0.550 OA
ENDBRANCH   7   8
ENDBRANCH   6   7
ENDBRANCH   5   6
ENDBRANCH   4   5
ENDBRANCH   3   4
ENDBRANCH   2   3
ENDBRANCH   1   2
BRANCH   1  11
ATOM     11  C   UNL     1      11.002 -14.842  -5.079  1.00  0.00     0.000 C 
BRANCH  11  12
ATOM     12  C   UNL     1      12.108 -13.775  -5.016  1.00  0.00    -0.000 C 
BRANCH  12  13
ATOM     13  C   UNL     1      11.555 -12.344  -5.125  1.00  0.00    -0.000 C 
BRANCH  13  14
ATOM     14  C   UNL     1      12.658 -11.304  -5.387  1.00  0.00    -0.000 C 
BRANCH  14  15
ATOM     15  C   UNL     1      12.280 -10.311  -6.498  1.00  0.00    -0.000 C 
BRANCH  15  16
ATOM     16  C   UNL     1      11.805  -8.957  -5.949  1.00  0.00    -0.000 C 
BRANCH  16  17
ATOM     17  C   UNL     1      10.279  -8.838  -6.030  1.00  0.00    -0.003 C 
ATOM     18  C   UNL     1       9.790  -8.982  -7.468  1.00  0.00     0.004 C 
ENDBRANCH  16  17
ENDBRANCH  15  16
ENDBRANCH  14  15
ENDBRANCH  13  14
ENDBRANCH  12  13
ENDBRANCH  11  12
ENDBRANCH   1  11
TORSDOF 14
ENDMDL
MODEL 4
REMARK VINA RESULT:    -3.857      0.861      3.337
REMARK INTER + INTRA:          -8.337
REMARK INTER:                  -6.739
REMARK INTRA:                  -1.598
REMARK UNBOUND:                -1.323
REMARK SMILES CCCCCCCCCCCCCCCC(=O)[O-]
REMARK SMILES IDX 9 1 10 2 11 3 12 4 13 5 14 6 15 7 16 8 17 9 18 10 8 11 7 12
REMARK SMILES IDX 6 13 5 14 4 15 3 16 2 17 1 18
REMARK H PARENT
REMARK Flexibility Score: inf
ROOT
ATOM      1  C   UNL     1      13.901 -16.298  -3.457  1.00  0.00     0.000 C 
ENDROOT
BRANCH   1   2
ATOM      2  C   UNL     1      12.955 -15.086  -3.369  1.00  0.00     0.000 C 
BRANCH   2   3
ATOM      3  C   UNL     1      12.216 -14.817  -4.689  1.00  0.00     0.000 C 
BRANCH   3   4
ATOM      4  C   UNL     1      11.053 -13.826  -4.523  1.00  0.00     0.000 C 
BRANCH   4   5
ATOM      5  C   UNL     1      11.135 -12.706  -5.570  1.00  0.00     0.000 C 
BRANCH   5   6
ATOM      6  C   UNL     1      12.192 -11.641  -5.223  1.00  0.00     0.006 C 
BRANCH   6   7
ATOM      7  C   UNL     1      12.494 -10.656  -6.363  1.00  0.00     0.053 C 
BRANCH   7   8
ATOM      8  C   UNL     1      11.683  -9.401  -6.253  1.00  0.00     0.041 C 
ATOM      9  O   UNL     1      12.106  -8.431  -5.572  1.00  0.00    -0.550 OA
ATOM     10  O   UNL     1      10.477  -9.291  -6.933  1.00  0.00    -0.550 OA
ENDBRANCH   7   8
ENDBRANCH   6   7
ENDBRANCH   5   6
ENDBRANCH   4   5
ENDBRANCH   3   4
ENDBRANCH   2   3
ENDBRANCH   1   2
BRANCH   1  11
ATOM     11  C   UNL     1      13.661 -17.147  -4.715  1.00  0.00     0.000 C 
BRANCH  11  12
ATOM     12  C   UNL     1      13.205 -18.578  -4.382  1.00  0.00    -0.000 C 
BRANCH  12  13
ATOM     13  C   UNL     1      11.702 -18.791  -4.625  1.00  0.00    -0.000 C 
BRANCH  13  14
ATOM     14  C   UNL     1      10.893 -18.825  -3.317  1.00  0.00    -0.000 C 
BRANCH  14  15
ATOM     15  C   UNL     1      10.095 -17.531  -3.082  1.00  0.00    -0.000 C 
BRANCH  15  16
ATOM     16  C   UNL     1       9.289 -17.098  -4.316  1.00  0.00    -0.000 C 
BRANCH  16  17
ATOM     17  C   UNL     1       8.324 -15.958  -3.968  1.00  0.00    -0.003 C 
ATOM     18  C   UNL     1       6.902 -16.285  -4.413  1.00  0.00     0.004 C 
ENDBRANCH  16  17
ENDBRANCH  15  16
ENDBRANCH  14  15
ENDBRANCH  13  14
ENDBRANCH  12  13
ENDBRANCH  11  12
ENDBRANCH   1  11
TORSDOF 14
ENDMDL
MODEL 5
REMARK VINA RESULT:    -3.675      2.910      6.679
REMARK INTER + INTRA:          -8.005
REMARK INTER:                  -6.918
REMARK INTRA:                  -1.087
REMARK UNBOUND:                -1.323
REMARK SMILES CCCCCCCCCCCCCCCC(=O)[O-]
REMARK SMILES IDX 9 1 10 2 11 3 12 4 13 5 14 6 15 7 16 8 17 9 18 10 8 11 7 12
REMARK SMILES IDX 6 13 5 14 4 15 3 16 2 17 1 18
REMARK H PARENT
REMARK Flexibility Score: inf
ROOT
ATOM      1  C   UNL     1       9.782 -15.653  -3.271  1.00  0.00     0.000 C 
ENDROOT
BRANCH   1   2
ATOM      2  C   UNL     1       9.416 -17.122  -3.549  1.00  0.00     0.000 C 
BRANCH   2   3
ATOM      3  C   UNL     1       9.997 -18.084  -2.500  1.00  0.00     0.000 C 
BRANCH   3   4
ATOM      4  C   UNL     1      10.920 -19.145  -3.119  1.00  0.00     0.000 C 
BRANCH   4   5
ATOM      5  C   UNL     1      11.439 -18.686  -4.489  1.00  0.00     0.000 C 
BRANCH   5   6
ATOM      6  C   UNL     1      12.923 -18.275  -4.458  1.00  0.00     0.006 C 
BRANCH   6   7
ATOM      7  C   UNL     1      13.161 -16.759  -4.539  1.00  0.00     0.053 C 
BRANCH   7   8
ATOM      8  C   UNL     1      14.002 -16.259  -3.406  1.00  0.00     0.041 C 
ATOM      9  O   UNL     1      15.161 -16.717  -3.228  1.00  0.00    -0.550 OA
ATOM     10  O   UNL     1      13.520 -15.261  -2.568  1.00  0.00    -0.550 OA
ENDBRANCH   7   8
ENDBRANCH   6   7
ENDBRANCH   5   6
ENDBRANCH   4   5
ENDBRANCH   3   4
ENDBRANCH   2   3
ENDBRANCH   1   2
BRANCH   1  11
ATOM     11  C   UNL     1       9.610 -14.755  -4.507  1.00  0.00     0.000 C 
BRANCH  11  12
ATOM     12  C   UNL     1      10.929 -14.542  -5.269  1.00  0.00    -0.000 C 
BRANCH  12  13
ATOM     13  C   UNL     1      11.716 -13.324  -4.757  1.00  0.00    -0.000 C 
BRANCH  13  14
ATOM     14  C   UNL     1      11.356 -12.031  -5.509  1.00  0.00    -0.000 C 
BRANCH  14  15
ATOM     15  C   UNL     1      12.559 -11.085  -5.666  1.00  0.00    -0.000 C 
BRANCH  15  16
ATOM     16  C   UNL     1      12.260  -9.893  -6.587  1.00  0.00    -0.000 C 
BRANCH  16  17
ATOM     17  C   UNL     1      11.057  -9.092  -6.073  1.00  0.00    -0.003 C 
ATOM     18  C   UNL     1      10.052  -8.831  -7.190  1.00  0.00     0.004 C 
ENDBRANCH  16  17
ENDBRANCH  15  16
ENDBRANCH  14  15
ENDBRANCH  13  14
ENDBRANCH  12  13
ENDBRANCH  11  12
ENDBRANCH   1  11
TORSDOF 14
ENDMDL
MODEL 6
REMARK VINA RESULT:    -3.597      4.392      5.795
REMARK INTER + INTRA:          -7.864
REMARK INTER:                  -5.615
REMARK INTRA:                  -2.249
REMARK UNBOUND:                -1.323
REMARK SMILES CCCCCCCCCCCCCCCC(=O)[O-]
REMARK SMILES IDX 9 1 10 2 11 3 12 4 13 5 14 6 15 7 16 8 17 9 18 10 8 11 7 12
REMARK SMILES IDX 6 13 5 14 4 15 3 16 2 17 1 18
REMARK H PARENT
REMARK Flexibility Score: inf
ROOT
ATOM      1  C   UNL     1       8.919 -15.677  -3.784  1.00  0.00     0.000 C 
ENDROOT
BRANCH   1   2
ATOM      2  C   UNL     1      10.280 -15.009  -3.517  1.00  0.00     0.000 C 
BRANCH   2   3
ATOM      3  C   UNL     1      11.064 -14.727  -4.810  1.00  0.00     0.000 C 
BRANCH   3   4
ATOM      4  C   UNL     1      12.578 -14.919  -4.636  1.00  0.00     0.000 C 
BRANCH   4   5
ATOM      5  C   UNL     1      12.914 -15.355  -3.203  1.00  0.00     0.000 C 
BRANCH   5   6
ATOM      6  C   UNL     1      14.216 -16.172  -3.116  1.00  0.00     0.006 C 
BRANCH   6   7
ATOM      7  C   UNL     1      14.609 -16.876  -4.425  1.00  0.00     0.053 C 
BRANCH   7   8
ATOM      8  C   UNL     1      15.095 -18.273  -4.189  1.00  0.00     0.041 C 
ATOM      9  O   UNL     1      14.378 -19.256  -4.511  1.00  0.00    -0.550 OA
ATOM     10  O   UNL     1      16.356 -18.489  -3.646  1.00  0.00    -0.550 OA
ENDBRANCH   7   8
ENDBRANCH   6   7
ENDBRANCH   5   6
ENDBRANCH   4   5
ENDBRANCH   3   4
ENDBRANCH   2   3
ENDBRANCH   1   2
BRANCH   1  11
ATOM     11  C   UNL     1       8.973 -17.207  -3.647  1.00  0.00     0.000 C 
BRANCH  11  12
ATOM     12  C   UNL     1      10.022 -17.671  -2.621  1.00  0.00    -0.000 C 
BRANCH  12  13
ATOM     13  C   UNL     1      11.209 -18.395  -3.277  1.00  0.00    -0.000 C 
BRANCH  13  14
ATOM     14  C   UNL     1      10.833 -19.051  -4.617  1.00  0.00    -0.000 C 
BRANCH  14  15
ATOM     15  C   UNL     1      11.467 -18.336  -5.822  1.00  0.00    -0.000 C 
BRANCH  15  16
ATOM     16  C   UNL     1      10.422 -17.732  -6.771  1.00  0.00    -0.000 C 
BRANCH  16  17
ATOM     17  C   UNL     1       9.817 -18.810  -7.679  1.00  0.00    -0.003 C 
ATOM     18  C   UNL     1       8.385 -18.461  -8.072  1.00  0.00     0.004 C 
ENDBRANCH  16  17
ENDBRANCH  15  16
ENDBRANCH  14  15
ENDBRANCH  13  14
ENDBRANCH  12  13
ENDBRANCH  11  12
ENDBRANCH   1  11
TORSDOF 14
ENDMDL
MODEL 7
REMARK VINA RESULT:    -3.495      3.189      7.190
REMARK INTER + INTRA:          -7.679
REMARK INTER:                  -6.751
REMARK INTRA:                  -0.928
REMARK UNBOUND:                -1.323
REMARK SMILES CCCCCCCCCCCCCCCC(=O)[O-]
REMARK SMILES IDX 9 1 10 2 11 3 12 4 13 5 14 6 15 7 16 8 17 9 18 10 8 11 7 12
REMARK SMILES IDX 6 13 5 14 4 15 3 16 2 17 1 18
REMARK H PARENT
REMARK Flexibility Score: inf
ROOT
ATOM      1  C   UNL     1      10.059 -15.163  -3.040  1.00  0.00     0.000 C 
ENDROOT
BRANCH   1   2
ATOM      2  C   UNL     1       9.014 -15.864  -3.927  1.00  0.00     0.000 C 
BRANCH   2   3
ATOM      3  C   UNL     1       8.971 -17.384  -3.702  1.00  0.00     0.000 C 
BRANCH   3   4
ATOM      4  C   UNL     1       9.974 -17.851  -2.635  1.00  0.00     0.000 C 
BRANCH   4   5
ATOM      5  C   UNL     1      10.918 -18.921  -3.202  1.00  0.00     0.000 C 
BRANCH   5   6
ATOM      6  C   UNL     1      12.042 -18.325  -4.070  1.00  0.00     0.006 C 
BRANCH   6   7
ATOM      7  C   UNL     1      12.082 -18.864  -5.509  1.00  0.00     0.053 C 
BRANCH   7   8
ATOM      8  C   UNL     1      11.104 -18.162  -6.401  1.00  0.00     0.041 C 
ATOM      9  O   UNL     1      11.016 -16.907  -6.381  1.00  0.00    -0.550 OA
ATOM     10  O   UNL     1      10.315 -18.894  -7.280  1.00  0.00    -0.550 OA
ENDBRANCH   7   8
ENDBRANCH   6   7
ENDBRANCH   5   6
ENDBRANCH   4   5
ENDBRANCH   3   4
ENDBRANCH   2   3
ENDBRANCH   1   2
BRANCH   1  11
ATOM     11  C   UNL     1      11.344 -14.810  -3.804  1.00  0.00     0.000 C 
BRANCH  11  12
ATOM     12  C   UNL     1      11.078 -13.905  -5.019  1.00  0.00    -0.000 C 
BRANCH  12  13
ATOM     13  C   UNL     1      12.013 -12.685  -5.063  1.00  0.00    -0.000 C 
BRANCH  13  14
ATOM     14  C   UNL     1      11.418 -11.515  -5.864  1.00  0.00    -0.000 C 
BRANCH  14  15
ATOM     15  C   UNL     1      12.371 -10.309  -5.945  1.00  0.00    -0.000 C 
BRANCH  15  16
ATOM     16  C   UNL     1      11.627  -8.975  -6.101  1.00  0.00    -0.000 C 
BRANCH  16  17
ATOM     17  C   UNL     1      10.667  -9.020  -7.296  1.00  0.00    -0.003 C 
ATOM     18  C   UNL     1       9.220  -8.840  -6.848  1.00  0.00     0.004 C 
ENDBRANCH  16  17
ENDBRANCH  15  16
ENDBRANCH  14  15
ENDBRANCH  13  14
ENDBRANCH  12  13
ENDBRANCH  11  12
ENDBRANCH   1  11
TORSDOF 14
ENDMDL
MODEL 8
REMARK VINA RESULT:    -3.428      1.687      3.079
REMARK INTER + INTRA:          -7.556
REMARK INTER:                  -6.419
REMARK INTRA:                  -1.137
REMARK UNBOUND:                -1.323
REMARK SMILES CCCCCCCCCCCCCCCC(=O)[O-]
REMARK SMILES IDX 9 1 10 2 11 3 12 4 13 5 14 6 15 7 16 8 17 9 18 10 8 11 7 12
REMARK SMILES IDX 6 13 5 14 4 15 3 16 2 17 1 18
REMARK H PARENT
REMARK Flexibility Score: inf
ROOT
ATOM      1  C   UNL     1       9.422 -17.070  -3.390  1.00  0.00     0.000 C 
ENDROOT
BRANCH   1   2
ATOM      2  C   UNL     1       9.596 -15.590  -3.006  1.00  0.00     0.000 C 
BRANCH   2   3
ATOM      3  C   UNL     1      10.927 -15.003  -3.502  1.00  0.00     0.000 C 
BRANCH   3   4
ATOM      4  C   UNL     1      10.791 -14.292  -4.858  1.00  0.00     0.000 C 
BRANCH   4   5
ATOM      5  C   UNL     1      11.885 -13.229  -5.031  1.00  0.00     0.000 C 
BRANCH   5   6
ATOM      6  C   UNL     1      11.328 -11.869  -5.491  1.00  0.00     0.006 C 
BRANCH   6   7
ATOM      7  C   UNL     1      12.396 -10.885  -5.993  1.00  0.00     0.053 C 
BRANCH   7   8
ATOM      8  C   UNL     1      11.835  -9.516  -6.229  1.00  0.00     0.041 C 
ATOM      9  O   UNL     1      12.317  -8.522  -5.625  1.00  0.00    -0.550 OA
ATOM     10  O   UNL     1      10.805  -9.334  -7.142  1.00  0.00    -0.550 OA
ENDBRANCH   7   8
ENDBRANCH   6   7
ENDBRANCH   5   6
ENDBRANCH   4   5
ENDBRANCH   3   4
ENDBRANCH   2   3
ENDBRANCH   1   2
BRANCH   1  11
ATOM     11  C   UNL     1      10.221 -18.016  -2.481  1.00  0.00     0.000 C 
BRANCH  11  12
ATOM     12  C   UNL     1      10.967 -19.104  -3.272  1.00  0.00    -0.000 C 
BRANCH  12  13
ATOM     13  C   UNL     1      12.080 -18.527  -4.164  1.00  0.00    -0.000 C 
BRANCH  13  14
ATOM     14  C   UNL     1      11.794 -18.720  -5.663  1.00  0.00    -0.000 C 
BRANCH  14  15
ATOM     15  C   UNL     1      11.201 -17.461  -6.318  1.00  0.00    -0.000 C 
BRANCH  15  16
ATOM     16  C   UNL     1       9.708 -17.609  -6.644  1.00  0.00    -0.000 C 
BRANCH  16  17
ATOM     17  C   UNL     1       9.470 -18.779  -7.607  1.00  0.00    -0.003 C 
ATOM     18  C   UNL     1       8.140 -18.629  -8.339  1.00  0.00     0.004 C 
ENDBRANCH  16  17
ENDBRANCH  15  16
ENDBRANCH  14  15
ENDBRANCH  13  14
ENDBRANCH  12  13
ENDBRANCH  11  12
ENDBRANCH   1  11
TORSDOF 14
ENDMDL
MODEL 9
REMARK VINA RESULT:    -3.343      3.585      7.719
REMARK INTER + INTRA:          -7.401
REMARK INTER:                  -6.430
REMARK INTRA:                  -0.971
REMARK UNBOUND:                -1.323
REMARK SMILES CCCCCCCCCCCCCCCC(=O)[O-]
REMARK SMILES IDX 9 1 10 2 11 3 12 4 13 5 14 6 15 7 16 8 17 9 18 10 8 11 7 12
REMARK SMILES IDX 6 13 5 14 4 15 3 16 2 17 1 18
REMARK H PARENT
REMARK Flexibility Score: inf
ROOT
ATOM      1  C   UNL     1      10.972 -14.510  -4.929  1.00  0.00     0.000 C 
ENDROOT
BRANCH   1   2
ATOM      2  C   UNL     1      10.546 -15.121  -3.582  1.00  0.00     0.000 C 
BRANCH   2   3
ATOM      3  C   UNL     1       9.181 -15.825  -3.658  1.00  0.00     0.000 C 
BRANCH   3   4
ATOM      4  C   UNL     1       9.294 -17.282  -4.133  1.00  0.00     0.000 C 
BRANCH   4   5
ATOM      5  C   UNL     1       9.747 -18.198  -2.987  1.00  0.00     0.000 C 
BRANCH   5   6
ATOM      6  C   UNL     1      11.095 -18.887  -3.272  1.00  0.00     0.006 C 
BRANCH   6   7
ATOM      7  C   UNL     1      11.738 -18.490  -4.610  1.00  0.00     0.053 C 
BRANCH   7   8
ATOM      8  C   UNL     1      13.182 -18.124  -4.454  1.00  0.00     0.041 C 
ATOM      9  O   UNL     1      14.080 -18.964  -4.721  1.00  0.00    -0.550 OA
ATOM     10  O   UNL     1      13.535 -16.843  -4.048  1.00  0.00    -0.550 OA
ENDBRANCH   7   8
ENDBRANCH   6   7
ENDBRANCH   5   6
ENDBRANCH   4   5
ENDBRANCH   3   4
ENDBRANCH   2   3
ENDBRANCH   1   2
BRANCH   1  11
ATOM     11  C   UNL     1      11.945 -13.332  -4.764  1.00  0.00     0.000 C 
BRANCH  11  12
ATOM     12  C   UNL     1      11.457 -12.060  -5.480  1.00  0.00    -0.000 C 
BRANCH  12  13
ATOM     13  C   UNL     1      12.524 -10.952  -5.506  1.00  0.00    -0.000 C 
BRANCH  13  14
ATOM     14  C   UNL     1      12.214  -9.861  -6.545  1.00  0.00    -0.000 C 
BRANCH  14  15
ATOM     15  C   UNL     1      11.862  -8.511  -5.897  1.00  0.00    -0.000 C 
BRANCH  15  16
ATOM     16  C   UNL     1      12.154  -8.483  -4.390  1.00  0.00    -0.000 C 
BRANCH  16  17
ATOM     17  C   UNL     1      12.890  -7.195  -3.999  1.00  0.00    -0.003 C 
ATOM     18  C   UNL     1      14.022  -7.484  -3.018  1.00  0.00     0.004 C 
ENDBRANCH  16  17
ENDBRANCH  15  16
ENDBRANCH  14  15
ENDBRANCH  13  14
ENDBRANCH  12  13
ENDBRANCH  11  12
ENDBRANCH   1  11
TORSDOF 14
ENDMDL
