MODEL 1
REMARK VINA RESULT:    -3.802      0.000      0.000
REMARK INTER + INTRA:          -7.363
REMARK INTER:                  -6.025
REMARK INTRA:                  -1.339
REMARK UNBOUND:                -1.339
REMARK SMILES CCCCCCCCCCCC(=O)[O-]
REMARK SMILES IDX 7 1 8 2 9 3 10 4 11 5 12 6 13 7 14 8 6 9 5 10 4 11 3 12 2 13
REMARK SMILES IDX 1 14
REMARK H PARENT
REMARK Flexibility Score: inf
ROOT
ATOM      1  C   UNL     1      28.621  33.978   4.252  1.00  0.00     0.000 C 
ENDROOT
BRANCH   1   2
ATOM      2  C   UNL     1      27.220  33.908   3.622  1.00  0.00     0.000 C 
BRANCH   2   3
ATOM      3  C   UNL     1      27.129  32.881   2.485  1.00  0.00     0.000 C 
BRANCH   3   4
ATOM      4  C   UNL     1      26.570  33.526   1.206  1.00  0.00     0.006 C 
BRANCH   4   5
ATOM      5  C   UNL     1      25.270  34.297   1.467  1.00  0.00     0.053 C 
BRANCH   5   6
ATOM      6  C   UNL     1      24.120  33.727   0.693  1.00  0.00     0.041 C 
ATOM      7  O   UNL     1      23.953  32.480   0.634  1.00  0.00    -0.550 OA
ATOM      8  O   UNL     1      23.253  34.571   0.011  1.00  0.00    -0.550 OA
ENDBRANCH   5   6
ENDBRANCH   4   5
ENDBRANCH   3   4
ENDBRANCH   2   3
ENDBRANCH   1   2
BRANCH   1   9
ATOM      9  C   UNL     1      29.521  32.809   3.820  1.00  0.00     0.000 C 
BRANCH   9  10
ATOM     10  C   UNL     1      31.017  33.160   3.886  1.00  0.00    -0.000 C 
BRANCH  10  11
ATOM     11  C   UNL     1      31.683  33.187   2.503  1.00  0.00    -0.000 C 
BRANCH  11  12
ATOM     12  C   UNL     1      30.684  32.787   1.406  1.00  0.00    -0.000 C 
BRANCH  12  13
ATOM     13  C   UNL     1      30.499  33.884   0.347  1.00  0.00    -0.003 C 
ATOM     14  C   UNL     1      29.912  35.172   0.925  1.00  0.00     0.004 C 
ENDBRANCH  12  13
ENDBRANCH  11  12
ENDBRANCH  10  11
ENDBRANCH   9  10
ENDBRANCH   1   9
TORSDOF 10
ENDMDL
MODEL 2
REMARK VINA RESULT:    -3.704      2.805      5.743
REMARK INTER + INTRA:          -7.208
REMARK INTER:                  -6.418
REMARK INTRA:                  -0.790
REMARK UNBOUND:                -1.339
REMARK SMILES CCCCCCCCCCCC(=O)[O-]
REMARK SMILES IDX 7 1 8 2 9 3 10 4 11 5 12 6 13 7 14 8 6 9 5 10 4 11 3 12 2 13
REMARK SMILES IDX 1 14
REMARK H PARENT
REMARK Flexibility Score: inf
ROOT
ATOM      1  C   UNL     1      27.104  33.588   3.641  1.00  0.00     0.000 C 
ENDROOT
BRANCH   1   2
ATOM      2  C   UNL     1      28.489  34.238   3.797  1.00  0.00     0.000 C 
BRANCH   2   3
ATOM      3  C   UNL     1      29.606  33.209   4.024  1.00  0.00     0.000 C 
BRANCH   3   4
ATOM      4  C   UNL     1      30.757  33.421   3.028  1.00  0.00     0.006 C 
BRANCH   4   5
ATOM      5  C   UNL     1      30.476  32.768   1.668  1.00  0.00     0.053 C 
BRANCH   5   6
ATOM      6  C   UNL     1      30.510  33.767   0.552  1.00  0.00     0.041 C 
ATOM      7  O   UNL     1      29.921  34.874   0.675  1.00  0.00    -0.550 OA
ATOM      8  O   UNL     1      31.163  33.463  -0.635  1.00  0.00    -0.550 OA
ENDBRANCH   5   6
ENDBRANCH   4   5
ENDBRANCH   3   4
ENDBRANCH   2   3
ENDBRANCH   1   2
BRANCH   1   9
ATOM      9  C   UNL     1      26.920  32.911   2.273  1.00  0.00     0.000 C 
BRANCH   9  10
ATOM     10  C   UNL     1      26.508  33.903   1.172  1.00  0.00    -0.000 C 
BRANCH  10  11
ATOM     11  C   UNL     1      24.989  34.115   1.101  1.00  0.00    -0.000 C 
BRANCH  11  12
ATOM     12  C   UNL     1      24.264  32.790   0.819  1.00  0.00    -0.000 C 
BRANCH  12  13
ATOM     13  C   UNL     1      23.212  32.918  -0.294  1.00  0.00    -0.003 C 
ATOM     14  C   UNL     1      22.430  31.625  -0.521  1.00  0.00     0.004 C 
ENDBRANCH  12  13
ENDBRANCH  11  12
ENDBRANCH  10  11
ENDBRANCH   9  10
ENDBRANCH   1   9
TORSDOF 10
ENDMDL
MODEL 3
REMARK VINA RESULT:    -3.678      3.792      5.494
REMARK INTER + INTRA:          -7.167
REMARK INTER:                  -5.550
REMARK INTRA:                  -1.617
REMARK UNBOUND:                -1.339
REMARK SMILES CCCCCCCCCCCC(=O)[O-]
REMARK SMILES IDX 7 1 8 2 9 3 10 4 11 5 12 6 13 7 14 8 6 9 5 10 4 11 3 12 2 13
REMARK SMILES IDX 1 14
REMARK H PARENT
REMARK Flexibility Score: inf
ROOT
ATOM      1  C   UNL     1      27.211  33.697   3.766  1.00  0.00     0.000 C 
ENDROOT
BRANCH   1   2
ATOM      2  C   UNL     1      28.660  34.024   4.163  1.00  0.00     0.000 C 
BRANCH   2   3
ATOM      3  C   UNL     1      29.679  33.057   3.543  1.00  0.00     0.000 C 
BRANCH   3   4
ATOM      4  C   UNL     1      30.711  33.818   2.696  1.00  0.00     0.006 C 
BRANCH   4   5
ATOM      5  C   UNL     1      31.058  33.076   1.399  1.00  0.00     0.053 C 
BRANCH   5   6
ATOM      6  C   UNL     1      32.523  32.775   1.304  1.00  0.00     0.041 C 
ATOM      7  O   UNL     1      33.192  32.553   2.348  1.00  0.00    -0.550 OA
ATOM      8  O   UNL     1      33.154  32.773   0.067  1.00  0.00    -0.550 OA
ENDBRANCH   5   6
ENDBRANCH   4   5
ENDBRANCH   3   4
ENDBRANCH   2   3
ENDBRANCH   1   2
BRANCH   1   9
ATOM      9  C   UNL     1      27.128  32.814   2.510  1.00  0.00     0.000 C 
BRANCH   9  10
ATOM     10  C   UNL     1      26.183  33.392   1.443  1.00  0.00    -0.000 C 
BRANCH  10  11
ATOM     11  C   UNL     1      26.582  34.807   0.999  1.00  0.00    -0.000 C 
BRANCH  11  12
ATOM     12  C   UNL     1      27.921  34.786   0.245  1.00  0.00    -0.000 C 
BRANCH  12  13
ATOM     13  C   UNL     1      28.753  36.056   0.484  1.00  0.00    -0.003 C 
ATOM     14  C   UNL     1      28.353  36.794   1.761  1.00  0.00     0.004 C 
ENDBRANCH  12  13
ENDBRANCH  11  12
ENDBRANCH  10  11
ENDBRANCH   9  10
ENDBRANCH   1   9
TORSDOF 10
ENDMDL
MODEL 4
REMARK VINA RESULT:    -3.667      3.321      5.678
REMARK INTER + INTRA:          -7.149
REMARK INTER:                  -6.221
REMARK INTRA:                  -0.928
REMARK UNBOUND:                -1.339
REMARK SMILES CCCCCCCCCCCC(=O)[O-]
REMARK SMILES IDX 7 1 8 2 9 3 10 4 11 5 12 6 13 7 14 8 6 9 5 10 4 11 3 12 2 13
REMARK SMILES IDX 1 14
REMARK H PARENT
REMARK Flexibility Score: inf
ROOT
ATOM      1  C   UNL     1      28.558  34.249   3.758  1.00  0.00     0.000 C 
ENDROOT
BRANCH   1   2
ATOM      2  C   UNL     1      29.639  33.179   3.983  1.00  0.00     0.000 C 
BRANCH   2   3
ATOM      3  C   UNL     1      30.808  33.297   2.995  1.00  0.00     0.000 C 
BRANCH   3   4
ATOM      4  C   UNL     1      30.440  32.681   1.635  1.00  0.00     0.006 C 
BRANCH   4   5
ATOM      5  C   UNL     1      30.500  33.709   0.497  1.00  0.00     0.053 C 
BRANCH   5   6
ATOM      6  C   UNL     1      31.714  33.521  -0.360  1.00  0.00     0.041 C 
ATOM      7  O   UNL     1      32.687  34.315  -0.262  1.00  0.00    -0.550 OA
ATOM      8  O   UNL     1      31.757  32.490  -1.290  1.00  0.00    -0.550 OA
ENDBRANCH   5   6
ENDBRANCH   4   5
ENDBRANCH   3   4
ENDBRANCH   2   3
ENDBRANCH   1   2
BRANCH   1   9
ATOM      9  C   UNL     1      27.144  33.652   3.671  1.00  0.00     0.000 C 
BRANCH   9  10
ATOM     10  C   UNL     1      26.859  33.006   2.304  1.00  0.00    -0.000 C 
BRANCH  10  11
ATOM     11  C   UNL     1      26.801  34.031   1.163  1.00  0.00    -0.000 C 
BRANCH  11  12
ATOM     12  C   UNL     1      25.605  33.754   0.238  1.00  0.00    -0.000 C 
BRANCH  12  13
ATOM     13  C   UNL     1      24.521  32.901   0.914  1.00  0.00    -0.003 C 
ATOM     14  C   UNL     1      23.339  32.607  -0.009  1.00  0.00     0.004 C 
ENDBRANCH  12  13
ENDBRANCH  11  12
ENDBRANCH  10  11
ENDBRANCH   9  10
ENDBRANCH   1   9
TORSDOF 10
ENDMDL
MODEL 5
REMARK VINA RESULT:    -3.657      1.126      2.043
REMARK INTER + INTRA:          -7.134
REMARK INTER:                  -6.464
REMARK INTRA:                  -0.670
REMARK UNBOUND:                -1.339
REMARK SMILES CCCCCCCCCCCC(=O)[O-]
REMARK SMILES IDX 7 1 8 2 9 3 10 4 11 5 12 6 13 7 14 8 6 9 5 10 4 11 3 12 2 13
REMARK SMILES IDX 1 14
REMARK H PARENT
REMARK Flexibility Score: inf
ROOT
ATOM      1  C   UNL     1      27.117  33.645   3.571  1.00  0.00     0.000 C 
ENDROOT
BRANCH   1   2
ATOM      2  C   UNL     1      27.080  32.990   2.179  1.00  0.00     0.000 C 
BRANCH   2   3
ATOM      3  C   UNL     1      26.524  33.926   1.096  1.00  0.00     0.000 C 
BRANCH   3   4
ATOM      4  C   UNL     1      25.004  34.094   1.245  1.00  0.00     0.006 C 
BRANCH   4   5
ATOM      5  C   UNL     1      24.235  32.844   0.796  1.00  0.00     0.053 C 
BRANCH   5   6
ATOM      6  C   UNL     1      23.420  33.104  -0.434  1.00  0.00     0.041 C 
ATOM      7  O   UNL     1      23.814  33.942  -1.289  1.00  0.00    -0.550 OA
ATOM      8  O   UNL     1      22.212  32.446  -0.621  1.00  0.00    -0.550 OA
ENDBRANCH   5   6
ENDBRANCH   4   5
ENDBRANCH   3   4
ENDBRANCH   2   3
ENDBRANCH   1   2
BRANCH   1   9
ATOM      9  C   UNL     1      28.511  34.181   3.934  1.00  0.00     0.000 C 
BRANCH   9  10
ATOM     10  C   UNL     1      29.566  33.065   4.035  1.00  0.00    -0.000 C 
BRANCH  10  11
ATOM     11  C   UNL     1      30.894  33.440   3.361  1.00  0.00    -0.000 C 
BRANCH  11  12
ATOM     12  C   UNL     1      30.730  33.520   1.836  1.00  0.00    -0.000 C 
BRANCH  12  13
ATOM     13  C   UNL     1      31.934  32.936   1.081  1.00  0.00    -0.003 C 
ATOM     14  C   UNL     1      33.079  32.538   2.011  1.00  0.00     0.004 C 
ENDBRANCH  12  13
ENDBRANCH  11  12
ENDBRANCH  10  11
ENDBRANCH   9  10
ENDBRANCH   1   9
TORSDOF 10
ENDMDL
MODEL 6
REMARK VINA RESULT:    -3.642      1.144      2.185
REMARK INTER + INTRA:          -7.110
REMARK INTER:                  -6.122
REMARK INTRA:                  -0.989
REMARK UNBOUND:                -1.339
REMARK SMILES CCCCCCCCCCCC(=O)[O-]
REMARK SMILES IDX 7 1 8 2 9 3 10 4 11 5 12 6 13 7 14 8 6 9 5 10 4 11 3 12 2 13
REMARK SMILES IDX 1 14
REMARK H PARENT
REMARK Flexibility Score: inf
ROOT
ATOM      1  C   UNL     1      28.823  35.311   3.203  1.00  0.00     0.000 C 
ENDROOT
BRANCH   1   2
ATOM      2  C   UNL     1      28.364  34.032   3.922  1.00  0.00     0.000 C 
BRANCH   2   3
ATOM      3  C   UNL     1      26.921  33.640   3.576  1.00  0.00     0.000 C 
BRANCH   3   4
ATOM      4  C   UNL     1      26.868  32.858   2.254  1.00  0.00     0.006 C 
BRANCH   4   5
ATOM      5  C   UNL     1      26.310  33.702   1.101  1.00  0.00     0.053 C 
BRANCH   5   6
ATOM      6  C   UNL     1      24.816  33.613   1.017  1.00  0.00     0.041 C 
ATOM      7  O   UNL     1      24.258  32.497   0.847  1.00  0.00    -0.550 OA
ATOM      8  O   UNL     1      24.045  34.765   1.091  1.00  0.00    -0.550 OA
ENDBRANCH   5   6
ENDBRANCH   4   5
ENDBRANCH   3   4
ENDBRANCH   2   3
ENDBRANCH   1   2
BRANCH   1   9
ATOM      9  C   UNL     1      30.173  35.136   2.490  1.00  0.00     0.000 C 
BRANCH   9  10
ATOM     10  C   UNL     1      30.042  34.388   1.152  1.00  0.00    -0.000 C 
BRANCH  10  11
ATOM     11  C   UNL     1      30.680  32.992   1.186  1.00  0.00    -0.000 C 
BRANCH  11  12
ATOM     12  C   UNL     1      32.197  33.077   0.957  1.00  0.00    -0.000 C 
BRANCH  12  13
ATOM     13  C   UNL     1      33.005  32.477   2.118  1.00  0.00    -0.003 C 
ATOM     14  C   UNL     1      33.572  33.542   3.057  1.00  0.00     0.004 C 
ENDBRANCH  12  13
ENDBRANCH  11  12
ENDBRANCH  10  11
ENDBRANCH   9  10
ENDBRANCH   1   9
TORSDOF 10
ENDMDL
MODEL 7
REMARK VINA RESULT:    -3.575      2.869      5.314
REMARK INTER + INTRA:          -7.004
REMARK INTER:                  -5.971
REMARK INTRA:                  -1.033
REMARK UNBOUND:                -1.339
REMARK SMILES CCCCCCCCCCCC(=O)[O-]
REMARK SMILES IDX 7 1 8 2 9 3 10 4 11 5 12 6 13 7 14 8 6 9 5 10 4 11 3 12 2 13
REMARK SMILES IDX 1 14
REMARK H PARENT
REMARK Flexibility Score: inf
ROOT
ATOM      1  C   UNL     1      27.216  33.698   3.685  1.00  0.00     0.000 C 
ENDROOT
BRANCH   1   2
ATOM      2  C   UNL     1      28.623  34.274   3.917  1.00  0.00     0.000 C 
BRANCH   2   3
ATOM      3  C   UNL     1      29.709  33.190   3.971  1.00  0.00     0.000 C 
BRANCH   3   4
ATOM      4  C   UNL     1      30.848  33.505   2.988  1.00  0.00     0.006 C 
BRANCH   4   5
ATOM      5  C   UNL     1      30.697  32.747   1.663  1.00  0.00     0.053 C 
BRANCH   5   6
ATOM      6  C   UNL     1      30.541  33.680   0.501  1.00  0.00     0.041 C 
ATOM      7  O   UNL     1      29.767  34.671   0.585  1.00  0.00    -0.550 OA
ATOM      8  O   UNL     1      31.224  33.437  -0.683  1.00  0.00    -0.550 OA
ENDBRANCH   5   6
ENDBRANCH   4   5
ENDBRANCH   3   4
ENDBRANCH   2   3
ENDBRANCH   1   2
BRANCH   1   9
ATOM      9  C   UNL     1      27.136  32.826   2.421  1.00  0.00     0.000 C 
BRANCH   9  10
ATOM     10  C   UNL     1      26.442  33.544   1.251  1.00  0.00    -0.000 C 
BRANCH  10  11
ATOM     11  C   UNL     1      25.032  34.035   1.608  1.00  0.00    -0.000 C 
BRANCH  11  12
ATOM     12  C   UNL     1      24.797  35.459   1.079  1.00  0.00    -0.000 C 
BRANCH  12  13
ATOM     13  C   UNL     1      25.839  36.462   1.599  1.00  0.00    -0.003 C 
ATOM     14  C   UNL     1      25.231  37.820   1.944  1.00  0.00     0.004 C 
ENDBRANCH  12  13
ENDBRANCH  11  12
ENDBRANCH  10  11
ENDBRANCH   9  10
ENDBRANCH   1   9
TORSDOF 10
ENDMDL
MODEL 8
REMARK VINA RESULT:    -3.566      3.520      5.508
REMARK INTER + INTRA:          -6.989
REMARK INTER:                  -5.514
REMARK INTRA:                  -1.475
REMARK UNBOUND:                -1.339
REMARK SMILES CCCCCCCCCCCC(=O)[O-]
REMARK SMILES IDX 7 1 8 2 9 3 10 4 11 5 12 6 13 7 14 8 6 9 5 10 4 11 3 12 2 13
REMARK SMILES IDX 1 14
REMARK H PARENT
REMARK Flexibility Score: inf
ROOT
ATOM      1  C   UNL     1      28.674  35.670   3.313  1.00  0.00     0.000 C 
ENDROOT
BRANCH   1   2
ATOM      2  C   UNL     1      29.833  35.766   2.306  1.00  0.00     0.000 C 
BRANCH   2   3
ATOM      3  C   UNL     1      29.540  35.030   0.991  1.00  0.00     0.000 C 
BRANCH   3   4
ATOM      4  C   UNL     1      30.720  34.129   0.592  1.00  0.00     0.006 C 
BRANCH   4   5
ATOM      5  C   UNL     1      30.755  32.826   1.401  1.00  0.00     0.053 C 
BRANCH   5   6
ATOM      6  C   UNL     1      31.962  32.754   2.287  1.00  0.00     0.041 C 
ATOM      7  O   UNL     1      33.056  32.326   1.833  1.00  0.00    -0.550 OA
ATOM      8  O   UNL     1      31.868  33.125   3.622  1.00  0.00    -0.550 OA
ENDBRANCH   5   6
ENDBRANCH   4   5
ENDBRANCH   3   4
ENDBRANCH   2   3
ENDBRANCH   1   2
BRANCH   1   9
ATOM      9  C   UNL     1      28.498  34.251   3.878  1.00  0.00     0.000 C 
BRANCH   9  10
ATOM     10  C   UNL     1      27.106  33.666   3.582  1.00  0.00    -0.000 C 
BRANCH  10  11
ATOM     11  C   UNL     1      27.075  32.829   2.295  1.00  0.00    -0.000 C 
BRANCH  11  12
ATOM     12  C   UNL     1      25.908  33.257   1.392  1.00  0.00    -0.000 C 
BRANCH  12  13
ATOM     13  C   UNL     1      25.438  34.693   1.674  1.00  0.00    -0.003 C 
ATOM     14  C   UNL     1      25.938  35.694   0.633  1.00  0.00     0.004 C 
ENDBRANCH  12  13
ENDBRANCH  11  12
ENDBRANCH  10  11
ENDBRANCH   9  10
ENDBRANCH   1   9
TORSDOF 10
ENDMDL
MODEL 9
REMARK VINA RESULT:    -3.542      4.148      6.270
REMARK INTER + INTRA:          -6.952
REMARK INTER:                  -5.701
REMARK INTRA:                  -1.251
REMARK UNBOUND:                -1.339
REMARK SMILES CCCCCCCCCCCC(=O)[O-]
REMARK SMILES IDX 7 1 8 2 9 3 10 4 11 5 12 6 13 7 14 8 6 9 5 10 4 11 3 12 2 13
REMARK SMILES IDX 1 14
REMARK H PARENT
REMARK Flexibility Score: inf
ROOT
ATOM      1  C   UNL     1      30.196  35.128   2.371  1.00  0.00     0.000 C 
ENDROOT
BRANCH   1   2
ATOM      2  C   UNL     1      30.034  34.267   1.107  1.00  0.00     0.000 C 
BRANCH   2   3
ATOM      3  C   UNL     1      30.788  32.932   1.196  1.00  0.00     0.000 C 
BRANCH   3   4
ATOM      4  C   UNL     1      31.707  32.902   2.428  1.00  0.00     0.006 C 
BRANCH   4   5
ATOM      5  C   UNL     1      33.144  32.501   2.070  1.00  0.00     0.053 C 
BRANCH   5   6
ATOM      6  C   UNL     1      33.936  33.666   1.559  1.00  0.00     0.041 C 
ATOM      7  O   UNL     1      34.632  33.548   0.516  1.00  0.00    -0.550 OA
ATOM      8  O   UNL     1      33.933  34.869   2.253  1.00  0.00    -0.550 OA
ENDBRANCH   5   6
ENDBRANCH   4   5
ENDBRANCH   3   4
ENDBRANCH   2   3
ENDBRANCH   1   2
BRANCH   1   9
ATOM      9  C   UNL     1      28.867  35.342   3.113  1.00  0.00     0.000 C 
BRANCH   9  10
ATOM     10  C   UNL     1      28.430  34.103   3.913  1.00  0.00    -0.000 C 
BRANCH  10  11
ATOM     11  C   UNL     1      26.998  33.657   3.582  1.00  0.00    -0.000 C 
BRANCH  11  12
ATOM     12  C   UNL     1      26.969  32.822   2.293  1.00  0.00    -0.000 C 
BRANCH  12  13
ATOM     13  C   UNL     1      25.906  33.310   1.296  1.00  0.00    -0.003 C 
ATOM     14  C   UNL     1      26.439  34.376   0.339  1.00  0.00     0.004 C 
ENDBRANCH  12  13
ENDBRANCH  11  12
ENDBRANCH  10  11
ENDBRANCH   9  10
ENDBRANCH   1   9
TORSDOF 10
ENDMDL
