MODEL 1
REMARK VINA RESULT:    -6.661      0.000      0.000
REMARK INTER + INTRA:          -8.153
REMARK INTER:                  -8.024
REMARK INTRA:                  -0.129
REMARK UNBOUND:                -0.129
REMARK SMILES O=c1c(O)c(-c2ccc(O)c(O)c2)oc2cc(O)cc(O)c12
REMARK SMILES IDX 5 1 3 2 2 3 1 4 22 5 20 6 19 7 17 8 16 9 15 10 14 11 6 12
REMARK SMILES IDX 7 13 8 14 9 15 13 16 11 17 10 18 12 20 4 22 21 24 18 26
REMARK H PARENT 10 19 12 21 4 23 21 25 18 27
REMARK Flexibility Score: inf
ROOT
ATOM      1  C   UNL     1       1.204 -37.043  20.722  1.00  0.00     0.180 A 
ATOM      2  C   UNL     1       1.793 -37.045  19.444  1.00  0.00     0.208 A 
ATOM      3  C   UNL     1       3.194 -37.062  19.343  1.00  0.00     0.238 A 
ATOM      4  O   UNL     1       3.733 -37.076  18.203  1.00  0.00    -0.285 OA
ATOM      5  C   UNL     1       3.978 -37.058  20.515  1.00  0.00     0.111 A 
ATOM      6  C   UNL     1       5.393 -37.072  20.501  1.00  0.00     0.134 A 
ATOM      7  C   UNL     1       6.101 -37.058  21.712  1.00  0.00     0.093 A 
ATOM      8  C   UNL     1       5.421 -37.028  22.935  1.00  0.00     0.123 A 
ATOM      9  C   UNL     1       4.026 -37.016  22.953  1.00  0.00     0.094 A 
ATOM     10  C   UNL     1       3.301 -37.031  21.758  1.00  0.00     0.146 A 
ATOM     11  O   UNL     1       1.974 -37.024  21.806  1.00  0.00    -0.452 OA
ENDROOT
BRANCH   1  12
ATOM     12  C   UNL     1      -0.265 -37.043  20.911  1.00  0.00     0.025 A 
ATOM     13  C   UNL     1      -1.024 -38.114  20.417  1.00  0.00     0.016 A 
ATOM     14  C   UNL     1      -2.412 -38.124  20.566  1.00  0.00     0.051 A 
ATOM     15  C   UNL     1      -3.071 -37.061  21.195  1.00  0.00     0.157 A 
ATOM     16  C   UNL     1      -0.925 -35.964  21.523  1.00  0.00     0.062 A 
ATOM     17  C   UNL     1      -2.317 -35.963  21.674  1.00  0.00     0.158 A 
BRANCH  15  18
ATOM     18  O   UNL     1      -4.459 -37.135  21.319  1.00  0.00    -0.504 OA
ATOM     19  H   UNL     1      -4.964 -36.915  22.165  1.00  0.00     0.293 HD
ENDBRANCH  15  18
BRANCH  17  20
ATOM     20  O   UNL     1      -2.905 -34.858  22.293  1.00  0.00    -0.504 OA
ATOM     21  H   UNL     1      -2.413 -34.004  22.509  1.00  0.00     0.293 HD
ENDBRANCH  17  20
ENDBRANCH   1  12
BRANCH   2  22
ATOM     22  O   UNL     1       0.995 -36.999  18.298  1.00  0.00    -0.502 OA
ATOM     23  H   UNL     1       1.300 -36.550  17.443  1.00  0.00     0.293 HD
ENDBRANCH   2  22
BRANCH   6  24
ATOM     24  O   UNL     1       6.098 -37.100  19.297  1.00  0.00    -0.507 OA
ATOM     25  H   UNL     1       6.041 -36.340  18.628  1.00  0.00     0.293 HD
ENDBRANCH   6  24
BRANCH   8  26
ATOM     26  O   UNL     1       6.125 -37.013  24.137  1.00  0.00    -0.508 OA
ATOM     27  H   UNL     1       6.878 -36.357  24.302  1.00  0.00     0.293 HD
ENDBRANCH   8  26
TORSDOF 6
ENDMDL
MODEL 2
REMARK VINA RESULT:    -6.546     22.037     24.201
REMARK INTER + INTRA:          -8.014
REMARK INTER:                  -7.709
REMARK INTRA:                  -0.306
REMARK UNBOUND:                -0.129
REMARK SMILES O=c1c(O)c(-c2ccc(O)c(O)c2)oc2cc(O)cc(O)c12
REMARK SMILES IDX 5 1 3 2 2 3 1 4 22 5 20 6 19 7 17 8 16 9 15 10 14 11 6 12
REMARK SMILES IDX 7 13 8 14 9 15 13 16 11 17 10 18 12 20 4 22 21 24 18 26
REMARK H PARENT 10 19 12 21 4 23 21 25 18 27
REMARK Flexibility Score: inf
ROOT
ATOM      1  C   UNL     1      -7.061 -18.962  32.993  1.00  0.00     0.180 A 
ATOM      2  C   UNL     1      -8.151 -18.568  33.793  1.00  0.00     0.208 A 
ATOM      3  C   UNL     1      -9.392 -18.330  33.178  1.00  0.00     0.238 A 
ATOM      4  O   UNL     1     -10.378 -17.988  33.885  1.00  0.00    -0.285 OA
ATOM      5  C   UNL     1      -9.516 -18.470  31.781  1.00  0.00     0.111 A 
ATOM      6  C   UNL     1     -10.727 -18.245  31.085  1.00  0.00     0.134 A 
ATOM      7  C   UNL     1     -10.767 -18.397  29.690  1.00  0.00     0.093 A 
ATOM      8  C   UNL     1      -9.618 -18.766  28.980  1.00  0.00     0.123 A 
ATOM      9  C   UNL     1      -8.422 -18.990  29.663  1.00  0.00     0.094 A 
ATOM     10  C   UNL     1      -8.362 -18.845  31.052  1.00  0.00     0.146 A 
ATOM     11  O   UNL     1      -7.211 -19.069  31.676  1.00  0.00    -0.452 OA
ENDROOT
BRANCH   1  12
ATOM     12  C   UNL     1      -5.727 -19.248  33.569  1.00  0.00     0.025 A 
ATOM     13  C   UNL     1      -4.698 -18.306  33.427  1.00  0.00     0.016 A 
ATOM     14  C   UNL     1      -3.428 -18.565  33.945  1.00  0.00     0.051 A 
ATOM     15  C   UNL     1      -3.154 -19.772  34.598  1.00  0.00     0.157 A 
ATOM     16  C   UNL     1      -5.451 -20.470  34.205  1.00  0.00     0.062 A 
ATOM     17  C   UNL     1      -4.178 -20.740  34.724  1.00  0.00     0.158 A 
BRANCH  15  18
ATOM     18  O   UNL     1      -1.866 -19.966  35.099  1.00  0.00    -0.504 OA
ATOM     19  H   UNL     1      -1.023 -19.697  34.612  1.00  0.00     0.293 HD
ENDBRANCH  15  18
BRANCH  17  20
ATOM     20  O   UNL     1      -3.976 -21.975  35.344  1.00  0.00    -0.504 OA
ATOM     21  H   UNL     1      -3.949 -22.856  34.852  1.00  0.00     0.293 HD
ENDBRANCH  17  20
ENDBRANCH   1  12
BRANCH   2  22
ATOM     22  O   UNL     1      -7.989 -18.389  35.169  1.00  0.00    -0.502 OA
ATOM     23  H   UNL     1      -8.776 -18.327  35.803  1.00  0.00     0.293 HD
ENDBRANCH   2  22
BRANCH   6  24
ATOM     24  O   UNL     1     -11.888 -17.875  31.765  1.00  0.00    -0.507 OA
ATOM     25  H   UNL     1     -12.664 -18.516  31.883  1.00  0.00     0.293 HD
ENDBRANCH   6  24
BRANCH   8  26
ATOM     26  O   UNL     1      -9.658 -18.916  27.596  1.00  0.00    -0.508 OA
ATOM     27  H   UNL     1      -8.840 -19.198  27.070  1.00  0.00     0.293 HD
ENDBRANCH   8  26
TORSDOF 6
ENDMDL
MODEL 3
REMARK VINA RESULT:    -6.370     22.363     24.097
REMARK INTER + INTRA:          -7.802
REMARK INTER:                  -7.967
REMARK INTRA:                   0.164
REMARK UNBOUND:                -0.129
REMARK SMILES O=c1c(O)c(-c2ccc(O)c(O)c2)oc2cc(O)cc(O)c12
REMARK SMILES IDX 5 1 3 2 2 3 1 4 22 5 20 6 19 7 17 8 16 9 15 10 14 11 6 12
REMARK SMILES IDX 7 13 8 14 9 15 13 16 11 17 10 18 12 20 4 22 21 24 18 26
REMARK H PARENT 10 19 12 21 4 23 21 25 18 27
REMARK Flexibility Score: inf
ROOT
ATOM      1  C   UNL     1      -7.651 -20.119  33.467  1.00  0.00     0.180 A 
ATOM      2  C   UNL     1      -7.830 -19.644  32.154  1.00  0.00     0.208 A 
ATOM      3  C   UNL     1      -9.136 -19.494  31.659  1.00  0.00     0.238 A 
ATOM      4  O   UNL     1      -9.309 -19.058  30.489  1.00  0.00    -0.285 OA
ATOM      5  C   UNL     1     -10.234 -19.837  32.474  1.00  0.00     0.111 A 
ATOM      6  C   UNL     1     -11.580 -19.718  32.051  1.00  0.00     0.134 A 
ATOM      7  C   UNL     1     -12.618 -20.090  32.919  1.00  0.00     0.093 A 
ATOM      8  C   UNL     1     -12.335 -20.579  34.200  1.00  0.00     0.123 A 
ATOM      9  C   UNL     1     -11.009 -20.696  34.622  1.00  0.00     0.094 A 
ATOM     10  C   UNL     1      -9.961 -20.330  33.773  1.00  0.00     0.146 A 
ATOM     11  O   UNL     1      -8.710 -20.448  34.202  1.00  0.00    -0.452 OA
ENDROOT
BRANCH   1  12
ATOM     12  C   UNL     1      -6.308 -20.288  34.066  1.00  0.00     0.025 A 
ATOM     13  C   UNL     1      -6.082 -21.334  34.972  1.00  0.00     0.016 A 
ATOM     14  C   UNL     1      -4.829 -21.499  35.563  1.00  0.00     0.051 A 
ATOM     15  C   UNL     1      -3.781 -20.616  35.276  1.00  0.00     0.157 A 
ATOM     16  C   UNL     1      -5.265 -19.386  33.792  1.00  0.00     0.062 A 
ATOM     17  C   UNL     1      -4.005 -19.542  34.383  1.00  0.00     0.158 A 
BRANCH  15  18
ATOM     18  O   UNL     1      -2.550 -20.840  35.894  1.00  0.00    -0.504 OA
ATOM     19  H   UNL     1      -2.428 -21.403  36.724  1.00  0.00     0.293 HD
ENDBRANCH  15  18
BRANCH  17  20
ATOM     20  O   UNL     1      -3.016 -18.609  34.064  1.00  0.00    -0.504 OA
ATOM     21  H   UNL     1      -2.907 -18.191  33.151  1.00  0.00     0.293 HD
ENDBRANCH  17  20
ENDBRANCH   1  12
BRANCH   2  22
ATOM     22  O   UNL     1      -6.724 -19.358  31.350  1.00  0.00    -0.502 OA
ATOM     23  H   UNL     1      -6.029 -20.056  31.117  1.00  0.00     0.293 HD
ENDBRANCH   2  22
BRANCH   6  24
ATOM     24  O   UNL     1     -11.892 -19.236  30.780  1.00  0.00    -0.507 OA
ATOM     25  H   UNL     1     -12.208 -19.851  30.039  1.00  0.00     0.293 HD
ENDBRANCH   6  24
BRANCH   8  26
ATOM     26  O   UNL     1     -13.365 -20.948  35.061  1.00  0.00    -0.508 OA
ATOM     27  H   UNL     1     -13.781 -20.286  35.706  1.00  0.00     0.293 HD
ENDBRANCH   8  26
TORSDOF 6
ENDMDL
MODEL 4
REMARK VINA RESULT:    -6.095     22.127     24.442
REMARK INTER + INTRA:          -7.471
REMARK INTER:                  -7.256
REMARK INTRA:                  -0.214
REMARK UNBOUND:                -0.129
REMARK SMILES O=c1c(O)c(-c2ccc(O)c(O)c2)oc2cc(O)cc(O)c12
REMARK SMILES IDX 5 1 3 2 2 3 1 4 22 5 20 6 19 7 17 8 16 9 15 10 14 11 6 12
REMARK SMILES IDX 7 13 8 14 9 15 13 16 11 17 10 18 12 20 4 22 21 24 18 26
REMARK H PARENT 10 19 12 21 4 23 21 25 18 27
REMARK Flexibility Score: inf
ROOT
ATOM      1  C   UNL     1      -7.337 -19.333  33.273  1.00  0.00     0.180 A 
ATOM      2  C   UNL     1      -7.386 -19.197  31.873  1.00  0.00     0.208 A 
ATOM      3  C   UNL     1      -8.587 -18.786  31.273  1.00  0.00     0.238 A 
ATOM      4  O   UNL     1      -8.640 -18.649  30.020  1.00  0.00    -0.285 OA
ATOM      5  C   UNL     1      -9.719 -18.536  32.076  1.00  0.00     0.111 A 
ATOM      6  C   UNL     1     -10.966 -18.122  31.551  1.00  0.00     0.134 A 
ATOM      7  C   UNL     1     -12.048 -17.903  32.417  1.00  0.00     0.093 A 
ATOM      8  C   UNL     1     -11.906 -18.092  33.797  1.00  0.00     0.123 A 
ATOM      9  C   UNL     1     -10.677 -18.499  34.319  1.00  0.00     0.094 A 
ATOM     10  C   UNL     1      -9.587 -18.722  33.473  1.00  0.00     0.146 A 
ATOM     11  O   UNL     1      -8.428 -19.104  33.999  1.00  0.00    -0.452 OA
ENDROOT
BRANCH   1  12
ATOM     12  C   UNL     1      -6.104 -19.745  33.981  1.00  0.00     0.025 A 
ATOM     13  C   UNL     1      -5.008 -18.870  34.025  1.00  0.00     0.016 A 
ATOM     14  C   UNL     1      -3.829 -19.247  34.669  1.00  0.00     0.051 A 
ATOM     15  C   UNL     1      -3.712 -20.507  35.267  1.00  0.00     0.157 A 
ATOM     16  C   UNL     1      -5.983 -21.020  34.560  1.00  0.00     0.062 A 
ATOM     17  C   UNL     1      -4.802 -21.408  35.206  1.00  0.00     0.158 A 
BRANCH  15  18
ATOM     18  O   UNL     1      -2.509 -20.820  35.901  1.00  0.00    -0.504 OA
ATOM     19  H   UNL     1      -2.383 -20.828  36.903  1.00  0.00     0.293 HD
ENDBRANCH  15  18
BRANCH  17  20
ATOM     20  O   UNL     1      -4.753 -22.689  35.760  1.00  0.00    -0.504 OA
ATOM     21  H   UNL     1      -4.176 -22.941  36.550  1.00  0.00     0.293 HD
ENDBRANCH  17  20
ENDBRANCH   1  12
BRANCH   2  22
ATOM     22  O   UNL     1      -6.265 -19.498  31.095  1.00  0.00    -0.502 OA
ATOM     23  H   UNL     1      -6.175 -19.192  30.134  1.00  0.00     0.293 HD
ENDBRANCH   2  22
BRANCH   6  24
ATOM     24  O   UNL     1     -11.138 -17.927  30.180  1.00  0.00    -0.507 OA
ATOM     25  H   UNL     1     -10.390 -17.573  29.594  1.00  0.00     0.293 HD
ENDBRANCH   6  24
BRANCH   8  26
ATOM     26  O   UNL     1     -12.980 -17.875  34.657  1.00  0.00    -0.508 OA
ATOM     27  H   UNL     1     -13.460 -16.984  34.691  1.00  0.00     0.293 HD
ENDBRANCH   8  26
TORSDOF 6
ENDMDL
MODEL 5
REMARK VINA RESULT:    -6.020      1.566      7.129
REMARK INTER + INTRA:          -7.381
REMARK INTER:                  -7.378
REMARK INTRA:                  -0.003
REMARK UNBOUND:                -0.129
REMARK SMILES O=c1c(O)c(-c2ccc(O)c(O)c2)oc2cc(O)cc(O)c12
REMARK SMILES IDX 5 1 3 2 2 3 1 4 22 5 20 6 19 7 17 8 16 9 15 10 14 11 6 12
REMARK SMILES IDX 7 13 8 14 9 15 13 16 11 17 10 18 12 20 4 22 21 24 18 26
REMARK H PARENT 10 19 12 21 4 23 21 25 18 27
REMARK Flexibility Score: inf
ROOT
ATOM      1  C   UNL     1       1.036 -36.500  20.716  1.00  0.00     0.180 A 
ATOM      2  C   UNL     1       0.915 -35.448  21.644  1.00  0.00     0.208 A 
ATOM      3  C   UNL     1      -0.356 -35.133  22.150  1.00  0.00     0.238 A 
ATOM      4  O   UNL     1      -0.475 -34.200  22.991  1.00  0.00    -0.285 OA
ATOM      5  C   UNL     1      -1.482 -35.857  21.709  1.00  0.00     0.111 A 
ATOM      6  C   UNL     1      -2.797 -35.601  22.166  1.00  0.00     0.134 A 
ATOM      7  C   UNL     1      -3.867 -36.361  21.671  1.00  0.00     0.093 A 
ATOM      8  C   UNL     1      -3.647 -37.371  20.726  1.00  0.00     0.123 A 
ATOM      9  C   UNL     1      -2.352 -37.628  20.274  1.00  0.00     0.094 A 
ATOM     10  C   UNL     1      -1.272 -36.882  20.755  1.00  0.00     0.146 A 
ATOM     11  O   UNL     1      -0.050 -37.152  20.310  1.00  0.00    -0.452 OA
ENDROOT
BRANCH   1  12
ATOM     12  C   UNL     1       2.343 -36.904  20.151  1.00  0.00     0.025 A 
ATOM     13  C   UNL     1       2.459 -37.127  18.771  1.00  0.00     0.016 A 
ATOM     14  C   UNL     1       3.677 -37.528  18.221  1.00  0.00     0.051 A 
ATOM     15  C   UNL     1       4.798 -37.729  19.034  1.00  0.00     0.157 A 
ATOM     16  C   UNL     1       3.460 -37.126  20.974  1.00  0.00     0.062 A 
ATOM     17  C   UNL     1       4.686 -37.531  20.431  1.00  0.00     0.158 A 
BRANCH  15  18
ATOM     18  O   UNL     1       5.989 -38.123  18.421  1.00  0.00    -0.504 OA
ATOM     19  H   UNL     1       6.053 -38.447  17.467  1.00  0.00     0.293 HD
ENDBRANCH  15  18
BRANCH  17  20
ATOM     20  O   UNL     1       5.753 -37.732  21.309  1.00  0.00    -0.504 OA
ATOM     21  H   UNL     1       6.299 -38.581  21.349  1.00  0.00     0.293 HD
ENDBRANCH  17  20
ENDBRANCH   1  12
BRANCH   2  22
ATOM     22  O   UNL     1       2.039 -34.713  22.028  1.00  0.00    -0.502 OA
ATOM     23  H   UNL     1       2.299 -33.844  21.577  1.00  0.00     0.293 HD
ENDBRANCH   2  22
BRANCH   6  24
ATOM     24  O   UNL     1      -3.047 -34.601  23.106  1.00  0.00    -0.507 OA
ATOM     25  H   UNL     1      -3.557 -33.758  22.865  1.00  0.00     0.293 HD
ENDBRANCH   6  24
BRANCH   8  26
ATOM     26  O   UNL     1      -4.709 -38.125  20.234  1.00  0.00    -0.508 OA
ATOM     27  H   UNL     1      -5.602 -38.159  20.712  1.00  0.00     0.293 HD
ENDBRANCH   8  26
TORSDOF 6
ENDMDL
MODEL 6
REMARK VINA RESULT:    -5.993      1.827      6.828
REMARK INTER + INTRA:          -7.349
REMARK INTER:                  -7.174
REMARK INTRA:                  -0.174
REMARK UNBOUND:                -0.129
REMARK SMILES O=c1c(O)c(-c2ccc(O)c(O)c2)oc2cc(O)cc(O)c12
REMARK SMILES IDX 5 1 3 2 2 3 1 4 22 5 20 6 19 7 17 8 16 9 15 10 14 11 6 12
REMARK SMILES IDX 7 13 8 14 9 15 13 16 11 17 10 18 12 20 4 22 21 24 18 26
REMARK H PARENT 10 19 12 21 4 23 21 25 18 27
REMARK Flexibility Score: inf
ROOT
ATOM      1  C   UNL     1       0.700 -36.060  20.829  1.00  0.00     0.180 A 
ATOM      2  C   UNL     1      -0.318 -36.997  20.566  1.00  0.00     0.208 A 
ATOM      3  C   UNL     1      -1.589 -36.793  21.127  1.00  0.00     0.238 A 
ATOM      4  O   UNL     1      -2.511 -37.620  20.889  1.00  0.00    -0.285 OA
ATOM      5  C   UNL     1      -1.816 -35.673  21.952  1.00  0.00     0.111 A 
ATOM      6  C   UNL     1      -3.065 -35.397  22.558  1.00  0.00     0.134 A 
ATOM      7  C   UNL     1      -3.208 -34.264  23.374  1.00  0.00     0.093 A 
ATOM      8  C   UNL     1      -2.125 -33.406  23.597  1.00  0.00     0.123 A 
ATOM      9  C   UNL     1      -0.892 -33.674  23.001  1.00  0.00     0.094 A 
ATOM     10  C   UNL     1      -0.729 -34.796  22.183  1.00  0.00     0.146 A 
ATOM     11  O   UNL     1       0.454 -35.023  21.625  1.00  0.00    -0.452 OA
ENDROOT
BRANCH   1  12
ATOM     12  C   UNL     1       2.060 -36.196  20.261  1.00  0.00     0.025 A 
ATOM     13  C   UNL     1       2.240 -36.105  18.873  1.00  0.00     0.016 A 
ATOM     14  C   UNL     1       3.511 -36.250  18.315  1.00  0.00     0.051 A 
ATOM     15  C   UNL     1       4.623 -36.505  19.125  1.00  0.00     0.157 A 
ATOM     16  C   UNL     1       3.170 -36.473  21.076  1.00  0.00     0.062 A 
ATOM     17  C   UNL     1       4.449 -36.624  20.525  1.00  0.00     0.158 A 
BRANCH  15  18
ATOM     18  O   UNL     1       5.868 -36.633  18.506  1.00  0.00    -0.504 OA
ATOM     19  H   UNL     1       6.457 -37.449  18.585  1.00  0.00     0.293 HD
ENDBRANCH  15  18
BRANCH  17  20
ATOM     20  O   UNL     1       5.506 -36.898  21.395  1.00  0.00    -0.504 OA
ATOM     21  H   UNL     1       6.162 -37.654  21.267  1.00  0.00     0.293 HD
ENDBRANCH  17  20
ENDBRANCH   1  12
BRANCH   2  22
ATOM     22  O   UNL     1      -0.054 -38.125  19.785  1.00  0.00    -0.502 OA
ATOM     23  H   UNL     1      -0.421 -38.233  18.848  1.00  0.00     0.293 HD
ENDBRANCH   2  22
BRANCH   6  24
ATOM     24  O   UNL     1      -4.161 -36.235  22.355  1.00  0.00    -0.507 OA
ATOM     25  H   UNL     1      -4.064 -37.145  21.918  1.00  0.00     0.293 HD
ENDBRANCH   6  24
BRANCH   8  26
ATOM     26  O   UNL     1      -2.267 -32.282  24.408  1.00  0.00    -0.508 OA
ATOM     27  H   UNL     1      -3.142 -32.070  24.871  1.00  0.00     0.293 HD
ENDBRANCH   8  26
TORSDOF 6
ENDMDL
MODEL 7
REMARK VINA RESULT:    -5.340      1.813      3.331
REMARK INTER + INTRA:          -6.561
REMARK INTER:                  -6.698
REMARK INTRA:                   0.137
REMARK UNBOUND:                -0.129
REMARK SMILES O=c1c(O)c(-c2ccc(O)c(O)c2)oc2cc(O)cc(O)c12
REMARK SMILES IDX 5 1 3 2 2 3 1 4 22 5 20 6 19 7 17 8 16 9 15 10 14 11 6 12
REMARK SMILES IDX 7 13 8 14 9 15 13 16 11 17 10 18 12 20 4 22 21 24 18 26
REMARK H PARENT 10 19 12 21 4 23 21 25 18 27
REMARK Flexibility Score: inf
ROOT
ATOM      1  C   UNL     1       0.791 -35.750  21.472  1.00  0.00     0.180 A 
ATOM      2  C   UNL     1       1.855 -35.324  22.291  1.00  0.00     0.208 A 
ATOM      3  C   UNL     1       3.173 -35.528  21.852  1.00  0.00     0.238 A 
ATOM      4  O   UNL     1       4.133 -35.140  22.572  1.00  0.00    -0.285 OA
ATOM      5  C   UNL     1       3.405 -36.168  20.618  1.00  0.00     0.111 A 
ATOM      6  C   UNL     1       4.701 -36.415  20.105  1.00  0.00     0.134 A 
ATOM      7  C   UNL     1       4.850 -37.066  18.871  1.00  0.00     0.093 A 
ATOM      8  C   UNL     1       3.727 -37.477  18.143  1.00  0.00     0.123 A 
ATOM      9  C   UNL     1       2.447 -37.235  18.645  1.00  0.00     0.094 A 
ATOM     10  C   UNL     1       2.278 -36.586  19.871  1.00  0.00     0.146 A 
ATOM     11  O   UNL     1       1.048 -36.365  20.321  1.00  0.00    -0.452 OA
ENDROOT
BRANCH   1  12
ATOM     12  C   UNL     1      -0.625 -35.555  21.858  1.00  0.00     0.025 A 
ATOM     13  C   UNL     1      -1.573 -36.530  21.517  1.00  0.00     0.016 A 
ATOM     14  C   UNL     1      -2.917 -36.356  21.853  1.00  0.00     0.051 A 
ATOM     15  C   UNL     1      -3.344 -35.202  22.519  1.00  0.00     0.157 A 
ATOM     16  C   UNL     1      -1.053 -34.384  22.507  1.00  0.00     0.062 A 
ATOM     17  C   UNL     1      -2.400 -34.200  22.845  1.00  0.00     0.158 A 
BRANCH  15  18
ATOM     18  O   UNL     1      -4.700 -35.092  22.832  1.00  0.00    -0.504 OA
ATOM     19  H   UNL     1      -5.296 -35.879  23.047  1.00  0.00     0.293 HD
ENDBRANCH  15  18
BRANCH  17  20
ATOM     20  O   UNL     1      -2.753 -33.012  23.489  1.00  0.00    -0.504 OA
ATOM     21  H   UNL     1      -3.398 -32.961  24.264  1.00  0.00     0.293 HD
ENDBRANCH  17  20
ENDBRANCH   1  12
BRANCH   2  22
ATOM     22  O   UNL     1       1.598 -34.736  23.533  1.00  0.00    -0.502 OA
ATOM     23  H   UNL     1       0.664 -34.475  23.825  1.00  0.00     0.293 HD
ENDBRANCH   2  22
BRANCH   6  24
ATOM     24  O   UNL     1       5.839 -36.018  20.809  1.00  0.00    -0.507 OA
ATOM     25  H   UNL     1       6.754 -35.997  20.374  1.00  0.00     0.293 HD
ENDBRANCH   6  24
BRANCH   8  26
ATOM     26  O   UNL     1       3.874 -38.125  16.919  1.00  0.00    -0.508 OA
ATOM     27  H   UNL     1       3.087 -38.556  16.449  1.00  0.00     0.293 HD
ENDBRANCH   8  26
TORSDOF 6
ENDMDL
MODEL 8
REMARK VINA RESULT:    -5.255     22.375     23.721
REMARK INTER + INTRA:          -6.460
REMARK INTER:                  -6.761
REMARK INTRA:                   0.301
REMARK UNBOUND:                -0.129
REMARK SMILES O=c1c(O)c(-c2ccc(O)c(O)c2)oc2cc(O)cc(O)c12
REMARK SMILES IDX 5 1 3 2 2 3 1 4 22 5 20 6 19 7 17 8 16 9 15 10 14 11 6 12
REMARK SMILES IDX 7 13 8 14 9 15 13 16 11 17 10 18 12 20 4 22 21 24 18 26
REMARK H PARENT 10 19 12 21 4 23 21 25 18 27
REMARK Flexibility Score: inf
ROOT
ATOM      1  C   UNL     1      -7.716 -20.251  33.156  1.00  0.00     0.180 A 
ATOM      2  C   UNL     1      -8.913 -20.661  33.774  1.00  0.00     0.208 A 
ATOM      3  C   UNL     1     -10.119 -20.536  33.066  1.00  0.00     0.238 A 
ATOM      4  O   UNL     1     -11.196 -20.911  33.604  1.00  0.00    -0.285 OA
ATOM      5  C   UNL     1     -10.112 -19.988  31.767  1.00  0.00     0.111 A 
ATOM      6  C   UNL     1     -11.282 -19.825  30.988  1.00  0.00     0.134 A 
ATOM      7  C   UNL     1     -11.192 -19.263  29.705  1.00  0.00     0.093 A 
ATOM      8  C   UNL     1      -9.955 -18.860  29.189  1.00  0.00     0.123 A 
ATOM      9  C   UNL     1      -8.798 -19.020  29.953  1.00  0.00     0.094 A 
ATOM     10  C   UNL     1      -8.866 -19.579  31.233  1.00  0.00     0.146 A 
ATOM     11  O   UNL     1      -7.748 -19.724  31.935  1.00  0.00    -0.452 OA
ENDROOT
BRANCH   1  12
ATOM     12  C   UNL     1      -6.403 -20.367  33.831  1.00  0.00     0.025 A 
ATOM     13  C   UNL     1      -6.195 -21.394  34.763  1.00  0.00     0.016 A 
ATOM     14  C   UNL     1      -4.972 -21.509  35.425  1.00  0.00     0.051 A 
ATOM     15  C   UNL     1      -3.939 -20.596  35.183  1.00  0.00     0.157 A 
ATOM     16  C   UNL     1      -5.377 -19.435  33.602  1.00  0.00     0.062 A 
ATOM     17  C   UNL     1      -4.147 -19.541  34.264  1.00  0.00     0.158 A 
BRANCH  15  18
ATOM     18  O   UNL     1      -2.738 -20.771  35.873  1.00  0.00    -0.504 OA
ATOM     19  H   UNL     1      -2.499 -21.605  36.389  1.00  0.00     0.293 HD
ENDBRANCH  15  18
BRANCH  17  20
ATOM     20  O   UNL     1      -3.173 -18.580  33.987  1.00  0.00    -0.504 OA
ATOM     21  H   UNL     1      -3.316 -17.791  33.373  1.00  0.00     0.293 HD
ENDBRANCH  17  20
ENDBRANCH   1  12
BRANCH   2  22
ATOM     22  O   UNL     1      -8.900 -21.155  35.081  1.00  0.00    -0.502 OA
ATOM     23  H   UNL     1      -9.621 -21.771  35.434  1.00  0.00     0.293 HD
ENDBRANCH   2  22
BRANCH   6  24
ATOM     24  O   UNL     1     -12.529 -20.216  31.476  1.00  0.00    -0.507 OA
ATOM     25  H   UNL     1     -13.189 -19.544  31.852  1.00  0.00     0.293 HD
ENDBRANCH   6  24
BRANCH   8  26
ATOM     26  O   UNL     1      -9.866 -18.301  27.916  1.00  0.00    -0.508 OA
ATOM     27  H   UNL     1     -10.688 -17.979  27.420  1.00  0.00     0.293 HD
ENDBRANCH   8  26
TORSDOF 6
ENDMDL
MODEL 9
REMARK VINA RESULT:    -4.920      2.281      3.934
REMARK INTER + INTRA:          -6.055
REMARK INTER:                  -6.239
REMARK INTRA:                   0.184
REMARK UNBOUND:                -0.129
REMARK SMILES O=c1c(O)c(-c2ccc(O)c(O)c2)oc2cc(O)cc(O)c12
REMARK SMILES IDX 5 1 3 2 2 3 1 4 22 5 20 6 19 7 17 8 16 9 15 10 14 11 6 12
REMARK SMILES IDX 7 13 8 14 9 15 13 16 11 17 10 18 12 20 4 22 21 24 18 26
REMARK H PARENT 10 19 12 21 4 23 21 25 18 27
REMARK Flexibility Score: inf
ROOT
ATOM      1  C   UNL     1       1.229 -35.112  22.118  1.00  0.00     0.180 A 
ATOM      2  C   UNL     1       2.392 -35.041  22.910  1.00  0.00     0.208 A 
ATOM      3  C   UNL     1       3.581 -35.604  22.420  1.00  0.00     0.238 A 
ATOM      4  O   UNL     1       4.631 -35.536  23.115  1.00  0.00    -0.285 OA
ATOM      5  C   UNL     1       3.585 -36.242  21.163  1.00  0.00     0.111 A 
ATOM      6  C   UNL     1       4.739 -36.837  20.599  1.00  0.00     0.134 A 
ATOM      7  C   UNL     1       4.658 -37.462  19.345  1.00  0.00     0.093 A 
ATOM      8  C   UNL     1       3.446 -37.504  18.647  1.00  0.00     0.123 A 
ATOM      9  C   UNL     1       2.306 -36.917  19.198  1.00  0.00     0.094 A 
ATOM     10  C   UNL     1       2.365 -36.289  20.446  1.00  0.00     0.146 A 
ATOM     11  O   UNL     1       1.266 -35.735  20.944  1.00  0.00    -0.452 OA
ENDROOT
BRANCH   1  12
ATOM     12  C   UNL     1      -0.058 -34.527  22.557  1.00  0.00     0.025 A 
ATOM     13  C   UNL     1      -1.261 -35.131  22.164  1.00  0.00     0.016 A 
ATOM     14  C   UNL     1      -2.485 -34.585  22.550  1.00  0.00     0.051 A 
ATOM     15  C   UNL     1      -2.536 -33.418  23.320  1.00  0.00     0.157 A 
ATOM     16  C   UNL     1      -0.104 -33.343  23.312  1.00  0.00     0.062 A 
ATOM     17  C   UNL     1      -1.329 -32.785  23.701  1.00  0.00     0.158 A 
BRANCH  15  18
ATOM     18  O   UNL     1      -3.792 -32.926  23.680  1.00  0.00    -0.504 OA
ATOM     19  H   UNL     1      -4.126 -32.003  23.443  1.00  0.00     0.293 HD
ENDBRANCH  15  18
BRANCH  17  20
ATOM     20  O   UNL     1      -1.300 -31.607  24.451  1.00  0.00    -0.504 OA
ATOM     21  H   UNL     1      -0.810 -30.770  24.169  1.00  0.00     0.293 HD
ENDBRANCH  17  20
ENDBRANCH   1  12
BRANCH   2  22
ATOM     22  O   UNL     1       2.350 -34.447  24.173  1.00  0.00    -0.502 OA
ATOM     23  H   UNL     1       1.737 -34.779  24.908  1.00  0.00     0.293 HD
ENDBRANCH   2  22
BRANCH   6  24
ATOM     24  O   UNL     1       5.961 -36.812  21.273  1.00  0.00    -0.507 OA
ATOM     25  H   UNL     1       6.476 -37.662  21.473  1.00  0.00     0.293 HD
ENDBRANCH   6  24
BRANCH   8  26
ATOM     26  O   UNL     1       3.366 -38.125  17.403  1.00  0.00    -0.508 OA
ATOM     27  H   UNL     1       4.165 -38.592  16.991  1.00  0.00     0.293 HD
ENDBRANCH   8  26
TORSDOF 6
ENDMDL
