MODEL 1
REMARK VINA RESULT:    -0.301      0.000      0.000
REMARK INTER + INTRA:          -2.017
REMARK INTER:                  -0.564
REMARK INTRA:                  -1.452
REMARK UNBOUND:                -1.452
REMARK SMILES CCCCCCCCC=CCCCCCCCC(=O)[O-]
REMARK SMILES IDX 10 1 9 2 11 3 12 4 13 5 14 6 15 7 16 8 17 9 18 10 19 11
REMARK SMILES IDX 20 12 8 13 7 14 6 15 5 16 4 17 3 18 2 19 1 20
REMARK H PARENT
REMARK Flexibility Score: inf
ROOT
ATOM      1  C   UNL     1      -8.149  15.575 -11.386  1.00  0.00    -0.031 C 
ATOM      2  C   UNL     1      -7.552  14.822 -12.319  1.00  0.00    -0.031 C 
ENDROOT
BRANCH   1   3
ATOM      3  C   UNL     1      -8.985  16.763 -11.778  1.00  0.00     0.027 C 
BRANCH   3   4
ATOM      4  C   UNL     1      -8.198  17.724 -12.677  1.00  0.00     0.004 C 
BRANCH   4   5
ATOM      5  C   UNL     1      -8.415  17.454 -14.176  1.00  0.00     0.000 C 
BRANCH   5   6
ATOM      6  C   UNL     1      -7.154  17.688 -15.035  1.00  0.00     0.000 C 
BRANCH   6   7
ATOM      7  C   UNL     1      -5.948  18.131 -14.188  1.00  0.00     0.000 C 
BRANCH   7   8
ATOM      8  C   UNL     1      -4.976  19.046 -14.954  1.00  0.00     0.006 C 
BRANCH   8   9
ATOM      9  C   UNL     1      -5.089  20.533 -14.575  1.00  0.00     0.053 C 
BRANCH   9  10
ATOM     10  C   UNL     1      -6.100  20.780 -13.498  1.00  0.00     0.041 C 
ATOM     11  O   UNL     1      -7.308  20.984 -13.792  1.00  0.00    -0.550 OA
ATOM     12  O   UNL     1      -5.714  20.753 -12.163  1.00  0.00    -0.550 OA
ENDBRANCH   9  10
ENDBRANCH   8   9
ENDBRANCH   7   8
ENDBRANCH   6   7
ENDBRANCH   5   6
ENDBRANCH   4   5
ENDBRANCH   3   4
ENDBRANCH   1   3
BRANCH   2  13
ATOM     13  C   UNL     1      -6.723  13.622 -11.952  1.00  0.00     0.027 C 
BRANCH  13  14
ATOM     14  C   UNL     1      -5.376  13.633 -12.689  1.00  0.00     0.004 C 
BRANCH  14  15
ATOM     15  C   UNL     1      -5.331  14.669 -13.822  1.00  0.00     0.000 C 
BRANCH  15  16
ATOM     16  C   UNL     1      -6.000  14.166 -15.111  1.00  0.00     0.000 C 
BRANCH  16  17
ATOM     17  C   UNL     1      -6.079  12.632 -15.125  1.00  0.00    -0.000 C 
BRANCH  17  18
ATOM     18  C   UNL     1      -7.517  12.111 -14.990  1.00  0.00    -0.000 C 
BRANCH  18  19
ATOM     19  C   UNL     1      -8.567  13.225 -15.124  1.00  0.00    -0.003 C 
ATOM     20  C   UNL     1      -9.981  12.657 -15.064  1.00  0.00     0.004 C 
ENDBRANCH  18  19
ENDBRANCH  17  18
ENDBRANCH  16  17
ENDBRANCH  15  16
ENDBRANCH  14  15
ENDBRANCH  13  14
ENDBRANCH   2  13
TORSDOF 15
ENDMDL
MODEL 2
REMARK VINA RESULT:    -0.146      1.965      5.784
REMARK INTER + INTRA:          -1.726
REMARK INTER:                  -2.047
REMARK INTRA:                   0.321
REMARK UNBOUND:                -1.452
REMARK SMILES CCCCCCCCC=CCCCCCCCC(=O)[O-]
REMARK SMILES IDX 10 1 9 2 11 3 12 4 13 5 14 6 15 7 16 8 17 9 18 10 19 11
REMARK SMILES IDX 20 12 8 13 7 14 6 15 5 16 4 17 3 18 2 19 1 20
REMARK H PARENT
REMARK Flexibility Score: inf
ROOT
ATOM      1  C   UNL     1      -8.049  15.205 -14.474  1.00  0.00    -0.031 C 
ATOM      2  C   UNL     1      -8.374  16.333 -15.121  1.00  0.00    -0.031 C 
ENDROOT
BRANCH   1   3
ATOM      3  C   UNL     1      -8.969  14.014 -14.500  1.00  0.00     0.027 C 
BRANCH   3   4
ATOM      4  C   UNL     1      -8.204  12.729 -14.841  1.00  0.00     0.004 C 
BRANCH   4   5
ATOM      5  C   UNL     1      -6.680  12.935 -14.887  1.00  0.00     0.000 C 
BRANCH   5   6
ATOM      6  C   UNL     1      -6.005  12.854 -13.501  1.00  0.00     0.000 C 
BRANCH   6   7
ATOM      7  C   UNL     1      -6.974  13.210 -12.361  1.00  0.00     0.000 C 
BRANCH   7   8
ATOM      8  C   UNL     1      -6.799  14.651 -11.847  1.00  0.00     0.006 C 
BRANCH   8   9
ATOM      9  C   UNL     1      -7.950  15.137 -10.950  1.00  0.00     0.053 C 
BRANCH   9  10
ATOM     10  C   UNL     1      -8.678  16.312 -11.528  1.00  0.00     0.041 C 
ATOM     11  O   UNL     1      -8.072  17.394 -11.746  1.00  0.00    -0.550 OA
ATOM     12  O   UNL     1     -10.024  16.201 -11.859  1.00  0.00    -0.550 OA
ENDBRANCH   9  10
ENDBRANCH   8   9
ENDBRANCH   7   8
ENDBRANCH   6   7
ENDBRANCH   5   6
ENDBRANCH   4   5
ENDBRANCH   3   4
ENDBRANCH   1   3
BRANCH   2  13
ATOM     13  C   UNL     1      -7.465  17.531 -15.121  1.00  0.00     0.027 C 
BRANCH  13  14
ATOM     14  C   UNL     1      -6.276  17.325 -14.171  1.00  0.00     0.004 C 
BRANCH  14  15
ATOM     15  C   UNL     1      -4.951  17.827 -14.765  1.00  0.00     0.000 C 
BRANCH  15  16
ATOM     16  C   UNL     1      -4.951  19.344 -15.012  1.00  0.00     0.000 C 
BRANCH  16  17
ATOM     17  C   UNL     1      -5.030  20.115 -13.685  1.00  0.00    -0.000 C 
BRANCH  17  18
ATOM     18  C   UNL     1      -6.240  21.058 -13.618  1.00  0.00    -0.000 C 
BRANCH  18  19
ATOM     19  C   UNL     1      -7.014  21.125 -14.943  1.00  0.00    -0.003 C 
ATOM     20  C   UNL     1      -8.427  20.575 -14.783  1.00  0.00     0.004 C 
ENDBRANCH  18  19
ENDBRANCH  17  18
ENDBRANCH  16  17
ENDBRANCH  15  16
ENDBRANCH  14  15
ENDBRANCH  13  14
ENDBRANCH   2  13
TORSDOF 15
ENDMDL
MODEL 3
REMARK VINA RESULT:    -0.018      1.634      3.606
REMARK INTER + INTRA:          -1.485
REMARK INTER:                  -0.859
REMARK INTRA:                  -0.627
REMARK UNBOUND:                -1.452
REMARK SMILES CCCCCCCCC=CCCCCCCCC(=O)[O-]
REMARK SMILES IDX 10 1 9 2 11 3 12 4 13 5 14 6 15 7 16 8 17 9 18 10 19 11
REMARK SMILES IDX 20 12 8 13 7 14 6 15 5 16 4 17 3 18 2 19 1 20
REMARK H PARENT
REMARK Flexibility Score: inf
ROOT
ATOM      1  C   UNL     1      -6.031  14.730 -15.066  1.00  0.00    -0.031 C 
ATOM      2  C   UNL     1      -5.344  14.094 -14.107  1.00  0.00    -0.031 C 
ENDROOT
BRANCH   1   3
ATOM      3  C   UNL     1      -6.055  16.233 -15.125  1.00  0.00     0.027 C 
BRANCH   3   4
ATOM      4  C   UNL     1      -4.876  16.838 -14.353  1.00  0.00     0.004 C 
BRANCH   4   5
ATOM      5  C   UNL     1      -4.885  18.376 -14.357  1.00  0.00     0.000 C 
BRANCH   5   6
ATOM      6  C   UNL     1      -4.963  18.997 -12.946  1.00  0.00     0.000 C 
BRANCH   6   7
ATOM      7  C   UNL     1      -5.017  20.534 -12.990  1.00  0.00     0.000 C 
BRANCH   7   8
ATOM      8  C   UNL     1      -6.453  21.088 -13.005  1.00  0.00     0.006 C 
BRANCH   8   9
ATOM      9  C   UNL     1      -7.541  20.001 -13.043  1.00  0.00     0.053 C 
BRANCH   9  10
ATOM     10  C   UNL     1      -8.141  19.829 -14.406  1.00  0.00     0.041 C 
ATOM     11  O   UNL     1      -8.575  20.826 -15.041  1.00  0.00    -0.550 OA
ATOM     12  O   UNL     1      -8.189  18.568 -14.989  1.00  0.00    -0.550 OA
ENDBRANCH   9  10
ENDBRANCH   8   9
ENDBRANCH   7   8
ENDBRANCH   6   7
ENDBRANCH   5   6
ENDBRANCH   4   5
ENDBRANCH   3   4
ENDBRANCH   1   3
BRANCH   2  13
ATOM     13  C   UNL     1      -5.294  12.593 -14.036  1.00  0.00     0.027 C 
BRANCH  13  14
ATOM     14  C   UNL     1      -6.451  12.040 -13.190  1.00  0.00     0.004 C 
BRANCH  14  15
ATOM     15  C   UNL     1      -7.810  12.635 -13.587  1.00  0.00     0.000 C 
BRANCH  15  16
ATOM     16  C   UNL     1      -8.354  13.619 -12.539  1.00  0.00     0.000 C 
BRANCH  16  17
ATOM     17  C   UNL     1      -7.215  14.192 -11.682  1.00  0.00    -0.000 C 
BRANCH  17  18
ATOM     18  C   UNL     1      -7.410  15.678 -11.351  1.00  0.00    -0.000 C 
BRANCH  18  19
ATOM     19  C   UNL     1      -8.061  16.461 -12.501  1.00  0.00    -0.003 C 
ATOM     20  C   UNL     1      -9.516  16.795 -12.184  1.00  0.00     0.004 C 
ENDBRANCH  18  19
ENDBRANCH  17  18
ENDBRANCH  16  17
ENDBRANCH  15  16
ENDBRANCH  14  15
ENDBRANCH  13  14
ENDBRANCH   2  13
TORSDOF 15
ENDMDL
MODEL 4
REMARK VINA RESULT:     0.521      1.518      2.682
REMARK INTER + INTRA:          -0.475
REMARK INTER:                   0.554
REMARK INTRA:                  -1.029
REMARK UNBOUND:                -1.452
REMARK SMILES CCCCCCCCC=CCCCCCCCC(=O)[O-]
REMARK SMILES IDX 10 1 9 2 11 3 12 4 13 5 14 6 15 7 16 8 17 9 18 10 19 11
REMARK SMILES IDX 20 12 8 13 7 14 6 15 5 16 4 17 3 18 2 19 1 20
REMARK H PARENT
REMARK Flexibility Score: inf
ROOT
ATOM      1  C   UNL     1      -8.131  15.579 -11.094  1.00  0.00    -0.031 C 
ATOM      2  C   UNL     1      -7.416  14.948 -12.036  1.00  0.00    -0.031 C 
ENDROOT
BRANCH   1   3
ATOM      3  C   UNL     1      -8.576  17.002 -11.293  1.00  0.00     0.027 C 
BRANCH   3   4
ATOM      4  C   UNL     1      -9.118  17.221 -12.711  1.00  0.00     0.004 C 
BRANCH   4   5
ATOM      5  C   UNL     1      -8.176  18.063 -13.588  1.00  0.00     0.000 C 
BRANCH   5   6
ATOM      6  C   UNL     1      -8.913  18.934 -14.628  1.00  0.00     0.000 C 
BRANCH   6   7
ATOM      7  C   UNL     1      -8.063  20.129 -15.092  1.00  0.00     0.000 C 
BRANCH   7   8
ATOM      8  C   UNL     1      -7.549  20.994 -13.927  1.00  0.00     0.006 C 
BRANCH   8   9
ATOM      9  C   UNL     1      -6.015  21.042 -13.816  1.00  0.00     0.053 C 
BRANCH   9  10
ATOM     10  C   UNL     1      -5.512  20.491 -12.517  1.00  0.00     0.041 C 
ATOM     11  O   UNL     1      -5.688  21.125 -11.443  1.00  0.00    -0.550 OA
ATOM     12  O   UNL     1      -4.875  19.255 -12.488  1.00  0.00    -0.550 OA
ENDBRANCH   9  10
ENDBRANCH   8   9
ENDBRANCH   7   8
ENDBRANCH   6   7
ENDBRANCH   5   6
ENDBRANCH   4   5
ENDBRANCH   3   4
ENDBRANCH   1   3
BRANCH   2  13
ATOM     13  C   UNL     1      -6.971  13.522 -11.865  1.00  0.00     0.027 C 
BRANCH  13  14
ATOM     14  C   UNL     1      -7.445  12.650 -13.038  1.00  0.00     0.004 C 
BRANCH  14  15
ATOM     15  C   UNL     1      -6.287  11.919 -13.735  1.00  0.00     0.000 C 
BRANCH  15  16
ATOM     16  C   UNL     1      -5.953  12.517 -15.110  1.00  0.00     0.000 C 
BRANCH  16  17
ATOM     17  C   UNL     1      -4.888  13.617 -14.985  1.00  0.00    -0.000 C 
BRANCH  17  18
ATOM     18  C   UNL     1      -5.475  15.029 -15.124  1.00  0.00    -0.000 C 
BRANCH  18  19
ATOM     19  C   UNL     1      -5.007  15.978 -14.009  1.00  0.00    -0.003 C 
ATOM     20  C   UNL     1      -4.967  17.422 -14.498  1.00  0.00     0.004 C 
ENDBRANCH  18  19
ENDBRANCH  17  18
ENDBRANCH  16  17
ENDBRANCH  15  16
ENDBRANCH  14  15
ENDBRANCH  13  14
ENDBRANCH   2  13
TORSDOF 15
ENDMDL
MODEL 5
REMARK VINA RESULT:     0.550      1.831      5.578
REMARK INTER + INTRA:          -0.420
REMARK INTER:                  -0.788
REMARK INTRA:                   0.368
REMARK UNBOUND:                -1.452
REMARK SMILES CCCCCCCCC=CCCCCCCCC(=O)[O-]
REMARK SMILES IDX 10 1 9 2 11 3 12 4 13 5 14 6 15 7 16 8 17 9 18 10 19 11
REMARK SMILES IDX 20 12 8 13 7 14 6 15 5 16 4 17 3 18 2 19 1 20
REMARK H PARENT
REMARK Flexibility Score: inf
ROOT
ATOM      1  C   UNL     1      -6.779  14.166 -14.789  1.00  0.00    -0.031 C 
ATOM      2  C   UNL     1      -5.605  14.755 -15.050  1.00  0.00    -0.031 C 
ENDROOT
BRANCH   1   3
ATOM      3  C   UNL     1      -6.891  12.666 -14.740  1.00  0.00     0.027 C 
BRANCH   3   4
ATOM      4  C   UNL     1      -7.465  12.195 -13.399  1.00  0.00     0.004 C 
BRANCH   4   5
ATOM      5  C   UNL     1      -8.110  13.335 -12.591  1.00  0.00     0.000 C 
BRANCH   5   6
ATOM      6  C   UNL     1      -7.084  14.302 -11.962  1.00  0.00     0.000 C 
BRANCH   6   7
ATOM      7  C   UNL     1      -7.743  15.296 -10.990  1.00  0.00     0.000 C 
BRANCH   7   8
ATOM      8  C   UNL     1      -7.975  16.685 -11.611  1.00  0.00     0.006 C 
BRANCH   8   9
ATOM      9  C   UNL     1      -9.185  16.750 -12.559  1.00  0.00     0.053 C 
BRANCH   9  10
ATOM     10  C   UNL     1      -8.789  16.944 -13.991  1.00  0.00     0.041 C 
ATOM     11  O   UNL     1      -8.438  18.080 -14.407  1.00  0.00    -0.550 OA
ATOM     12  O   UNL     1      -8.776  15.860 -14.861  1.00  0.00    -0.550 OA
ENDBRANCH   9  10
ENDBRANCH   8   9
ENDBRANCH   7   8
ENDBRANCH   6   7
ENDBRANCH   5   6
ENDBRANCH   4   5
ENDBRANCH   3   4
ENDBRANCH   1   3
BRANCH   2  13
ATOM     13  C   UNL     1      -5.465  16.252 -15.091  1.00  0.00     0.027 C 
BRANCH  13  14
ATOM     14  C   UNL     1      -4.999  16.802 -13.734  1.00  0.00     0.004 C 
BRANCH  14  15
ATOM     15  C   UNL     1      -4.875  18.333 -13.727  1.00  0.00     0.000 C 
BRANCH  15  16
ATOM     16  C   UNL     1      -5.062  18.947 -15.123  1.00  0.00     0.000 C 
BRANCH  16  17
ATOM     17  C   UNL     1      -6.210  19.968 -15.125  1.00  0.00    -0.000 C 
BRANCH  17  18
ATOM     18  C   UNL     1      -6.034  21.061 -14.061  1.00  0.00    -0.000 C 
BRANCH  18  19
ATOM     19  C   UNL     1      -7.006  20.903 -12.882  1.00  0.00    -0.003 C 
ATOM     20  C   UNL     1      -8.412  20.566 -13.370  1.00  0.00     0.004 C 
ENDBRANCH  18  19
ENDBRANCH  17  18
ENDBRANCH  16  17
ENDBRANCH  15  16
ENDBRANCH  14  15
ENDBRANCH  13  14
ENDBRANCH   2  13
TORSDOF 15
ENDMDL
