MODEL 1
REMARK VINA RESULT:    -5.929      0.000      0.000
REMARK INTER + INTRA:          -7.494
REMARK INTER:                  -7.142
REMARK INTRA:                  -0.352
REMARK UNBOUND:                -0.352
REMARK SMILES Oc1cc(O)c2cc(O)c(-c3ccc(O)c(O)c3)[o+]c2c1
REMARK SMILES IDX 10 1 19 2 20 3 21 4 2 5 3 6 4 7 6 8 7 9 8 10 11 11 12 12
REMARK SMILES IDX 13 13 14 14 18 15 16 16 15 17 17 19 9 21 1 23 5 25
REMARK H PARENT 15 18 17 20 9 22 1 24 5 26
REMARK Flexibility Score: inf
ROOT
ATOM      1  C   UNL     1     174.544 172.629 176.828  1.00  0.00     0.402 A 
ATOM      2  O   UNL     1     174.589 171.395 176.334  1.00  0.00    -0.202 OA
ATOM      3  C   UNL     1     175.258 171.075 175.230  1.00  0.00     0.368 A 
ATOM      4  C   UNL     1     175.248 169.749 174.791  1.00  0.00     0.162 A 
ATOM      5  C   UNL     1     175.946 169.384 173.635  1.00  0.00     0.128 A 
ATOM      6  C   UNL     1     176.655 170.350 172.918  1.00  0.00     0.093 A 
ATOM      7  C   UNL     1     176.680 171.685 173.338  1.00  0.00     0.136 A 
ATOM      8  C   UNL     1     175.972 172.061 174.508  1.00  0.00     0.125 A 
ATOM      9  C   UNL     1     175.930 173.377 174.997  1.00  0.00     0.078 A 
ATOM     10  C   UNL     1     175.206 173.672 176.156  1.00  0.00     0.223 A 
ENDROOT
BRANCH   1  11
ATOM     11  C   UNL     1     173.772 172.858 178.072  1.00  0.00     0.087 A 
ATOM     12  C   UNL     1     172.402 173.150 177.990  1.00  0.00     0.022 A 
ATOM     13  C   UNL     1     171.650 173.350 179.149  1.00  0.00     0.051 A 
ATOM     14  C   UNL     1     172.253 173.245 180.409  1.00  0.00     0.157 A 
ATOM     15  C   UNL     1     174.370 172.733 179.339  1.00  0.00     0.068 A 
ATOM     16  C   UNL     1     173.619 172.930 180.503  1.00  0.00     0.158 A 
BRANCH  14  17
ATOM     17  O   UNL     1     171.500 173.447 181.566  1.00  0.00    -0.504 OA
ATOM     18  H   UNL     1     171.731 174.177 182.228  1.00  0.00     0.293 HD
ENDBRANCH  14  17
BRANCH  16  19
ATOM     19  O   UNL     1     174.246 172.804 181.743  1.00  0.00    -0.504 OA
ATOM     20  H   UNL     1     174.168 173.516 182.461  1.00  0.00     0.293 HD
ENDBRANCH  16  19
ENDBRANCH   1  11
BRANCH  10  21
ATOM     21  O   UNL     1     175.122 174.988 176.612  1.00  0.00    -0.500 OA
ATOM     22  H   UNL     1     175.742 175.712 176.267  1.00  0.00     0.294 HD
ENDBRANCH  10  21
BRANCH   5  23
ATOM     23  O   UNL     1     175.941 168.064 173.191  1.00  0.00    -0.507 OA
ATOM     24  H   UNL     1     175.375 167.354 173.642  1.00  0.00     0.293 HD
ENDBRANCH   5  23
BRANCH   7  25
ATOM     25  O   UNL     1     177.416 172.589 172.566  1.00  0.00    -0.507 OA
ATOM     26  H   UNL     1     178.348 172.417 172.219  1.00  0.00     0.293 HD
ENDBRANCH   7  25
TORSDOF 6
ENDMDL
MODEL 2
REMARK VINA RESULT:    -5.914      3.859      5.808
REMARK INTER + INTRA:          -7.475
REMARK INTER:                  -7.159
REMARK INTRA:                  -0.316
REMARK UNBOUND:                -0.352
REMARK SMILES Oc1cc(O)c2cc(O)c(-c3ccc(O)c(O)c3)[o+]c2c1
REMARK SMILES IDX 10 1 19 2 20 3 21 4 2 5 3 6 4 7 6 8 7 9 8 10 11 11 12 12
REMARK SMILES IDX 13 13 14 14 18 15 16 16 15 17 17 19 9 21 1 23 5 25
REMARK H PARENT 15 18 17 20 9 22 1 24 5 26
REMARK Flexibility Score: inf
ROOT
ATOM      1  C   UNL     1     172.002 174.194 176.632  1.00  0.00     0.402 A 
ATOM      2  O   UNL     1     172.299 175.405 176.170  1.00  0.00    -0.202 OA
ATOM      3  C   UNL     1     171.792 175.903 175.047  1.00  0.00     0.368 A 
ATOM      4  C   UNL     1     172.163 177.190 174.646  1.00  0.00     0.162 A 
ATOM      5  C   UNL     1     171.642 177.739 173.469  1.00  0.00     0.128 A 
ATOM      6  C   UNL     1     170.747 176.999 172.694  1.00  0.00     0.093 A 
ATOM      7  C   UNL     1     170.360 175.708 173.075  1.00  0.00     0.136 A 
ATOM      8  C   UNL     1     170.888 175.145 174.266  1.00  0.00     0.125 A 
ATOM      9  C   UNL     1     170.567 173.855 174.718  1.00  0.00     0.078 A 
ATOM     10  C   UNL     1     171.130 173.366 175.901  1.00  0.00     0.223 A 
ENDROOT
BRANCH   1  11
ATOM     11  C   UNL     1     172.624 173.756 177.902  1.00  0.00     0.087 A 
ATOM     12  C   UNL     1     173.985 173.410 177.921  1.00  0.00     0.022 A 
ATOM     13  C   UNL     1     174.598 173.014 179.111  1.00  0.00     0.051 A 
ATOM     14  C   UNL     1     173.865 172.971 180.304  1.00  0.00     0.157 A 
ATOM     15  C   UNL     1     171.896 173.731 179.106  1.00  0.00     0.068 A 
ATOM     16  C   UNL     1     172.508 173.337 180.301  1.00  0.00     0.158 A 
BRANCH  14  17
ATOM     17  O   UNL     1     174.479 172.573 181.491  1.00  0.00    -0.504 OA
ATOM     18  H   UNL     1     174.229 171.706 181.952  1.00  0.00     0.293 HD
ENDBRANCH  14  17
BRANCH  16  19
ATOM     19  O   UNL     1     171.754 173.319 181.474  1.00  0.00    -0.504 OA
ATOM     20  H   UNL     1     171.062 172.602 181.658  1.00  0.00     0.293 HD
ENDBRANCH  16  19
ENDBRANCH   1  11
BRANCH  10  21
ATOM     21  O   UNL     1     170.851 172.066 176.324  1.00  0.00    -0.500 OA
ATOM     22  H   UNL     1     171.366 171.631 177.081  1.00  0.00     0.294 HD
ENDBRANCH  10  21
BRANCH   5  23
ATOM     23  O   UNL     1     172.007 179.020 173.063  1.00  0.00    -0.507 OA
ATOM     24  H   UNL     1     171.491 179.517 172.347  1.00  0.00     0.293 HD
ENDBRANCH   5  23
BRANCH   7  25
ATOM     25  O   UNL     1     169.458 175.036 172.246  1.00  0.00    -0.507 OA
ATOM     26  H   UNL     1     168.874 174.268 172.542  1.00  0.00     0.293 HD
ENDBRANCH   7  25
TORSDOF 6
ENDMDL
MODEL 3
REMARK VINA RESULT:    -5.893      3.888      5.577
REMARK INTER + INTRA:          -7.450
REMARK INTER:                  -7.603
REMARK INTRA:                   0.153
REMARK UNBOUND:                -0.352
REMARK SMILES Oc1cc(O)c2cc(O)c(-c3ccc(O)c(O)c3)[o+]c2c1
REMARK SMILES IDX 10 1 19 2 20 3 21 4 2 5 3 6 4 7 6 8 7 9 8 10 11 11 12 12
REMARK SMILES IDX 13 13 14 14 18 15 16 16 15 17 17 19 9 21 1 23 5 25
REMARK H PARENT 15 18 17 20 9 22 1 24 5 26
REMARK Flexibility Score: inf
ROOT
ATOM      1  C   UNL     1     173.139 175.259 176.676  1.00  0.00     0.402 A 
ATOM      2  O   UNL     1     171.887 175.353 176.238  1.00  0.00    -0.202 OA
ATOM      3  C   UNL     1     171.541 176.045 175.157  1.00  0.00     0.368 A 
ATOM      4  C   UNL     1     170.198 176.081 174.774  1.00  0.00     0.162 A 
ATOM      5  C   UNL     1     169.808 176.800 173.639  1.00  0.00     0.128 A 
ATOM      6  C   UNL     1     170.765 177.483 172.886  1.00  0.00     0.093 A 
ATOM      7  C   UNL     1     172.117 177.463 173.250  1.00  0.00     0.136 A 
ATOM      8  C   UNL     1     172.518 176.738 174.402  1.00  0.00     0.125 A 
ATOM      9  C   UNL     1     173.847 176.671 174.849  1.00  0.00     0.078 A 
ATOM     10  C   UNL     1     174.166 175.939 175.997  1.00  0.00     0.223 A 
ENDROOT
BRANCH   1  11
ATOM     11  C   UNL     1     173.398 174.448 177.888  1.00  0.00     0.087 A 
ATOM     12  C   UNL     1     174.576 173.688 177.970  1.00  0.00     0.022 A 
ATOM     13  C   UNL     1     174.852 172.931 179.111  1.00  0.00     0.051 A 
ATOM     14  C   UNL     1     173.962 172.935 180.194  1.00  0.00     0.157 A 
ATOM     15  C   UNL     1     172.518 174.465 178.985  1.00  0.00     0.068 A 
ATOM     16  C   UNL     1     172.792 173.710 180.131  1.00  0.00     0.158 A 
BRANCH  14  17
ATOM     17  O   UNL     1     174.239 172.177 181.331  1.00  0.00    -0.504 OA
ATOM     18  H   UNL     1     174.287 172.598 182.250  1.00  0.00     0.293 HD
ENDBRANCH  14  17
BRANCH  16  19
ATOM     19  O   UNL     1     171.894 173.747 181.197  1.00  0.00    -0.504 OA
ATOM     20  H   UNL     1     172.183 173.567 182.151  1.00  0.00     0.293 HD
ENDBRANCH  16  19
ENDBRANCH   1  11
BRANCH  10  21
ATOM     21  O   UNL     1     175.478 175.915 176.470  1.00  0.00    -0.500 OA
ATOM     22  H   UNL     1     176.070 175.100 176.357  1.00  0.00     0.294 HD
ENDBRANCH  10  21
BRANCH   5  23
ATOM     23  O   UNL     1     168.471 176.840 173.251  1.00  0.00    -0.507 OA
ATOM     24  H   UNL     1     168.097 176.193 172.566  1.00  0.00     0.293 HD
ENDBRANCH   5  23
BRANCH   7  25
ATOM     25  O   UNL     1     173.012 178.170 172.442  1.00  0.00    -0.507 OA
ATOM     26  H   UNL     1     173.499 177.777 171.650  1.00  0.00     0.293 HD
ENDBRANCH   7  25
TORSDOF 6
ENDMDL
MODEL 4
REMARK VINA RESULT:    -5.852      1.579      7.110
REMARK INTER + INTRA:          -7.401
REMARK INTER:                  -7.053
REMARK INTRA:                  -0.348
REMARK UNBOUND:                -0.352
REMARK SMILES Oc1cc(O)c2cc(O)c(-c3ccc(O)c(O)c3)[o+]c2c1
REMARK SMILES IDX 10 1 19 2 20 3 21 4 2 5 3 6 4 7 6 8 7 9 8 10 11 11 12 12
REMARK SMILES IDX 13 13 14 14 18 15 16 16 15 17 17 19 9 21 1 23 5 25
REMARK H PARENT 15 18 17 20 9 22 1 24 5 26
REMARK Flexibility Score: inf
ROOT
ATOM      1  C   UNL     1     174.554 171.782 175.760  1.00  0.00     0.402 A 
ATOM      2  O   UNL     1     174.811 172.243 176.981  1.00  0.00    -0.202 OA
ATOM      3  C   UNL     1     173.864 172.622 177.833  1.00  0.00     0.368 A 
ATOM      4  C   UNL     1     174.234 173.090 179.096  1.00  0.00     0.162 A 
ATOM      5  C   UNL     1     173.256 173.492 180.013  1.00  0.00     0.128 A 
ATOM      6  C   UNL     1     171.906 173.424 179.664  1.00  0.00     0.093 A 
ATOM      7  C   UNL     1     171.510 172.958 178.404  1.00  0.00     0.136 A 
ATOM      8  C   UNL     1     172.497 172.552 177.469  1.00  0.00     0.125 A 
ATOM      9  C   UNL     1     172.194 172.084 176.180  1.00  0.00     0.078 A 
ATOM     10  C   UNL     1     173.222 171.705 175.312  1.00  0.00     0.223 A 
ENDROOT
BRANCH   1  11
ATOM     11  C   UNL     1     175.696 171.381 174.907  1.00  0.00     0.087 A 
ATOM     12  C   UNL     1     176.140 170.050 174.928  1.00  0.00     0.022 A 
ATOM     13  C   UNL     1     177.202 169.644 174.117  1.00  0.00     0.051 A 
ATOM     14  C   UNL     1     177.828 170.560 173.262  1.00  0.00     0.157 A 
ATOM     15  C   UNL     1     176.314 172.294 174.032  1.00  0.00     0.068 A 
ATOM     16  C   UNL     1     177.377 171.890 173.216  1.00  0.00     0.158 A 
BRANCH  14  17
ATOM     17  O   UNL     1     178.890 170.154 172.455  1.00  0.00    -0.504 OA
ATOM     18  H   UNL     1     178.870 170.278 171.450  1.00  0.00     0.293 HD
ENDBRANCH  14  17
BRANCH  16  19
ATOM     19  O   UNL     1     177.969 172.823 172.365  1.00  0.00    -0.504 OA
ATOM     20  H   UNL     1     177.854 173.821 172.497  1.00  0.00     0.293 HD
ENDBRANCH  16  19
ENDBRANCH   1  11
BRANCH  10  21
ATOM     21  O   UNL     1     172.924 171.289 174.014  1.00  0.00    -0.500 OA
ATOM     22  H   UNL     1     172.528 170.375 173.826  1.00  0.00     0.294 HD
ENDBRANCH  10  21
BRANCH   5  23
ATOM     23  O   UNL     1     173.618 173.960 181.274  1.00  0.00    -0.507 OA
ATOM     24  H   UNL     1     173.743 173.330 182.058  1.00  0.00     0.293 HD
ENDBRANCH   5  23
BRANCH   7  25
ATOM     25  O   UNL     1     170.139 172.918 178.135  1.00  0.00    -0.507 OA
ATOM     26  H   UNL     1     169.673 173.503 177.457  1.00  0.00     0.293 HD
ENDBRANCH   7  25
TORSDOF 6
ENDMDL
MODEL 5
REMARK VINA RESULT:    -5.830      4.150      6.679
REMARK INTER + INTRA:          -7.375
REMARK INTER:                  -7.027
REMARK INTRA:                  -0.348
REMARK UNBOUND:                -0.352
REMARK SMILES Oc1cc(O)c2cc(O)c(-c3ccc(O)c(O)c3)[o+]c2c1
REMARK SMILES IDX 10 1 19 2 20 3 21 4 2 5 3 6 4 7 6 8 7 9 8 10 11 11 12 12
REMARK SMILES IDX 13 13 14 14 18 15 16 16 15 17 17 19 9 21 1 23 5 25
REMARK H PARENT 15 18 17 20 9 22 1 24 5 26
REMARK Flexibility Score: inf
ROOT
ATOM      1  C   UNL     1     171.878 174.586 175.776  1.00  0.00     0.402 A 
ATOM      2  O   UNL     1     171.579 174.175 177.005  1.00  0.00    -0.202 OA
ATOM      3  C   UNL     1     172.494 173.794 177.890  1.00  0.00     0.368 A 
ATOM      4  C   UNL     1     172.081 173.381 179.160  1.00  0.00     0.162 A 
ATOM      5  C   UNL     1     173.025 172.977 180.111  1.00  0.00     0.128 A 
ATOM      6  C   UNL     1     174.383 172.988 179.790  1.00  0.00     0.093 A 
ATOM      7  C   UNL     1     174.822 173.398 178.525  1.00  0.00     0.136 A 
ATOM      8  C   UNL     1     173.869 173.805 177.555  1.00  0.00     0.125 A 
ATOM      9  C   UNL     1     174.216 174.218 176.259  1.00  0.00     0.078 A 
ATOM     10  C   UNL     1     173.220 174.602 175.356  1.00  0.00     0.223 A 
ENDROOT
BRANCH   1  11
ATOM     11  C   UNL     1     170.768 174.995 174.885  1.00  0.00     0.087 A 
ATOM     12  C   UNL     1     170.365 176.340 174.858  1.00  0.00     0.022 A 
ATOM     13  C   UNL     1     169.335 176.754 174.010  1.00  0.00     0.051 A 
ATOM     14  C   UNL     1     168.701 175.832 173.167  1.00  0.00     0.157 A 
ATOM     15  C   UNL     1     170.143 174.077 174.022  1.00  0.00     0.068 A 
ATOM     16  C   UNL     1     169.111 174.489 173.170  1.00  0.00     0.158 A 
BRANCH  14  17
ATOM     17  O   UNL     1     167.671 176.247 172.323  1.00  0.00    -0.504 OA
ATOM     18  H   UNL     1     167.349 175.670 171.556  1.00  0.00     0.293 HD
ENDBRANCH  14  17
BRANCH  16  19
ATOM     19  O   UNL     1     168.511 173.550 172.332  1.00  0.00    -0.504 OA
ATOM     20  H   UNL     1     167.768 172.940 172.651  1.00  0.00     0.293 HD
ENDBRANCH  16  19
ENDBRANCH   1  11
BRANCH  10  21
ATOM     21  O   UNL     1     173.560 174.964 174.052  1.00  0.00    -0.500 OA
ATOM     22  H   UNL     1     172.860 175.047 173.323  1.00  0.00     0.294 HD
ENDBRANCH  10  21
BRANCH   5  23
ATOM     23  O   UNL     1     172.620 172.565 181.378  1.00  0.00    -0.507 OA
ATOM     24  H   UNL     1     172.768 171.614 181.699  1.00  0.00     0.293 HD
ENDBRANCH   5  23
BRANCH   7  25
ATOM     25  O   UNL     1     176.199 173.382 178.285  1.00  0.00    -0.507 OA
ATOM     26  H   UNL     1     176.623 173.544 177.384  1.00  0.00     0.293 HD
ENDBRANCH   7  25
TORSDOF 6
ENDMDL
MODEL 6
REMARK VINA RESULT:    -5.800      4.109      6.579
REMARK INTER + INTRA:          -7.338
REMARK INTER:                  -6.989
REMARK INTRA:                  -0.348
REMARK UNBOUND:                -0.352
REMARK SMILES Oc1cc(O)c2cc(O)c(-c3ccc(O)c(O)c3)[o+]c2c1
REMARK SMILES IDX 10 1 19 2 20 3 21 4 2 5 3 6 4 7 6 8 7 9 8 10 11 11 12 12
REMARK SMILES IDX 13 13 14 14 18 15 16 16 15 17 17 19 9 21 1 23 5 25
REMARK H PARENT 15 18 17 20 9 22 1 24 5 26
REMARK Flexibility Score: inf
ROOT
ATOM      1  C   UNL     1     171.999 174.746 175.821  1.00  0.00     0.402 A 
ATOM      2  O   UNL     1     171.684 174.260 177.019  1.00  0.00    -0.202 OA
ATOM      3  C   UNL     1     172.587 173.815 177.886  1.00  0.00     0.368 A 
ATOM      4  C   UNL     1     172.157 173.326 179.123  1.00  0.00     0.162 A 
ATOM      5  C   UNL     1     173.087 172.854 180.056  1.00  0.00     0.128 A 
ATOM      6  C   UNL     1     174.449 172.872 179.750  1.00  0.00     0.093 A 
ATOM      7  C   UNL     1     174.904 173.358 178.517  1.00  0.00     0.136 A 
ATOM      8  C   UNL     1     173.965 173.835 177.566  1.00  0.00     0.125 A 
ATOM      9  C   UNL     1     174.329 174.327 176.302  1.00  0.00     0.078 A 
ATOM     10  C   UNL     1     173.346 174.777 175.416  1.00  0.00     0.223 A 
ENDROOT
BRANCH   1  11
ATOM     11  C   UNL     1     170.902 175.222 174.947  1.00  0.00     0.087 A 
ATOM     12  C   UNL     1     170.288 174.324 174.060  1.00  0.00     0.022 A 
ATOM     13  C   UNL     1     169.238 174.745 173.241  1.00  0.00     0.051 A 
ATOM     14  C   UNL     1     168.776 176.066 173.307  1.00  0.00     0.157 A 
ATOM     15  C   UNL     1     170.422 176.542 175.025  1.00  0.00     0.068 A 
ATOM     16  C   UNL     1     169.369 176.966 174.207  1.00  0.00     0.158 A 
BRANCH  14  17
ATOM     17  O   UNL     1     167.729 176.484 172.486  1.00  0.00    -0.504 OA
ATOM     18  H   UNL     1     167.801 177.320 171.919  1.00  0.00     0.293 HD
ENDBRANCH  14  17
BRANCH  16  19
ATOM     19  O   UNL     1     168.922 178.284 174.308  1.00  0.00    -0.504 OA
ATOM     20  H   UNL     1     167.941 178.526 174.244  1.00  0.00     0.293 HD
ENDBRANCH  16  19
ENDBRANCH   1  11
BRANCH  10  21
ATOM     21  O   UNL     1     173.702 175.218 174.141  1.00  0.00    -0.500 OA
ATOM     22  H   UNL     1     173.945 174.568 173.402  1.00  0.00     0.294 HD
ENDBRANCH  10  21
BRANCH   5  23
ATOM     23  O   UNL     1     172.666 172.365 181.290  1.00  0.00    -0.507 OA
ATOM     24  H   UNL     1     172.725 172.927 182.132  1.00  0.00     0.293 HD
ENDBRANCH   5  23
BRANCH   7  25
ATOM     25  O   UNL     1     176.283 173.345 178.290  1.00  0.00    -0.507 OA
ATOM     26  H   UNL     1     176.936 173.994 178.704  1.00  0.00     0.293 HD
ENDBRANCH   7  25
TORSDOF 6
ENDMDL
MODEL 7
REMARK VINA RESULT:    -5.773      4.721      6.441
REMARK INTER + INTRA:          -7.306
REMARK INTER:                  -7.192
REMARK INTRA:                  -0.114
REMARK UNBOUND:                -0.352
REMARK SMILES Oc1cc(O)c2cc(O)c(-c3ccc(O)c(O)c3)[o+]c2c1
REMARK SMILES IDX 10 1 19 2 20 3 21 4 2 5 3 6 4 7 6 8 7 9 8 10 11 11 12 12
REMARK SMILES IDX 13 13 14 14 18 15 16 16 15 17 17 19 9 21 1 23 5 25
REMARK H PARENT 15 18 17 20 9 22 1 24 5 26
REMARK Flexibility Score: inf
ROOT
ATOM      1  C   UNL     1     172.374 176.011 174.978  1.00  0.00     0.402 A 
ATOM      2  O   UNL     1     172.293 175.023 175.864  1.00  0.00    -0.202 OA
ATOM      3  C   UNL     1     173.351 174.514 176.488  1.00  0.00     0.368 A 
ATOM      4  C   UNL     1     173.164 173.478 177.407  1.00  0.00     0.162 A 
ATOM      5  C   UNL     1     174.260 172.926 178.079  1.00  0.00     0.128 A 
ATOM      6  C   UNL     1     175.544 173.413 177.831  1.00  0.00     0.093 A 
ATOM      7  C   UNL     1     175.757 174.450 176.915  1.00  0.00     0.136 A 
ATOM      8  C   UNL     1     174.650 175.012 176.228  1.00  0.00     0.125 A 
ATOM      9  C   UNL     1     174.770 176.044 175.284  1.00  0.00     0.078 A 
ATOM     10  C   UNL     1     173.632 176.545 174.644  1.00  0.00     0.223 A 
ENDROOT
BRANCH   1  11
ATOM     11  C   UNL     1     171.121 176.500 174.358  1.00  0.00     0.087 A 
ATOM     12  C   UNL     1     170.962 176.418 172.965  1.00  0.00     0.022 A 
ATOM     13  C   UNL     1     169.781 176.854 172.360  1.00  0.00     0.051 A 
ATOM     14  C   UNL     1     168.735 177.365 173.139  1.00  0.00     0.157 A 
ATOM     15  C   UNL     1     170.060 176.995 175.139  1.00  0.00     0.068 A 
ATOM     16  C   UNL     1     168.875 177.431 174.536  1.00  0.00     0.158 A 
BRANCH  14  17
ATOM     17  O   UNL     1     167.558 177.802 172.533  1.00  0.00    -0.504 OA
ATOM     18  H   UNL     1     167.533 178.072 171.557  1.00  0.00     0.293 HD
ENDBRANCH  14  17
BRANCH  16  19
ATOM     19  O   UNL     1     167.847 177.921 175.341  1.00  0.00    -0.504 OA
ATOM     20  H   UNL     1     166.874 177.698 175.166  1.00  0.00     0.293 HD
ENDBRANCH  16  19
ENDBRANCH   1  11
BRANCH  10  21
ATOM     21  O   UNL     1     173.756 177.535 173.669  1.00  0.00    -0.500 OA
ATOM     22  H   UNL     1     174.416 178.298 173.767  1.00  0.00     0.294 HD
ENDBRANCH  10  21
BRANCH   5  23
ATOM     23  O   UNL     1     174.081 171.893 178.996  1.00  0.00    -0.507 OA
ATOM     24  H   UNL     1     174.850 171.542 179.557  1.00  0.00     0.293 HD
ENDBRANCH   5  23
BRANCH   7  25
ATOM     25  O   UNL     1     177.073 174.882 176.727  1.00  0.00    -0.507 OA
ATOM     26  H   UNL     1     177.344 175.640 176.117  1.00  0.00     0.293 HD
ENDBRANCH   7  25
TORSDOF 6
ENDMDL
MODEL 8
REMARK VINA RESULT:    -5.767      3.125      6.933
REMARK INTER + INTRA:          -7.299
REMARK INTER:                  -6.947
REMARK INTRA:                  -0.352
REMARK UNBOUND:                -0.352
REMARK SMILES Oc1cc(O)c2cc(O)c(-c3ccc(O)c(O)c3)[o+]c2c1
REMARK SMILES IDX 10 1 19 2 20 3 21 4 2 5 3 6 4 7 6 8 7 9 8 10 11 11 12 12
REMARK SMILES IDX 13 13 14 14 18 15 16 16 15 17 17 19 9 21 1 23 5 25
REMARK H PARENT 15 18 17 20 9 22 1 24 5 26
REMARK Flexibility Score: inf
ROOT
ATOM      1  C   UNL     1     173.712 174.275 176.625  1.00  0.00     0.402 A 
ATOM      2  O   UNL     1     172.725 174.210 177.513  1.00  0.00    -0.202 OA
ATOM      3  C   UNL     1     172.898 173.811 178.769  1.00  0.00     0.368 A 
ATOM      4  C   UNL     1     171.798 173.780 179.631  1.00  0.00     0.162 A 
ATOM      5  C   UNL     1     171.954 173.366 180.958  1.00  0.00     0.128 A 
ATOM      6  C   UNL     1     173.212 172.984 181.424  1.00  0.00     0.093 A 
ATOM      7  C   UNL     1     174.330 173.006 180.580  1.00  0.00     0.136 A 
ATOM      8  C   UNL     1     174.178 173.422 179.232  1.00  0.00     0.125 A 
ATOM      9  C   UNL     1     175.238 173.464 178.313  1.00  0.00     0.078 A 
ATOM     10  C   UNL     1     175.011 173.881 176.998  1.00  0.00     0.223 A 
ENDROOT
BRANCH   1  11
ATOM     11  C   UNL     1     173.395 174.747 175.257  1.00  0.00     0.087 A 
ATOM     12  C   UNL     1     172.899 173.836 174.311  1.00  0.00     0.022 A 
ATOM     13  C   UNL     1     172.573 174.262 173.021  1.00  0.00     0.051 A 
ATOM     14  C   UNL     1     172.724 175.608 172.663  1.00  0.00     0.157 A 
ATOM     15  C   UNL     1     173.526 176.101 174.900  1.00  0.00     0.068 A 
ATOM     16  C   UNL     1     173.198 176.532 173.609  1.00  0.00     0.158 A 
BRANCH  14  17
ATOM     17  O   UNL     1     172.400 176.030 171.374  1.00  0.00    -0.504 OA
ATOM     18  H   UNL     1     172.654 176.952 171.038  1.00  0.00     0.293 HD
ENDBRANCH  14  17
BRANCH  16  19
ATOM     19  O   UNL     1     173.346 177.881 173.288  1.00  0.00    -0.504 OA
ATOM     20  H   UNL     1     173.783 178.184 172.426  1.00  0.00     0.293 HD
ENDBRANCH  16  19
ENDBRANCH   1  11
BRANCH  10  21
ATOM     21  O   UNL     1     176.053 173.874 176.071  1.00  0.00    -0.500 OA
ATOM     22  H   UNL     1     176.912 174.386 176.233  1.00  0.00     0.294 HD
ENDBRANCH  10  21
BRANCH   5  23
ATOM     23  O   UNL     1     170.861 173.333 181.822  1.00  0.00    -0.507 OA
ATOM     24  H   UNL     1     169.930 173.585 181.510  1.00  0.00     0.293 HD
ENDBRANCH   5  23
BRANCH   7  25
ATOM     25  O   UNL     1     175.555 172.611 181.125  1.00  0.00    -0.507 OA
ATOM     26  H   UNL     1     176.158 171.907 180.725  1.00  0.00     0.293 HD
ENDBRANCH   7  25
TORSDOF 6
ENDMDL
MODEL 9
REMARK VINA RESULT:    -5.638      1.844      2.773
REMARK INTER + INTRA:          -7.144
REMARK INTER:                  -7.283
REMARK INTRA:                   0.139
REMARK UNBOUND:                -0.352
REMARK SMILES Oc1cc(O)c2cc(O)c(-c3ccc(O)c(O)c3)[o+]c2c1
REMARK SMILES IDX 10 1 19 2 20 3 21 4 2 5 3 6 4 7 6 8 7 9 8 10 11 11 12 12
REMARK SMILES IDX 13 13 14 14 18 15 16 16 15 17 17 19 9 21 1 23 5 25
REMARK H PARENT 15 18 17 20 9 22 1 24 5 26
REMARK Flexibility Score: inf
ROOT
ATOM      1  C   UNL     1     173.254 171.093 176.546  1.00  0.00     0.402 A 
ATOM      2  O   UNL     1     174.523 171.036 176.154  1.00  0.00    -0.202 OA
ATOM      3  C   UNL     1     174.927 170.359 175.084  1.00  0.00     0.368 A 
ATOM      4  C   UNL     1     176.284 170.362 174.750  1.00  0.00     0.162 A 
ATOM      5  C   UNL     1     176.735 169.660 173.627  1.00  0.00     0.128 A 
ATOM      6  C   UNL     1     175.826 168.955 172.837  1.00  0.00     0.093 A 
ATOM      7  C   UNL     1     174.461 168.937 173.150  1.00  0.00     0.136 A 
ATOM      8  C   UNL     1     173.998 169.645 174.290  1.00  0.00     0.125 A 
ATOM      9  C   UNL     1     172.652 169.672 174.687  1.00  0.00     0.078 A 
ATOM     10  C   UNL     1     172.271 170.389 175.826  1.00  0.00     0.223 A 
ENDROOT
BRANCH   1  11
ATOM     11  C   UNL     1     172.928 171.891 177.751  1.00  0.00     0.087 A 
ATOM     12  C   UNL     1     171.736 172.632 177.786  1.00  0.00     0.022 A 
ATOM     13  C   UNL     1     171.397 173.375 178.919  1.00  0.00     0.051 A 
ATOM     14  C   UNL     1     172.237 173.377 180.040  1.00  0.00     0.157 A 
ATOM     15  C   UNL     1     173.759 171.879 178.886  1.00  0.00     0.068 A 
ATOM     16  C   UNL     1     173.421 172.620 180.023  1.00  0.00     0.158 A 
BRANCH  14  17
ATOM     17  O   UNL     1     171.898 174.121 181.169  1.00  0.00    -0.504 OA
ATOM     18  H   UNL     1     172.127 173.802 182.102  1.00  0.00     0.293 HD
ENDBRANCH  14  17
BRANCH  16  19
ATOM     19  O   UNL     1     174.272 172.589 181.128  1.00  0.00    -0.504 OA
ATOM     20  H   UNL     1     175.228 172.260 181.063  1.00  0.00     0.293 HD
ENDBRANCH  16  19
ENDBRANCH   1  11
BRANCH  10  21
ATOM     21  O   UNL     1     170.942 170.375 176.250  1.00  0.00    -0.500 OA
ATOM     22  H   UNL     1     170.374 169.538 176.192  1.00  0.00     0.294 HD
ENDBRANCH  10  21
BRANCH   5  23
ATOM     23  O   UNL     1     178.086 169.658 173.289  1.00  0.00    -0.507 OA
ATOM     24  H   UNL     1     178.761 169.103 173.803  1.00  0.00     0.293 HD
ENDBRANCH   5  23
BRANCH   7  25
ATOM     25  O   UNL     1     173.616 168.210 172.306  1.00  0.00    -0.507 OA
ATOM     26  H   UNL     1     173.851 167.933 171.365  1.00  0.00     0.293 HD
ENDBRANCH   7  25
TORSDOF 6
ENDMDL
