MODEL 1
REMARK VINA RESULT:    25.499      0.000      0.000
REMARK INTER + INTRA:          65.976
REMARK INTER:                  67.238
REMARK INTRA:                  -1.262
REMARK UNBOUND:                -1.262
REMARK SMILES CCCCCCCCCCCCCCCCCCCCCCCCCCCCCC(=O)[O-]
REMARK SMILES IDX 16 1 17 2 18 3 19 4 20 5 21 6 22 7 23 8 24 9 25 10 26 11
REMARK SMILES IDX 27 12 28 13 29 14 30 15 31 16 32 17 15 18 14 19 13 20 12 21
REMARK SMILES IDX 11 22 10 23 9 24 8 25 7 26 6 27 5 28 4 29 3 30 2 31 1 32
REMARK H PARENT
REMARK Flexibility Score: inf
ROOT
ATOM      1  C   UNL     1      -1.396  44.488   4.817  1.00  0.00     0.000 C 
ENDROOT
BRANCH   1   2
ATOM      2  C   UNL     1      -0.289  43.534   5.308  1.00  0.00     0.000 C 
BRANCH   2   3
ATOM      3  C   UNL     1       1.153  44.029   5.077  1.00  0.00     0.000 C 
BRANCH   3   4
ATOM      4  C   UNL     1       2.254  43.077   5.579  1.00  0.00     0.000 C 
BRANCH   4   5
ATOM      5  C   UNL     1       3.101  43.687   6.706  1.00  0.00     0.000 C 
BRANCH   5   6
ATOM      6  C   UNL     1       2.448  43.460   8.075  1.00  0.00     0.000 C 
BRANCH   6   7
ATOM      7  C   UNL     1       3.490  43.017   9.109  1.00  0.00     0.000 C 
BRANCH   7   8
ATOM      8  C   UNL     1       4.916  43.252   8.597  1.00  0.00     0.000 C 
BRANCH   8   9
ATOM      9  C   UNL     1       5.951  42.727   9.599  1.00  0.00     0.000 C 
BRANCH   9  10
ATOM     10  C   UNL     1       7.267  42.369   8.899  1.00  0.00     0.000 C 
BRANCH  10  11
ATOM     11  C   UNL     1       7.111  42.425   7.373  1.00  0.00     0.000 C 
BRANCH  11  12
ATOM     12  C   UNL     1       8.459  42.637   6.651  1.00  0.00     0.000 C 
BRANCH  12  13
ATOM     13  C   UNL     1       9.186  41.323   6.308  1.00  0.00     0.006 C 
BRANCH  13  14
ATOM     14  C   UNL     1      10.006  41.381   5.011  1.00  0.00     0.053 C 
BRANCH  14  15
ATOM     15  C   UNL     1       9.279  40.760   3.855  1.00  0.00     0.041 C 
ATOM     16  O   UNL     1       8.163  40.205   4.033  1.00  0.00    -0.550 OA
ATOM     17  O   UNL     1       9.841  40.782   2.585  1.00  0.00    -0.550 OA
ENDBRANCH  14  15
ENDBRANCH  13  14
ENDBRANCH  12  13
ENDBRANCH  11  12
ENDBRANCH  10  11
ENDBRANCH   9  10
ENDBRANCH   8   9
ENDBRANCH   7   8
ENDBRANCH   6   7
ENDBRANCH   5   6
ENDBRANCH   4   5
ENDBRANCH   3   4
ENDBRANCH   2   3
ENDBRANCH   1   2
BRANCH   1  18
ATOM     18  C   UNL     1      -1.066  45.249   3.520  1.00  0.00     0.000 C 
BRANCH  18  19
ATOM     19  C   UNL     1      -1.573  46.699   3.537  1.00  0.00     0.000 C 
BRANCH  19  20
ATOM     20  C   UNL     1      -2.858  46.844   2.714  1.00  0.00     0.000 C 
BRANCH  20  21
ATOM     21  C   UNL     1      -2.578  46.660   1.218  1.00  0.00     0.000 C 
BRANCH  21  22
ATOM     22  C   UNL     1      -3.885  46.505   0.427  1.00  0.00     0.000 C 
BRANCH  22  23
ATOM     23  C   UNL     1      -3.867  47.264  -0.913  1.00  0.00     0.000 C 
BRANCH  23  24
ATOM     24  C   UNL     1      -3.885  46.369  -2.167  1.00  0.00    -0.000 C 
BRANCH  24  25
ATOM     25  C   UNL     1      -4.548  46.998  -3.409  1.00  0.00    -0.000 C 
BRANCH  25  26
ATOM     26  C   UNL     1      -3.773  48.172  -4.041  1.00  0.00    -0.000 C 
BRANCH  26  27
ATOM     27  C   UNL     1      -2.632  48.741  -3.177  1.00  0.00    -0.000 C 
BRANCH  27  28
ATOM     28  C   UNL     1      -1.270  48.706  -3.889  1.00  0.00    -0.000 C 
BRANCH  28  29
ATOM     29  C   UNL     1      -0.191  47.969  -3.078  1.00  0.00    -0.000 C 
BRANCH  29  30
ATOM     30  C   UNL     1       0.178  48.673  -1.755  1.00  0.00    -0.000 C 
BRANCH  30  31
ATOM     31  C   UNL     1       1.603  48.330  -1.296  1.00  0.00    -0.003 C 
ATOM     32  C   UNL     1       2.126  49.360  -0.301  1.00  0.00     0.004 C 
ENDBRANCH  30  31
ENDBRANCH  29  30
ENDBRANCH  28  29
ENDBRANCH  27  28
ENDBRANCH  26  27
ENDBRANCH  25  26
ENDBRANCH  24  25
ENDBRANCH  23  24
ENDBRANCH  22  23
ENDBRANCH  21  22
ENDBRANCH  20  21
ENDBRANCH  19  20
ENDBRANCH  18  19
ENDBRANCH   1  18
TORSDOF 28
ENDMDL
MODEL 2
REMARK VINA RESULT:    27.415      1.005      2.101
REMARK INTER + INTRA:          71.027
REMARK INTER:                  71.856
REMARK INTRA:                  -0.829
REMARK UNBOUND:                -1.262
REMARK SMILES CCCCCCCCCCCCCCCCCCCCCCCCCCCCCC(=O)[O-]
REMARK SMILES IDX 16 1 17 2 18 3 19 4 20 5 21 6 22 7 23 8 24 9 25 10 26 11
REMARK SMILES IDX 27 12 28 13 29 14 30 15 31 16 32 17 15 18 14 19 13 20 12 21
REMARK SMILES IDX 11 22 10 23 9 24 8 25 7 26 6 27 5 28 4 29 3 30 2 31 1 32
REMARK H PARENT
REMARK Flexibility Score: inf
ROOT
ATOM      1  C   UNL     1      -1.007  46.724   2.919  1.00  0.00     0.000 C 
ENDROOT
BRANCH   1   2
ATOM      2  C   UNL     1      -0.535  45.258   2.990  1.00  0.00     0.000 C 
BRANCH   2   3
ATOM      3  C   UNL     1      -0.181  44.751   4.403  1.00  0.00     0.000 C 
BRANCH   3   4
ATOM      4  C   UNL     1       1.260  44.233   4.564  1.00  0.00     0.000 C 
BRANCH   4   5
ATOM      5  C   UNL     1       1.430  43.312   5.781  1.00  0.00     0.000 C 
BRANCH   5   6
ATOM      6  C   UNL     1       2.817  43.479   6.413  1.00  0.00     0.000 C 
BRANCH   6   7
ATOM      7  C   UNL     1       2.732  43.408   7.943  1.00  0.00     0.000 C 
BRANCH   7   8
ATOM      8  C   UNL     1       3.936  44.094   8.600  1.00  0.00     0.000 C 
BRANCH   8   9
ATOM      9  C   UNL     1       5.212  43.267   8.402  1.00  0.00     0.000 C 
BRANCH   9  10
ATOM     10  C   UNL     1       5.551  42.462   9.661  1.00  0.00     0.000 C 
BRANCH  10  11
ATOM     11  C   UNL     1       7.064  42.218   9.766  1.00  0.00     0.000 C 
BRANCH  11  12
ATOM     12  C   UNL     1       7.819  42.643   8.488  1.00  0.00     0.000 C 
BRANCH  12  13
ATOM     13  C   UNL     1       7.327  41.926   7.217  1.00  0.00     0.006 C 
BRANCH  13  14
ATOM     14  C   UNL     1       7.896  42.504   5.913  1.00  0.00     0.053 C 
BRANCH  14  15
ATOM     15  C   UNL     1       9.102  41.748   5.440  1.00  0.00     0.041 C 
ATOM     16  O   UNL     1      10.224  41.943   5.979  1.00  0.00    -0.550 OA
ATOM     17  O   UNL     1       8.991  40.839   4.395  1.00  0.00    -0.550 OA
ENDBRANCH  14  15
ENDBRANCH  13  14
ENDBRANCH  12  13
ENDBRANCH  11  12
ENDBRANCH  10  11
ENDBRANCH   9  10
ENDBRANCH   8   9
ENDBRANCH   7   8
ENDBRANCH   6   7
ENDBRANCH   5   6
ENDBRANCH   4   5
ENDBRANCH   3   4
ENDBRANCH   2   3
ENDBRANCH   1   2
BRANCH   1  18
ATOM     18  C   UNL     1      -2.514  46.907   2.662  1.00  0.00     0.000 C 
BRANCH  18  19
ATOM     19  C   UNL     1      -2.894  46.706   1.188  1.00  0.00     0.000 C 
BRANCH  19  20
ATOM     20  C   UNL     1      -4.314  46.140   1.056  1.00  0.00     0.000 C 
BRANCH  20  21
ATOM     21  C   UNL     1      -4.969  46.597  -0.252  1.00  0.00     0.000 C 
BRANCH  21  22
ATOM     22  C   UNL     1      -3.913  46.855  -1.336  1.00  0.00     0.000 C 
BRANCH  22  23
ATOM     23  C   UNL     1      -4.392  46.456  -2.744  1.00  0.00     0.000 C 
BRANCH  23  24
ATOM     24  C   UNL     1      -4.475  47.615  -3.757  1.00  0.00    -0.000 C 
BRANCH  24  25
ATOM     25  C   UNL     1      -3.328  48.642  -3.669  1.00  0.00    -0.000 C 
BRANCH  25  26
ATOM     26  C   UNL     1      -1.949  48.123  -4.124  1.00  0.00    -0.000 C 
BRANCH  26  27
ATOM     27  C   UNL     1      -0.751  48.990  -3.694  1.00  0.00    -0.000 C 
BRANCH  27  28
ATOM     28  C   UNL     1      -0.158  48.562  -2.342  1.00  0.00    -0.000 C 
BRANCH  28  29
ATOM     29  C   UNL     1       1.134  47.741  -2.489  1.00  0.00    -0.000 C 
BRANCH  29  30
ATOM     30  C   UNL     1       2.072  47.838  -1.268  1.00  0.00    -0.000 C 
BRANCH  30  31
ATOM     31  C   UNL     1       1.749  49.055  -0.387  1.00  0.00    -0.003 C 
ATOM     32  C   UNL     1       2.999  49.582   0.308  1.00  0.00     0.004 C 
ENDBRANCH  30  31
ENDBRANCH  29  30
ENDBRANCH  28  29
ENDBRANCH  27  28
ENDBRANCH  26  27
ENDBRANCH  25  26
ENDBRANCH  24  25
ENDBRANCH  23  24
ENDBRANCH  22  23
ENDBRANCH  21  22
ENDBRANCH  20  21
ENDBRANCH  19  20
ENDBRANCH  18  19
ENDBRANCH   1  18
TORSDOF 28
ENDMDL
MODEL 3
REMARK VINA RESULT:    27.557      2.514     12.014
REMARK INTER + INTRA:          71.402
REMARK INTER:                  72.754
REMARK INTRA:                  -1.352
REMARK UNBOUND:                -1.262
REMARK SMILES CCCCCCCCCCCCCCCCCCCCCCCCCCCCCC(=O)[O-]
REMARK SMILES IDX 16 1 17 2 18 3 19 4 20 5 21 6 22 7 23 8 24 9 25 10 26 11
REMARK SMILES IDX 27 12 28 13 29 14 30 15 31 16 32 17 15 18 14 19 13 20 12 21
REMARK SMILES IDX 11 22 10 23 9 24 8 25 7 26 6 27 5 28 4 29 3 30 2 31 1 32
REMARK H PARENT
REMARK Flexibility Score: inf
ROOT
ATOM      1  C   UNL     1      -1.330  45.479   3.807  1.00  0.00     0.000 C 
ENDROOT
BRANCH   1   2
ATOM      2  C   UNL     1      -1.753  46.561   2.793  1.00  0.00     0.000 C 
BRANCH   2   3
ATOM      3  C   UNL     1      -2.320  46.027   1.461  1.00  0.00     0.000 C 
BRANCH   3   4
ATOM      4  C   UNL     1      -3.395  46.916   0.811  1.00  0.00     0.000 C 
BRANCH   4   5
ATOM      5  C   UNL     1      -4.053  46.257  -0.411  1.00  0.00     0.000 C 
BRANCH   5   6
ATOM      6  C   UNL     1      -4.367  47.294  -1.497  1.00  0.00     0.000 C 
BRANCH   6   7
ATOM      7  C   UNL     1      -4.043  46.739  -2.890  1.00  0.00     0.000 C 
BRANCH   7   8
ATOM      8  C   UNL     1      -3.356  47.795  -3.764  1.00  0.00     0.000 C 
BRANCH   8   9
ATOM      9  C   UNL     1      -1.831  47.683  -3.661  1.00  0.00     0.000 C 
BRANCH   9  10
ATOM     10  C   UNL     1      -1.215  48.983  -3.131  1.00  0.00     0.000 C 
BRANCH  10  11
ATOM     11  C   UNL     1       0.287  48.809  -2.859  1.00  0.00     0.000 C 
BRANCH  11  12
ATOM     12  C   UNL     1       0.570  48.305  -1.427  1.00  0.00     0.000 C 
BRANCH  12  13
ATOM     13  C   UNL     1       1.372  49.304  -0.572  1.00  0.00     0.006 C 
BRANCH  13  14
ATOM     14  C   UNL     1       2.768  48.806  -0.170  1.00  0.00     0.053 C 
BRANCH  14  15
ATOM     15  C   UNL     1       2.866  47.310  -0.209  1.00  0.00     0.041 C 
ATOM     16  O   UNL     1       3.373  46.734  -1.207  1.00  0.00    -0.550 OA
ATOM     17  O   UNL     1       2.387  46.551   0.852  1.00  0.00    -0.550 OA
ENDBRANCH  14  15
ENDBRANCH  13  14
ENDBRANCH  12  13
ENDBRANCH  11  12
ENDBRANCH  10  11
ENDBRANCH   9  10
ENDBRANCH   8   9
ENDBRANCH   7   8
ENDBRANCH   6   7
ENDBRANCH   5   6
ENDBRANCH   4   5
ENDBRANCH   3   4
ENDBRANCH   2   3
ENDBRANCH   1   2
BRANCH   1  18
ATOM     18  C   UNL     1       0.191  45.286   3.948  1.00  0.00     0.000 C 
BRANCH  18  19
ATOM     19  C   UNL     1       0.562  44.271   5.039  1.00  0.00     0.000 C 
BRANCH  19  20
ATOM     20  C   UNL     1       2.079  44.219   5.253  1.00  0.00     0.000 C 
BRANCH  20  21
ATOM     21  C   UNL     1       2.457  43.129   6.262  1.00  0.00     0.000 C 
BRANCH  21  22
ATOM     22  C   UNL     1       2.571  43.706   7.680  1.00  0.00     0.000 C 
BRANCH  22  23
ATOM     23  C   UNL     1       3.488  42.872   8.594  1.00  0.00     0.000 C 
BRANCH  23  24
ATOM     24  C   UNL     1       4.805  43.564   8.999  1.00  0.00    -0.000 C 
BRANCH  24  25
ATOM     25  C   UNL     1       6.088  42.790   8.636  1.00  0.00    -0.000 C 
BRANCH  25  26
ATOM     26  C   UNL     1       6.499  42.863   7.152  1.00  0.00    -0.000 C 
BRANCH  26  27
ATOM     27  C   UNL     1       8.011  42.742   6.886  1.00  0.00    -0.000 C 
BRANCH  27  28
ATOM     28  C   UNL     1       8.416  41.353   6.366  1.00  0.00    -0.000 C 
BRANCH  28  29
ATOM     29  C   UNL     1       9.019  41.398   4.952  1.00  0.00    -0.000 C 
BRANCH  29  30
ATOM     30  C   UNL     1       9.605  40.048   4.486  1.00  0.00    -0.000 C 
BRANCH  30  31
ATOM     31  C   UNL     1      10.378  40.179   3.165  1.00  0.00    -0.003 C 
ATOM     32  C   UNL     1       9.576  40.956   2.129  1.00  0.00     0.004 C 
ENDBRANCH  30  31
ENDBRANCH  29  30
ENDBRANCH  28  29
ENDBRANCH  27  28
ENDBRANCH  26  27
ENDBRANCH  25  26
ENDBRANCH  24  25
ENDBRANCH  23  24
ENDBRANCH  22  23
ENDBRANCH  21  22
ENDBRANCH  20  21
ENDBRANCH  19  20
ENDBRANCH  18  19
ENDBRANCH   1  18
TORSDOF 28
ENDMDL
MODEL 4
REMARK VINA RESULT:    27.901      2.959     12.459
REMARK INTER + INTRA:          72.309
REMARK INTER:                  73.136
REMARK INTRA:                  -0.827
REMARK UNBOUND:                -1.262
REMARK SMILES CCCCCCCCCCCCCCCCCCCCCCCCCCCCCC(=O)[O-]
REMARK SMILES IDX 16 1 17 2 18 3 19 4 20 5 21 6 22 7 23 8 24 9 25 10 26 11
REMARK SMILES IDX 27 12 28 13 29 14 30 15 31 16 32 17 15 18 14 19 13 20 12 21
REMARK SMILES IDX 11 22 10 23 9 24 8 25 7 26 6 27 5 28 4 29 3 30 2 31 1 32
REMARK H PARENT
REMARK Flexibility Score: inf
ROOT
ATOM      1  C   UNL     1      -0.744  45.453   3.537  1.00  0.00     0.000 C 
ENDROOT
BRANCH   1   2
ATOM      2  C   UNL     1      -1.284  45.764   2.126  1.00  0.00     0.000 C 
BRANCH   2   3
ATOM      3  C   UNL     1      -2.819  45.880   2.023  1.00  0.00     0.000 C 
BRANCH   3   4
ATOM      4  C   UNL     1      -3.324  47.049   1.157  1.00  0.00     0.000 C 
BRANCH   4   5
ATOM      5  C   UNL     1      -4.254  46.592   0.024  1.00  0.00     0.000 C 
BRANCH   5   6
ATOM      6  C   UNL     1      -3.866  47.245  -1.309  1.00  0.00     0.000 C 
BRANCH   6   7
ATOM      7  C   UNL     1      -4.493  46.491  -2.488  1.00  0.00     0.000 C 
BRANCH   7   8
ATOM      8  C   UNL     1      -3.887  46.944  -3.822  1.00  0.00     0.000 C 
BRANCH   8   9
ATOM      9  C   UNL     1      -3.995  48.465  -3.985  1.00  0.00     0.000 C 
BRANCH   9  10
ATOM     10  C   UNL     1      -2.610  49.107  -4.125  1.00  0.00     0.000 C 
BRANCH  10  11
ATOM     11  C   UNL     1      -1.501  48.101  -3.781  1.00  0.00     0.000 C 
BRANCH  11  12
ATOM     12  C   UNL     1      -0.178  48.794  -3.393  1.00  0.00     0.000 C 
BRANCH  12  13
ATOM     13  C   UNL     1       0.131  48.728  -1.885  1.00  0.00     0.006 C 
BRANCH  13  14
ATOM     14  C   UNL     1       1.417  47.961  -1.543  1.00  0.00     0.053 C 
BRANCH  14  15
ATOM     15  C   UNL     1       2.182  48.610  -0.429  1.00  0.00     0.041 C 
ATOM     16  O   UNL     1       3.156  48.013   0.102  1.00  0.00    -0.550 OA
ATOM     17  O   UNL     1       1.813  49.867   0.033  1.00  0.00    -0.550 OA
ENDBRANCH  14  15
ENDBRANCH  13  14
ENDBRANCH  12  13
ENDBRANCH  11  12
ENDBRANCH  10  11
ENDBRANCH   9  10
ENDBRANCH   8   9
ENDBRANCH   7   8
ENDBRANCH   6   7
ENDBRANCH   5   6
ENDBRANCH   4   5
ENDBRANCH   3   4
ENDBRANCH   2   3
ENDBRANCH   1   2
BRANCH   1  18
ATOM     18  C   UNL     1      -1.316  44.177   4.181  1.00  0.00     0.000 C 
BRANCH  18  19
ATOM     19  C   UNL     1      -0.532  43.737   5.426  1.00  0.00     0.000 C 
BRANCH  19  20
ATOM     20  C   UNL     1       0.946  44.132   5.316  1.00  0.00     0.000 C 
BRANCH  20  21
ATOM     21  C   UNL     1       1.845  43.096   6.000  1.00  0.00     0.000 C 
BRANCH  21  22
ATOM     22  C   UNL     1       2.299  43.587   7.382  1.00  0.00     0.000 C 
BRANCH  22  23
ATOM     23  C   UNL     1       3.746  43.180   7.716  1.00  0.00     0.000 C 
BRANCH  23  24
ATOM     24  C   UNL     1       4.421  44.023   8.817  1.00  0.00    -0.000 C 
BRANCH  24  25
ATOM     25  C   UNL     1       5.358  43.239   9.757  1.00  0.00    -0.000 C 
BRANCH  25  26
ATOM     26  C   UNL     1       6.403  42.353   9.049  1.00  0.00    -0.000 C 
BRANCH  26  27
ATOM     27  C   UNL     1       6.710  42.743   7.591  1.00  0.00    -0.000 C 
BRANCH  27  28
ATOM     28  C   UNL     1       7.420  41.625   6.811  1.00  0.00    -0.000 C 
BRANCH  28  29
ATOM     29  C   UNL     1       8.156  42.141   5.563  1.00  0.00    -0.000 C 
BRANCH  29  30
ATOM     30  C   UNL     1       9.607  42.584   5.840  1.00  0.00    -0.000 C 
BRANCH  30  31
ATOM     31  C   UNL     1       9.733  43.361   7.159  1.00  0.00    -0.003 C 
ATOM     32  C   UNL     1      10.662  42.647   8.135  1.00  0.00     0.004 C 
ENDBRANCH  30  31
ENDBRANCH  29  30
ENDBRANCH  28  29
ENDBRANCH  27  28
ENDBRANCH  26  27
ENDBRANCH  25  26
ENDBRANCH  24  25
ENDBRANCH  23  24
ENDBRANCH  22  23
ENDBRANCH  21  22
ENDBRANCH  20  21
ENDBRANCH  19  20
ENDBRANCH  18  19
ENDBRANCH   1  18
TORSDOF 28
ENDMDL
MODEL 5
REMARK VINA RESULT:    27.902      1.704      4.789
REMARK INTER + INTRA:          72.311
REMARK INTER:                  71.077
REMARK INTRA:                   1.234
REMARK UNBOUND:                -1.262
REMARK SMILES CCCCCCCCCCCCCCCCCCCCCCCCCCCCCC(=O)[O-]
REMARK SMILES IDX 16 1 17 2 18 3 19 4 20 5 21 6 22 7 23 8 24 9 25 10 26 11
REMARK SMILES IDX 27 12 28 13 29 14 30 15 31 16 32 17 15 18 14 19 13 20 12 21
REMARK SMILES IDX 11 22 10 23 9 24 8 25 7 26 6 27 5 28 4 29 3 30 2 31 1 32
REMARK H PARENT
REMARK Flexibility Score: inf
ROOT
ATOM      1  C   UNL     1       2.656  43.263   8.448  1.00  0.00     0.000 C 
ENDROOT
BRANCH   1   2
ATOM      2  C   UNL     1       4.014  43.992   8.493  1.00  0.00     0.000 C 
BRANCH   2   3
ATOM      3  C   UNL     1       5.218  43.167   7.992  1.00  0.00     0.000 C 
BRANCH   3   4
ATOM      4  C   UNL     1       6.115  42.589   9.102  1.00  0.00     0.000 C 
BRANCH   4   5
ATOM      5  C   UNL     1       7.602  42.912   8.894  1.00  0.00     0.000 C 
BRANCH   5   6
ATOM      6  C   UNL     1       8.423  41.633   8.685  1.00  0.00     0.000 C 
BRANCH   6   7
ATOM      7  C   UNL     1       9.883  41.970   8.360  1.00  0.00     0.000 C 
BRANCH   7   8
ATOM      8  C   UNL     1      10.007  42.637   6.984  1.00  0.00     0.000 C 
BRANCH   8   9
ATOM      9  C   UNL     1       9.019  43.801   6.849  1.00  0.00     0.000 C 
BRANCH   9  10
ATOM     10  C   UNL     1       8.117  43.622   5.623  1.00  0.00     0.000 C 
BRANCH  10  11
ATOM     11  C   UNL     1       7.183  42.416   5.800  1.00  0.00     0.000 C 
BRANCH  11  12
ATOM     12  C   UNL     1       7.817  41.102   5.296  1.00  0.00     0.000 C 
BRANCH  12  13
ATOM     13  C   UNL     1       9.155  41.308   4.560  1.00  0.00     0.006 C 
BRANCH  13  14
ATOM     14  C   UNL     1       9.772  40.014   4.010  1.00  0.00     0.053 C 
BRANCH  14  15
ATOM     15  C   UNL     1      10.356  40.204   2.642  1.00  0.00     0.041 C 
ATOM     16  O   UNL     1      11.378  39.555   2.293  1.00  0.00    -0.550 OA
ATOM     17  O   UNL     1       9.780  41.107   1.756  1.00  0.00    -0.550 OA
ENDBRANCH  14  15
ENDBRANCH  13  14
ENDBRANCH  12  13
ENDBRANCH  11  12
ENDBRANCH  10  11
ENDBRANCH   9  10
ENDBRANCH   8   9
ENDBRANCH   7   8
ENDBRANCH   6   7
ENDBRANCH   5   6
ENDBRANCH   4   5
ENDBRANCH   3   4
ENDBRANCH   2   3
ENDBRANCH   1   2
BRANCH   1  18
ATOM     18  C   UNL     1       2.074  43.066   7.037  1.00  0.00     0.000 C 
BRANCH  18  19
ATOM     19  C   UNL     1       2.635  44.067   6.017  1.00  0.00     0.000 C 
BRANCH  19  20
ATOM     20  C   UNL     1       1.642  44.307   4.874  1.00  0.00     0.000 C 
BRANCH  20  21
ATOM     21  C   UNL     1       0.272  43.703   5.199  1.00  0.00     0.000 C 
BRANCH  21  22
ATOM     22  C   UNL     1      -0.863  44.613   4.706  1.00  0.00     0.000 C 
BRANCH  22  23
ATOM     23  C   UNL     1      -0.663  45.085   3.254  1.00  0.00     0.000 C 
BRANCH  23  24
ATOM     24  C   UNL     1      -1.531  46.289   2.837  1.00  0.00    -0.000 C 
BRANCH  24  25
ATOM     25  C   UNL     1      -2.433  46.049   1.610  1.00  0.00    -0.000 C 
BRANCH  25  26
ATOM     26  C   UNL     1      -3.622  47.022   1.472  1.00  0.00    -0.000 C 
BRANCH  26  27
ATOM     27  C   UNL     1      -4.529  46.775   0.253  1.00  0.00    -0.000 C 
BRANCH  27  28
ATOM     28  C   UNL     1      -3.740  46.638  -1.060  1.00  0.00    -0.000 C 
BRANCH  28  29
ATOM     29  C   UNL     1      -4.645  46.644  -2.304  1.00  0.00    -0.000 C 
BRANCH  29  30
ATOM     30  C   UNL     1      -3.870  46.777  -3.631  1.00  0.00    -0.000 C 
BRANCH  30  31
ATOM     31  C   UNL     1      -3.323  48.197  -3.842  1.00  0.00    -0.003 C 
ATOM     32  C   UNL     1      -1.804  48.193  -3.956  1.00  0.00     0.004 C 
ENDBRANCH  30  31
ENDBRANCH  29  30
ENDBRANCH  28  29
ENDBRANCH  27  28
ENDBRANCH  26  27
ENDBRANCH  25  26
ENDBRANCH  24  25
ENDBRANCH  23  24
ENDBRANCH  22  23
ENDBRANCH  21  22
ENDBRANCH  20  21
ENDBRANCH  19  20
ENDBRANCH  18  19
ENDBRANCH   1  18
TORSDOF 28
ENDMDL
MODEL 6
REMARK VINA RESULT:    28.143      1.496      3.518
REMARK INTER + INTRA:          72.949
REMARK INTER:                  74.016
REMARK INTRA:                  -1.068
REMARK UNBOUND:                -1.262
REMARK SMILES CCCCCCCCCCCCCCCCCCCCCCCCCCCCCC(=O)[O-]
REMARK SMILES IDX 16 1 17 2 18 3 19 4 20 5 21 6 22 7 23 8 24 9 25 10 26 11
REMARK SMILES IDX 27 12 28 13 29 14 30 15 31 16 32 17 15 18 14 19 13 20 12 21
REMARK SMILES IDX 11 22 10 23 9 24 8 25 7 26 6 27 5 28 4 29 3 30 2 31 1 32
REMARK H PARENT
REMARK Flexibility Score: inf
ROOT
ATOM      1  C   UNL     1       1.222  43.559   6.033  1.00  0.00     0.000 C 
ENDROOT
BRANCH   1   2
ATOM      2  C   UNL     1       2.276  42.790   6.855  1.00  0.00     0.000 C 
BRANCH   2   3
ATOM      3  C   UNL     1       3.025  43.629   7.910  1.00  0.00     0.000 C 
BRANCH   3   4
ATOM      4  C   UNL     1       3.602  42.825   9.089  1.00  0.00     0.000 C 
BRANCH   4   5
ATOM      5  C   UNL     1       4.859  43.470   9.692  1.00  0.00     0.000 C 
BRANCH   5   6
ATOM      6  C   UNL     1       6.130  42.955   9.004  1.00  0.00     0.000 C 
BRANCH   6   7
ATOM      7  C   UNL     1       6.112  43.285   7.507  1.00  0.00     0.000 C 
BRANCH   7   8
ATOM      8  C   UNL     1       6.828  42.203   6.690  1.00  0.00     0.000 C 
BRANCH   8   9
ATOM      9  C   UNL     1       8.295  42.074   7.118  1.00  0.00     0.000 C 
BRANCH   9  10
ATOM     10  C   UNL     1       9.043  41.069   6.236  1.00  0.00     0.000 C 
BRANCH  10  11
ATOM     11  C   UNL     1       9.491  41.720   4.919  1.00  0.00     0.000 C 
BRANCH  11  12
ATOM     12  C   UNL     1      10.254  40.737   4.006  1.00  0.00     0.000 C 
BRANCH  12  13
ATOM     13  C   UNL     1       9.399  40.180   2.852  1.00  0.00     0.006 C 
BRANCH  13  14
ATOM     14  C   UNL     1       9.744  40.769   1.476  1.00  0.00     0.053 C 
BRANCH  14  15
ATOM     15  C   UNL     1       9.006  42.046   1.207  1.00  0.00     0.041 C 
ATOM     16  O   UNL     1       9.223  42.692   0.148  1.00  0.00    -0.550 OA
ATOM     17  O   UNL     1       8.088  42.530   2.131  1.00  0.00    -0.550 OA
ENDBRANCH  14  15
ENDBRANCH  13  14
ENDBRANCH  12  13
ENDBRANCH  11  12
ENDBRANCH  10  11
ENDBRANCH   9  10
ENDBRANCH   8   9
ENDBRANCH   7   8
ENDBRANCH   6   7
ENDBRANCH   5   6
ENDBRANCH   4   5
ENDBRANCH   3   4
ENDBRANCH   2   3
ENDBRANCH   1   2
BRANCH   1  18
ATOM     18  C   UNL     1       1.649  43.904   4.595  1.00  0.00     0.000 C 
BRANCH  18  19
ATOM     19  C   UNL     1       1.453  45.389   4.258  1.00  0.00     0.000 C 
BRANCH  19  20
ATOM     20  C   UNL     1       0.018  45.667   3.794  1.00  0.00     0.000 C 
BRANCH  20  21
ATOM     21  C   UNL     1      -0.187  45.221   2.343  1.00  0.00     0.000 C 
BRANCH  21  22
ATOM     22  C   UNL     1      -1.673  45.265   1.958  1.00  0.00     0.000 C 
BRANCH  22  23
ATOM     23  C   UNL     1      -2.292  46.666   2.119  1.00  0.00     0.000 C 
BRANCH  23  24
ATOM     24  C   UNL     1      -3.811  46.739   1.872  1.00  0.00    -0.000 C 
BRANCH  24  25
ATOM     25  C   UNL     1      -4.319  45.914   0.672  1.00  0.00    -0.000 C 
BRANCH  25  26
ATOM     26  C   UNL     1      -4.732  46.741  -0.562  1.00  0.00    -0.000 C 
BRANCH  26  27
ATOM     27  C   UNL     1      -4.067  46.317  -1.884  1.00  0.00    -0.000 C 
BRANCH  27  28
ATOM     28  C   UNL     1      -4.744  46.935  -3.119  1.00  0.00    -0.000 C 
BRANCH  28  29
ATOM     29  C   UNL     1      -3.783  47.793  -3.960  1.00  0.00    -0.000 C 
BRANCH  29  30
ATOM     30  C   UNL     1      -2.504  48.211  -3.205  1.00  0.00    -0.000 C 
BRANCH  30  31
ATOM     31  C   UNL     1      -1.274  48.241  -4.125  1.00  0.00    -0.003 C 
ATOM     32  C   UNL     1      -0.203  49.181  -3.585  1.00  0.00     0.004 C 
ENDBRANCH  30  31
ENDBRANCH  29  30
ENDBRANCH  28  29
ENDBRANCH  27  28
ENDBRANCH  26  27
ENDBRANCH  25  26
ENDBRANCH  24  25
ENDBRANCH  23  24
ENDBRANCH  22  23
ENDBRANCH  21  22
ENDBRANCH  20  21
ENDBRANCH  19  20
ENDBRANCH  18  19
ENDBRANCH   1  18
TORSDOF 28
ENDMDL
MODEL 7
REMARK VINA RESULT:    28.406      2.332     11.242
REMARK INTER + INTRA:          73.641
REMARK INTER:                  75.413
REMARK INTRA:                  -1.772
REMARK UNBOUND:                -1.262
REMARK SMILES CCCCCCCCCCCCCCCCCCCCCCCCCCCCCC(=O)[O-]
REMARK SMILES IDX 16 1 17 2 18 3 19 4 20 5 21 6 22 7 23 8 24 9 25 10 26 11
REMARK SMILES IDX 27 12 28 13 29 14 30 15 31 16 32 17 15 18 14 19 13 20 12 21
REMARK SMILES IDX 11 22 10 23 9 24 8 25 7 26 6 27 5 28 4 29 3 30 2 31 1 32
REMARK H PARENT
REMARK Flexibility Score: inf
ROOT
ATOM      1  C   UNL     1      -2.179  45.666   2.000  1.00  0.00     0.000 C 
ENDROOT
BRANCH   1   2
ATOM      2  C   UNL     1      -2.801  46.810   1.175  1.00  0.00     0.000 C 
BRANCH   2   3
ATOM      3  C   UNL     1      -3.931  46.386   0.214  1.00  0.00     0.000 C 
BRANCH   3   4
ATOM      4  C   UNL     1      -4.212  47.375  -0.933  1.00  0.00     0.000 C 
BRANCH   4   5
ATOM      5  C   UNL     1      -3.877  46.794  -2.315  1.00  0.00     0.000 C 
BRANCH   5   6
ATOM      6  C   UNL     1      -3.510  47.903  -3.309  1.00  0.00     0.000 C 
BRANCH   6   7
ATOM      7  C   UNL     1      -2.145  47.628  -3.952  1.00  0.00     0.000 C 
BRANCH   7   8
ATOM      8  C   UNL     1      -1.165  48.777  -3.689  1.00  0.00     0.000 C 
BRANCH   8   9
ATOM      9  C   UNL     1      -0.674  48.756  -2.237  1.00  0.00     0.000 C 
BRANCH   9  10
ATOM     10  C   UNL     1       0.827  48.455  -2.163  1.00  0.00     0.000 C 
BRANCH  10  11
ATOM     11  C   UNL     1       1.382  48.763  -0.764  1.00  0.00     0.000 C 
BRANCH  11  12
ATOM     12  C   UNL     1       2.489  47.774  -0.340  1.00  0.00     0.000 C 
BRANCH  12  13
ATOM     13  C   UNL     1       2.780  46.689  -1.393  1.00  0.00     0.006 C 
BRANCH  13  14
ATOM     14  C   UNL     1       3.876  45.695  -0.980  1.00  0.00     0.053 C 
BRANCH  14  15
ATOM     15  C   UNL     1       3.306  44.417  -0.441  1.00  0.00     0.041 C 
ATOM     16  O   UNL     1       2.274  44.439   0.281  1.00  0.00    -0.550 OA
ATOM     17  O   UNL     1       3.922  43.204  -0.723  1.00  0.00    -0.550 OA
ENDBRANCH  14  15
ENDBRANCH  13  14
ENDBRANCH  12  13
ENDBRANCH  11  12
ENDBRANCH  10  11
ENDBRANCH   9  10
ENDBRANCH   8   9
ENDBRANCH   7   8
ENDBRANCH   6   7
ENDBRANCH   5   6
ENDBRANCH   4   5
ENDBRANCH   3   4
ENDBRANCH   2   3
ENDBRANCH   1   2
BRANCH   1  18
ATOM     18  C   UNL     1      -1.038  46.094   2.940  1.00  0.00     0.000 C 
BRANCH  18  19
ATOM     19  C   UNL     1      -0.284  44.899   3.542  1.00  0.00     0.000 C 
BRANCH  19  20
ATOM     20  C   UNL     1      -0.748  44.619   4.977  1.00  0.00     0.000 C 
BRANCH  20  21
ATOM     21  C   UNL     1       0.090  43.509   5.620  1.00  0.00     0.000 C 
BRANCH  21  22
ATOM     22  C   UNL     1       1.466  43.398   4.949  1.00  0.00     0.000 C 
BRANCH  22  23
ATOM     23  C   UNL     1       2.627  43.739   5.902  1.00  0.00     0.000 C 
BRANCH  23  24
ATOM     24  C   UNL     1       2.517  43.121   7.309  1.00  0.00    -0.000 C 
BRANCH  24  25
ATOM     25  C   UNL     1       3.210  43.920   8.430  1.00  0.00    -0.000 C 
BRANCH  25  26
ATOM     26  C   UNL     1       4.098  43.085   9.376  1.00  0.00    -0.000 C 
BRANCH  26  27
ATOM     27  C   UNL     1       5.611  43.181   9.105  1.00  0.00    -0.000 C 
BRANCH  27  28
ATOM     28  C   UNL     1       6.002  42.659   7.713  1.00  0.00    -0.000 C 
BRANCH  28  29
ATOM     29  C   UNL     1       7.437  42.107   7.664  1.00  0.00    -0.000 C 
BRANCH  29  30
ATOM     30  C   UNL     1       8.121  42.284   6.292  1.00  0.00    -0.000 C 
BRANCH  30  31
ATOM     31  C   UNL     1       9.303  43.263   6.358  1.00  0.00    -0.003 C 
ATOM     32  C   UNL     1      10.212  42.954   7.542  1.00  0.00     0.004 C 
ENDBRANCH  30  31
ENDBRANCH  29  30
ENDBRANCH  28  29
ENDBRANCH  27  28
ENDBRANCH  26  27
ENDBRANCH  25  26
ENDBRANCH  24  25
ENDBRANCH  23  24
ENDBRANCH  22  23
ENDBRANCH  21  22
ENDBRANCH  20  21
ENDBRANCH  19  20
ENDBRANCH  18  19
ENDBRANCH   1  18
TORSDOF 28
ENDMDL
