MODEL 1
REMARK VINA RESULT:     0.888      0.000      0.000
REMARK INTER + INTRA:           0.242
REMARK INTER:                   1.459
REMARK INTRA:                  -1.217
REMARK UNBOUND:                -1.217
REMARK SMILES C[C@H]1O[C@@H](OC[C@H]2O[C@@H](Oc3c(-c4ccc(O)c(O)c4)oc4cc(O)cc(O)c4c3=O)[C@H](O)[C@@H](O)[C@@H]2O)[C@H](O)[C@@H](O)[C@H]1O
REMARK SMILES IDX 7 1 36 2 34 3 32 4 9 5 8 6 6 7 5 8 4 9 1 10 2 11 42 12 3 13
REMARK SMILES IDX 40 14 38 15 43 16 41 18 39 20 37 22 35 24 10 26 11 27 12 28
REMARK SMILES IDX 30 29 21 30 29 31 31 32 22 33 27 34 23 35 26 36 24 37 13 38
REMARK SMILES IDX 20 39 14 40 18 41 15 42 16 43 19 44 17 46 28 48 25 50 33 52
REMARK H PARENT 43 17 41 19 39 21 37 23 35 25 19 45 17 47 28 49 25 51 33 53
REMARK Flexibility Score: inf
ROOT
ATOM      1  C   UNL     1     -13.009   7.248   8.903  1.00  0.00     0.180 C 
ATOM      2  C   UNL     1     -14.429   7.519   8.398  1.00  0.00     0.177 C 
ATOM      3  C   UNL     1     -14.418   7.847   6.878  1.00  0.00     0.180 C 
ATOM      4  C   UNL     1     -13.003   8.402   6.523  1.00  0.00     0.214 C 
ATOM      5  C   UNL     1     -12.534   9.297   7.671  1.00  0.00     0.339 C 
ATOM      6  O   UNL     1     -12.047   8.333   8.639  1.00  0.00    -0.332 OA
ENDROOT
BRANCH   1   7
ATOM      7  C   UNL     1     -12.395   5.739   8.624  1.00  0.00     0.198 C 
BRANCH   7   8
ATOM      8  O   UNL     1     -10.984   5.441   8.747  1.00  0.00    -0.347 OA
BRANCH   8   9
ATOM      9  C   UNL     1     -10.433   4.696   7.647  1.00  0.00     0.281 C 
ATOM     10  C   UNL     1      -8.764   5.743   4.477  1.00  0.00     0.041 C 
ATOM     11  C   UNL     1      -9.752   5.008   5.422  1.00  0.00     0.150 C 
ATOM     12  C   UNL     1     -11.181   5.260   4.973  1.00  0.00     0.174 C 
ATOM     13  O   UNL     1      -9.603   5.466   6.741  1.00  0.00    -0.344 OA
ATOM     14  C   UNL     1     -11.902   3.974   5.522  1.00  0.00     0.179 C 
ATOM     15  C   UNL     1     -11.419   3.577   6.979  1.00  0.00     0.202 C 
BRANCH  12  16
ATOM     16  O   UNL     1     -11.710   6.508   5.378  1.00  0.00    -0.388 OA
ATOM     17  H   UNL     1     -11.189   6.840   6.134  1.00  0.00     0.211 HD
ENDBRANCH  12  16
BRANCH  14  18
ATOM     18  O   UNL     1     -13.326   3.913   5.361  1.00  0.00    -0.387 OA
ATOM     19  H   UNL     1     -13.603   3.002   5.310  1.00  0.00     0.211 HD
ENDBRANCH  14  18
BRANCH  15  20
ATOM     20  O   UNL     1     -10.833   2.313   6.851  1.00  0.00    -0.385 OA
ATOM     21  H   UNL     1     -11.484   1.745   6.368  1.00  0.00     0.211 HD
ENDBRANCH  15  20
ENDBRANCH   8   9
ENDBRANCH   7   8
ENDBRANCH   1   7
BRANCH   2  22
ATOM     22  O   UNL     1     -15.125   8.515   9.125  1.00  0.00    -0.387 OA
ATOM     23  H   UNL     1     -15.192   8.326  10.149  1.00  0.00     0.211 HD
ENDBRANCH   2  22
BRANCH   3  24
ATOM     24  O   UNL     1     -14.841   6.726   6.045  1.00  0.00    -0.387 OA
ATOM     25  H   UNL     1     -13.997   6.370   5.760  1.00  0.00     0.211 HD
ENDBRANCH   3  24
BRANCH   5  26
ATOM     26  O   UNL     1     -11.579  10.350   7.277  1.00  0.00    -0.454 OA
BRANCH  26  27
ATOM     27  C   UNL     1     -10.464  10.626   6.377  1.00  0.00     0.214 A 
ATOM     28  C   UNL     1     -10.378  11.270   5.053  1.00  0.00     0.180 A 
ATOM     29  C   UNL     1      -9.192   9.961   6.824  1.00  0.00     0.239 A 
ATOM     30  O   UNL     1      -9.148  11.590   4.616  1.00  0.00    -0.452 OA
ATOM     31  C   UNL     1      -7.957  10.415   6.375  1.00  0.00     0.111 A 
ATOM     32  O   UNL     1      -9.219   8.989   7.676  1.00  0.00    -0.285 OA
ATOM     33  C   UNL     1      -7.973  11.250   5.199  1.00  0.00     0.146 A 
ATOM     34  C   UNL     1      -6.702  10.193   7.019  1.00  0.00     0.134 A 
ATOM     35  C   UNL     1      -6.736  11.526   4.545  1.00  0.00     0.094 A 
ATOM     36  C   UNL     1      -5.500  10.595   6.412  1.00  0.00     0.093 A 
ATOM     37  C   UNL     1      -5.497  11.130   5.122  1.00  0.00     0.123 A 
BRANCH  28  38
ATOM     38  C   UNL     1     -11.471  11.560   4.084  1.00  0.00     0.025 A 
ATOM     39  C   UNL     1     -11.273  11.398   2.634  1.00  0.00     0.062 A 
ATOM     40  C   UNL     1     -12.729  12.003   4.515  1.00  0.00     0.016 A 
ATOM     41  C   UNL     1     -12.375  11.507   1.767  1.00  0.00     0.158 A 
ATOM     42  C   UNL     1     -13.835  11.999   3.623  1.00  0.00     0.051 A 
ATOM     43  C   UNL     1     -13.656  11.886   2.268  1.00  0.00     0.157 A 
BRANCH  41  44
ATOM     44  O   UNL     1     -12.180  11.164   0.404  1.00  0.00    -0.504 OA
ATOM     45  H   UNL     1     -11.530  10.438   0.142  1.00  0.00     0.293 HD
ENDBRANCH  41  44
BRANCH  43  46
ATOM     46  O   UNL     1     -14.699  12.125   1.421  1.00  0.00    -0.504 OA
ATOM     47  H   UNL     1     -14.626  12.030   0.432  1.00  0.00     0.293 HD
ENDBRANCH  43  46
ENDBRANCH  28  38
BRANCH  34  48
ATOM     48  O   UNL     1      -6.537   9.652   8.286  1.00  0.00    -0.507 OA
ATOM     49  H   UNL     1      -7.326   9.306   8.828  1.00  0.00     0.293 HD
ENDBRANCH  34  48
BRANCH  37  50
ATOM     50  O   UNL     1      -4.322  11.085   4.320  1.00  0.00    -0.508 OA
ATOM     51  H   UNL     1      -3.414  11.048   4.798  1.00  0.00     0.293 HD
ENDBRANCH  37  50
ENDBRANCH  26  27
ENDBRANCH   5  26
BRANCH   4  52
ATOM     52  O   UNL     1     -12.743   8.791   5.155  1.00  0.00    -0.384 OA
ATOM     53  H   UNL     1     -13.505   8.451   4.594  1.00  0.00     0.211 HD
ENDBRANCH   4  52
TORSDOF 16
ENDMDL
MODEL 2
REMARK VINA RESULT:     2.778      1.664      5.672
REMARK INTER + INTRA:           3.347
REMARK INTER:                   5.543
REMARK INTRA:                  -2.196
REMARK UNBOUND:                -1.217
REMARK SMILES C[C@H]1O[C@@H](OC[C@H]2O[C@@H](Oc3c(-c4ccc(O)c(O)c4)oc4cc(O)cc(O)c4c3=O)[C@H](O)[C@@H](O)[C@@H]2O)[C@H](O)[C@@H](O)[C@H]1O
REMARK SMILES IDX 7 1 36 2 34 3 32 4 9 5 8 6 6 7 5 8 4 9 1 10 2 11 42 12 3 13
REMARK SMILES IDX 40 14 38 15 43 16 41 18 39 20 37 22 35 24 10 26 11 27 12 28
REMARK SMILES IDX 30 29 21 30 29 31 31 32 22 33 27 34 23 35 26 36 24 37 13 38
REMARK SMILES IDX 20 39 14 40 18 41 15 42 16 43 19 44 17 46 28 48 25 50 33 52
REMARK H PARENT 43 17 41 19 39 21 37 23 35 25 19 45 17 47 28 49 25 51 33 53
REMARK Flexibility Score: inf
ROOT
ATOM      1  C   UNL     1     -14.035   7.064   6.563  1.00  0.00     0.180 C 
ATOM      2  C   UNL     1     -14.642   7.548   7.883  1.00  0.00     0.177 C 
ATOM      3  C   UNL     1     -14.070   8.940   8.274  1.00  0.00     0.180 C 
ATOM      4  C   UNL     1     -12.675   9.089   7.588  1.00  0.00     0.214 C 
ATOM      5  C   UNL     1     -11.961   7.737   7.651  1.00  0.00     0.339 C 
ATOM      6  O   UNL     1     -12.562   7.014   6.547  1.00  0.00    -0.332 OA
ENDROOT
BRANCH   1   7
ATOM      7  C   UNL     1     -14.690   7.677   5.175  1.00  0.00     0.198 C 
BRANCH   7   8
ATOM      8  O   UNL     1     -13.901   8.394   4.195  1.00  0.00    -0.347 OA
BRANCH   8   9
ATOM      9  C   UNL     1     -14.141   9.811   4.155  1.00  0.00     0.281 C 
ATOM     10  C   UNL     1     -15.125  12.124   1.396  1.00  0.00     0.041 C 
ATOM     11  C   UNL     1     -14.326  11.563   2.603  1.00  0.00     0.150 C 
ATOM     12  C   UNL     1     -12.853  11.463   2.247  1.00  0.00     0.174 C 
ATOM     13  O   UNL     1     -14.797  10.286   2.953  1.00  0.00    -0.344 OA
ATOM     14  C   UNL     1     -12.189  11.586   3.667  1.00  0.00     0.179 C 
ATOM     15  C   UNL     1     -12.957  10.752   4.776  1.00  0.00     0.202 C 
BRANCH  12  16
ATOM     16  O   UNL     1     -12.512  10.322   1.481  1.00  0.00    -0.388 OA
ATOM     17  H   UNL     1     -11.866   9.790   1.981  1.00  0.00     0.211 HD
ENDBRANCH  12  16
BRANCH  14  18
ATOM     18  O   UNL     1     -10.764  11.432   3.729  1.00  0.00    -0.387 OA
ATOM     19  H   UNL     1     -10.449  11.042   2.918  1.00  0.00     0.211 HD
ENDBRANCH  14  18
BRANCH  15  20
ATOM     20  O   UNL     1     -13.414  11.693   5.705  1.00  0.00    -0.385 OA
ATOM     21  H   UNL     1     -13.411  12.571   5.248  1.00  0.00     0.211 HD
ENDBRANCH  15  20
ENDBRANCH   8   9
ENDBRANCH   7   8
ENDBRANCH   1   7
BRANCH   2  22
ATOM     22  O   UNL     1     -14.513   6.630   8.953  1.00  0.00    -0.387 OA
ATOM     23  H   UNL     1     -13.664   6.026   8.897  1.00  0.00     0.211 HD
ENDBRANCH   2  22
BRANCH   3  24
ATOM     24  O   UNL     1     -14.988  10.039   7.994  1.00  0.00    -0.387 OA
ATOM     25  H   UNL     1     -15.745   9.798   8.533  1.00  0.00     0.211 HD
ENDBRANCH   3  24
BRANCH   5  26
ATOM     26  O   UNL     1     -10.488   7.821   7.637  1.00  0.00    -0.454 OA
BRANCH  26  27
ATOM     27  C   UNL     1      -9.351   8.106   6.767  1.00  0.00     0.214 A 
ATOM     28  C   UNL     1      -8.854   7.478   5.528  1.00  0.00     0.180 A 
ATOM     29  C   UNL     1      -8.421   9.128   7.358  1.00  0.00     0.239 A 
ATOM     30  O   UNL     1      -7.919   8.157   4.841  1.00  0.00    -0.452 OA
ATOM     31  C   UNL     1      -7.539   9.838   6.551  1.00  0.00     0.111 A 
ATOM     32  O   UNL     1      -8.460   9.404   8.621  1.00  0.00    -0.285 OA
ATOM     33  C   UNL     1      -7.283   9.285   5.245  1.00  0.00     0.146 A 
ATOM     34  C   UNL     1      -6.938  11.092   6.875  1.00  0.00     0.134 A 
ATOM     35  C   UNL     1      -6.203   9.815   4.481  1.00  0.00     0.094 A 
ATOM     36  C   UNL     1      -5.966  11.663   6.035  1.00  0.00     0.093 A 
ATOM     37  C   UNL     1      -5.493  10.969   4.918  1.00  0.00     0.123 A 
BRANCH  28  38
ATOM     38  C   UNL     1      -9.194   6.147   4.955  1.00  0.00     0.025 A 
ATOM     39  C   UNL     1     -10.201   5.276   5.585  1.00  0.00     0.062 A 
ATOM     40  C   UNL     1      -8.565   5.670   3.797  1.00  0.00     0.016 A 
ATOM     41  C   UNL     1     -10.623   4.111   4.919  1.00  0.00     0.158 A 
ATOM     42  C   UNL     1      -9.093   4.546   3.105  1.00  0.00     0.051 A 
ATOM     43  C   UNL     1     -10.003   3.709   3.698  1.00  0.00     0.157 A 
BRANCH  41  44
ATOM     44  O   UNL     1     -11.722   3.399   5.466  1.00  0.00    -0.504 OA
ATOM     45  H   UNL     1     -12.635   3.454   5.042  1.00  0.00     0.293 HD
ENDBRANCH  41  44
BRANCH  43  46
ATOM     46  O   UNL     1     -10.310   2.514   3.115  1.00  0.00    -0.504 OA
ATOM     47  H   UNL     1     -10.439   2.410   2.132  1.00  0.00     0.293 HD
ENDBRANCH  43  46
ENDBRANCH  28  38
BRANCH  34  48
ATOM     48  O   UNL     1      -7.281  11.888   7.957  1.00  0.00    -0.507 OA
ATOM     49  H   UNL     1      -6.762  12.733   8.187  1.00  0.00     0.293 HD
ENDBRANCH  34  48
BRANCH  37  50
ATOM     50  O   UNL     1      -4.220  11.275   4.359  1.00  0.00    -0.508 OA
ATOM     51  H   UNL     1      -4.170  12.025   3.658  1.00  0.00     0.293 HD
ENDBRANCH  37  50
ENDBRANCH  26  27
ENDBRANCH   5  26
BRANCH   4  52
ATOM     52  O   UNL     1     -11.930  10.308   7.808  1.00  0.00    -0.384 OA
ATOM     53  H   UNL     1     -12.091  10.907   7.017  1.00  0.00     0.211 HD
ENDBRANCH   4  52
TORSDOF 16
ENDMDL
