MODEL 1
REMARK VINA RESULT:    -6.646      0.000      0.000
REMARK INTER + INTRA:          -7.293
REMARK INTER:                  -7.229
REMARK INTRA:                  -0.065
REMARK UNBOUND:                -0.065
REMARK SMILES COc1cc2ccc(=O)oc2cc1O
REMARK SMILES IDX 3 1 13 2 12 3 11 4 5 5 4 6 6 7 7 8 8 9 9 10 10 11 2 12 1 13
REMARK SMILES IDX 14 14
REMARK H PARENT 14 15
REMARK Flexibility Score: inf
ROOT
ATOM      1  C   UNL     1       9.139 -54.928 -31.145  1.00  0.00     0.161 A 
ATOM      2  C   UNL     1       9.435 -55.366 -29.845  1.00  0.00     0.161 A 
ATOM      3  C   UNL     1       8.405 -55.767 -28.981  1.00  0.00     0.098 A 
ATOM      4  C   UNL     1       7.075 -55.733 -29.408  1.00  0.00     0.142 A 
ATOM      5  C   UNL     1       6.769 -55.294 -30.713  1.00  0.00     0.022 A 
ATOM      6  C   UNL     1       7.797 -54.894 -31.577  1.00  0.00     0.062 A 
ATOM      7  C   UNL     1       5.428 -55.271 -31.111  1.00  0.00     0.019 A 
ATOM      8  C   UNL     1       4.441 -55.680 -30.214  1.00  0.00     0.094 A 
ATOM      9  C   UNL     1       4.820 -56.103 -28.935  1.00  0.00     0.336 A 
ATOM     10  O   UNL     1       3.943 -56.475 -28.112  1.00  0.00    -0.246 OA
ATOM     11  O   UNL     1       6.103 -56.115 -28.583  1.00  0.00    -0.423 OA
ENDROOT
BRANCH   1  12
ATOM     12  O   UNL     1      10.201 -54.538 -31.976  1.00  0.00    -0.493 OA
ATOM     13  C   UNL     1      10.672 -55.289 -33.091  1.00  0.00     0.278 C 
ENDBRANCH   1  12
BRANCH   2  14
ATOM     14  O   UNL     1      10.761 -55.402 -29.417  1.00  0.00    -0.504 OA
ATOM     15  H   UNL     1      11.065 -56.030 -28.681  1.00  0.00     0.293 HD
ENDBRANCH   2  14
TORSDOF 2
ENDMDL
MODEL 2
REMARK VINA RESULT:    -6.417      1.209      4.940
REMARK INTER + INTRA:          -7.045
REMARK INTER:                  -6.984
REMARK INTRA:                  -0.061
REMARK UNBOUND:                -0.065
REMARK SMILES COc1cc2ccc(=O)oc2cc1O
REMARK SMILES IDX 3 1 13 2 12 3 11 4 5 5 4 6 6 7 7 8 8 9 9 10 10 11 2 12 1 13
REMARK SMILES IDX 14 14
REMARK H PARENT 14 15
REMARK Flexibility Score: inf
ROOT
ATOM      1  C   UNL     1       5.106 -56.190 -29.176  1.00  0.00     0.161 A 
ATOM      2  C   UNL     1       6.202 -56.534 -28.369  1.00  0.00     0.161 A 
ATOM      3  C   UNL     1       7.512 -56.335 -28.830  1.00  0.00     0.098 A 
ATOM      4  C   UNL     1       7.737 -55.792 -30.097  1.00  0.00     0.142 A 
ATOM      5  C   UNL     1       6.641 -55.443 -30.915  1.00  0.00     0.022 A 
ATOM      6  C   UNL     1       5.332 -55.642 -30.455  1.00  0.00     0.062 A 
ATOM      7  C   UNL     1       6.899 -54.902 -32.179  1.00  0.00     0.019 A 
ATOM      8  C   UNL     1       8.220 -54.723 -32.591  1.00  0.00     0.094 A 
ATOM      9  C   UNL     1       9.256 -55.093 -31.726  1.00  0.00     0.336 A 
ATOM     10  O   UNL     1      10.454 -54.940 -32.079  1.00  0.00    -0.246 OA
ATOM     11  O   UNL     1       8.982 -55.605 -30.528  1.00  0.00    -0.423 OA
ENDROOT
BRANCH   1  12
ATOM     12  O   UNL     1       3.813 -56.406 -28.674  1.00  0.00    -0.493 OA
ATOM     13  C   UNL     1       3.014 -55.408 -28.047  1.00  0.00     0.278 C 
ENDBRANCH   1  12
BRANCH   2  14
ATOM     14  O   UNL     1       5.980 -57.075 -27.103  1.00  0.00    -0.504 OA
ATOM     15  H   UNL     1       5.059 -57.080 -26.682  1.00  0.00     0.293 HD
ENDBRANCH   2  14
TORSDOF 2
ENDMDL
MODEL 3
REMARK VINA RESULT:    -6.410      1.655      2.683
REMARK INTER + INTRA:          -7.037
REMARK INTER:                  -6.992
REMARK INTRA:                  -0.045
REMARK UNBOUND:                -0.065
REMARK SMILES COc1cc2ccc(=O)oc2cc1O
REMARK SMILES IDX 3 1 13 2 12 3 11 4 5 5 4 6 6 7 7 8 8 9 9 10 10 11 2 12 1 13
REMARK SMILES IDX 14 14
REMARK H PARENT 14 15
REMARK Flexibility Score: inf
ROOT
ATOM      1  C   UNL     1       8.672 -54.587 -30.054  1.00  0.00     0.161 A 
ATOM      2  C   UNL     1       8.178 -54.377 -31.351  1.00  0.00     0.161 A 
ATOM      3  C   UNL     1       6.927 -54.888 -31.724  1.00  0.00     0.098 A 
ATOM      4  C   UNL     1       6.160 -55.611 -30.807  1.00  0.00     0.142 A 
ATOM      5  C   UNL     1       6.649 -55.827 -29.501  1.00  0.00     0.022 A 
ATOM      6  C   UNL     1       7.900 -55.316 -29.127  1.00  0.00     0.062 A 
ATOM      7  C   UNL     1       5.858 -56.555 -28.606  1.00  0.00     0.019 A 
ATOM      8  C   UNL     1       4.620 -57.042 -29.025  1.00  0.00     0.094 A 
ATOM      9  C   UNL     1       4.201 -56.789 -30.336  1.00  0.00     0.336 A 
ATOM     10  O   UNL     1       3.088 -57.221 -30.734  1.00  0.00    -0.246 OA
ATOM     11  O   UNL     1       4.973 -56.093 -31.167  1.00  0.00    -0.423 OA
ENDROOT
BRANCH   1  12
ATOM     12  O   UNL     1       9.930 -54.056 -29.724  1.00  0.00    -0.493 OA
ATOM     13  C   UNL     1      10.535 -54.155 -28.438  1.00  0.00     0.278 C 
ENDBRANCH   1  12
BRANCH   2  14
ATOM     14  O   UNL     1       8.941 -53.654 -32.268  1.00  0.00    -0.504 OA
ATOM     15  H   UNL     1       8.719 -52.694 -32.503  1.00  0.00     0.293 HD
ENDBRANCH   2  14
TORSDOF 2
ENDMDL
MODEL 4
REMARK VINA RESULT:    -6.369      1.966      5.330
REMARK INTER + INTRA:          -6.992
REMARK INTER:                  -6.934
REMARK INTRA:                  -0.058
REMARK UNBOUND:                -0.065
REMARK SMILES COc1cc2ccc(=O)oc2cc1O
REMARK SMILES IDX 3 1 13 2 12 3 11 4 5 5 4 6 6 7 7 8 8 9 9 10 10 11 2 12 1 13
REMARK SMILES IDX 14 14
REMARK H PARENT 14 15
REMARK Flexibility Score: inf
ROOT
ATOM      1  C   UNL     1       5.355 -56.109 -28.043  1.00  0.00     0.161 A 
ATOM      2  C   UNL     1       4.359 -55.764 -28.970  1.00  0.00     0.161 A 
ATOM      3  C   UNL     1       4.699 -55.469 -30.298  1.00  0.00     0.098 A 
ATOM      4  C   UNL     1       6.033 -55.516 -30.710  1.00  0.00     0.142 A 
ATOM      5  C   UNL     1       7.041 -55.862 -29.785  1.00  0.00     0.022 A 
ATOM      6  C   UNL     1       6.702 -56.157 -28.457  1.00  0.00     0.062 A 
ATOM      7  C   UNL     1       8.367 -55.899 -30.228  1.00  0.00     0.019 A 
ATOM      8  C   UNL     1       8.654 -55.598 -31.559  1.00  0.00     0.094 A 
ATOM      9  C   UNL     1       7.602 -55.264 -32.420  1.00  0.00     0.336 A 
ATOM     10  O   UNL     1       7.840 -54.988 -33.624  1.00  0.00    -0.246 OA
ATOM     11  O   UNL     1       6.349 -55.235 -31.972  1.00  0.00    -0.423 OA
ENDROOT
BRANCH   1  12
ATOM     12  O   UNL     1       4.969 -56.396 -26.724  1.00  0.00    -0.493 OA
ATOM     13  C   UNL     1       5.245 -57.622 -26.052  1.00  0.00     0.278 C 
ENDBRANCH   1  12
BRANCH   2  14
ATOM     14  O   UNL     1       3.027 -55.717 -28.561  1.00  0.00    -0.504 OA
ATOM     15  H   UNL     1       2.532 -56.551 -28.268  1.00  0.00     0.293 HD
ENDBRANCH   2  14
TORSDOF 2
ENDMDL
MODEL 5
REMARK VINA RESULT:    -6.309      1.492      5.423
REMARK INTER + INTRA:          -6.927
REMARK INTER:                  -6.882
REMARK INTRA:                  -0.045
REMARK UNBOUND:                -0.065
REMARK SMILES COc1cc2ccc(=O)oc2cc1O
REMARK SMILES IDX 3 1 13 2 12 3 11 4 5 5 4 6 6 7 7 8 8 9 9 10 10 11 2 12 1 13
REMARK SMILES IDX 14 14
REMARK H PARENT 14 15
REMARK Flexibility Score: inf
ROOT
ATOM      1  C   UNL     1       5.386 -56.611 -28.287  1.00  0.00     0.161 A 
ATOM      2  C   UNL     1       4.755 -56.233 -29.483  1.00  0.00     0.161 A 
ATOM      3  C   UNL     1       5.486 -55.609 -30.504  1.00  0.00     0.098 A 
ATOM      4  C   UNL     1       6.851 -55.358 -30.339  1.00  0.00     0.142 A 
ATOM      5  C   UNL     1       7.493 -55.734 -29.140  1.00  0.00     0.022 A 
ATOM      6  C   UNL     1       6.762 -56.357 -28.119  1.00  0.00     0.062 A 
ATOM      7  C   UNL     1       8.860 -55.468 -29.005  1.00  0.00     0.019 A 
ATOM      8  C   UNL     1       9.543 -54.845 -30.050  1.00  0.00     0.094 A 
ATOM      9  C   UNL     1       8.839 -54.501 -31.209  1.00  0.00     0.336 A 
ATOM     10  O   UNL     1       9.438 -53.938 -32.163  1.00  0.00    -0.246 OA
ATOM     11  O   UNL     1       7.539 -54.766 -31.312  1.00  0.00    -0.423 OA
ENDROOT
BRANCH   1  12
ATOM     12  O   UNL     1       4.614 -57.233 -27.293  1.00  0.00    -0.493 OA
ATOM     13  C   UNL     1       5.110 -57.630 -26.018  1.00  0.00     0.278 C 
ENDBRANCH   1  12
BRANCH   2  14
ATOM     14  O   UNL     1       3.394 -56.484 -29.650  1.00  0.00    -0.504 OA
ATOM     15  H   UNL     1       2.891 -57.116 -29.038  1.00  0.00     0.293 HD
ENDBRANCH   2  14
TORSDOF 2
ENDMDL
MODEL 6
REMARK VINA RESULT:    -6.266      1.556      2.752
REMARK INTER + INTRA:          -6.881
REMARK INTER:                  -6.841
REMARK INTRA:                  -0.040
REMARK UNBOUND:                -0.065
REMARK SMILES COc1cc2ccc(=O)oc2cc1O
REMARK SMILES IDX 3 1 13 2 12 3 11 4 5 5 4 6 6 7 7 8 8 9 9 10 10 11 2 12 1 13
REMARK SMILES IDX 14 14
REMARK H PARENT 14 15
REMARK Flexibility Score: inf
ROOT
ATOM      1  C   UNL     1       7.826 -55.837 -30.921  1.00  0.00     0.161 A 
ATOM      2  C   UNL     1       6.809 -55.331 -31.744  1.00  0.00     0.161 A 
ATOM      3  C   UNL     1       5.509 -55.165 -31.244  1.00  0.00     0.098 A 
ATOM      4  C   UNL     1       5.216 -55.502 -29.920  1.00  0.00     0.142 A 
ATOM      5  C   UNL     1       6.233 -56.011 -29.085  1.00  0.00     0.022 A 
ATOM      6  C   UNL     1       7.533 -56.178 -29.585  1.00  0.00     0.062 A 
ATOM      7  C   UNL     1       5.909 -56.340 -27.765  1.00  0.00     0.019 A 
ATOM      8  C   UNL     1       4.601 -56.156 -27.315  1.00  0.00     0.094 A 
ATOM      9  C   UNL     1       3.645 -55.646 -28.200  1.00  0.00     0.336 A 
ATOM     10  O   UNL     1       2.460 -55.474 -27.814  1.00  0.00    -0.246 OA
ATOM     11  O   UNL     1       3.981 -55.341 -29.451  1.00  0.00    -0.423 OA
ENDROOT
BRANCH   1  12
ATOM     12  O   UNL     1       9.113 -55.986 -31.464  1.00  0.00    -0.493 OA
ATOM     13  C   UNL     1      10.124 -54.984 -31.427  1.00  0.00     0.278 C 
ENDBRANCH   1  12
BRANCH   2  14
ATOM     14  O   UNL     1       7.098 -54.993 -33.066  1.00  0.00    -0.504 OA
ATOM     15  H   UNL     1       7.931 -55.336 -33.531  1.00  0.00     0.293 HD
ENDBRANCH   2  14
TORSDOF 2
ENDMDL
MODEL 7
REMARK VINA RESULT:    -6.150      2.769      4.199
REMARK INTER + INTRA:          -6.754
REMARK INTER:                  -6.854
REMARK INTRA:                   0.100
REMARK UNBOUND:                -0.065
REMARK SMILES COc1cc2ccc(=O)oc2cc1O
REMARK SMILES IDX 3 1 13 2 12 3 11 4 5 5 4 6 6 7 7 8 8 9 9 10 10 11 2 12 1 13
REMARK SMILES IDX 14 14
REMARK H PARENT 14 15
REMARK Flexibility Score: inf
ROOT
ATOM      1  C   UNL     1       4.946 -55.936 -29.998  1.00  0.00     0.161 A 
ATOM      2  C   UNL     1       6.001 -56.442 -29.223  1.00  0.00     0.161 A 
ATOM      3  C   UNL     1       5.867 -56.553 -27.831  1.00  0.00     0.098 A 
ATOM      4  C   UNL     1       4.681 -56.162 -27.205  1.00  0.00     0.142 A 
ATOM      5  C   UNL     1       3.616 -55.653 -27.977  1.00  0.00     0.022 A 
ATOM      6  C   UNL     1       3.749 -55.541 -29.368  1.00  0.00     0.062 A 
ATOM      7  C   UNL     1       2.441 -55.269 -27.321  1.00  0.00     0.019 A 
ATOM      8  C   UNL     1       2.357 -55.400 -25.935  1.00  0.00     0.094 A 
ATOM      9  C   UNL     1       3.455 -55.912 -25.234  1.00  0.00     0.336 A 
ATOM     10  O   UNL     1       3.400 -56.037 -23.983  1.00  0.00    -0.246 OA
ATOM     11  O   UNL     1       4.561 -56.270 -25.884  1.00  0.00    -0.423 OA
ENDROOT
BRANCH   1  12
ATOM     12  O   UNL     1       5.124 -55.844 -31.388  1.00  0.00    -0.493 OA
ATOM     13  C   UNL     1       5.956 -54.883 -32.032  1.00  0.00     0.278 C 
ENDBRANCH   1  12
BRANCH   2  14
ATOM     14  O   UNL     1       7.185 -56.834 -29.845  1.00  0.00    -0.504 OA
ATOM     15  H   UNL     1       7.181 -57.370 -30.705  1.00  0.00     0.293 HD
ENDBRANCH   2  14
TORSDOF 2
ENDMDL
MODEL 8
REMARK VINA RESULT:    -6.139      1.893      5.459
REMARK INTER + INTRA:          -6.742
REMARK INTER:                  -6.687
REMARK INTRA:                  -0.055
REMARK UNBOUND:                -0.065
REMARK SMILES COc1cc2ccc(=O)oc2cc1O
REMARK SMILES IDX 3 1 13 2 12 3 11 4 5 5 4 6 6 7 7 8 8 9 9 10 10 11 2 12 1 13
REMARK SMILES IDX 14 14
REMARK H PARENT 14 15
REMARK Flexibility Score: inf
ROOT
ATOM      1  C   UNL     1       3.665 -55.757 -27.894  1.00  0.00     0.161 A 
ATOM      2  C   UNL     1       4.719 -56.310 -27.152  1.00  0.00     0.161 A 
ATOM      3  C   UNL     1       5.985 -56.475 -27.733  1.00  0.00     0.098 A 
ATOM      4  C   UNL     1       6.207 -56.088 -29.057  1.00  0.00     0.142 A 
ATOM      5  C   UNL     1       5.153 -55.530 -29.811  1.00  0.00     0.022 A 
ATOM      6  C   UNL     1       3.887 -55.366 -29.231  1.00  0.00     0.062 A 
ATOM      7  C   UNL     1       5.406 -55.154 -31.134  1.00  0.00     0.019 A 
ATOM      8  C   UNL     1       6.683 -55.337 -31.666  1.00  0.00     0.094 A 
ATOM      9  C   UNL     1       7.679 -55.897 -30.858  1.00  0.00     0.336 A 
ATOM     10  O   UNL     1       8.837 -56.071 -31.320  1.00  0.00    -0.246 OA
ATOM     11  O   UNL     1       7.411 -56.246 -29.602  1.00  0.00    -0.423 OA
ENDROOT
BRANCH   1  12
ATOM     12  O   UNL     1       2.415 -55.610 -27.272  1.00  0.00    -0.493 OA
ATOM     13  C   UNL     1       1.968 -54.420 -26.630  1.00  0.00     0.278 C 
ENDBRANCH   1  12
BRANCH   2  14
ATOM     14  O   UNL     1       4.501 -56.696 -25.830  1.00  0.00    -0.504 OA
ATOM     15  H   UNL     1       4.373 -57.669 -25.575  1.00  0.00     0.293 HD
ENDBRANCH   2  14
TORSDOF 2
ENDMDL
