MODEL 1
REMARK VINA RESULT:    -1.372      0.000      0.000
REMARK INTER + INTRA:          -1.067
REMARK INTER:                  -1.813
REMARK INTRA:                   0.746
REMARK UNBOUND:                 0.746
REMARK SMILES CC[C@H](C=C[C@@H](C)[C@@H]1CC[C@H]2[C@@H]3CC=C4C[C@H](O)CC[C@@]4(C)[C@@H]3CC[C@@]21C)C(C)C
REMARK SMILES IDX 6 1 7 2 5 3 4 4 3 5 2 6 1 7 28 8 29 9 30 10 8 11 9 12 26 13
REMARK SMILES IDX 10 14 11 15 25 16 27 17 12 18 24 19 23 20 13 21 21 22 14 23
REMARK SMILES IDX 15 24 20 25 22 26 16 27 19 28 17 29 18 30
REMARK H PARENT 18 31
REMARK Flexibility Score: inf
ROOT
ATOM      1  C   UNL     1       2.027  48.803   7.993  1.00  0.00     0.012 C 
ATOM      2  C   UNL     1       2.601  49.728   6.896  1.00  0.00     0.012 C 
ENDROOT
BRANCH   1   3
ATOM      3  C   UNL     1       3.027  47.733   8.397  1.00  0.00    -0.028 C 
ATOM      4  C   UNL     1       4.349  47.953   8.525  1.00  0.00    -0.027 C 
BRANCH   4   5
ATOM      5  C   UNL     1       5.322  46.848   8.897  1.00  0.00     0.014 C 
BRANCH   5   6
ATOM      6  C   UNL     1       6.618  47.467   9.500  1.00  0.00     0.004 C 
ATOM      7  C   UNL     1       6.648  48.992   9.397  1.00  0.00     0.004 C 
ENDBRANCH   5   6
BRANCH   5   8
ATOM      8  C   UNL     1       4.640  45.798   9.834  1.00  0.00    -0.011 C 
ATOM      9  C   UNL     1       5.414  45.602  11.148  1.00  0.00     0.008 C 
ATOM     10  C   UNL     1       4.498  44.432   9.134  1.00  0.00     0.008 C 
ENDBRANCH   5   8
ENDBRANCH   4   5
ENDBRANCH   1   3
BRANCH   1  11
ATOM     11  C   UNL     1       0.621  48.160   7.711  1.00  0.00     0.002 C 
ATOM     12  C   UNL     1      -0.554  48.825   8.475  1.00  0.00     0.005 C 
ATOM     13  C   UNL     1       0.447  46.634   8.005  1.00  0.00    -0.026 C 
ATOM     14  C   UNL     1      -1.108  47.784   9.460  1.00  0.00     0.005 C 
ATOM     15  C   UNL     1      -0.100  46.639   9.432  1.00  0.00    -0.001 C 
ATOM     16  C   UNL     1       1.715  45.757   7.995  1.00  0.00     0.007 C 
ATOM     17  C   UNL     1      -0.574  46.072   6.960  1.00  0.00     0.012 C 
ATOM     18  C   UNL     1      -0.582  45.252   9.923  1.00  0.00     0.000 C 
ATOM     19  C   UNL     1       1.414  44.312   8.445  1.00  0.00     0.005 C 
ATOM     20  C   UNL     1       0.532  44.148   9.742  1.00  0.00     0.003 C 
ATOM     21  C   UNL     1      -1.124  45.365  11.372  1.00  0.00     0.031 C 
ATOM     22  C   UNL     1       1.320  43.780  11.065  1.00  0.00    -0.008 C 
ATOM     23  C   UNL     1      -0.869  44.161  12.225  1.00  0.00    -0.027 C 
ATOM     24  C   UNL     1       0.284  43.466  12.157  1.00  0.00    -0.065 C 
ATOM     25  C   UNL     1       2.221  42.522  10.800  1.00  0.00     0.014 C 
ATOM     26  C   UNL     1       2.219  44.941  11.546  1.00  0.00     0.016 C 
ATOM     27  C   UNL     1       0.601  42.516  13.296  1.00  0.00     0.063 C 
ATOM     28  C   UNL     1       2.621  41.741  12.057  1.00  0.00     0.033 C 
ATOM     29  C   UNL     1       1.377  41.292  12.822  1.00  0.00     0.118 C 
BRANCH  29  30
ATOM     30  O   UNL     1       1.749  40.525  13.937  1.00  0.00    -0.393 OA
ATOM     31  H   UNL     1       2.531  40.977  14.348  1.00  0.00     0.210 HD
ENDBRANCH  29  30
ENDBRANCH   1  11
TORSDOF 6
ENDMDL
MODEL 2
REMARK VINA RESULT:    -0.890      0.717      1.682
REMARK INTER + INTRA:          -0.431
REMARK INTER:                  -1.930
REMARK INTRA:                   1.500
REMARK UNBOUND:                 0.746
REMARK SMILES CC[C@H](C=C[C@@H](C)[C@@H]1CC[C@H]2[C@@H]3CC=C4C[C@H](O)CC[C@@]4(C)[C@@H]3CC[C@@]21C)C(C)C
REMARK SMILES IDX 6 1 7 2 5 3 4 4 3 5 2 6 1 7 28 8 29 9 30 10 8 11 9 12 26 13
REMARK SMILES IDX 10 14 11 15 25 16 27 17 12 18 24 19 23 20 13 21 21 22 14 23
REMARK SMILES IDX 15 24 20 25 22 26 16 27 19 28 17 29 18 30
REMARK H PARENT 18 31
REMARK Flexibility Score: inf
ROOT
ATOM      1  C   UNL     1       1.724  48.797   8.149  1.00  0.00     0.012 C 
ATOM      2  C   UNL     1       2.271  49.594   6.943  1.00  0.00     0.012 C 
ENDROOT
BRANCH   1   3
ATOM      3  C   UNL     1       2.799  47.924   8.772  1.00  0.00    -0.028 C 
ATOM      4  C   UNL     1       4.098  48.270   8.846  1.00  0.00    -0.027 C 
BRANCH   4   5
ATOM      5  C   UNL     1       5.149  47.353   9.445  1.00  0.00     0.014 C 
BRANCH   5   6
ATOM      6  C   UNL     1       4.810  45.871   9.107  1.00  0.00     0.004 C 
ATOM      7  C   UNL     1       5.051  44.925  10.284  1.00  0.00     0.004 C 
ENDBRANCH   5   6
BRANCH   5   8
ATOM      8  C   UNL     1       6.583  47.782   8.994  1.00  0.00    -0.011 C 
ATOM      9  C   UNL     1       7.682  47.105   9.830  1.00  0.00     0.008 C 
ATOM     10  C   UNL     1       6.764  49.310   9.083  1.00  0.00     0.008 C 
ENDBRANCH   5   8
ENDBRANCH   4   5
ENDBRANCH   1   3
BRANCH   1  11
ATOM     11  C   UNL     1       0.413  47.965   7.909  1.00  0.00     0.002 C 
ATOM     12  C   UNL     1      -0.796  48.405   8.777  1.00  0.00     0.005 C 
ATOM     13  C   UNL     1       0.484  46.418   8.120  1.00  0.00    -0.026 C 
ATOM     14  C   UNL     1      -1.125  47.244   9.727  1.00  0.00     0.005 C 
ATOM     15  C   UNL     1       0.036  46.267   9.573  1.00  0.00    -0.001 C 
ATOM     16  C   UNL     1       1.865  45.743   7.986  1.00  0.00     0.007 C 
ATOM     17  C   UNL     1      -0.508  45.761   7.103  1.00  0.00     0.012 C 
ATOM     18  C   UNL     1      -0.203  44.800  10.006  1.00  0.00     0.000 C 
ATOM     19  C   UNL     1       1.809  44.248   8.364  1.00  0.00     0.005 C 
ATOM     20  C   UNL     1       1.048  43.888   9.697  1.00  0.00     0.003 C 
ATOM     21  C   UNL     1      -0.660  44.757  11.488  1.00  0.00     0.031 C 
ATOM     22  C   UNL     1       1.965  43.575  10.949  1.00  0.00    -0.008 C 
ATOM     23  C   UNL     1      -0.176  43.563  12.252  1.00  0.00    -0.027 C 
ATOM     24  C   UNL     1       1.060  43.053  12.077  1.00  0.00    -0.065 C 
ATOM     25  C   UNL     1       3.023  42.482  10.558  1.00  0.00     0.014 C 
ATOM     26  C   UNL     1       2.713  44.833  11.446  1.00  0.00     0.016 C 
ATOM     27  C   UNL     1       1.587  42.105  13.137  1.00  0.00     0.063 C 
ATOM     28  C   UNL     1       3.614  41.708  11.741  1.00  0.00     0.033 C 
ATOM     29  C   UNL     1       2.502  41.039  12.547  1.00  0.00     0.118 C 
BRANCH  29  30
ATOM     30  O   UNL     1       3.054  40.280  13.591  1.00  0.00    -0.393 OA
ATOM     31  H   UNL     1       2.680  40.641  14.436  1.00  0.00     0.210 HD
ENDBRANCH  29  30
ENDBRANCH   1  11
TORSDOF 6
ENDMDL
MODEL 3
REMARK VINA RESULT:     1.363      1.774      4.164
REMARK INTER + INTRA:           2.547
REMARK INTER:                   2.782
REMARK INTRA:                  -0.235
REMARK UNBOUND:                 0.746
REMARK SMILES CC[C@H](C=C[C@@H](C)[C@@H]1CC[C@H]2[C@@H]3CC=C4C[C@H](O)CC[C@@]4(C)[C@@H]3CC[C@@]21C)C(C)C
REMARK SMILES IDX 6 1 7 2 5 3 4 4 3 5 2 6 1 7 28 8 29 9 30 10 8 11 9 12 26 13
REMARK SMILES IDX 10 14 11 15 25 16 27 17 12 18 24 19 23 20 13 21 21 22 14 23
REMARK SMILES IDX 15 24 20 25 22 26 16 27 19 28 17 29 18 30
REMARK H PARENT 18 31
REMARK Flexibility Score: inf
ROOT
ATOM      1  C   UNL     1       2.836  47.043   9.143  1.00  0.00     0.012 C 
ATOM      2  C   UNL     1       3.588  46.815  10.475  1.00  0.00     0.012 C 
ENDROOT
BRANCH   1   3
ATOM      3  C   UNL     1       2.415  48.494   8.985  1.00  0.00    -0.028 C 
ATOM      4  C   UNL     1       1.525  48.922   8.071  1.00  0.00    -0.027 C 
BRANCH   4   5
ATOM      5  C   UNL     1       1.157  50.387   7.921  1.00  0.00     0.014 C 
BRANCH   5   6
ATOM      6  C   UNL     1       2.092  51.062   6.874  1.00  0.00     0.004 C 
ATOM      7  C   UNL     1       3.414  50.315   6.695  1.00  0.00     0.004 C 
ENDBRANCH   5   6
BRANCH   5   8
ATOM      8  C   UNL     1      -0.364  50.547   7.591  1.00  0.00    -0.011 C 
ATOM      9  C   UNL     1      -1.125  49.215   7.698  1.00  0.00     0.008 C 
ATOM     10  C   UNL     1      -0.572  51.125   6.178  1.00  0.00     0.008 C 
ENDBRANCH   5   8
ENDBRANCH   4   5
ENDBRANCH   1   3
BRANCH   1  11
ATOM     11  C   UNL     1       1.627  46.086   8.842  1.00  0.00     0.002 C 
ATOM     12  C   UNL     1       0.349  46.386   9.669  1.00  0.00     0.005 C 
ATOM     13  C   UNL     1       1.848  44.551   9.035  1.00  0.00    -0.026 C 
ATOM     14  C   UNL     1       0.106  45.181  10.590  1.00  0.00     0.005 C 
ATOM     15  C   UNL     1       1.366  44.330  10.467  1.00  0.00    -0.001 C 
ATOM     16  C   UNL     1       3.295  44.023   8.944  1.00  0.00     0.007 C 
ATOM     17  C   UNL     1       0.966  43.815   7.971  1.00  0.00     0.012 C 
ATOM     18  C   UNL     1       1.262  42.839  10.871  1.00  0.00     0.000 C 
ATOM     19  C   UNL     1       3.379  42.523   9.299  1.00  0.00     0.005 C 
ATOM     20  C   UNL     1       2.610  42.064  10.596  1.00  0.00     0.003 C 
ATOM     21  C   UNL     1       0.757  42.723  12.333  1.00  0.00     0.031 C 
ATOM     22  C   UNL     1       3.508  41.825  11.878  1.00  0.00    -0.008 C 
ATOM     23  C   UNL     1       1.333  41.572  13.098  1.00  0.00    -0.027 C 
ATOM     24  C   UNL     1       2.620  41.194  12.964  1.00  0.00    -0.065 C 
ATOM     25  C   UNL     1       4.686  40.852  11.514  1.00  0.00     0.014 C 
ATOM     26  C   UNL     1       4.104  43.143  12.421  1.00  0.00     0.016 C 
ATOM     27  C   UNL     1       3.202  40.286  14.030  1.00  0.00     0.063 C 
ATOM     28  C   UNL     1       5.309  40.121  12.707  1.00  0.00     0.033 C 
ATOM     29  C   UNL     1       4.243  39.328  13.461  1.00  0.00     0.118 C 
BRANCH  29  30
ATOM     30  O   UNL     1       4.831  38.612  14.515  1.00  0.00    -0.393 OA
ATOM     31  H   UNL     1       4.455  38.980  15.357  1.00  0.00     0.210 HD
ENDBRANCH  29  30
ENDBRANCH   1  11
TORSDOF 6
ENDMDL
