MODEL 1
REMARK VINA RESULT:     3.317      0.000      0.000
REMARK INTER + INTRA:           5.590
REMARK INTER:                   6.226
REMARK INTRA:                  -0.636
REMARK UNBOUND:                -0.636
REMARK SMILES CCCCCCCCC=CCCCCCCCC(=O)[O-]
REMARK SMILES IDX 10 1 9 2 11 3 12 4 13 5 14 6 15 7 16 8 17 9 18 10 19 11
REMARK SMILES IDX 20 12 8 13 7 14 6 15 5 16 4 17 3 18 2 19 1 20
REMARK H PARENT
REMARK Flexibility Score: inf
ROOT
ATOM      1  C   UNL     1      18.231   1.577  25.238  1.00  0.00    -0.031 C 
ATOM      2  C   UNL     1      19.523   1.938  25.262  1.00  0.00    -0.031 C 
ENDROOT
BRANCH   1   3
ATOM      3  C   UNL     1      17.156   2.521  24.771  1.00  0.00     0.027 C 
BRANCH   3   4
ATOM      4  C   UNL     1      16.779   3.529  25.864  1.00  0.00     0.004 C 
BRANCH   4   5
ATOM      5  C   UNL     1      15.274   3.505  26.182  1.00  0.00     0.000 C 
BRANCH   5   6
ATOM      6  C   UNL     1      14.618   2.157  25.815  1.00  0.00     0.000 C 
BRANCH   6   7
ATOM      7  C   UNL     1      13.178   2.293  25.284  1.00  0.00     0.000 C 
BRANCH   7   8
ATOM      8  C   UNL     1      13.058   2.385  23.750  1.00  0.00     0.006 C 
BRANCH   8   9
ATOM      9  C   UNL     1      13.858   3.538  23.120  1.00  0.00     0.053 C 
BRANCH   9  10
ATOM     10  C   UNL     1      12.980   4.697  22.761  1.00  0.00     0.041 C 
ATOM     11  O   UNL     1      11.864   4.500  22.213  1.00  0.00    -0.550 OA
ATOM     12  O   UNL     1      13.380   5.993  23.062  1.00  0.00    -0.550 OA
ENDBRANCH   9  10
ENDBRANCH   8   9
ENDBRANCH   7   8
ENDBRANCH   6   7
ENDBRANCH   5   6
ENDBRANCH   4   5
ENDBRANCH   3   4
ENDBRANCH   1   3
BRANCH   2  13
ATOM     13  C   UNL     1      20.600   0.992  25.723  1.00  0.00     0.027 C 
BRANCH  13  14
ATOM     14  C   UNL     1      20.303   0.441  27.124  1.00  0.00     0.004 C 
BRANCH  14  15
ATOM     15  C   UNL     1      19.163   1.208  27.818  1.00  0.00     0.000 C 
BRANCH  15  16
ATOM     16  C   UNL     1      19.579   1.773  29.185  1.00  0.00     0.000 C 
BRANCH  16  17
ATOM     17  C   UNL     1      19.151   3.235  29.378  1.00  0.00    -0.000 C 
BRANCH  17  18
ATOM     18  C   UNL     1      18.966   3.561  30.865  1.00  0.00    -0.000 C 
BRANCH  18  19
ATOM     19  C   UNL     1      17.688   4.377  31.094  1.00  0.00    -0.003 C 
ATOM     20  C   UNL     1      16.922   4.581  29.791  1.00  0.00     0.004 C 
ENDBRANCH  18  19
ENDBRANCH  17  18
ENDBRANCH  16  17
ENDBRANCH  15  16
ENDBRANCH  14  15
ENDBRANCH  13  14
ENDBRANCH   2  13
TORSDOF 15
ENDMDL
MODEL 2
REMARK VINA RESULT:     4.025      0.618      1.520
REMARK INTER + INTRA:           6.918
REMARK INTER:                   8.423
REMARK INTRA:                  -1.505
REMARK UNBOUND:                -0.636
REMARK SMILES CCCCCCCCC=CCCCCCCCC(=O)[O-]
REMARK SMILES IDX 10 1 9 2 11 3 12 4 13 5 14 6 15 7 16 8 17 9 18 10 19 11
REMARK SMILES IDX 20 12 8 13 7 14 6 15 5 16 4 17 3 18 2 19 1 20
REMARK H PARENT
REMARK Flexibility Score: inf
ROOT
ATOM      1  C   UNL     1      18.689   1.324  25.792  1.00  0.00    -0.031 C 
ATOM      2  C   UNL     1      20.009   1.149  25.957  1.00  0.00    -0.031 C 
ENDROOT
BRANCH   1   3
ATOM      3  C   UNL     1      18.095   1.620  24.441  1.00  0.00     0.027 C 
BRANCH   3   4
ATOM      4  C   UNL     1      17.063   2.752  24.516  1.00  0.00     0.004 C 
BRANCH   4   5
ATOM      5  C   UNL     1      16.652   3.070  25.964  1.00  0.00     0.000 C 
BRANCH   5   6
ATOM      6  C   UNL     1      15.150   3.401  26.088  1.00  0.00     0.000 C 
BRANCH   6   7
ATOM      7  C   UNL     1      14.224   2.261  25.622  1.00  0.00     0.000 C 
BRANCH   7   8
ATOM      8  C   UNL     1      13.304   2.616  24.437  1.00  0.00     0.006 C 
BRANCH   8   9
ATOM      9  C   UNL     1      13.976   3.467  23.347  1.00  0.00     0.053 C 
BRANCH   9  10
ATOM     10  C   UNL     1      13.064   4.536  22.831  1.00  0.00     0.041 C 
ATOM     11  O   UNL     1      13.375   5.750  22.958  1.00  0.00    -0.550 OA
ATOM     12  O   UNL     1      11.885   4.193  22.180  1.00  0.00    -0.550 OA
ENDBRANCH   9  10
ENDBRANCH   8   9
ENDBRANCH   7   8
ENDBRANCH   6   7
ENDBRANCH   5   6
ENDBRANCH   4   5
ENDBRANCH   3   4
ENDBRANCH   1   3
BRANCH   2  13
ATOM     13  C   UNL     1      20.604   0.848  27.307  1.00  0.00     0.027 C 
BRANCH  13  14
ATOM     14  C   UNL     1      19.534   0.843  28.406  1.00  0.00     0.004 C 
BRANCH  14  15
ATOM     15  C   UNL     1      19.830   1.876  29.507  1.00  0.00     0.000 C 
BRANCH  15  16
ATOM     16  C   UNL     1      18.896   3.095  29.440  1.00  0.00     0.000 C 
BRANCH  16  17
ATOM     17  C   UNL     1      18.734   3.792  30.799  1.00  0.00    -0.000 C 
BRANCH  17  18
ATOM     18  C   UNL     1      17.423   4.588  30.854  1.00  0.00    -0.000 C 
BRANCH  18  19
ATOM     19  C   UNL     1      16.765   4.658  29.471  1.00  0.00    -0.003 C 
ATOM     20  C   UNL     1      15.332   5.173  29.568  1.00  0.00     0.004 C 
ENDBRANCH  18  19
ENDBRANCH  17  18
ENDBRANCH  16  17
ENDBRANCH  15  16
ENDBRANCH  14  15
ENDBRANCH  13  14
ENDBRANCH   2  13
TORSDOF 15
ENDMDL
MODEL 3
REMARK VINA RESULT:     4.055      2.705      6.923
REMARK INTER + INTRA:           6.975
REMARK INTER:                   7.832
REMARK INTRA:                  -0.858
REMARK UNBOUND:                -0.636
REMARK SMILES CCCCCCCCC=CCCCCCCCC(=O)[O-]
REMARK SMILES IDX 10 1 9 2 11 3 12 4 13 5 14 6 15 7 16 8 17 9 18 10 19 11
REMARK SMILES IDX 20 12 8 13 7 14 6 15 5 16 4 17 3 18 2 19 1 20
REMARK H PARENT
REMARK Flexibility Score: inf
ROOT
ATOM      1  C   UNL     1      19.426   1.896  25.035  1.00  0.00    -0.031 C 
ATOM      2  C   UNL     1      18.121   1.605  25.138  1.00  0.00    -0.031 C 
ENDROOT
BRANCH   1   3
ATOM      3  C   UNL     1      20.490   0.880  25.352  1.00  0.00     0.027 C 
BRANCH   3   4
ATOM      4  C   UNL     1      20.777   0.817  26.858  1.00  0.00     0.004 C 
BRANCH   4   5
ATOM      5  C   UNL     1      19.490   0.684  27.690  1.00  0.00     0.000 C 
BRANCH   5   6
ATOM      6  C   UNL     1      19.142   1.985  28.443  1.00  0.00     0.000 C 
BRANCH   6   7
ATOM      7  C   UNL     1      19.708   2.042  29.876  1.00  0.00     0.000 C 
BRANCH   7   8
ATOM      8  C   UNL     1      19.381   3.332  30.652  1.00  0.00     0.006 C 
BRANCH   8   9
ATOM      9  C   UNL     1      18.570   4.365  29.851  1.00  0.00     0.053 C 
BRANCH   9  10
ATOM     10  C   UNL     1      17.176   4.511  30.377  1.00  0.00     0.041 C 
ATOM     11  O   UNL     1      16.961   4.492  31.617  1.00  0.00    -0.550 OA
ATOM     12  O   UNL     1      16.117   4.702  29.498  1.00  0.00    -0.550 OA
ENDBRANCH   9  10
ENDBRANCH   8   9
ENDBRANCH   7   8
ENDBRANCH   6   7
ENDBRANCH   5   6
ENDBRANCH   4   5
ENDBRANCH   3   4
ENDBRANCH   1   3
BRANCH   2  13
ATOM     13  C   UNL     1      17.056   2.619  24.815  1.00  0.00     0.027 C 
BRANCH  13  14
ATOM     14  C   UNL     1      16.549   3.324  26.080  1.00  0.00     0.004 C 
BRANCH  14  15
ATOM     15  C   UNL     1      15.024   3.533  26.053  1.00  0.00     0.000 C 
BRANCH  15  16
ATOM     16  C   UNL     1      14.261   2.261  25.652  1.00  0.00     0.000 C 
BRANCH  16  17
ATOM     17  C   UNL     1      13.230   2.513  24.542  1.00  0.00    -0.000 C 
BRANCH  17  18
ATOM     18  C   UNL     1      13.860   3.280  23.373  1.00  0.00    -0.000 C 
BRANCH  18  19
ATOM     19  C   UNL     1      12.860   4.268  22.760  1.00  0.00    -0.003 C 
ATOM     20  C   UNL     1      13.232   5.709  23.096  1.00  0.00     0.004 C 
ENDBRANCH  18  19
ENDBRANCH  17  18
ENDBRANCH  16  17
ENDBRANCH  15  16
ENDBRANCH  14  15
ENDBRANCH  13  14
ENDBRANCH   2  13
TORSDOF 15
ENDMDL
MODEL 4
REMARK VINA RESULT:     4.402      3.171      7.375
REMARK INTER + INTRA:           7.626
REMARK INTER:                   9.193
REMARK INTRA:                  -1.567
REMARK UNBOUND:                -0.636
REMARK SMILES CCCCCCCCC=CCCCCCCCC(=O)[O-]
REMARK SMILES IDX 10 1 9 2 11 3 12 4 13 5 14 6 15 7 16 8 17 9 18 10 19 11
REMARK SMILES IDX 20 12 8 13 7 14 6 15 5 16 4 17 3 18 2 19 1 20
REMARK H PARENT
REMARK Flexibility Score: inf
ROOT
ATOM      1  C   UNL     1      17.234   1.771  24.988  1.00  0.00    -0.031 C 
ATOM      2  C   UNL     1      17.065   2.946  25.612  1.00  0.00    -0.031 C 
ENDROOT
BRANCH   1   3
ATOM      3  C   UNL     1      18.604   1.212  24.715  1.00  0.00     0.027 C 
BRANCH   3   4
ATOM      4  C   UNL     1      19.701   2.074  25.353  1.00  0.00     0.004 C 
BRANCH   4   5
ATOM      5  C   UNL     1      20.931   1.244  25.758  1.00  0.00     0.000 C 
BRANCH   5   6
ATOM      6  C   UNL     1      20.779   0.615  27.159  1.00  0.00     0.000 C 
BRANCH   6   7
ATOM      7  C   UNL     1      19.429   0.926  27.834  1.00  0.00     0.000 C 
BRANCH   7   8
ATOM      8  C   UNL     1      19.529   1.757  29.129  1.00  0.00     0.006 C 
BRANCH   8   9
ATOM      9  C   UNL     1      18.789   3.104  29.075  1.00  0.00     0.053 C 
BRANCH   9  10
ATOM     10  C   UNL     1      18.632   3.712  30.435  1.00  0.00     0.041 C 
ATOM     11  O   UNL     1      19.501   3.506  31.323  1.00  0.00    -0.550 OA
ATOM     12  O   UNL     1      17.545   4.531  30.711  1.00  0.00    -0.550 OA
ENDBRANCH   9  10
ENDBRANCH   8   9
ENDBRANCH   7   8
ENDBRANCH   6   7
ENDBRANCH   5   6
ENDBRANCH   4   5
ENDBRANCH   3   4
ENDBRANCH   1   3
BRANCH   2  13
ATOM     13  C   UNL     1      15.694   3.504  25.890  1.00  0.00     0.027 C 
BRANCH  13  14
ATOM     14  C   UNL     1      14.639   2.393  25.964  1.00  0.00     0.004 C 
BRANCH  14  15
ATOM     15  C   UNL     1      13.325   2.796  25.271  1.00  0.00     0.000 C 
BRANCH  15  16
ATOM     16  C   UNL     1      13.263   2.330  23.807  1.00  0.00     0.000 C 
BRANCH  16  17
ATOM     17  C   UNL     1      13.701   3.421  22.819  1.00  0.00    -0.000 C 
BRANCH  17  18
ATOM     18  C   UNL     1      12.703   4.585  22.810  1.00  0.00    -0.000 C 
BRANCH  18  19
ATOM     19  C   UNL     1      13.431   5.934  22.809  1.00  0.00    -0.003 C 
ATOM     20  C   UNL     1      13.401   6.579  24.192  1.00  0.00     0.004 C 
ENDBRANCH  18  19
ENDBRANCH  17  18
ENDBRANCH  16  17
ENDBRANCH  15  16
ENDBRANCH  14  15
ENDBRANCH  13  14
ENDBRANCH   2  13
TORSDOF 15
ENDMDL
MODEL 5
REMARK VINA RESULT:     4.612      3.187      7.226
REMARK INTER + INTRA:           8.020
REMARK INTER:                   9.390
REMARK INTRA:                  -1.371
REMARK UNBOUND:                -0.636
REMARK SMILES CCCCCCCCC=CCCCCCCCC(=O)[O-]
REMARK SMILES IDX 10 1 9 2 11 3 12 4 13 5 14 6 15 7 16 8 17 9 18 10 19 11
REMARK SMILES IDX 20 12 8 13 7 14 6 15 5 16 4 17 3 18 2 19 1 20
REMARK H PARENT
REMARK Flexibility Score: inf
ROOT
ATOM      1  C   UNL     1      17.040   4.609  29.130  1.00  0.00    -0.031 C 
ATOM      2  C   UNL     1      15.816   4.645  28.584  1.00  0.00    -0.031 C 
ENDROOT
BRANCH   1   3
ATOM      3  C   UNL     1      17.238   4.577  30.622  1.00  0.00     0.027 C 
BRANCH   3   4
ATOM      4  C   UNL     1      18.438   3.703  31.012  1.00  0.00     0.004 C 
BRANCH   4   5
ATOM      5  C   UNL     1      19.386   3.456  29.827  1.00  0.00     0.000 C 
BRANCH   5   6
ATOM      6  C   UNL     1      19.808   1.976  29.712  1.00  0.00     0.000 C 
BRANCH   6   7
ATOM      7  C   UNL     1      19.171   1.242  28.516  1.00  0.00     0.000 C 
BRANCH   7   8
ATOM      8  C   UNL     1      18.976   2.105  27.254  1.00  0.00     0.006 C 
BRANCH   8   9
ATOM      9  C   UNL     1      19.138   1.338  25.931  1.00  0.00     0.053 C 
BRANCH   9  10
ATOM     10  C   UNL     1      20.578   1.096  25.597  1.00  0.00     0.041 C 
ATOM     11  O   UNL     1      21.337   2.064  25.328  1.00  0.00    -0.550 OA
ATOM     12  O   UNL     1      21.090  -0.196  25.616  1.00  0.00    -0.550 OA
ENDBRANCH   9  10
ENDBRANCH   8   9
ENDBRANCH   7   8
ENDBRANCH   6   7
ENDBRANCH   5   6
ENDBRANCH   4   5
ENDBRANCH   3   4
ENDBRANCH   1   3
BRANCH   2  13
ATOM     13  C   UNL     1      15.616   4.671  27.091  1.00  0.00     0.027 C 
BRANCH  13  14
ATOM     14  C   UNL     1      16.494   3.628  26.388  1.00  0.00     0.004 C 
BRANCH  14  15
ATOM     15  C   UNL     1      15.708   2.828  25.332  1.00  0.00     0.000 C 
BRANCH  15  16
ATOM     16  C   UNL     1      14.237   2.619  25.725  1.00  0.00     0.000 C 
BRANCH  16  17
ATOM     17  C   UNL     1      13.309   2.510  24.506  1.00  0.00    -0.000 C 
BRANCH  17  18
ATOM     18  C   UNL     1      13.874   3.293  23.315  1.00  0.00    -0.000 C 
BRANCH  18  19
ATOM     19  C   UNL     1      12.831   4.265  22.749  1.00  0.00    -0.003 C 
ATOM     20  C   UNL     1      13.200   5.712  23.061  1.00  0.00     0.004 C 
ENDBRANCH  18  19
ENDBRANCH  17  18
ENDBRANCH  16  17
ENDBRANCH  15  16
ENDBRANCH  14  15
ENDBRANCH  13  14
ENDBRANCH   2  13
TORSDOF 15
ENDMDL
MODEL 6
REMARK VINA RESULT:     4.677      1.112      2.565
REMARK INTER + INTRA:           8.142
REMARK INTER:                   9.684
REMARK INTRA:                  -1.542
REMARK UNBOUND:                -0.636
REMARK SMILES CCCCCCCCC=CCCCCCCCC(=O)[O-]
REMARK SMILES IDX 10 1 9 2 11 3 12 4 13 5 14 6 15 7 16 8 17 9 18 10 19 11
REMARK SMILES IDX 20 12 8 13 7 14 6 15 5 16 4 17 3 18 2 19 1 20
REMARK H PARENT
REMARK Flexibility Score: inf
ROOT
ATOM      1  C   UNL     1      19.943   1.163  26.504  1.00  0.00    -0.031 C 
ATOM      2  C   UNL     1      19.104   1.240  27.548  1.00  0.00    -0.031 C 
ENDROOT
BRANCH   1   3
ATOM      3  C   UNL     1      19.506   1.528  25.111  1.00  0.00     0.027 C 
BRANCH   3   4
ATOM      4  C   UNL     1      17.990   1.373  24.937  1.00  0.00     0.004 C 
BRANCH   4   5
ATOM      5  C   UNL     1      17.288   2.725  24.727  1.00  0.00     0.000 C 
BRANCH   5   6
ATOM      6  C   UNL     1      16.720   3.302  26.041  1.00  0.00     0.000 C 
BRANCH   6   7
ATOM      7  C   UNL     1      15.185   3.430  26.049  1.00  0.00     0.000 C 
BRANCH   7   8
ATOM      8  C   UNL     1      14.435   2.287  25.337  1.00  0.00     0.006 C 
BRANCH   8   9
ATOM      9  C   UNL     1      13.148   2.724  24.619  1.00  0.00     0.053 C 
BRANCH   9  10
ATOM     10  C   UNL     1      13.438   3.439  23.336  1.00  0.00     0.041 C 
ATOM     11  O   UNL     1      13.988   2.829  22.382  1.00  0.00    -0.550 OA
ATOM     12  O   UNL     1      13.072   4.771  23.182  1.00  0.00    -0.550 OA
ENDBRANCH   9  10
ENDBRANCH   8   9
ENDBRANCH   7   8
ENDBRANCH   6   7
ENDBRANCH   5   6
ENDBRANCH   4   5
ENDBRANCH   3   4
ENDBRANCH   1   3
BRANCH   2  13
ATOM     13  C   UNL     1      19.541   0.880  28.943  1.00  0.00     0.027 C 
BRANCH  13  14
ATOM     14  C   UNL     1      19.997   2.118  29.727  1.00  0.00     0.004 C 
BRANCH  14  15
ATOM     15  C   UNL     1      19.021   3.298  29.563  1.00  0.00     0.000 C 
BRANCH  15  16
ATOM     16  C   UNL     1      18.693   3.982  30.900  1.00  0.00     0.000 C 
BRANCH  16  17
ATOM     17  C   UNL     1      17.251   4.508  30.957  1.00  0.00    -0.000 C 
BRANCH  17  18
ATOM     18  C   UNL     1      16.764   4.925  29.564  1.00  0.00    -0.000 C 
BRANCH  18  19
ATOM     19  C   UNL     1      15.254   4.705  29.420  1.00  0.00    -0.003 C 
ATOM     20  C   UNL     1      14.473   5.954  29.819  1.00  0.00     0.004 C 
ENDBRANCH  18  19
ENDBRANCH  17  18
ENDBRANCH  16  17
ENDBRANCH  15  16
ENDBRANCH  14  15
ENDBRANCH  13  14
ENDBRANCH   2  13
TORSDOF 15
ENDMDL
MODEL 7
REMARK VINA RESULT:     5.217      0.870      3.820
REMARK INTER + INTRA:           9.155
REMARK INTER:                  10.447
REMARK INTRA:                  -1.291
REMARK UNBOUND:                -0.636
REMARK SMILES CCCCCCCCC=CCCCCCCCC(=O)[O-]
REMARK SMILES IDX 10 1 9 2 11 3 12 4 13 5 14 6 15 7 16 8 17 9 18 10 19 11
REMARK SMILES IDX 20 12 8 13 7 14 6 15 5 16 4 17 3 18 2 19 1 20
REMARK H PARENT
REMARK Flexibility Score: inf
ROOT
ATOM      1  C   UNL     1      16.985   4.423  29.078  1.00  0.00    -0.031 C 
ATOM      2  C   UNL     1      17.227   4.345  30.395  1.00  0.00    -0.031 C 
ENDROOT
BRANCH   1   3
ATOM      3  C   UNL     1      15.691   4.977  28.545  1.00  0.00     0.027 C 
BRANCH   3   4
ATOM      4  C   UNL     1      15.607   4.843  27.019  1.00  0.00     0.004 C 
BRANCH   4   5
ATOM      5  C   UNL     1      16.477   3.691  26.488  1.00  0.00     0.000 C 
BRANCH   5   6
ATOM      6  C   UNL     1      15.776   2.896  25.366  1.00  0.00     0.000 C 
BRANCH   6   7
ATOM      7  C   UNL     1      14.347   2.444  25.726  1.00  0.00     0.000 C 
BRANCH   7   8
ATOM      8  C   UNL     1      13.309   2.618  24.601  1.00  0.00     0.006 C 
BRANCH   8   9
ATOM      9  C   UNL     1      13.859   3.280  23.327  1.00  0.00     0.053 C 
BRANCH   9  10
ATOM     10  C   UNL     1      13.029   4.452  22.901  1.00  0.00     0.041 C 
ATOM     11  O   UNL     1      12.048   4.285  22.130  1.00  0.00    -0.550 OA
ATOM     12  O   UNL     1      13.320   5.722  23.382  1.00  0.00    -0.550 OA
ENDBRANCH   9  10
ENDBRANCH   8   9
ENDBRANCH   7   8
ENDBRANCH   6   7
ENDBRANCH   5   6
ENDBRANCH   4   5
ENDBRANCH   3   4
ENDBRANCH   1   3
BRANCH   2  13
ATOM     13  C   UNL     1      18.524   3.796  30.929  1.00  0.00     0.027 C 
BRANCH  13  14
ATOM     14  C   UNL     1      19.504   3.466  29.797  1.00  0.00     0.004 C 
BRANCH  14  15
ATOM     15  C   UNL     1      19.859   1.969  29.757  1.00  0.00     0.000 C 
BRANCH  15  16
ATOM     16  C   UNL     1      19.216   1.241  28.566  1.00  0.00     0.000 C 
BRANCH  16  17
ATOM     17  C   UNL     1      19.087   2.137  27.324  1.00  0.00    -0.000 C 
BRANCH  17  18
ATOM     18  C   UNL     1      18.942   1.292  26.052  1.00  0.00    -0.000 C 
BRANCH  18  19
ATOM     19  C   UNL     1      20.233   1.317  25.225  1.00  0.00    -0.003 C 
ATOM     20  C   UNL     1      21.352   0.552  25.926  1.00  0.00     0.004 C 
ENDBRANCH  18  19
ENDBRANCH  17  18
ENDBRANCH  16  17
ENDBRANCH  15  16
ENDBRANCH  14  15
ENDBRANCH  13  14
ENDBRANCH   2  13
TORSDOF 15
ENDMDL
MODEL 8
REMARK VINA RESULT:     5.368      2.200      6.783
REMARK INTER + INTRA:           9.439
REMARK INTER:                  10.657
REMARK INTRA:                  -1.218
REMARK UNBOUND:                -0.636
REMARK SMILES CCCCCCCCC=CCCCCCCCC(=O)[O-]
REMARK SMILES IDX 10 1 9 2 11 3 12 4 13 5 14 6 15 7 16 8 17 9 18 10 19 11
REMARK SMILES IDX 20 12 8 13 7 14 6 15 5 16 4 17 3 18 2 19 1 20
REMARK H PARENT
REMARK Flexibility Score: inf
ROOT
ATOM      1  C   UNL     1      17.029   4.456  29.500  1.00  0.00    -0.031 C 
ATOM      2  C   UNL     1      15.843   4.968  29.138  1.00  0.00    -0.031 C 
ENDROOT
BRANCH   1   3
ATOM      3  C   UNL     1      17.472   4.431  30.938  1.00  0.00     0.027 C 
BRANCH   3   4
ATOM      4  C   UNL     1      18.885   3.848  31.081  1.00  0.00     0.004 C 
BRANCH   4   5
ATOM      5  C   UNL     1      19.426   3.302  29.750  1.00  0.00     0.000 C 
BRANCH   5   6
ATOM      6  C   UNL     1      19.479   1.759  29.727  1.00  0.00     0.000 C 
BRANCH   6   7
ATOM      7  C   UNL     1      19.662   1.166  28.316  1.00  0.00     0.000 C 
BRANCH   7   8
ATOM      8  C   UNL     1      19.303   2.120  27.160  1.00  0.00     0.006 C 
BRANCH   8   9
ATOM      9  C   UNL     1      19.304   1.460  25.771  1.00  0.00     0.053 C 
BRANCH   9  10
ATOM     10  C   UNL     1      17.937   1.439  25.161  1.00  0.00     0.041 C 
ATOM     11  O   UNL     1      17.630   2.270  24.266  1.00  0.00    -0.550 OA
ATOM     12  O   UNL     1      17.012   0.481  25.557  1.00  0.00    -0.550 OA
ENDBRANCH   9  10
ENDBRANCH   8   9
ENDBRANCH   7   8
ENDBRANCH   6   7
ENDBRANCH   5   6
ENDBRANCH   4   5
ENDBRANCH   3   4
ENDBRANCH   1   3
BRANCH   2  13
ATOM     13  C   UNL     1      15.395   4.988  27.701  1.00  0.00     0.027 C 
BRANCH  13  14
ATOM     14  C   UNL     1      16.077   3.884  26.883  1.00  0.00     0.004 C 
BRANCH  14  15
ATOM     15  C   UNL     1      15.315   3.572  25.583  1.00  0.00     0.000 C 
BRANCH  15  16
ATOM     16  C   UNL     1      14.166   2.573  25.797  1.00  0.00     0.000 C 
BRANCH  16  17
ATOM     17  C   UNL     1      13.253   2.449  24.569  1.00  0.00    -0.000 C 
BRANCH  17  18
ATOM     18  C   UNL     1      13.868   3.156  23.354  1.00  0.00    -0.000 C 
BRANCH  18  19
ATOM     19  C   UNL     1      12.893   4.180  22.762  1.00  0.00    -0.003 C 
ATOM     20  C   UNL     1      13.181   5.584  23.285  1.00  0.00     0.004 C 
ENDBRANCH  18  19
ENDBRANCH  17  18
ENDBRANCH  16  17
ENDBRANCH  15  16
ENDBRANCH  14  15
ENDBRANCH  13  14
ENDBRANCH   2  13
TORSDOF 15
ENDMDL
MODEL 9
REMARK VINA RESULT:     5.616      1.202      4.267
REMARK INTER + INTRA:           9.905
REMARK INTER:                  11.150
REMARK INTRA:                  -1.244
REMARK UNBOUND:                -0.636
REMARK SMILES CCCCCCCCC=CCCCCCCCC(=O)[O-]
REMARK SMILES IDX 10 1 9 2 11 3 12 4 13 5 14 6 15 7 16 8 17 9 18 10 19 11
REMARK SMILES IDX 20 12 8 13 7 14 6 15 5 16 4 17 3 18 2 19 1 20
REMARK H PARENT
REMARK Flexibility Score: inf
ROOT
ATOM      1  C   UNL     1      16.793   4.256  30.353  1.00  0.00    -0.031 C 
ATOM      2  C   UNL     1      18.104   4.465  30.163  1.00  0.00    -0.031 C 
ENDROOT
BRANCH   1   3
ATOM      3  C   UNL     1      15.752   5.139  29.719  1.00  0.00     0.027 C 
BRANCH   3   4
ATOM      4  C   UNL     1      15.957   5.251  28.203  1.00  0.00     0.004 C 
BRANCH   4   5
ATOM      5  C   UNL     1      15.489   3.990  27.458  1.00  0.00     0.000 C 
BRANCH   5   6
ATOM      6  C   UNL     1      16.210   3.805  26.106  1.00  0.00     0.000 C 
BRANCH   6   7
ATOM      7  C   UNL     1      15.534   2.777  25.178  1.00  0.00     0.000 C 
BRANCH   7   8
ATOM      8  C   UNL     1      14.085   2.413  25.560  1.00  0.00     0.006 C 
BRANCH   8   9
ATOM      9  C   UNL     1      13.091   2.458  24.388  1.00  0.00     0.053 C 
BRANCH   9  10
ATOM     10  C   UNL     1      13.492   3.463  23.352  1.00  0.00     0.041 C 
ATOM     11  O   UNL     1      13.156   4.670  23.477  1.00  0.00    -0.550 OA
ATOM     12  O   UNL     1      14.266   3.073  22.266  1.00  0.00    -0.550 OA
ENDBRANCH   9  10
ENDBRANCH   8   9
ENDBRANCH   7   8
ENDBRANCH   6   7
ENDBRANCH   5   6
ENDBRANCH   4   5
ENDBRANCH   3   4
ENDBRANCH   1   3
BRANCH   2  13
ATOM     13  C   UNL     1      19.146   3.579  30.792  1.00  0.00     0.027 C 
BRANCH  13  14
ATOM     14  C   UNL     1      19.506   2.399  29.880  1.00  0.00     0.004 C 
BRANCH  14  15
ATOM     15  C   UNL     1      18.935   2.570  28.460  1.00  0.00     0.000 C 
BRANCH  15  16
ATOM     16  C   UNL     1      19.082   1.299  27.608  1.00  0.00     0.000 C 
BRANCH  16  17
ATOM     17  C   UNL     1      18.770   1.543  26.123  1.00  0.00    -0.000 C 
BRANCH  17  18
ATOM     18  C   UNL     1      20.060   1.746  25.319  1.00  0.00    -0.000 C 
BRANCH  18  19
ATOM     19  C   UNL     1      20.882   0.452  25.261  1.00  0.00    -0.003 C 
ATOM     20  C   UNL     1      22.172   0.581  26.065  1.00  0.00     0.004 C 
ENDBRANCH  18  19
ENDBRANCH  17  18
ENDBRANCH  16  17
ENDBRANCH  15  16
ENDBRANCH  14  15
ENDBRANCH  13  14
ENDBRANCH   2  13
TORSDOF 15
ENDMDL
