MODEL 1
REMARK VINA RESULT:    -6.594      0.000      0.000
REMARK INTER + INTRA:         -20.724
REMARK INTER:                 -16.617
REMARK INTRA:                  -4.107
REMARK UNBOUND:                -4.107
REMARK SMILES CCCCCCCCCCCCCCCCCCCCCCCCCCCC(=O)[O-]
REMARK SMILES IDX 15 1 16 2 17 3 18 4 19 5 20 6 21 7 22 8 23 9 24 10 25 11
REMARK SMILES IDX 26 12 27 13 28 14 29 15 30 16 14 17 13 18 12 19 11 20 10 21
REMARK SMILES IDX 9 22 8 23 7 24 6 25 5 26 4 27 3 28 2 29 1 30
REMARK H PARENT
REMARK Flexibility Score: inf
ROOT
ATOM      1  C   UNL     1       5.776  25.399  43.626  1.00  0.00     0.000 C 
ENDROOT
BRANCH   1   2
ATOM      2  C   UNL     1       6.236  24.155  42.838  1.00  0.00     0.000 C 
BRANCH   2   3
ATOM      3  C   UNL     1       7.763  23.943  42.775  1.00  0.00     0.000 C 
BRANCH   3   4
ATOM      4  C   UNL     1       8.524  24.331  44.054  1.00  0.00     0.000 C 
BRANCH   4   5
ATOM      5  C   UNL     1       8.475  23.232  45.129  1.00  0.00     0.000 C 
BRANCH   5   6
ATOM      6  C   UNL     1       7.812  23.717  46.429  1.00  0.00     0.000 C 
BRANCH   6   7
ATOM      7  C   UNL     1       6.393  23.147  46.605  1.00  0.00     0.000 C 
BRANCH   7   8
ATOM      8  C   UNL     1       6.384  21.620  46.805  1.00  0.00     0.000 C 
BRANCH   8   9
ATOM      9  C   UNL     1       5.191  20.890  46.162  1.00  0.00     0.000 C 
BRANCH   9  10
ATOM     10  C   UNL     1       4.459  21.746  45.118  1.00  0.00     0.000 C 
BRANCH  10  11
ATOM     11  C   UNL     1       4.763  21.261  43.695  1.00  0.00     0.000 C 
BRANCH  11  12
ATOM     12  C   UNL     1       5.748  20.083  43.718  1.00  0.00     0.006 C 
BRANCH  12  13
ATOM     13  C   UNL     1       7.026  20.379  42.924  1.00  0.00     0.053 C 
BRANCH  13  14
ATOM     14  C   UNL     1       8.250  19.885  43.634  1.00  0.00     0.041 C 
ATOM     15  O   UNL     1       9.394  20.169  43.194  1.00  0.00    -0.550 OA
ATOM     16  O   UNL     1       8.124  19.085  44.763  1.00  0.00    -0.550 OA
ENDBRANCH  13  14
ENDBRANCH  12  13
ENDBRANCH  11  12
ENDBRANCH  10  11
ENDBRANCH   9  10
ENDBRANCH   8   9
ENDBRANCH   7   8
ENDBRANCH   6   7
ENDBRANCH   5   6
ENDBRANCH   4   5
ENDBRANCH   3   4
ENDBRANCH   2   3
ENDBRANCH   1   2
BRANCH   1  17
ATOM     17  C   UNL     1       4.423  25.249  44.344  1.00  0.00     0.000 C 
BRANCH  17  18
ATOM     18  C   UNL     1       3.242  25.125  43.370  1.00  0.00     0.000 C 
BRANCH  18  19
ATOM     19  C   UNL     1       2.096  26.060  43.775  1.00  0.00     0.000 C 
BRANCH  19  20
ATOM     20  C   UNL     1       2.046  27.292  42.858  1.00  0.00     0.000 C 
BRANCH  20  21
ATOM     21  C   UNL     1       1.022  28.340  43.330  1.00  0.00     0.000 C 
BRANCH  21  22
ATOM     22  C   UNL     1       0.210  27.906  44.571  1.00  0.00    -0.000 C 
BRANCH  22  23
ATOM     23  C   UNL     1      -1.314  27.862  44.338  1.00  0.00    -0.000 C 
BRANCH  23  24
ATOM     24  C   UNL     1      -2.094  29.069  44.886  1.00  0.00    -0.000 C 
BRANCH  24  25
ATOM     25  C   UNL     1      -2.777  29.891  43.777  1.00  0.00    -0.000 C 
BRANCH  25  26
ATOM     26  C   UNL     1      -1.875  31.008  43.232  1.00  0.00    -0.000 C 
BRANCH  26  27
ATOM     27  C   UNL     1      -1.671  30.922  41.712  1.00  0.00    -0.000 C 
BRANCH  27  28
ATOM     28  C   UNL     1      -2.268  29.622  41.154  1.00  0.00    -0.000 C 
BRANCH  28  29
ATOM     29  C   UNL     1      -1.219  28.737  40.463  1.00  0.00    -0.003 C 
ATOM     30  C   UNL     1      -0.002  29.529  39.985  1.00  0.00     0.004 C 
ENDBRANCH  28  29
ENDBRANCH  27  28
ENDBRANCH  26  27
ENDBRANCH  25  26
ENDBRANCH  24  25
ENDBRANCH  23  24
ENDBRANCH  22  23
ENDBRANCH  21  22
ENDBRANCH  20  21
ENDBRANCH  19  20
ENDBRANCH  18  19
ENDBRANCH  17  18
ENDBRANCH   1  17
TORSDOF 26
ENDMDL
MODEL 2
REMARK VINA RESULT:    -6.512      1.151      2.516
REMARK INTER + INTRA:         -20.517
REMARK INTER:                 -16.316
REMARK INTRA:                  -4.201
REMARK UNBOUND:                -4.107
REMARK SMILES CCCCCCCCCCCCCCCCCCCCCCCCCCCC(=O)[O-]
REMARK SMILES IDX 15 1 16 2 17 3 18 4 19 5 20 6 21 7 22 8 23 9 24 10 25 11
REMARK SMILES IDX 26 12 27 13 28 14 29 15 30 16 14 17 13 18 12 19 11 20 10 21
REMARK SMILES IDX 9 22 8 23 7 24 6 25 5 26 4 27 3 28 2 29 1 30
REMARK H PARENT
REMARK Flexibility Score: inf
ROOT
ATOM      1  C   UNL     1       3.537  23.055  43.923  1.00  0.00     0.000 C 
ENDROOT
BRANCH   1   2
ATOM      2  C   UNL     1       4.525  21.937  44.318  1.00  0.00     0.000 C 
BRANCH   2   3
ATOM      3  C   UNL     1       4.622  21.648  45.831  1.00  0.00     0.000 C 
BRANCH   3   4
ATOM      4  C   UNL     1       6.043  21.728  46.414  1.00  0.00     0.000 C 
BRANCH   4   5
ATOM      5  C   UNL     1       6.625  23.152  46.364  1.00  0.00     0.000 C 
BRANCH   5   6
ATOM      6  C   UNL     1       8.151  23.151  46.174  1.00  0.00     0.000 C 
BRANCH   6   7
ATOM      7  C   UNL     1       8.573  23.839  44.864  1.00  0.00     0.000 C 
BRANCH   7   8
ATOM      8  C   UNL     1       7.411  24.585  44.182  1.00  0.00     0.000 C 
BRANCH   8   9
ATOM      9  C   UNL     1       6.991  24.016  42.814  1.00  0.00     0.000 C 
BRANCH   9  10
ATOM     10  C   UNL     1       7.896  22.868  42.342  1.00  0.00     0.000 C 
BRANCH  10  11
ATOM     11  C   UNL     1       7.070  21.624  41.990  1.00  0.00     0.000 C 
BRANCH  11  12
ATOM     12  C   UNL     1       7.307  20.502  43.011  1.00  0.00     0.006 C 
BRANCH  12  13
ATOM     13  C   UNL     1       8.758  20.462  43.504  1.00  0.00     0.053 C 
BRANCH  13  14
ATOM     14  C   UNL     1       8.968  19.389  44.529  1.00  0.00     0.041 C 
ATOM     15  O   UNL     1       9.054  18.184  44.176  1.00  0.00    -0.550 OA
ATOM     16  O   UNL     1       9.037  19.719  45.878  1.00  0.00    -0.550 OA
ENDBRANCH  13  14
ENDBRANCH  12  13
ENDBRANCH  11  12
ENDBRANCH  10  11
ENDBRANCH   9  10
ENDBRANCH   8   9
ENDBRANCH   7   8
ENDBRANCH   6   7
ENDBRANCH   5   6
ENDBRANCH   4   5
ENDBRANCH   3   4
ENDBRANCH   2   3
ENDBRANCH   1   2
BRANCH   1  17
ATOM     17  C   UNL     1       3.682  24.360  44.726  1.00  0.00     0.000 C 
BRANCH  17  18
ATOM     18  C   UNL     1       2.591  25.389  44.393  1.00  0.00     0.000 C 
BRANCH  18  19
ATOM     19  C   UNL     1       2.969  26.207  43.152  1.00  0.00     0.000 C 
BRANCH  19  20
ATOM     20  C   UNL     1       1.988  27.373  42.949  1.00  0.00     0.000 C 
BRANCH  20  21
ATOM     21  C   UNL     1       0.518  26.918  42.953  1.00  0.00     0.000 C 
BRANCH  21  22
ATOM     22  C   UNL     1      -0.369  27.675  43.967  1.00  0.00    -0.000 C 
BRANCH  22  23
ATOM     23  C   UNL     1       0.302  28.923  44.577  1.00  0.00    -0.000 C 
BRANCH  23  24
ATOM     24  C   UNL     1      -0.519  30.219  44.482  1.00  0.00    -0.000 C 
BRANCH  24  25
ATOM     25  C   UNL     1      -1.965  29.977  44.011  1.00  0.00    -0.000 C 
BRANCH  25  26
ATOM     26  C   UNL     1      -2.331  30.818  42.778  1.00  0.00    -0.000 C 
BRANCH  26  27
ATOM     27  C   UNL     1      -1.101  31.396  42.064  1.00  0.00    -0.000 C 
BRANCH  27  28
ATOM     28  C   UNL     1      -0.758  30.573  40.813  1.00  0.00    -0.000 C 
BRANCH  28  29
ATOM     29  C   UNL     1       0.680  30.033  40.836  1.00  0.00    -0.003 C 
ATOM     30  C   UNL     1       0.912  28.931  39.801  1.00  0.00     0.004 C 
ENDBRANCH  28  29
ENDBRANCH  27  28
ENDBRANCH  26  27
ENDBRANCH  25  26
ENDBRANCH  24  25
ENDBRANCH  23  24
ENDBRANCH  22  23
ENDBRANCH  21  22
ENDBRANCH  20  21
ENDBRANCH  19  20
ENDBRANCH  18  19
ENDBRANCH  17  18
ENDBRANCH   1  17
TORSDOF 26
ENDMDL
MODEL 3
REMARK VINA RESULT:    -6.493      3.699     10.485
REMARK INTER + INTRA:         -20.470
REMARK INTER:                 -16.305
REMARK INTRA:                  -4.165
REMARK UNBOUND:                -4.107
REMARK SMILES CCCCCCCCCCCCCCCCCCCCCCCCCCCC(=O)[O-]
REMARK SMILES IDX 15 1 16 2 17 3 18 4 19 5 20 6 21 7 22 8 23 9 24 10 25 11
REMARK SMILES IDX 26 12 27 13 28 14 29 15 30 16 14 17 13 18 12 19 11 20 10 21
REMARK SMILES IDX 9 22 8 23 7 24 6 25 5 26 4 27 3 28 2 29 1 30
REMARK H PARENT
REMARK Flexibility Score: inf
ROOT
ATOM      1  C   UNL     1       5.849  24.944  43.067  1.00  0.00     0.000 C 
ENDROOT
BRANCH   1   2
ATOM      2  C   UNL     1       4.363  24.906  42.655  1.00  0.00     0.000 C 
BRANCH   2   3
ATOM      3  C   UNL     1       3.525  26.124  43.096  1.00  0.00     0.000 C 
BRANCH   3   4
ATOM      4  C   UNL     1       2.180  25.778  43.759  1.00  0.00     0.000 C 
BRANCH   4   5
ATOM      5  C   UNL     1       1.147  26.910  43.630  1.00  0.00     0.000 C 
BRANCH   5   6
ATOM      6  C   UNL     1       1.230  27.622  42.269  1.00  0.00     0.000 C 
BRANCH   6   7
ATOM      7  C   UNL     1       1.480  29.133  42.420  1.00  0.00     0.000 C 
BRANCH   7   8
ATOM      8  C   UNL     1       1.365  29.892  41.086  1.00  0.00     0.000 C 
BRANCH   8   9
ATOM      9  C   UNL     1      -0.042  29.898  40.462  1.00  0.00     0.000 C 
BRANCH   9  10
ATOM     10  C   UNL     1      -1.050  30.729  41.270  1.00  0.00     0.000 C 
BRANCH  10  11
ATOM     11  C   UNL     1      -2.353  29.950  41.493  1.00  0.00     0.000 C 
BRANCH  11  12
ATOM     12  C   UNL     1      -2.761  29.980  42.974  1.00  0.00     0.006 C 
BRANCH  12  13
ATOM     13  C   UNL     1      -2.142  28.827  43.772  1.00  0.00     0.053 C 
BRANCH  13  14
ATOM     14  C   UNL     1      -1.322  29.324  44.923  1.00  0.00     0.041 C 
ATOM     15  O   UNL     1      -0.939  30.522  44.957  1.00  0.00    -0.550 OA
ATOM     16  O   UNL     1      -0.954  28.453  45.942  1.00  0.00    -0.550 OA
ENDBRANCH  13  14
ENDBRANCH  12  13
ENDBRANCH  11  12
ENDBRANCH  10  11
ENDBRANCH   9  10
ENDBRANCH   8   9
ENDBRANCH   7   8
ENDBRANCH   6   7
ENDBRANCH   5   6
ENDBRANCH   4   5
ENDBRANCH   3   4
ENDBRANCH   2   3
ENDBRANCH   1   2
BRANCH   1  17
ATOM     17  C   UNL     1       6.708  23.796  42.507  1.00  0.00     0.000 C 
BRANCH  17  18
ATOM     18  C   UNL     1       8.124  23.767  43.099  1.00  0.00     0.000 C 
BRANCH  18  19
ATOM     19  C   UNL     1       8.152  24.418  44.487  1.00  0.00     0.000 C 
BRANCH  19  20
ATOM     20  C   UNL     1       7.981  23.360  45.589  1.00  0.00     0.000 C 
BRANCH  20  21
ATOM     21  C   UNL     1       6.595  23.420  46.257  1.00  0.00     0.000 C 
BRANCH  21  22
ATOM     22  C   UNL     1       6.189  22.113  46.975  1.00  0.00    -0.000 C 
BRANCH  22  23
ATOM     23  C   UNL     1       5.134  21.283  46.216  1.00  0.00    -0.000 C 
BRANCH  23  24
ATOM     24  C   UNL     1       4.538  21.963  44.973  1.00  0.00    -0.000 C 
BRANCH  24  25
ATOM     25  C   UNL     1       4.784  21.165  43.679  1.00  0.00    -0.000 C 
BRANCH  25  26
ATOM     26  C   UNL     1       5.854  20.076  43.855  1.00  0.00    -0.000 C 
BRANCH  26  27
ATOM     27  C   UNL     1       7.009  20.208  42.851  1.00  0.00    -0.000 C 
BRANCH  27  28
ATOM     28  C   UNL     1       8.366  20.054  43.556  1.00  0.00    -0.000 C 
BRANCH  28  29
ATOM     29  C   UNL     1       8.224  19.788  45.063  1.00  0.00    -0.003 C 
ATOM     30  C   UNL     1       9.572  19.716  45.778  1.00  0.00     0.004 C 
ENDBRANCH  28  29
ENDBRANCH  27  28
ENDBRANCH  26  27
ENDBRANCH  25  26
ENDBRANCH  24  25
ENDBRANCH  23  24
ENDBRANCH  22  23
ENDBRANCH  21  22
ENDBRANCH  20  21
ENDBRANCH  19  20
ENDBRANCH  18  19
ENDBRANCH  17  18
ENDBRANCH   1  17
TORSDOF 26
ENDMDL
MODEL 4
REMARK VINA RESULT:    -6.452      3.726     10.729
REMARK INTER + INTRA:         -20.367
REMARK INTER:                 -16.779
REMARK INTRA:                  -3.588
REMARK UNBOUND:                -4.107
REMARK SMILES CCCCCCCCCCCCCCCCCCCCCCCCCCCC(=O)[O-]
REMARK SMILES IDX 15 1 16 2 17 3 18 4 19 5 20 6 21 7 22 8 23 9 24 10 25 11
REMARK SMILES IDX 26 12 27 13 28 14 29 15 30 16 14 17 13 18 12 19 11 20 10 21
REMARK SMILES IDX 9 22 8 23 7 24 6 25 5 26 4 27 3 28 2 29 1 30
REMARK H PARENT
REMARK Flexibility Score: inf
ROOT
ATOM      1  C   UNL     1       4.471  24.664  44.608  1.00  0.00     0.000 C 
ENDROOT
BRANCH   1   2
ATOM      2  C   UNL     1       2.995  24.975  44.282  1.00  0.00     0.000 C 
BRANCH   2   3
ATOM      3  C   UNL     1       2.771  26.119  43.271  1.00  0.00     0.000 C 
BRANCH   3   4
ATOM      4  C   UNL     1       1.486  26.935  43.493  1.00  0.00     0.000 C 
BRANCH   4   5
ATOM      5  C   UNL     1       1.386  28.150  42.554  1.00  0.00     0.000 C 
BRANCH   5   6
ATOM      6  C   UNL     1       0.774  27.784  41.192  1.00  0.00     0.000 C 
BRANCH   6   7
ATOM      7  C   UNL     1       0.583  29.017  40.292  1.00  0.00     0.000 C 
BRANCH   7   8
ATOM      8  C   UNL     1       0.375  30.315  41.094  1.00  0.00     0.000 C 
BRANCH   8   9
ATOM      9  C   UNL     1      -0.882  31.117  40.714  1.00  0.00     0.000 C 
BRANCH   9  10
ATOM     10  C   UNL     1      -2.187  30.389  41.071  1.00  0.00     0.000 C 
BRANCH  10  11
ATOM     11  C   UNL     1      -2.690  30.806  42.458  1.00  0.00     0.000 C 
BRANCH  11  12
ATOM     12  C   UNL     1      -3.060  29.576  43.299  1.00  0.00     0.006 C 
BRANCH  12  13
ATOM     13  C   UNL     1      -1.841  28.704  43.622  1.00  0.00     0.053 C 
BRANCH  13  14
ATOM     14  C   UNL     1      -1.442  28.816  45.062  1.00  0.00     0.041 C 
ATOM     15  O   UNL     1      -1.615  27.845  45.844  1.00  0.00    -0.550 OA
ATOM     16  O   UNL     1      -0.909  30.005  45.545  1.00  0.00    -0.550 OA
ENDBRANCH  13  14
ENDBRANCH  12  13
ENDBRANCH  11  12
ENDBRANCH  10  11
ENDBRANCH   9  10
ENDBRANCH   8   9
ENDBRANCH   7   8
ENDBRANCH   6   7
ENDBRANCH   5   6
ENDBRANCH   4   5
ENDBRANCH   3   4
ENDBRANCH   2   3
ENDBRANCH   1   2
BRANCH   1  17
ATOM     17  C   UNL     1       5.493  25.272  43.630  1.00  0.00     0.000 C 
BRANCH  17  18
ATOM     18  C   UNL     1       6.400  24.215  42.982  1.00  0.00     0.000 C 
BRANCH  18  19
ATOM     19  C   UNL     1       5.569  23.107  42.324  1.00  0.00     0.000 C 
BRANCH  19  20
ATOM     20  C   UNL     1       6.461  21.921  41.924  1.00  0.00     0.000 C 
BRANCH  20  21
ATOM     21  C   UNL     1       5.766  20.563  42.125  1.00  0.00     0.000 C 
BRANCH  21  22
ATOM     22  C   UNL     1       5.705  20.104  43.600  1.00  0.00    -0.000 C 
BRANCH  22  23
ATOM     23  C   UNL     1       4.470  20.620  44.366  1.00  0.00    -0.000 C 
BRANCH  23  24
ATOM     24  C   UNL     1       4.769  21.273  45.725  1.00  0.00    -0.000 C 
BRANCH  24  25
ATOM     25  C   UNL     1       6.232  21.087  46.167  1.00  0.00    -0.000 C 
BRANCH  25  26
ATOM     26  C   UNL     1       6.997  22.418  46.243  1.00  0.00    -0.000 C 
BRANCH  26  27
ATOM     27  C   UNL     1       8.494  22.263  45.935  1.00  0.00    -0.000 C 
BRANCH  27  28
ATOM     28  C   UNL     1       8.714  21.897  44.459  1.00  0.00    -0.000 C 
BRANCH  28  29
ATOM     29  C   UNL     1       9.482  20.579  44.284  1.00  0.00    -0.003 C 
ATOM     30  C   UNL     1      10.277  20.189  45.531  1.00  0.00     0.004 C 
ENDBRANCH  28  29
ENDBRANCH  27  28
ENDBRANCH  26  27
ENDBRANCH  25  26
ENDBRANCH  24  25
ENDBRANCH  23  24
ENDBRANCH  22  23
ENDBRANCH  21  22
ENDBRANCH  20  21
ENDBRANCH  19  20
ENDBRANCH  18  19
ENDBRANCH  17  18
ENDBRANCH   1  17
TORSDOF 26
ENDMDL
MODEL 5
REMARK VINA RESULT:    -6.446      1.253      2.984
REMARK INTER + INTRA:         -20.351
REMARK INTER:                 -16.177
REMARK INTRA:                  -4.174
REMARK UNBOUND:                -4.107
REMARK SMILES CCCCCCCCCCCCCCCCCCCCCCCCCCCC(=O)[O-]
REMARK SMILES IDX 15 1 16 2 17 3 18 4 19 5 20 6 21 7 22 8 23 9 24 10 25 11
REMARK SMILES IDX 26 12 27 13 28 14 29 15 30 16 14 17 13 18 12 19 11 20 10 21
REMARK SMILES IDX 9 22 8 23 7 24 6 25 5 26 4 27 3 28 2 29 1 30
REMARK H PARENT
REMARK Flexibility Score: inf
ROOT
ATOM      1  C   UNL     1       4.079  24.643  44.969  1.00  0.00     0.000 C 
ENDROOT
BRANCH   1   2
ATOM      2  C   UNL     1       4.420  23.151  45.169  1.00  0.00     0.000 C 
BRANCH   2   3
ATOM      3  C   UNL     1       4.101  22.236  43.968  1.00  0.00     0.000 C 
BRANCH   3   4
ATOM      4  C   UNL     1       4.784  20.858  44.006  1.00  0.00     0.000 C 
BRANCH   4   5
ATOM      5  C   UNL     1       6.012  20.780  43.084  1.00  0.00     0.000 C 
BRANCH   5   6
ATOM      6  C   UNL     1       6.077  21.958  42.098  1.00  0.00     0.000 C 
BRANCH   6   7
ATOM      7  C   UNL     1       7.345  22.808  42.292  1.00  0.00     0.000 C 
BRANCH   7   8
ATOM      8  C   UNL     1       7.048  24.195  42.890  1.00  0.00     0.000 C 
BRANCH   8   9
ATOM      9  C   UNL     1       8.054  24.672  43.954  1.00  0.00     0.000 C 
BRANCH   9  10
ATOM     10  C   UNL     1       8.797  23.512  44.634  1.00  0.00     0.000 C 
BRANCH  10  11
ATOM     11  C   UNL     1       7.929  22.862  45.719  1.00  0.00     0.000 C 
BRANCH  11  12
ATOM     12  C   UNL     1       8.274  21.373  45.875  1.00  0.00     0.006 C 
BRANCH  12  13
ATOM     13  C   UNL     1       9.616  21.015  45.226  1.00  0.00     0.053 C 
BRANCH  13  14
ATOM     14  C   UNL     1       9.727  19.547  44.950  1.00  0.00     0.041 C 
ATOM     15  O   UNL     1       8.876  18.975  44.220  1.00  0.00    -0.550 OA
ATOM     16  O   UNL     1      10.752  18.806  45.526  1.00  0.00    -0.550 OA
ENDBRANCH  13  14
ENDBRANCH  12  13
ENDBRANCH  11  12
ENDBRANCH  10  11
ENDBRANCH   9  10
ENDBRANCH   8   9
ENDBRANCH   7   8
ENDBRANCH   6   7
ENDBRANCH   5   6
ENDBRANCH   4   5
ENDBRANCH   3   4
ENDBRANCH   2   3
ENDBRANCH   1   2
BRANCH   1  17
ATOM     17  C   UNL     1       2.915  24.917  44.000  1.00  0.00     0.000 C 
BRANCH  17  18
ATOM     18  C   UNL     1       3.245  26.003  42.965  1.00  0.00     0.000 C 
BRANCH  18  19
ATOM     19  C   UNL     1       2.316  27.213  43.125  1.00  0.00     0.000 C 
BRANCH  19  20
ATOM     20  C   UNL     1       0.852  26.765  43.250  1.00  0.00     0.000 C 
BRANCH  20  21
ATOM     21  C   UNL     1       0.065  27.593  44.282  1.00  0.00     0.000 C 
BRANCH  21  22
ATOM     22  C   UNL     1       0.381  29.105  44.242  1.00  0.00    -0.000 C 
BRANCH  22  23
ATOM     23  C   UNL     1      -0.772  29.999  44.740  1.00  0.00    -0.000 C 
BRANCH  23  24
ATOM     24  C   UNL     1      -2.168  29.356  44.687  1.00  0.00    -0.000 C 
BRANCH  24  25
ATOM     25  C   UNL     1      -2.880  29.585  43.342  1.00  0.00    -0.000 C 
BRANCH  25  26
ATOM     26  C   UNL     1      -2.498  30.926  42.694  1.00  0.00    -0.000 C 
BRANCH  26  27
ATOM     27  C   UNL     1      -1.734  30.753  41.373  1.00  0.00    -0.000 C 
BRANCH  27  28
ATOM     28  C   UNL     1      -1.736  29.283  40.928  1.00  0.00    -0.000 C 
BRANCH  28  29
ATOM     29  C   UNL     1      -0.361  28.814  40.428  1.00  0.00    -0.003 C 
ATOM     30  C   UNL     1       0.734  29.858  40.646  1.00  0.00     0.004 C 
ENDBRANCH  28  29
ENDBRANCH  27  28
ENDBRANCH  26  27
ENDBRANCH  25  26
ENDBRANCH  24  25
ENDBRANCH  23  24
ENDBRANCH  22  23
ENDBRANCH  21  22
ENDBRANCH  20  21
ENDBRANCH  19  20
ENDBRANCH  18  19
ENDBRANCH  17  18
ENDBRANCH   1  17
TORSDOF 26
ENDMDL
MODEL 6
REMARK VINA RESULT:    -6.438      5.216      9.434
REMARK INTER + INTRA:         -20.330
REMARK INTER:                 -16.185
REMARK INTRA:                  -4.145
REMARK UNBOUND:                -4.107
REMARK SMILES CCCCCCCCCCCCCCCCCCCCCCCCCCCC(=O)[O-]
REMARK SMILES IDX 15 1 16 2 17 3 18 4 19 5 20 6 21 7 22 8 23 9 24 10 25 11
REMARK SMILES IDX 26 12 27 13 28 14 29 15 30 16 14 17 13 18 12 19 11 20 10 21
REMARK SMILES IDX 9 22 8 23 7 24 6 25 5 26 4 27 3 28 2 29 1 30
REMARK H PARENT
REMARK Flexibility Score: inf
ROOT
ATOM      1  C   UNL     1       8.855  19.712  44.160  1.00  0.00     0.000 C 
ENDROOT
BRANCH   1   2
ATOM      2  C   UNL     1      10.069  18.761  44.220  1.00  0.00     0.000 C 
BRANCH   2   3
ATOM      3  C   UNL     1      10.895  18.830  45.522  1.00  0.00     0.000 C 
BRANCH   3   4
ATOM      4  C   UNL     1      11.833  17.634  45.756  1.00  0.00     0.000 C 
BRANCH   4   5
ATOM      5  C   UNL     1      12.027  16.776  44.494  1.00  0.00     0.000 C 
BRANCH   5   6
ATOM      6  C   UNL     1      12.236  15.289  44.826  1.00  0.00     0.000 C 
BRANCH   6   7
ATOM      7  C   UNL     1      12.934  14.532  43.682  1.00  0.00     0.000 C 
BRANCH   7   8
ATOM      8  C   UNL     1      13.920  15.416  42.897  1.00  0.00     0.000 C 
BRANCH   8   9
ATOM      9  C   UNL     1      15.402  15.213  43.260  1.00  0.00     0.000 C 
BRANCH   9  10
ATOM     10  C   UNL     1      15.732  15.658  44.693  1.00  0.00     0.000 C 
BRANCH  10  11
ATOM     11  C   UNL     1      15.907  14.449  45.619  1.00  0.00     0.000 C 
BRANCH  11  12
ATOM     12  C   UNL     1      15.889  14.881  47.093  1.00  0.00     0.006 C 
BRANCH  12  13
ATOM     13  C   UNL     1      14.884  16.009  47.356  1.00  0.00     0.053 C 
BRANCH  13  14
ATOM     14  C   UNL     1      13.737  15.546  48.202  1.00  0.00     0.041 C 
ATOM     15  O   UNL     1      13.079  16.374  48.883  1.00  0.00    -0.550 OA
ATOM     16  O   UNL     1      13.418  14.194  48.262  1.00  0.00    -0.550 OA
ENDBRANCH  13  14
ENDBRANCH  12  13
ENDBRANCH  11  12
ENDBRANCH  10  11
ENDBRANCH   9  10
ENDBRANCH   8   9
ENDBRANCH   7   8
ENDBRANCH   6   7
ENDBRANCH   5   6
ENDBRANCH   4   5
ENDBRANCH   3   4
ENDBRANCH   2   3
ENDBRANCH   1   2
BRANCH   1  17
ATOM     17  C   UNL     1       9.192  21.206  44.314  1.00  0.00     0.000 C 
BRANCH  17  18
ATOM     18  C   UNL     1       8.565  21.832  45.568  1.00  0.00     0.000 C 
BRANCH  18  19
ATOM     19  C   UNL     1       7.401  20.978  46.084  1.00  0.00     0.000 C 
BRANCH  19  20
ATOM     20  C   UNL     1       6.127  21.825  46.236  1.00  0.00     0.000 C 
BRANCH  20  21
ATOM     21  C   UNL     1       4.851  21.045  45.871  1.00  0.00     0.000 C 
BRANCH  21  22
ATOM     22  C   UNL     1       4.457  21.152  44.380  1.00  0.00    -0.000 C 
BRANCH  22  23
ATOM     23  C   UNL     1       5.171  20.133  43.469  1.00  0.00    -0.000 C 
BRANCH  23  24
ATOM     24  C   UNL     1       5.987  20.744  42.319  1.00  0.00    -0.000 C 
BRANCH  24  25
ATOM     25  C   UNL     1       5.649  22.225  42.068  1.00  0.00    -0.000 C 
BRANCH  25  26
ATOM     26  C   UNL     1       6.860  23.148  42.275  1.00  0.00    -0.000 C 
BRANCH  26  27
ATOM     27  C   UNL     1       6.701  24.078  43.487  1.00  0.00    -0.000 C 
BRANCH  27  28
ATOM     28  C   UNL     1       5.486  25.002  43.311  1.00  0.00    -0.000 C 
BRANCH  28  29
ATOM     29  C   UNL     1       4.524  24.950  44.508  1.00  0.00    -0.003 C 
ATOM     30  C   UNL     1       3.135  24.441  44.126  1.00  0.00     0.004 C 
ENDBRANCH  28  29
ENDBRANCH  27  28
ENDBRANCH  26  27
ENDBRANCH  25  26
ENDBRANCH  24  25
ENDBRANCH  23  24
ENDBRANCH  22  23
ENDBRANCH  21  22
ENDBRANCH  20  21
ENDBRANCH  19  20
ENDBRANCH  18  19
ENDBRANCH  17  18
ENDBRANCH   1  17
TORSDOF 26
ENDMDL
MODEL 7
REMARK VINA RESULT:    -6.430      3.582     10.384
REMARK INTER + INTRA:         -20.311
REMARK INTER:                 -16.526
REMARK INTRA:                  -3.785
REMARK UNBOUND:                -4.107
REMARK SMILES CCCCCCCCCCCCCCCCCCCCCCCCCCCC(=O)[O-]
REMARK SMILES IDX 15 1 16 2 17 3 18 4 19 5 20 6 21 7 22 8 23 9 24 10 25 11
REMARK SMILES IDX 26 12 27 13 28 14 29 15 30 16 14 17 13 18 12 19 11 20 10 21
REMARK SMILES IDX 9 22 8 23 7 24 6 25 5 26 4 27 3 28 2 29 1 30
REMARK H PARENT
REMARK Flexibility Score: inf
ROOT
ATOM      1  C   UNL     1       6.276  24.989  43.336  1.00  0.00     0.000 C 
ENDROOT
BRANCH   1   2
ATOM      2  C   UNL     1       4.909  24.891  42.627  1.00  0.00     0.000 C 
BRANCH   2   3
ATOM      3  C   UNL     1       3.843  25.897  43.110  1.00  0.00     0.000 C 
BRANCH   3   4
ATOM      4  C   UNL     1       2.870  25.349  44.169  1.00  0.00     0.000 C 
BRANCH   4   5
ATOM      5  C   UNL     1       1.423  25.819  43.944  1.00  0.00     0.000 C 
BRANCH   5   6
ATOM      6  C   UNL     1       1.357  27.201  43.271  1.00  0.00     0.000 C 
BRANCH   6   7
ATOM      7  C   UNL     1      -0.091  27.679  43.067  1.00  0.00     0.000 C 
BRANCH   7   8
ATOM      8  C   UNL     1      -0.921  27.634  44.363  1.00  0.00     0.000 C 
BRANCH   8   9
ATOM      9  C   UNL     1      -2.008  28.719  44.473  1.00  0.00     0.000 C 
BRANCH   9  10
ATOM     10  C   UNL     1      -2.560  29.152  43.107  1.00  0.00     0.000 C 
BRANCH  10  11
ATOM     11  C   UNL     1      -2.345  30.653  42.876  1.00  0.00     0.000 C 
BRANCH  11  12
ATOM     12  C   UNL     1      -1.990  30.936  41.409  1.00  0.00     0.006 C 
BRANCH  12  13
ATOM     13  C   UNL     1      -0.481  30.859  41.150  1.00  0.00     0.053 C 
BRANCH  13  14
ATOM     14  C   UNL     1      -0.130  29.724  40.237  1.00  0.00     0.041 C 
ATOM     15  O   UNL     1      -1.039  29.011  39.736  1.00  0.00    -0.550 OA
ATOM     16  O   UNL     1       1.202  29.435  39.966  1.00  0.00    -0.550 OA
ENDBRANCH  13  14
ENDBRANCH  12  13
ENDBRANCH  11  12
ENDBRANCH  10  11
ENDBRANCH   9  10
ENDBRANCH   8   9
ENDBRANCH   7   8
ENDBRANCH   6   7
ENDBRANCH   5   6
ENDBRANCH   4   5
ENDBRANCH   3   4
ENDBRANCH   2   3
ENDBRANCH   1   2
BRANCH   1  17
ATOM     17  C   UNL     1       7.373  24.079  42.756  1.00  0.00     0.000 C 
BRANCH  17  18
ATOM     18  C   UNL     1       8.143  23.309  43.838  1.00  0.00     0.000 C 
BRANCH  18  19
ATOM     19  C   UNL     1       8.422  24.202  45.054  1.00  0.00     0.000 C 
BRANCH  19  20
ATOM     20  C   UNL     1       8.054  23.477  46.359  1.00  0.00     0.000 C 
BRANCH  20  21
ATOM     21  C   UNL     1       6.550  23.161  46.456  1.00  0.00     0.000 C 
BRANCH  21  22
ATOM     22  C   UNL     1       6.242  21.693  46.829  1.00  0.00    -0.000 C 
BRANCH  22  23
ATOM     23  C   UNL     1       5.037  21.095  46.076  1.00  0.00    -0.000 C 
BRANCH  23  24
ATOM     24  C   UNL     1       4.482  21.964  44.936  1.00  0.00    -0.000 C 
BRANCH  24  25
ATOM     25  C   UNL     1       4.900  21.459  43.542  1.00  0.00    -0.000 C 
BRANCH  25  26
ATOM     26  C   UNL     1       5.551  20.068  43.591  1.00  0.00    -0.000 C 
BRANCH  26  27
ATOM     27  C   UNL     1       7.047  20.097  43.245  1.00  0.00    -0.000 C 
BRANCH  27  28
ATOM     28  C   UNL     1       7.864  19.316  44.285  1.00  0.00    -0.000 C 
BRANCH  28  29
ATOM     29  C   UNL     1       9.377  19.531  44.132  1.00  0.00    -0.003 C 
ATOM     30  C   UNL     1       9.947  20.482  45.184  1.00  0.00     0.004 C 
ENDBRANCH  28  29
ENDBRANCH  27  28
ENDBRANCH  26  27
ENDBRANCH  25  26
ENDBRANCH  24  25
ENDBRANCH  23  24
ENDBRANCH  22  23
ENDBRANCH  21  22
ENDBRANCH  20  21
ENDBRANCH  19  20
ENDBRANCH  18  19
ENDBRANCH  17  18
ENDBRANCH   1  17
TORSDOF 26
ENDMDL
MODEL 8
REMARK VINA RESULT:    -6.421      3.622     10.541
REMARK INTER + INTRA:         -20.287
REMARK INTER:                 -16.346
REMARK INTRA:                  -3.941
REMARK UNBOUND:                -4.107
REMARK SMILES CCCCCCCCCCCCCCCCCCCCCCCCCCCC(=O)[O-]
REMARK SMILES IDX 15 1 16 2 17 3 18 4 19 5 20 6 21 7 22 8 23 9 24 10 25 11
REMARK SMILES IDX 26 12 27 13 28 14 29 15 30 16 14 17 13 18 12 19 11 20 10 21
REMARK SMILES IDX 9 22 8 23 7 24 6 25 5 26 4 27 3 28 2 29 1 30
REMARK H PARENT
REMARK Flexibility Score: inf
ROOT
ATOM      1  C   UNL     1       5.840  25.383  43.624  1.00  0.00     0.000 C 
ENDROOT
BRANCH   1   2
ATOM      2  C   UNL     1       4.381  25.250  43.140  1.00  0.00     0.000 C 
BRANCH   2   3
ATOM      3  C   UNL     1       3.364  24.830  44.221  1.00  0.00     0.000 C 
BRANCH   3   4
ATOM      4  C   UNL     1       1.943  25.386  44.023  1.00  0.00     0.000 C 
BRANCH   4   5
ATOM      5  C   UNL     1       1.937  26.778  43.369  1.00  0.00     0.000 C 
BRANCH   5   6
ATOM      6  C   UNL     1       0.523  27.375  43.282  1.00  0.00     0.000 C 
BRANCH   6   7
ATOM      7  C   UNL     1       0.338  28.570  44.234  1.00  0.00     0.000 C 
BRANCH   7   8
ATOM      8  C   UNL     1      -0.768  28.335  45.279  1.00  0.00     0.000 C 
BRANCH   8   9
ATOM      9  C   UNL     1      -1.971  29.290  45.175  1.00  0.00     0.000 C 
BRANCH   9  10
ATOM     10  C   UNL     1      -2.599  29.309  43.773  1.00  0.00     0.000 C 
BRANCH  10  11
ATOM     11  C   UNL     1      -2.483  30.699  43.136  1.00  0.00     0.000 C 
BRANCH  11  12
ATOM     12  C   UNL     1      -2.231  30.588  41.625  1.00  0.00     0.006 C 
BRANCH  12  13
ATOM     13  C   UNL     1      -0.879  31.184  41.215  1.00  0.00     0.053 C 
BRANCH  13  14
ATOM     14  C   UNL     1       0.036  30.145  40.642  1.00  0.00     0.041 C 
ATOM     15  O   UNL     1       1.225  30.059  41.044  1.00  0.00    -0.550 OA
ATOM     16  O   UNL     1      -0.417  29.295  39.640  1.00  0.00    -0.550 OA
ENDBRANCH  13  14
ENDBRANCH  12  13
ENDBRANCH  11  12
ENDBRANCH  10  11
ENDBRANCH   9  10
ENDBRANCH   8   9
ENDBRANCH   7   8
ENDBRANCH   6   7
ENDBRANCH   5   6
ENDBRANCH   4   5
ENDBRANCH   3   4
ENDBRANCH   2   3
ENDBRANCH   1   2
BRANCH   1  17
ATOM     17  C   UNL     1       6.805  24.316  43.075  1.00  0.00     0.000 C 
BRANCH  17  18
ATOM     18  C   UNL     1       6.081  23.184  42.332  1.00  0.00     0.000 C 
BRANCH  18  19
ATOM     19  C   UNL     1       7.067  22.090  41.903  1.00  0.00     0.000 C 
BRANCH  19  20
ATOM     20  C   UNL     1       6.624  20.718  42.434  1.00  0.00     0.000 C 
BRANCH  20  21
ATOM     21  C   UNL     1       5.229  20.756  43.084  1.00  0.00     0.000 C 
BRANCH  21  22
ATOM     22  C   UNL     1       5.240  20.490  44.606  1.00  0.00    -0.000 C 
BRANCH  22  23
ATOM     23  C   UNL     1       4.616  21.623  45.444  1.00  0.00    -0.000 C 
BRANCH  23  24
ATOM     24  C   UNL     1       5.602  22.396  46.336  1.00  0.00    -0.000 C 
BRANCH  24  25
ATOM     25  C   UNL     1       7.032  21.829  46.275  1.00  0.00    -0.000 C 
BRANCH  25  26
ATOM     26  C   UNL     1       8.074  22.898  45.909  1.00  0.00    -0.000 C 
BRANCH  26  27
ATOM     27  C   UNL     1       9.253  22.331  45.105  1.00  0.00    -0.000 C 
BRANCH  27  28
ATOM     28  C   UNL     1       9.427  20.828  45.375  1.00  0.00    -0.000 C 
BRANCH  28  29
ATOM     29  C   UNL     1       9.617  20.013  44.087  1.00  0.00    -0.003 C 
ATOM     30  C   UNL     1       9.072  18.590  44.204  1.00  0.00     0.004 C 
ENDBRANCH  28  29
ENDBRANCH  27  28
ENDBRANCH  26  27
ENDBRANCH  25  26
ENDBRANCH  24  25
ENDBRANCH  23  24
ENDBRANCH  22  23
ENDBRANCH  21  22
ENDBRANCH  20  21
ENDBRANCH  19  20
ENDBRANCH  18  19
ENDBRANCH  17  18
ENDBRANCH   1  17
TORSDOF 26
ENDMDL
MODEL 9
REMARK VINA RESULT:    -6.355      1.117      2.372
REMARK INTER + INTRA:         -20.121
REMARK INTER:                 -16.338
REMARK INTRA:                  -3.783
REMARK UNBOUND:                -4.107
REMARK SMILES CCCCCCCCCCCCCCCCCCCCCCCCCCCC(=O)[O-]
REMARK SMILES IDX 15 1 16 2 17 3 18 4 19 5 20 6 21 7 22 8 23 9 24 10 25 11
REMARK SMILES IDX 26 12 27 13 28 14 29 15 30 16 14 17 13 18 12 19 11 20 10 21
REMARK SMILES IDX 9 22 8 23 7 24 6 25 5 26 4 27 3 28 2 29 1 30
REMARK H PARENT
REMARK Flexibility Score: inf
ROOT
ATOM      1  C   UNL     1       6.913  24.250  42.875  1.00  0.00     0.000 C 
ENDROOT
BRANCH   1   2
ATOM      2  C   UNL     1       8.155  23.765  43.652  1.00  0.00     0.000 C 
BRANCH   2   3
ATOM      3  C   UNL     1       8.243  24.240  45.117  1.00  0.00     0.000 C 
BRANCH   3   4
ATOM      4  C   UNL     1       8.088  23.127  46.168  1.00  0.00     0.000 C 
BRANCH   4   5
ATOM      5  C   UNL     1       6.632  22.946  46.630  1.00  0.00     0.000 C 
BRANCH   5   6
ATOM      6  C   UNL     1       6.107  21.526  46.358  1.00  0.00     0.000 C 
BRANCH   6   7
ATOM      7  C   UNL     1       4.817  21.536  45.519  1.00  0.00     0.000 C 
BRANCH   7   8
ATOM      8  C   UNL     1       4.847  20.518  44.365  1.00  0.00     0.000 C 
BRANCH   8   9
ATOM      9  C   UNL     1       5.118  21.122  42.975  1.00  0.00     0.000 C 
BRANCH   9  10
ATOM     10  C   UNL     1       6.523  20.797  42.446  1.00  0.00     0.000 C 
BRANCH  10  11
ATOM     11  C   UNL     1       7.250  19.817  43.375  1.00  0.00     0.000 C 
BRANCH  11  12
ATOM     12  C   UNL     1       8.732  20.194  43.518  1.00  0.00     0.006 C 
BRANCH  12  13
ATOM     13  C   UNL     1       9.596  19.004  43.948  1.00  0.00     0.053 C 
BRANCH  13  14
ATOM     14  C   UNL     1      10.132  19.177  45.336  1.00  0.00     0.041 C 
ATOM     15  O   UNL     1       9.524  19.907  46.162  1.00  0.00    -0.550 OA
ATOM     16  O   UNL     1      11.320  18.558  45.706  1.00  0.00    -0.550 OA
ENDBRANCH  13  14
ENDBRANCH  12  13
ENDBRANCH  11  12
ENDBRANCH  10  11
ENDBRANCH   9  10
ENDBRANCH   8   9
ENDBRANCH   7   8
ENDBRANCH   6   7
ENDBRANCH   5   6
ENDBRANCH   4   5
ENDBRANCH   3   4
ENDBRANCH   2   3
ENDBRANCH   1   2
BRANCH   1  17
ATOM     17  C   UNL     1       5.844  24.950  43.734  1.00  0.00     0.000 C 
BRANCH  17  18
ATOM     18  C   UNL     1       4.489  25.065  43.022  1.00  0.00     0.000 C 
BRANCH  18  19
ATOM     19  C   UNL     1       3.340  24.680  43.962  1.00  0.00     0.000 C 
BRANCH  19  20
ATOM     20  C   UNL     1       2.286  25.796  44.021  1.00  0.00     0.000 C 
BRANCH  20  21
ATOM     21  C   UNL     1       2.463  26.838  42.902  1.00  0.00     0.000 C 
BRANCH  21  22
ATOM     22  C   UNL     1       1.377  27.938  42.893  1.00  0.00    -0.000 C 
BRANCH  22  23
ATOM     23  C   UNL     1       0.553  28.016  44.194  1.00  0.00    -0.000 C 
BRANCH  23  24
ATOM     24  C   UNL     1      -0.931  27.640  44.052  1.00  0.00    -0.000 C 
BRANCH  24  25
ATOM     25  C   UNL     1      -1.870  28.650  44.736  1.00  0.00    -0.000 C 
BRANCH  25  26
ATOM     26  C   UNL     1      -2.399  29.716  43.763  1.00  0.00    -0.000 C 
BRANCH  26  27
ATOM     27  C   UNL     1      -1.328  30.743  43.365  1.00  0.00    -0.000 C 
BRANCH  27  28
ATOM     28  C   UNL     1      -1.405  31.058  41.863  1.00  0.00    -0.000 C 
BRANCH  28  29
ATOM     29  C   UNL     1      -2.087  29.942  41.058  1.00  0.00    -0.003 C 
ATOM     30  C   UNL     1      -1.087  29.053  40.318  1.00  0.00     0.004 C 
ENDBRANCH  28  29
ENDBRANCH  27  28
ENDBRANCH  26  27
ENDBRANCH  25  26
ENDBRANCH  24  25
ENDBRANCH  23  24
ENDBRANCH  22  23
ENDBRANCH  21  22
ENDBRANCH  20  21
ENDBRANCH  19  20
ENDBRANCH  18  19
ENDBRANCH  17  18
ENDBRANCH   1  17
TORSDOF 26
ENDMDL
