MODEL 1
REMARK VINA RESULT:    -5.022      0.000      0.000
REMARK INTER + INTRA:         -16.874
REMARK INTER:                 -12.655
REMARK INTRA:                  -4.219
REMARK UNBOUND:                -4.219
REMARK SMILES CCCCCCCCCCCCCCCCCCCCCCCCCCCC(=O)[O-]
REMARK SMILES IDX 15 1 16 2 17 3 18 4 19 5 20 6 21 7 22 8 23 9 24 10 25 11
REMARK SMILES IDX 26 12 27 13 28 14 29 15 30 16 14 17 13 18 12 19 11 20 10 21
REMARK SMILES IDX 9 22 8 23 7 24 6 25 5 26 4 27 3 28 2 29 1 30
REMARK H PARENT
REMARK Flexibility Score: inf
ROOT
ATOM      1  C   UNL     1      85.567  61.017   6.049  1.00  0.00     0.000 C 
ENDROOT
BRANCH   1   2
ATOM      2  C   UNL     1      86.017  59.597   6.434  1.00  0.00     0.000 C 
BRANCH   2   3
ATOM      3  C   UNL     1      86.075  59.395   7.958  1.00  0.00     0.000 C 
BRANCH   3   4
ATOM      4  C   UNL     1      87.494  59.564   8.527  1.00  0.00     0.000 C 
BRANCH   4   5
ATOM      5  C   UNL     1      88.559  58.643   7.901  1.00  0.00     0.000 C 
BRANCH   5   6
ATOM      6  C   UNL     1      89.030  57.489   8.801  1.00  0.00     0.000 C 
BRANCH   6   7
ATOM      7  C   UNL     1      87.903  56.493   9.128  1.00  0.00     0.000 C 
BRANCH   7   8
ATOM      8  C   UNL     1      87.408  56.614  10.581  1.00  0.00     0.000 C 
BRANCH   8   9
ATOM      9  C   UNL     1      85.873  56.581  10.737  1.00  0.00     0.000 C 
BRANCH   9  10
ATOM     10  C   UNL     1      85.254  57.885  11.275  1.00  0.00     0.000 C 
BRANCH  10  11
ATOM     11  C   UNL     1      86.315  58.891  11.759  1.00  0.00     0.000 C 
BRANCH  11  12
ATOM     12  C   UNL     1      85.689  60.112  12.452  1.00  0.00     0.006 C 
BRANCH  12  13
ATOM     13  C   UNL     1      84.882  59.723  13.697  1.00  0.00     0.053 C 
BRANCH  13  14
ATOM     14  C   UNL     1      84.888  60.838  14.694  1.00  0.00     0.041 C 
ATOM     15  O   UNL     1      85.933  61.518  14.879  1.00  0.00    -0.550 OA
ATOM     16  O   UNL     1      83.727  61.155  15.391  1.00  0.00    -0.550 OA
ENDBRANCH  13  14
ENDBRANCH  12  13
ENDBRANCH  11  12
ENDBRANCH  10  11
ENDBRANCH   9  10
ENDBRANCH   8   9
ENDBRANCH   7   8
ENDBRANCH   6   7
ENDBRANCH   5   6
ENDBRANCH   4   5
ENDBRANCH   3   4
ENDBRANCH   2   3
ENDBRANCH   1   2
BRANCH   1  17
ATOM     17  C   UNL     1      86.759  61.977   5.891  1.00  0.00     0.000 C 
BRANCH  17  18
ATOM     18  C   UNL     1      86.611  63.253   6.733  1.00  0.00     0.000 C 
BRANCH  18  19
ATOM     19  C   UNL     1      87.121  63.075   8.177  1.00  0.00     0.000 C 
BRANCH  19  20
ATOM     20  C   UNL     1      86.104  63.557   9.234  1.00  0.00     0.000 C 
BRANCH  20  21
ATOM     21  C   UNL     1      85.070  62.491   9.646  1.00  0.00     0.000 C 
BRANCH  21  22
ATOM     22  C   UNL     1      83.601  62.837   9.330  1.00  0.00    -0.000 C 
BRANCH  22  23
ATOM     23  C   UNL     1      82.562  61.879   9.942  1.00  0.00    -0.000 C 
BRANCH  23  24
ATOM     24  C   UNL     1      83.038  60.415   9.962  1.00  0.00    -0.000 C 
BRANCH  24  25
ATOM     25  C   UNL     1      82.052  59.483  10.685  1.00  0.00    -0.000 C 
BRANCH  25  26
ATOM     26  C   UNL     1      80.589  59.939  10.534  1.00  0.00    -0.000 C 
BRANCH  26  27
ATOM     27  C   UNL     1      79.649  58.782  10.160  1.00  0.00    -0.000 C 
BRANCH  27  28
ATOM     28  C   UNL     1      80.153  57.423  10.666  1.00  0.00    -0.000 C 
BRANCH  28  29
ATOM     29  C   UNL     1      79.292  56.283  10.111  1.00  0.00    -0.003 C 
ATOM     30  C   UNL     1      77.963  56.804   9.573  1.00  0.00     0.004 C 
ENDBRANCH  28  29
ENDBRANCH  27  28
ENDBRANCH  26  27
ENDBRANCH  25  26
ENDBRANCH  24  25
ENDBRANCH  23  24
ENDBRANCH  22  23
ENDBRANCH  21  22
ENDBRANCH  20  21
ENDBRANCH  19  20
ENDBRANCH  18  19
ENDBRANCH  17  18
ENDBRANCH   1  17
TORSDOF 26
ENDMDL
MODEL 2
REMARK VINA RESULT:    -5.017      3.465      5.547
REMARK INTER + INTRA:         -16.862
REMARK INTER:                 -11.931
REMARK INTRA:                  -4.931
REMARK UNBOUND:                -4.219
REMARK SMILES CCCCCCCCCCCCCCCCCCCCCCCCCCCC(=O)[O-]
REMARK SMILES IDX 15 1 16 2 17 3 18 4 19 5 20 6 21 7 22 8 23 9 24 10 25 11
REMARK SMILES IDX 26 12 27 13 28 14 29 15 30 16 14 17 13 18 12 19 11 20 10 21
REMARK SMILES IDX 9 22 8 23 7 24 6 25 5 26 4 27 3 28 2 29 1 30
REMARK H PARENT
REMARK Flexibility Score: inf
ROOT
ATOM      1  C   UNL     1      91.744  64.088   8.606  1.00  0.00     0.000 C 
ENDROOT
BRANCH   1   2
ATOM      2  C   UNL     1      92.179  62.693   8.126  1.00  0.00     0.000 C 
BRANCH   2   3
ATOM      3  C   UNL     1      92.334  62.622   6.597  1.00  0.00     0.000 C 
BRANCH   3   4
ATOM      4  C   UNL     1      91.835  61.290   6.010  1.00  0.00     0.000 C 
BRANCH   4   5
ATOM      5  C   UNL     1      90.627  61.411   5.060  1.00  0.00     0.000 C 
BRANCH   5   6
ATOM      6  C   UNL     1      89.466  62.268   5.591  1.00  0.00     0.000 C 
BRANCH   6   7
ATOM      7  C   UNL     1      88.275  61.421   6.071  1.00  0.00     0.000 C 
BRANCH   7   8
ATOM      8  C   UNL     1      88.366  61.065   7.567  1.00  0.00     0.000 C 
BRANCH   8   9
ATOM      9  C   UNL     1      89.115  59.748   7.864  1.00  0.00     0.000 C 
BRANCH   9  10
ATOM     10  C   UNL     1      88.210  58.507   7.976  1.00  0.00     0.000 C 
BRANCH  10  11
ATOM     11  C   UNL     1      88.810  57.412   8.878  1.00  0.00     0.000 C 
BRANCH  11  12
ATOM     12  C   UNL     1      88.303  57.505  10.326  1.00  0.00     0.006 C 
BRANCH  12  13
ATOM     13  C   UNL     1      87.142  56.540  10.598  1.00  0.00     0.053 C 
BRANCH  13  14
ATOM     14  C   UNL     1      87.178  55.393   9.640  1.00  0.00     0.041 C 
ATOM     15  O   UNL     1      87.935  54.409   9.858  1.00  0.00    -0.550 OA
ATOM     16  O   UNL     1      86.347  55.389   8.525  1.00  0.00    -0.550 OA
ENDBRANCH  13  14
ENDBRANCH  12  13
ENDBRANCH  11  12
ENDBRANCH  10  11
ENDBRANCH   9  10
ENDBRANCH   8   9
ENDBRANCH   7   8
ENDBRANCH   6   7
ENDBRANCH   5   6
ENDBRANCH   4   5
ENDBRANCH   3   4
ENDBRANCH   2   3
ENDBRANCH   1   2
BRANCH   1  17
ATOM     17  C   UNL     1      91.232  64.962   7.446  1.00  0.00     0.000 C 
BRANCH  17  18
ATOM     18  C   UNL     1      89.767  65.387   7.624  1.00  0.00     0.000 C 
BRANCH  18  19
ATOM     19  C   UNL     1      89.008  64.502   8.632  1.00  0.00     0.000 C 
BRANCH  19  20
ATOM     20  C   UNL     1      87.475  64.640   8.516  1.00  0.00     0.000 C 
BRANCH  20  21
ATOM     21  C   UNL     1      86.971  64.891   7.082  1.00  0.00     0.000 C 
BRANCH  21  22
ATOM     22  C   UNL     1      85.548  64.382   6.781  1.00  0.00    -0.000 C 
BRANCH  22  23
ATOM     23  C   UNL     1      85.189  63.034   7.435  1.00  0.00    -0.000 C 
BRANCH  23  24
ATOM     24  C   UNL     1      83.941  63.119   8.333  1.00  0.00    -0.000 C 
BRANCH  24  25
ATOM     25  C   UNL     1      84.085  62.297   9.624  1.00  0.00    -0.000 C 
BRANCH  25  26
ATOM     26  C   UNL     1      85.533  61.843   9.877  1.00  0.00    -0.000 C 
BRANCH  26  27
ATOM     27  C   UNL     1      85.653  60.319  10.033  1.00  0.00    -0.000 C 
BRANCH  27  28
ATOM     28  C   UNL     1      85.077  59.554   8.832  1.00  0.00    -0.000 C 
BRANCH  28  29
ATOM     29  C   UNL     1      84.149  58.428   9.299  1.00  0.00    -0.003 C 
ATOM     30  C   UNL     1      83.453  58.790  10.608  1.00  0.00     0.004 C 
ENDBRANCH  28  29
ENDBRANCH  27  28
ENDBRANCH  26  27
ENDBRANCH  25  26
ENDBRANCH  24  25
ENDBRANCH  23  24
ENDBRANCH  22  23
ENDBRANCH  21  22
ENDBRANCH  20  21
ENDBRANCH  19  20
ENDBRANCH  18  19
ENDBRANCH  17  18
ENDBRANCH   1  17
TORSDOF 26
ENDMDL
MODEL 3
REMARK VINA RESULT:    -4.983      2.734      6.473
REMARK INTER + INTRA:         -16.775
REMARK INTER:                 -11.869
REMARK INTRA:                  -4.906
REMARK UNBOUND:                -4.219
REMARK SMILES CCCCCCCCCCCCCCCCCCCCCCCCCCCC(=O)[O-]
REMARK SMILES IDX 15 1 16 2 17 3 18 4 19 5 20 6 21 7 22 8 23 9 24 10 25 11
REMARK SMILES IDX 26 12 27 13 28 14 29 15 30 16 14 17 13 18 12 19 11 20 10 21
REMARK SMILES IDX 9 22 8 23 7 24 6 25 5 26 4 27 3 28 2 29 1 30
REMARK H PARENT
REMARK Flexibility Score: inf
ROOT
ATOM      1  C   UNL     1      91.701  61.306   6.402  1.00  0.00     0.000 C 
ENDROOT
BRANCH   1   2
ATOM      2  C   UNL     1      92.363  62.572   6.973  1.00  0.00     0.000 C 
BRANCH   2   3
ATOM      3  C   UNL     1      92.058  62.767   8.469  1.00  0.00     0.000 C 
BRANCH   3   4
ATOM      4  C   UNL     1      91.250  64.046   8.750  1.00  0.00     0.000 C 
BRANCH   4   5
ATOM      5  C   UNL     1      89.723  63.849   8.808  1.00  0.00     0.000 C 
BRANCH   5   6
ATOM      6  C   UNL     1      88.896  65.031   8.274  1.00  0.00     0.000 C 
BRANCH   6   7
ATOM      7  C   UNL     1      88.156  64.694   6.967  1.00  0.00     0.000 C 
BRANCH   7   8
ATOM      8  C   UNL     1      86.647  64.996   7.046  1.00  0.00     0.000 C 
BRANCH   8   9
ATOM      9  C   UNL     1      85.738  63.795   6.707  1.00  0.00     0.000 C 
BRANCH   9  10
ATOM     10  C   UNL     1      84.798  63.361   7.848  1.00  0.00     0.000 C 
BRANCH  10  11
ATOM     11  C   UNL     1      85.471  63.427   9.232  1.00  0.00     0.000 C 
BRANCH  11  12
ATOM     12  C   UNL     1      85.068  62.250  10.134  1.00  0.00     0.006 C 
BRANCH  12  13
ATOM     13  C   UNL     1      83.694  61.677   9.763  1.00  0.00     0.053 C 
BRANCH  13  14
ATOM     14  C   UNL     1      83.198  60.766  10.841  1.00  0.00     0.041 C 
ATOM     15  O   UNL     1      82.013  60.341  10.815  1.00  0.00    -0.550 OA
ATOM     16  O   UNL     1      84.057  60.353  11.854  1.00  0.00    -0.550 OA
ENDBRANCH  13  14
ENDBRANCH  12  13
ENDBRANCH  11  12
ENDBRANCH  10  11
ENDBRANCH   9  10
ENDBRANCH   8   9
ENDBRANCH   7   8
ENDBRANCH   6   7
ENDBRANCH   5   6
ENDBRANCH   4   5
ENDBRANCH   3   4
ENDBRANCH   2   3
ENDBRANCH   1   2
BRANCH   1  17
ATOM     17  C   UNL     1      90.210  61.528   6.087  1.00  0.00     0.000 C 
BRANCH  17  18
ATOM     18  C   UNL     1      89.302  60.475   6.738  1.00  0.00     0.000 C 
BRANCH  18  19
ATOM     19  C   UNL     1      87.935  61.048   7.160  1.00  0.00     0.000 C 
BRANCH  19  20
ATOM     20  C   UNL     1      87.194  60.148   8.173  1.00  0.00     0.000 C 
BRANCH  20  21
ATOM     21  C   UNL     1      85.853  59.591   7.658  1.00  0.00     0.000 C 
BRANCH  21  22
ATOM     22  C   UNL     1      85.784  59.328   6.141  1.00  0.00    -0.000 C 
BRANCH  22  23
ATOM     23  C   UNL     1      85.788  57.841   5.739  1.00  0.00    -0.000 C 
BRANCH  23  24
ATOM     24  C   UNL     1      85.583  56.897   6.938  1.00  0.00    -0.000 C 
BRANCH  24  25
ATOM     25  C   UNL     1      86.727  55.882   7.093  1.00  0.00    -0.000 C 
BRANCH  25  26
ATOM     26  C   UNL     1      88.110  56.505   6.828  1.00  0.00    -0.000 C 
BRANCH  26  27
ATOM     27  C   UNL     1      88.769  57.038   8.109  1.00  0.00    -0.000 C 
BRANCH  27  28
ATOM     28  C   UNL     1      88.147  56.449   9.384  1.00  0.00    -0.000 C 
BRANCH  28  29
ATOM     29  C   UNL     1      88.304  57.416  10.563  1.00  0.00    -0.003 C 
ATOM     30  C   UNL     1      86.958  57.999  10.983  1.00  0.00     0.004 C 
ENDBRANCH  28  29
ENDBRANCH  27  28
ENDBRANCH  26  27
ENDBRANCH  25  26
ENDBRANCH  24  25
ENDBRANCH  23  24
ENDBRANCH  22  23
ENDBRANCH  21  22
ENDBRANCH  20  21
ENDBRANCH  19  20
ENDBRANCH  18  19
ENDBRANCH  17  18
ENDBRANCH   1  17
TORSDOF 26
ENDMDL
MODEL 4
REMARK VINA RESULT:    -4.978      2.739      6.350
REMARK INTER + INTRA:         -16.764
REMARK INTER:                 -11.973
REMARK INTRA:                  -4.792
REMARK UNBOUND:                -4.219
REMARK SMILES CCCCCCCCCCCCCCCCCCCCCCCCCCCC(=O)[O-]
REMARK SMILES IDX 15 1 16 2 17 3 18 4 19 5 20 6 21 7 22 8 23 9 24 10 25 11
REMARK SMILES IDX 26 12 27 13 28 14 29 15 30 16 14 17 13 18 12 19 11 20 10 21
REMARK SMILES IDX 9 22 8 23 7 24 6 25 5 26 4 27 3 28 2 29 1 30
REMARK H PARENT
REMARK Flexibility Score: inf
ROOT
ATOM      1  C   UNL     1      91.835  62.483   7.777  1.00  0.00     0.000 C 
ENDROOT
BRANCH   1   2
ATOM      2  C   UNL     1      91.906  63.899   8.373  1.00  0.00     0.000 C 
BRANCH   2   3
ATOM      3  C   UNL     1      91.122  64.019   9.692  1.00  0.00     0.000 C 
BRANCH   3   4
ATOM      4  C   UNL     1      90.116  65.183   9.683  1.00  0.00     0.000 C 
BRANCH   4   5
ATOM      5  C   UNL     1      88.730  64.839   9.104  1.00  0.00     0.000 C 
BRANCH   5   6
ATOM      6  C   UNL     1      88.373  65.569   7.798  1.00  0.00     0.000 C 
BRANCH   6   7
ATOM      7  C   UNL     1      88.250  64.612   6.599  1.00  0.00     0.000 C 
BRANCH   7   8
ATOM      8  C   UNL     1      87.221  63.491   6.839  1.00  0.00     0.000 C 
BRANCH   8   9
ATOM      9  C   UNL     1      85.750  63.958   6.809  1.00  0.00     0.000 C 
BRANCH   9  10
ATOM     10  C   UNL     1      84.876  63.397   7.946  1.00  0.00     0.000 C 
BRANCH  10  11
ATOM     11  C   UNL     1      85.686  63.066   9.213  1.00  0.00     0.000 C 
BRANCH  11  12
ATOM     12  C   UNL     1      85.411  61.645   9.729  1.00  0.00     0.006 C 
BRANCH  12  13
ATOM     13  C   UNL     1      83.974  61.479  10.237  1.00  0.00     0.053 C 
BRANCH  13  14
ATOM     14  C   UNL     1      83.950  60.644  11.478  1.00  0.00     0.041 C 
ATOM     15  O   UNL     1      84.930  60.659  12.270  1.00  0.00    -0.550 OA
ATOM     16  O   UNL     1      82.829  59.880  11.782  1.00  0.00    -0.550 OA
ENDBRANCH  13  14
ENDBRANCH  12  13
ENDBRANCH  11  12
ENDBRANCH  10  11
ENDBRANCH   9  10
ENDBRANCH   8   9
ENDBRANCH   7   8
ENDBRANCH   6   7
ENDBRANCH   5   6
ENDBRANCH   4   5
ENDBRANCH   3   4
ENDBRANCH   2   3
ENDBRANCH   1   2
BRANCH   1  17
ATOM     17  C   UNL     1      90.401  61.925   7.787  1.00  0.00     0.000 C 
BRANCH  17  18
ATOM     18  C   UNL     1      90.157  60.891   6.677  1.00  0.00     0.000 C 
BRANCH  18  19
ATOM     19  C   UNL     1      88.823  60.140   6.846  1.00  0.00     0.000 C 
BRANCH  19  20
ATOM     20  C   UNL     1      88.213  59.690   5.501  1.00  0.00     0.000 C 
BRANCH  20  21
ATOM     21  C   UNL     1      86.843  58.997   5.629  1.00  0.00     0.000 C 
BRANCH  21  22
ATOM     22  C   UNL     1      86.147  59.155   6.996  1.00  0.00    -0.000 C 
BRANCH  22  23
ATOM     23  C   UNL     1      85.407  57.900   7.497  1.00  0.00    -0.000 C 
BRANCH  23  24
ATOM     24  C   UNL     1      84.604  58.155   8.785  1.00  0.00    -0.000 C 
BRANCH  24  25
ATOM     25  C   UNL     1      85.249  57.508  10.022  1.00  0.00    -0.000 C 
BRANCH  25  26
ATOM     26  C   UNL     1      86.616  58.126  10.365  1.00  0.00    -0.000 C 
BRANCH  26  27
ATOM     27  C   UNL     1      87.746  57.084  10.372  1.00  0.00    -0.000 C 
BRANCH  27  28
ATOM     28  C   UNL     1      88.915  57.473   9.456  1.00  0.00    -0.000 C 
BRANCH  28  29
ATOM     29  C   UNL     1      88.817  56.746   8.110  1.00  0.00    -0.003 C 
ATOM     30  C   UNL     1      88.184  55.367   8.271  1.00  0.00     0.004 C 
ENDBRANCH  28  29
ENDBRANCH  27  28
ENDBRANCH  26  27
ENDBRANCH  25  26
ENDBRANCH  24  25
ENDBRANCH  23  24
ENDBRANCH  22  23
ENDBRANCH  21  22
ENDBRANCH  20  21
ENDBRANCH  19  20
ENDBRANCH  18  19
ENDBRANCH  17  18
ENDBRANCH   1  17
TORSDOF 26
ENDMDL
MODEL 5
REMARK VINA RESULT:    -4.972      3.398      7.857
REMARK INTER + INTRA:         -16.749
REMARK INTER:                 -14.001
REMARK INTRA:                  -2.748
REMARK UNBOUND:                -4.219
REMARK SMILES CCCCCCCCCCCCCCCCCCCCCCCCCCCC(=O)[O-]
REMARK SMILES IDX 15 1 16 2 17 3 18 4 19 5 20 6 21 7 22 8 23 9 24 10 25 11
REMARK SMILES IDX 26 12 27 13 28 14 29 15 30 16 14 17 13 18 12 19 11 20 10 21
REMARK SMILES IDX 9 22 8 23 7 24 6 25 5 26 4 27 3 28 2 29 1 30
REMARK H PARENT
REMARK Flexibility Score: inf
ROOT
ATOM      1  C   UNL     1      79.833  59.246  10.023  1.00  0.00     0.000 C 
ENDROOT
BRANCH   1   2
ATOM      2  C   UNL     1      80.051  57.738  10.231  1.00  0.00     0.000 C 
BRANCH   2   3
ATOM      3  C   UNL     1      78.863  57.069  10.944  1.00  0.00     0.000 C 
BRANCH   3   4
ATOM      4  C   UNL     1      78.011  56.206   9.997  1.00  0.00     0.000 C 
BRANCH   4   5
ATOM      5  C   UNL     1      77.807  56.797   8.588  1.00  0.00     0.000 C 
BRANCH   5   6
ATOM      6  C   UNL     1      78.041  55.810   7.431  1.00  0.00     0.000 C 
BRANCH   6   7
ATOM      7  C   UNL     1      78.466  54.414   7.918  1.00  0.00     0.000 C 
BRANCH   7   8
ATOM      8  C   UNL     1      79.996  54.263   8.022  1.00  0.00     0.000 C 
BRANCH   8   9
ATOM      9  C   UNL     1      80.480  53.533   9.292  1.00  0.00     0.000 C 
BRANCH   9  10
ATOM     10  C   UNL     1      81.476  54.333  10.152  1.00  0.00     0.000 C 
BRANCH  10  11
ATOM     11  C   UNL     1      82.713  54.792   9.358  1.00  0.00     0.000 C 
BRANCH  11  12
ATOM     12  C   UNL     1      83.250  56.147   9.844  1.00  0.00     0.006 C 
BRANCH  12  13
ATOM     13  C   UNL     1      84.766  56.120  10.083  1.00  0.00     0.053 C 
BRANCH  13  14
ATOM     14  C   UNL     1      85.493  56.660   8.893  1.00  0.00     0.041 C 
ATOM     15  O   UNL     1      85.141  57.755   8.379  1.00  0.00    -0.550 OA
ATOM     16  O   UNL     1      86.587  55.975   8.375  1.00  0.00    -0.550 OA
ENDBRANCH  13  14
ENDBRANCH  12  13
ENDBRANCH  11  12
ENDBRANCH  10  11
ENDBRANCH   9  10
ENDBRANCH   8   9
ENDBRANCH   7   8
ENDBRANCH   6   7
ENDBRANCH   5   6
ENDBRANCH   4   5
ENDBRANCH   3   4
ENDBRANCH   2   3
ENDBRANCH   1   2
BRANCH   1  17
ATOM     17  C   UNL     1      80.759  60.091  10.917  1.00  0.00     0.000 C 
BRANCH  17  18
ATOM     18  C   UNL     1      82.023  60.566  10.185  1.00  0.00     0.000 C 
BRANCH  18  19
ATOM     19  C   UNL     1      83.255  59.694  10.497  1.00  0.00     0.000 C 
BRANCH  19  20
ATOM     20  C   UNL     1      84.492  60.527  10.896  1.00  0.00     0.000 C 
BRANCH  20  21
ATOM     21  C   UNL     1      85.690  59.685  11.377  1.00  0.00     0.000 C 
BRANCH  21  22
ATOM     22  C   UNL     1      85.902  59.647  12.903  1.00  0.00    -0.000 C 
BRANCH  22  23
ATOM     23  C   UNL     1      85.136  60.725  13.693  1.00  0.00    -0.000 C 
BRANCH  23  24
ATOM     24  C   UNL     1      84.533  60.190  15.005  1.00  0.00    -0.000 C 
BRANCH  24  25
ATOM     25  C   UNL     1      85.006  60.978  16.237  1.00  0.00    -0.000 C 
BRANCH  25  26
ATOM     26  C   UNL     1      85.772  62.259  15.861  1.00  0.00    -0.000 C 
BRANCH  26  27
ATOM     27  C   UNL     1      84.867  63.501  15.844  1.00  0.00    -0.000 C 
BRANCH  27  28
ATOM     28  C   UNL     1      85.578  64.744  15.289  1.00  0.00    -0.000 C 
BRANCH  28  29
ATOM     29  C   UNL     1      84.560  65.786  14.814  1.00  0.00    -0.003 C 
ATOM     30  C   UNL     1      84.816  66.190  13.365  1.00  0.00     0.004 C 
ENDBRANCH  28  29
ENDBRANCH  27  28
ENDBRANCH  26  27
ENDBRANCH  25  26
ENDBRANCH  24  25
ENDBRANCH  23  24
ENDBRANCH  22  23
ENDBRANCH  21  22
ENDBRANCH  20  21
ENDBRANCH  19  20
ENDBRANCH  18  19
ENDBRANCH  17  18
ENDBRANCH   1  17
TORSDOF 26
ENDMDL
MODEL 6
REMARK VINA RESULT:    -4.964      2.564      5.862
REMARK INTER + INTRA:         -16.728
REMARK INTER:                 -12.513
REMARK INTRA:                  -4.215
REMARK UNBOUND:                -4.219
REMARK SMILES CCCCCCCCCCCCCCCCCCCCCCCCCCCC(=O)[O-]
REMARK SMILES IDX 15 1 16 2 17 3 18 4 19 5 20 6 21 7 22 8 23 9 24 10 25 11
REMARK SMILES IDX 26 12 27 13 28 14 29 15 30 16 14 17 13 18 12 19 11 20 10 21
REMARK SMILES IDX 9 22 8 23 7 24 6 25 5 26 4 27 3 28 2 29 1 30
REMARK H PARENT
REMARK Flexibility Score: inf
ROOT
ATOM      1  C   UNL     1      88.751  59.411   7.716  1.00  0.00     0.000 C 
ENDROOT
BRANCH   1   2
ATOM      2  C   UNL     1      88.495  57.993   7.179  1.00  0.00     0.000 C 
BRANCH   2   3
ATOM      3  C   UNL     1      88.632  56.920   8.274  1.00  0.00     0.000 C 
BRANCH   3   4
ATOM      4  C   UNL     1      88.910  57.520   9.663  1.00  0.00     0.000 C 
BRANCH   4   5
ATOM      5  C   UNL     1      87.853  57.192  10.736  1.00  0.00     0.000 C 
BRANCH   5   6
ATOM      6  C   UNL     1      86.947  55.993  10.409  1.00  0.00     0.000 C 
BRANCH   6   7
ATOM      7  C   UNL     1      85.450  56.324  10.549  1.00  0.00     0.000 C 
BRANCH   7   8
ATOM      8  C   UNL     1      84.752  56.498   9.187  1.00  0.00     0.000 C 
BRANCH   8   9
ATOM      9  C   UNL     1      84.990  57.869   8.519  1.00  0.00     0.000 C 
BRANCH   9  10
ATOM     10  C   UNL     1      84.814  59.078   9.457  1.00  0.00     0.000 C 
BRANCH  10  11
ATOM     11  C   UNL     1      83.392  59.178  10.039  1.00  0.00     0.000 C 
BRANCH  11  12
ATOM     12  C   UNL     1      83.249  60.338  11.037  1.00  0.00     0.006 C 
BRANCH  12  13
ATOM     13  C   UNL     1      84.608  60.870  11.509  1.00  0.00     0.053 C 
BRANCH  13  14
ATOM     14  C   UNL     1      84.969  60.282  12.836  1.00  0.00     0.041 C 
ATOM     15  O   UNL     1      84.191  60.410  13.818  1.00  0.00    -0.550 OA
ATOM     16  O   UNL     1      86.146  59.557  12.979  1.00  0.00    -0.550 OA
ENDBRANCH  13  14
ENDBRANCH  12  13
ENDBRANCH  11  12
ENDBRANCH  10  11
ENDBRANCH   9  10
ENDBRANCH   8   9
ENDBRANCH   7   8
ENDBRANCH   6   7
ENDBRANCH   5   6
ENDBRANCH   4   5
ENDBRANCH   3   4
ENDBRANCH   2   3
ENDBRANCH   1   2
BRANCH   1  17
ATOM     17  C   UNL     1      89.595  60.252   6.742  1.00  0.00     0.000 C 
BRANCH  17  18
ATOM     18  C   UNL     1      90.231  61.479   7.413  1.00  0.00     0.000 C 
BRANCH  18  19
ATOM     19  C   UNL     1      91.690  61.709   6.973  1.00  0.00     0.000 C 
BRANCH  19  20
ATOM     20  C   UNL     1      92.438  62.711   7.879  1.00  0.00     0.000 C 
BRANCH  20  21
ATOM     21  C   UNL     1      91.580  63.292   9.020  1.00  0.00     0.000 C 
BRANCH  21  22
ATOM     22  C   UNL     1      91.861  64.766   9.375  1.00  0.00    -0.000 C 
BRANCH  22  23
ATOM     23  C   UNL     1      90.787  65.764   8.906  1.00  0.00    -0.000 C 
BRANCH  23  24
ATOM     24  C   UNL     1      90.196  65.403   7.530  1.00  0.00    -0.000 C 
BRANCH  24  25
ATOM     25  C   UNL     1      88.670  65.220   7.572  1.00  0.00    -0.000 C 
BRANCH  25  26
ATOM     26  C   UNL     1      88.216  64.303   8.722  1.00  0.00    -0.000 C 
BRANCH  26  27
ATOM     27  C   UNL     1      86.722  63.955   8.641  1.00  0.00    -0.000 C 
BRANCH  27  28
ATOM     28  C   UNL     1      86.460  62.445   8.742  1.00  0.00    -0.000 C 
BRANCH  28  29
ATOM     29  C   UNL     1      85.780  61.924   7.471  1.00  0.00    -0.003 C 
ATOM     30  C   UNL     1      86.464  62.462   6.218  1.00  0.00     0.004 C 
ENDBRANCH  28  29
ENDBRANCH  27  28
ENDBRANCH  26  27
ENDBRANCH  25  26
ENDBRANCH  24  25
ENDBRANCH  23  24
ENDBRANCH  22  23
ENDBRANCH  21  22
ENDBRANCH  20  21
ENDBRANCH  19  20
ENDBRANCH  18  19
ENDBRANCH  17  18
ENDBRANCH   1  17
TORSDOF 26
ENDMDL
MODEL 7
REMARK VINA RESULT:    -4.892      3.575      7.429
REMARK INTER + INTRA:         -16.547
REMARK INTER:                 -11.309
REMARK INTRA:                  -5.238
REMARK UNBOUND:                -4.219
REMARK SMILES CCCCCCCCCCCCCCCCCCCCCCCCCCCC(=O)[O-]
REMARK SMILES IDX 15 1 16 2 17 3 18 4 19 5 20 6 21 7 22 8 23 9 24 10 25 11
REMARK SMILES IDX 26 12 27 13 28 14 29 15 30 16 14 17 13 18 12 19 11 20 10 21
REMARK SMILES IDX 9 22 8 23 7 24 6 25 5 26 4 27 3 28 2 29 1 30
REMARK H PARENT
REMARK Flexibility Score: inf
ROOT
ATOM      1  C   UNL     1      86.948  58.664  10.010  1.00  0.00     0.000 C 
ENDROOT
BRANCH   1   2
ATOM      2  C   UNL     1      86.370  58.724  11.434  1.00  0.00     0.000 C 
BRANCH   2   3
ATOM      3  C   UNL     1      84.852  58.977  11.438  1.00  0.00     0.000 C 
BRANCH   3   4
ATOM      4  C   UNL     1      84.356  59.641  10.141  1.00  0.00     0.000 C 
BRANCH   4   5
ATOM      5  C   UNL     1      83.179  60.619  10.321  1.00  0.00     0.000 C 
BRANCH   5   6
ATOM      6  C   UNL     1      83.465  62.066   9.886  1.00  0.00     0.000 C 
BRANCH   6   7
ATOM      7  C   UNL     1      84.930  62.476  10.117  1.00  0.00     0.000 C 
BRANCH   7   8
ATOM      8  C   UNL     1      85.560  63.145   8.880  1.00  0.00     0.000 C 
BRANCH   8   9
ATOM      9  C   UNL     1      85.382  62.353   7.567  1.00  0.00     0.000 C 
BRANCH   9  10
ATOM     10  C   UNL     1      86.313  61.135   7.423  1.00  0.00     0.000 C 
BRANCH  10  11
ATOM     11  C   UNL     1      87.774  61.454   7.792  1.00  0.00     0.000 C 
BRANCH  11  12
ATOM     12  C   UNL     1      88.707  61.413   6.571  1.00  0.00     0.006 C 
BRANCH  12  13
ATOM     13  C   UNL     1      89.872  60.433   6.763  1.00  0.00     0.053 C 
BRANCH  13  14
ATOM     14  C   UNL     1      91.181  61.138   6.607  1.00  0.00     0.041 C 
ATOM     15  O   UNL     1      91.655  61.812   7.561  1.00  0.00    -0.550 OA
ATOM     16  O   UNL     1      91.901  61.019   5.424  1.00  0.00    -0.550 OA
ENDBRANCH  13  14
ENDBRANCH  12  13
ENDBRANCH  11  12
ENDBRANCH  10  11
ENDBRANCH   9  10
ENDBRANCH   8   9
ENDBRANCH   7   8
ENDBRANCH   6   7
ENDBRANCH   5   6
ENDBRANCH   4   5
ENDBRANCH   3   4
ENDBRANCH   2   3
ENDBRANCH   1   2
BRANCH   1  17
ATOM     17  C   UNL     1      88.150  57.705   9.917  1.00  0.00     0.000 C 
BRANCH  17  18
ATOM     18  C   UNL     1      88.798  57.699   8.524  1.00  0.00     0.000 C 
BRANCH  18  19
ATOM     19  C   UNL     1      88.681  56.334   7.820  1.00  0.00     0.000 C 
BRANCH  19  20
ATOM     20  C   UNL     1      87.762  56.375   6.581  1.00  0.00     0.000 C 
BRANCH  20  21
ATOM     21  C   UNL     1      86.901  57.650   6.476  1.00  0.00     0.000 C 
BRANCH  21  22
ATOM     22  C   UNL     1      85.443  57.505   6.956  1.00  0.00    -0.000 C 
BRANCH  22  23
ATOM     23  C   UNL     1      85.067  56.107   7.479  1.00  0.00    -0.000 C 
BRANCH  23  24
ATOM     24  C   UNL     1      84.408  56.147   8.870  1.00  0.00    -0.000 C 
BRANCH  24  25
ATOM     25  C   UNL     1      85.240  55.422   9.940  1.00  0.00    -0.000 C 
BRANCH  25  26
ATOM     26  C   UNL     1      86.079  54.270   9.356  1.00  0.00    -0.000 C 
BRANCH  26  27
ATOM     27  C   UNL     1      87.285  53.915  10.240  1.00  0.00    -0.000 C 
BRANCH  27  28
ATOM     28  C   UNL     1      88.390  53.183   9.466  1.00  0.00    -0.000 C 
BRANCH  28  29
ATOM     29  C   UNL     1      88.838  51.924  10.216  1.00  0.00    -0.003 C 
ATOM     30  C   UNL     1      87.718  51.374  11.094  1.00  0.00     0.004 C 
ENDBRANCH  28  29
ENDBRANCH  27  28
ENDBRANCH  26  27
ENDBRANCH  25  26
ENDBRANCH  24  25
ENDBRANCH  23  24
ENDBRANCH  22  23
ENDBRANCH  21  22
ENDBRANCH  20  21
ENDBRANCH  19  20
ENDBRANCH  18  19
ENDBRANCH  17  18
ENDBRANCH   1  17
TORSDOF 26
ENDMDL
MODEL 8
REMARK VINA RESULT:    -4.861      4.180      7.561
REMARK INTER + INTRA:         -16.468
REMARK INTER:                 -12.164
REMARK INTRA:                  -4.304
REMARK UNBOUND:                -4.219
REMARK SMILES CCCCCCCCCCCCCCCCCCCCCCCCCCCC(=O)[O-]
REMARK SMILES IDX 15 1 16 2 17 3 18 4 19 5 20 6 21 7 22 8 23 9 24 10 25 11
REMARK SMILES IDX 26 12 27 13 28 14 29 15 30 16 14 17 13 18 12 19 11 20 10 21
REMARK SMILES IDX 9 22 8 23 7 24 6 25 5 26 4 27 3 28 2 29 1 30
REMARK H PARENT
REMARK Flexibility Score: inf
ROOT
ATOM      1  C   UNL     1      84.737  63.108   7.736  1.00  0.00     0.000 C 
ENDROOT
BRANCH   1   2
ATOM      2  C   UNL     1      85.360  64.267   6.940  1.00  0.00     0.000 C 
BRANCH   2   3
ATOM      3  C   UNL     1      86.876  64.388   7.172  1.00  0.00     0.000 C 
BRANCH   3   4
ATOM      4  C   UNL     1      87.341  65.847   7.319  1.00  0.00     0.000 C 
BRANCH   4   5
ATOM      5  C   UNL     1      88.868  66.050   7.271  1.00  0.00     0.000 C 
BRANCH   5   6
ATOM      6  C   UNL     1      89.388  67.256   8.072  1.00  0.00     0.000 C 
BRANCH   6   7
ATOM      7  C   UNL     1      90.360  66.849   9.193  1.00  0.00     0.000 C 
BRANCH   7   8
ATOM      8  C   UNL     1      90.081  65.434   9.734  1.00  0.00     0.000 C 
BRANCH   8   9
ATOM      9  C   UNL     1      91.252  64.443   9.560  1.00  0.00     0.000 C 
BRANCH   9  10
ATOM     10  C   UNL     1      90.972  63.287   8.582  1.00  0.00     0.000 C 
BRANCH  10  11
ATOM     11  C   UNL     1      92.261  62.639   8.041  1.00  0.00     0.000 C 
BRANCH  11  12
ATOM     12  C   UNL     1      92.307  62.623   6.505  1.00  0.00     0.006 C 
BRANCH  12  13
ATOM     13  C   UNL     1      91.847  61.280   5.923  1.00  0.00     0.053 C 
BRANCH  13  14
ATOM     14  C   UNL     1      90.640  61.469   5.061  1.00  0.00     0.041 C 
ATOM     15  O   UNL     1      90.357  60.621   4.173  1.00  0.00    -0.550 OA
ATOM     16  O   UNL     1      89.803  62.561   5.263  1.00  0.00    -0.550 OA
ENDBRANCH  13  14
ENDBRANCH  12  13
ENDBRANCH  11  12
ENDBRANCH  10  11
ENDBRANCH   9  10
ENDBRANCH   8   9
ENDBRANCH   7   8
ENDBRANCH   6   7
ENDBRANCH   5   6
ENDBRANCH   4   5
ENDBRANCH   3   4
ENDBRANCH   2   3
ENDBRANCH   1   2
BRANCH   1  17
ATOM     17  C   UNL     1      85.570  62.751   8.980  1.00  0.00     0.000 C 
BRANCH  17  18
ATOM     18  C   UNL     1      85.845  61.245   9.098  1.00  0.00     0.000 C 
BRANCH  18  19
ATOM     19  C   UNL     1      86.640  60.689   7.901  1.00  0.00     0.000 C 
BRANCH  19  20
ATOM     20  C   UNL     1      88.154  60.970   8.003  1.00  0.00     0.000 C 
BRANCH  20  21
ATOM     21  C   UNL     1      89.043  59.735   7.761  1.00  0.00     0.000 C 
BRANCH  21  22
ATOM     22  C   UNL     1      88.325  58.509   7.164  1.00  0.00    -0.000 C 
BRANCH  22  23
ATOM     23  C   UNL     1      88.383  57.237   8.030  1.00  0.00    -0.000 C 
BRANCH  23  24
ATOM     24  C   UNL     1      88.906  57.506   9.453  1.00  0.00    -0.000 C 
BRANCH  24  25
ATOM     25  C   UNL     1      87.914  57.065  10.541  1.00  0.00    -0.000 C 
BRANCH  25  26
ATOM     26  C   UNL     1      86.856  58.141  10.847  1.00  0.00    -0.000 C 
BRANCH  26  27
ATOM     27  C   UNL     1      85.421  57.616  10.692  1.00  0.00    -0.000 C 
BRANCH  27  28
ATOM     28  C   UNL     1      84.881  57.782   9.264  1.00  0.00    -0.000 C 
BRANCH  28  29
ATOM     29  C   UNL     1      84.770  56.425   8.562  1.00  0.00    -0.003 C 
ATOM     30  C   UNL     1      84.807  56.581   7.045  1.00  0.00     0.004 C 
ENDBRANCH  28  29
ENDBRANCH  27  28
ENDBRANCH  26  27
ENDBRANCH  25  26
ENDBRANCH  24  25
ENDBRANCH  23  24
ENDBRANCH  22  23
ENDBRANCH  21  22
ENDBRANCH  20  21
ENDBRANCH  19  20
ENDBRANCH  18  19
ENDBRANCH  17  18
ENDBRANCH   1  17
TORSDOF 26
ENDMDL
MODEL 9
REMARK VINA RESULT:    -4.859      4.272      7.868
REMARK INTER + INTRA:         -16.464
REMARK INTER:                 -11.105
REMARK INTRA:                  -5.359
REMARK UNBOUND:                -4.219
REMARK SMILES CCCCCCCCCCCCCCCCCCCCCCCCCCCC(=O)[O-]
REMARK SMILES IDX 15 1 16 2 17 3 18 4 19 5 20 6 21 7 22 8 23 9 24 10 25 11
REMARK SMILES IDX 26 12 27 13 28 14 29 15 30 16 14 17 13 18 12 19 11 20 10 21
REMARK SMILES IDX 9 22 8 23 7 24 6 25 5 26 4 27 3 28 2 29 1 30
REMARK H PARENT
REMARK Flexibility Score: inf
ROOT
ATOM      1  C   UNL     1      87.216  63.204   6.681  1.00  0.00     0.000 C 
ENDROOT
BRANCH   1   2
ATOM      2  C   UNL     1      88.061  63.049   7.957  1.00  0.00     0.000 C 
BRANCH   2   3
ATOM      3  C   UNL     1      88.058  64.324   8.818  1.00  0.00     0.000 C 
BRANCH   3   4
ATOM      4  C   UNL     1      87.970  65.610   7.977  1.00  0.00     0.000 C 
BRANCH   4   5
ATOM      5  C   UNL     1      89.291  66.393   7.849  1.00  0.00     0.000 C 
BRANCH   5   6
ATOM      6  C   UNL     1      90.242  65.887   6.752  1.00  0.00     0.000 C 
BRANCH   6   7
ATOM      7  C   UNL     1      91.648  65.564   7.288  1.00  0.00     0.000 C 
BRANCH   7   8
ATOM      8  C   UNL     1      91.649  65.253   8.797  1.00  0.00     0.000 C 
BRANCH   8   9
ATOM      9  C   UNL     1      91.719  63.749   9.138  1.00  0.00     0.000 C 
BRANCH   9  10
ATOM     10  C   UNL     1      92.295  62.864   8.017  1.00  0.00     0.000 C 
BRANCH  10  11
ATOM     11  C   UNL     1      91.294  61.805   7.520  1.00  0.00     0.000 C 
BRANCH  11  12
ATOM     12  C   UNL     1      91.720  61.178   6.184  1.00  0.00     0.006 C 
BRANCH  12  13
ATOM     13  C   UNL     1      90.696  61.430   5.070  1.00  0.00     0.053 C 
BRANCH  13  14
ATOM     14  C   UNL     1      90.849  62.812   4.520  1.00  0.00     0.041 C 
ATOM     15  O   UNL     1      89.830  63.501   4.246  1.00  0.00    -0.550 OA
ATOM     16  O   UNL     1      92.116  63.357   4.348  1.00  0.00    -0.550 OA
ENDBRANCH  13  14
ENDBRANCH  12  13
ENDBRANCH  11  12
ENDBRANCH  10  11
ENDBRANCH   9  10
ENDBRANCH   8   9
ENDBRANCH   7   8
ENDBRANCH   6   7
ENDBRANCH   5   6
ENDBRANCH   4   5
ENDBRANCH   3   4
ENDBRANCH   2   3
ENDBRANCH   1   2
BRANCH   1  17
ATOM     17  C   UNL     1      85.933  62.354   6.733  1.00  0.00     0.000 C 
BRANCH  17  18
ATOM     18  C   UNL     1      84.884  62.920   7.701  1.00  0.00     0.000 C 
BRANCH  18  19
ATOM     19  C   UNL     1      84.675  62.028   8.940  1.00  0.00     0.000 C 
BRANCH  19  20
ATOM     20  C   UNL     1      85.324  60.634   8.791  1.00  0.00     0.000 C 
BRANCH  20  21
ATOM     21  C   UNL     1      84.501  59.487   9.409  1.00  0.00     0.000 C 
BRANCH  21  22
ATOM     22  C   UNL     1      85.321  58.397  10.128  1.00  0.00    -0.000 C 
BRANCH  22  23
ATOM     23  C   UNL     1      86.785  58.773  10.420  1.00  0.00    -0.000 C 
BRANCH  23  24
ATOM     24  C   UNL     1      87.739  57.567  10.342  1.00  0.00    -0.000 C 
BRANCH  24  25
ATOM     25  C   UNL     1      88.615  57.587   9.079  1.00  0.00    -0.000 C 
BRANCH  25  26
ATOM     26  C   UNL     1      88.675  58.978   8.424  1.00  0.00    -0.000 C 
BRANCH  26  27
ATOM     27  C   UNL     1      88.761  58.902   6.891  1.00  0.00    -0.000 C 
BRANCH  27  28
ATOM     28  C   UNL     1      87.392  59.055   6.214  1.00  0.00    -0.000 C 
BRANCH  28  29
ATOM     29  C   UNL     1      86.849  57.691   5.770  1.00  0.00    -0.003 C 
ATOM     30  C   UNL     1      85.639  57.280   6.603  1.00  0.00     0.004 C 
ENDBRANCH  28  29
ENDBRANCH  27  28
ENDBRANCH  26  27
ENDBRANCH  25  26
ENDBRANCH  24  25
ENDBRANCH  23  24
ENDBRANCH  22  23
ENDBRANCH  21  22
ENDBRANCH  20  21
ENDBRANCH  19  20
ENDBRANCH  18  19
ENDBRANCH  17  18
ENDBRANCH   1  17
TORSDOF 26
ENDMDL
