MODEL 1
REMARK VINA RESULT:    -2.974      0.000      0.000
REMARK INTER + INTRA:          -7.019
REMARK INTER:                  -5.060
REMARK INTRA:                  -1.959
REMARK UNBOUND:                -1.959
REMARK SMILES CCCCCCCCCCCCCC(=O)[O-]
REMARK SMILES IDX 8 1 9 2 10 3 11 4 12 5 13 6 14 7 15 8 16 9 7 10 6 11 5 12
REMARK SMILES IDX 4 13 3 14 2 15 1 16
REMARK H PARENT
REMARK Flexibility Score: inf
ROOT
ATOM      1  C   UNL     1      11.371  44.076 151.958  1.00  0.00     0.000 C 
ENDROOT
BRANCH   1   2
ATOM      2  C   UNL     1      12.598  43.618 152.754  1.00  0.00     0.000 C 
BRANCH   2   3
ATOM      3  C   UNL     1      12.186  42.979 154.085  1.00  0.00     0.000 C 
BRANCH   3   4
ATOM      4  C   UNL     1      10.676  43.135 154.325  1.00  0.00     0.000 C 
BRANCH   4   5
ATOM      5  C   UNL     1      10.170  42.265 155.487  1.00  0.00     0.006 C 
BRANCH   5   6
ATOM      6  C   UNL     1       9.280  43.045 156.463  1.00  0.00     0.053 C 
BRANCH   6   7
ATOM      7  C   UNL     1       8.112  43.641 155.743  1.00  0.00     0.041 C 
ATOM      8  O   UNL     1       7.894  44.880 155.805  1.00  0.00    -0.550 OA
ATOM      9  O   UNL     1       7.235  42.822 155.042  1.00  0.00    -0.550 OA
ENDBRANCH   6   7
ENDBRANCH   5   6
ENDBRANCH   4   5
ENDBRANCH   3   4
ENDBRANCH   2   3
ENDBRANCH   1   2
BRANCH   1  10
ATOM     10  C   UNL     1      11.289  43.354 150.608  1.00  0.00     0.000 C 
BRANCH  10  11
ATOM     11  C   UNL     1      12.439  42.353 150.445  1.00  0.00    -0.000 C 
BRANCH  11  12
ATOM     12  C   UNL     1      11.907  40.959 150.082  1.00  0.00    -0.000 C 
BRANCH  12  13
ATOM     13  C   UNL     1      11.947  39.979 151.266  1.00  0.00    -0.000 C 
BRANCH  13  14
ATOM     14  C   UNL     1      10.762  40.095 152.244  1.00  0.00    -0.000 C 
BRANCH  14  15
ATOM     15  C   UNL     1       9.381  40.046 151.557  1.00  0.00    -0.003 C 
ATOM     16  C   UNL     1       8.523  41.269 151.881  1.00  0.00     0.004 C 
ENDBRANCH  14  15
ENDBRANCH  13  14
ENDBRANCH  12  13
ENDBRANCH  11  12
ENDBRANCH  10  11
ENDBRANCH   1  10
TORSDOF 12
ENDMDL
MODEL 2
REMARK VINA RESULT:    -2.886      1.210      2.428
REMARK INTER + INTRA:          -6.869
REMARK INTER:                  -4.995
REMARK INTRA:                  -1.874
REMARK UNBOUND:                -1.959
REMARK SMILES CCCCCCCCCCCCCC(=O)[O-]
REMARK SMILES IDX 8 1 9 2 10 3 11 4 12 5 13 6 14 7 15 8 16 9 7 10 6 11 5 12
REMARK SMILES IDX 4 13 3 14 2 15 1 16
REMARK H PARENT
REMARK Flexibility Score: inf
ROOT
ATOM      1  C   UNL     1      11.618  42.170 149.864  1.00  0.00     0.000 C 
ENDROOT
BRANCH   1   2
ATOM      2  C   UNL     1      12.745  42.747 150.728  1.00  0.00     0.000 C 
BRANCH   2   3
ATOM      3  C   UNL     1      12.210  43.811 151.694  1.00  0.00     0.000 C 
BRANCH   3   4
ATOM      4  C   UNL     1      12.586  43.474 153.145  1.00  0.00     0.000 C 
BRANCH   4   5
ATOM      5  C   UNL     1      11.504  42.649 153.860  1.00  0.00     0.006 C 
BRANCH   5   6
ATOM      6  C   UNL     1      10.380  43.521 154.433  1.00  0.00     0.053 C 
BRANCH   6   7
ATOM      7  C   UNL     1       9.693  42.813 155.557  1.00  0.00     0.041 C 
ATOM      8  O   UNL     1       8.435  42.801 155.625  1.00  0.00    -0.550 OA
ATOM      9  O   UNL     1      10.441  42.208 156.559  1.00  0.00    -0.550 OA
ENDBRANCH   6   7
ENDBRANCH   5   6
ENDBRANCH   4   5
ENDBRANCH   3   4
ENDBRANCH   2   3
ENDBRANCH   1   2
BRANCH   1  10
ATOM     10  C   UNL     1      11.769  40.652 149.703  1.00  0.00     0.000 C 
BRANCH  10  11
ATOM     11  C   UNL     1      12.047  39.979 151.052  1.00  0.00    -0.000 C 
BRANCH  11  12
ATOM     12  C   UNL     1      10.741  39.736 151.824  1.00  0.00    -0.000 C 
BRANCH  12  13
ATOM     13  C   UNL     1       9.544  39.464 150.899  1.00  0.00    -0.000 C 
BRANCH  13  14
ATOM     14  C   UNL     1       8.193  39.995 151.414  1.00  0.00    -0.000 C 
BRANCH  14  15
ATOM     15  C   UNL     1       8.317  41.241 152.316  1.00  0.00    -0.003 C 
ATOM     16  C   UNL     1       8.335  42.543 151.515  1.00  0.00     0.004 C 
ENDBRANCH  14  15
ENDBRANCH  13  14
ENDBRANCH  12  13
ENDBRANCH  11  12
ENDBRANCH  10  11
ENDBRANCH   1  10
TORSDOF 12
ENDMDL
MODEL 3
REMARK VINA RESULT:    -2.823     12.280     14.959
REMARK INTER + INTRA:          -6.763
REMARK INTER:                  -4.573
REMARK INTRA:                  -2.190
REMARK UNBOUND:                -1.959
REMARK SMILES CCCCCCCCCCCCCC(=O)[O-]
REMARK SMILES IDX 8 1 9 2 10 3 11 4 12 5 13 6 14 7 15 8 16 9 7 10 6 11 5 12
REMARK SMILES IDX 4 13 3 14 2 15 1 16
REMARK H PARENT
REMARK Flexibility Score: inf
ROOT
ATOM      1  C   UNL     1      12.100  35.943 139.962  1.00  0.00     0.000 C 
ENDROOT
BRANCH   1   2
ATOM      2  C   UNL     1      10.979  34.928 140.210  1.00  0.00     0.000 C 
BRANCH   2   3
ATOM      3  C   UNL     1       9.729  35.275 139.392  1.00  0.00     0.000 C 
BRANCH   3   4
ATOM      4  C   UNL     1       8.462  35.172 140.255  1.00  0.00     0.000 C 
BRANCH   4   5
ATOM      5  C   UNL     1       7.198  35.622 139.504  1.00  0.00     0.006 C 
BRANCH   5   6
ATOM      6  C   UNL     1       7.517  36.489 138.279  1.00  0.00     0.053 C 
BRANCH   6   7
ATOM      7  C   UNL     1       6.811  37.804 138.373  1.00  0.00     0.041 C 
ATOM      8  O   UNL     1       6.914  38.647 137.443  1.00  0.00    -0.550 OA
ATOM      9  O   UNL     1       6.079  38.121 139.511  1.00  0.00    -0.550 OA
ENDBRANCH   6   7
ENDBRANCH   5   6
ENDBRANCH   4   5
ENDBRANCH   3   4
ENDBRANCH   2   3
ENDBRANCH   1   2
BRANCH   1  10
ATOM     10  C   UNL     1      11.816  36.783 138.711  1.00  0.00     0.000 C 
BRANCH  10  11
ATOM     11  C   UNL     1      11.803  38.280 139.042  1.00  0.00    -0.000 C 
BRANCH  11  12
ATOM     12  C   UNL     1      10.461  38.918 138.654  1.00  0.00    -0.000 C 
BRANCH  12  13
ATOM     13  C   UNL     1       9.764  39.608 139.838  1.00  0.00    -0.000 C 
BRANCH  13  14
ATOM     14  C   UNL     1       9.309  38.661 140.965  1.00  0.00    -0.000 C 
BRANCH  14  15
ATOM     15  C   UNL     1       9.976  38.948 142.327  1.00  0.00    -0.003 C 
ATOM     16  C   UNL     1      10.851  37.790 142.806  1.00  0.00     0.004 C 
ENDBRANCH  14  15
ENDBRANCH  13  14
ENDBRANCH  12  13
ENDBRANCH  11  12
ENDBRANCH  10  11
ENDBRANCH   1  10
TORSDOF 12
ENDMDL
MODEL 4
REMARK VINA RESULT:    -2.808      3.183      5.328
REMARK INTER + INTRA:          -6.737
REMARK INTER:                  -5.080
REMARK INTRA:                  -1.657
REMARK UNBOUND:                -1.959
REMARK SMILES CCCCCCCCCCCCCC(=O)[O-]
REMARK SMILES IDX 8 1 9 2 10 3 11 4 12 5 13 6 14 7 15 8 16 9 7 10 6 11 5 12
REMARK SMILES IDX 4 13 3 14 2 15 1 16
REMARK H PARENT
REMARK Flexibility Score: inf
ROOT
ATOM      1  C   UNL     1      12.337  43.592 152.134  1.00  0.00     0.000 C 
ENDROOT
BRANCH   1   2
ATOM      2  C   UNL     1      11.047  43.571 151.307  1.00  0.00     0.000 C 
BRANCH   2   3
ATOM      3  C   UNL     1      10.963  42.302 150.449  1.00  0.00     0.000 C 
BRANCH   3   4
ATOM      4  C   UNL     1      12.213  41.429 150.635  1.00  0.00     0.000 C 
BRANCH   4   5
ATOM      5  C   UNL     1      11.891  40.060 151.257  1.00  0.00     0.006 C 
BRANCH   5   6
ATOM      6  C   UNL     1      12.079  38.904 150.267  1.00  0.00     0.053 C 
BRANCH   6   7
ATOM      7  C   UNL     1      10.758  38.476 149.709  1.00  0.00     0.041 C 
ATOM      8  O   UNL     1      10.254  37.373 150.048  1.00  0.00    -0.550 OA
ATOM      9  O   UNL     1      10.106  39.273 148.776  1.00  0.00    -0.550 OA
ENDBRANCH   6   7
ENDBRANCH   5   6
ENDBRANCH   4   5
ENDBRANCH   3   4
ENDBRANCH   2   3
ENDBRANCH   1   2
BRANCH   1  10
ATOM     10  C   UNL     1      12.028  43.619 153.636  1.00  0.00     0.000 C 
BRANCH  10  11
ATOM     11  C   UNL     1      11.357  42.315 154.085  1.00  0.00    -0.000 C 
BRANCH  11  12
ATOM     12  C   UNL     1      10.435  42.559 155.289  1.00  0.00    -0.000 C 
BRANCH  12  13
ATOM     13  C   UNL     1       8.944  42.501 154.919  1.00  0.00    -0.000 C 
BRANCH  13  14
ATOM     14  C   UNL     1       8.650  42.015 153.488  1.00  0.00    -0.000 C 
BRANCH  14  15
ATOM     15  C   UNL     1       8.594  40.478 153.351  1.00  0.00    -0.003 C 
ATOM     16  C   UNL     1       8.228  40.030 151.937  1.00  0.00     0.004 C 
ENDBRANCH  14  15
ENDBRANCH  13  14
ENDBRANCH  12  13
ENDBRANCH  11  12
ENDBRANCH  10  11
ENDBRANCH   1  10
TORSDOF 12
ENDMDL
MODEL 5
REMARK VINA RESULT:    -2.775      3.168      5.511
REMARK INTER + INTRA:          -6.682
REMARK INTER:                  -4.871
REMARK INTRA:                  -1.811
REMARK UNBOUND:                -1.959
REMARK SMILES CCCCCCCCCCCCCC(=O)[O-]
REMARK SMILES IDX 8 1 9 2 10 3 11 4 12 5 13 6 14 7 15 8 16 9 7 10 6 11 5 12
REMARK SMILES IDX 4 13 3 14 2 15 1 16
REMARK H PARENT
REMARK Flexibility Score: inf
ROOT
ATOM      1  C   UNL     1       9.108  42.849 154.184  1.00  0.00     0.000 C 
ENDROOT
BRANCH   1   2
ATOM      2  C   UNL     1       8.462  41.553 153.683  1.00  0.00     0.000 C 
BRANCH   2   3
ATOM      3  C   UNL     1       9.059  41.123 152.337  1.00  0.00     0.000 C 
BRANCH   3   4
ATOM      4  C   UNL     1      10.217  40.133 152.540  1.00  0.00     0.000 C 
BRANCH   4   5
ATOM      5  C   UNL     1      11.472  40.521 151.743  1.00  0.00     0.006 C 
BRANCH   5   6
ATOM      6  C   UNL     1      12.034  39.352 150.923  1.00  0.00     0.053 C 
BRANCH   6   7
ATOM      7  C   UNL     1      11.008  38.853 149.955  1.00  0.00     0.041 C 
ATOM      8  O   UNL     1      10.627  39.584 149.002  1.00  0.00    -0.550 OA
ATOM      9  O   UNL     1      10.435  37.600 150.133  1.00  0.00    -0.550 OA
ENDBRANCH   6   7
ENDBRANCH   5   6
ENDBRANCH   4   5
ENDBRANCH   3   4
ENDBRANCH   2   3
ENDBRANCH   1   2
BRANCH   1  10
ATOM     10  C   UNL     1      10.137  42.562 155.284  1.00  0.00     0.000 C 
BRANCH  10  11
ATOM     11  C   UNL     1      11.564  42.818 154.787  1.00  0.00    -0.000 C 
BRANCH  11  12
ATOM     12  C   UNL     1      11.581  43.905 153.701  1.00  0.00    -0.000 C 
BRANCH  12  13
ATOM     13  C   UNL     1      12.726  43.722 152.692  1.00  0.00    -0.000 C 
BRANCH  13  14
ATOM     14  C   UNL     1      12.344  43.982 151.223  1.00  0.00    -0.000 C 
BRANCH  14  15
ATOM     15  C   UNL     1      10.828  44.170 150.998  1.00  0.00    -0.003 C 
ATOM     16  C   UNL     1      10.491  45.531 150.390  1.00  0.00     0.004 C 
ENDBRANCH  14  15
ENDBRANCH  13  14
ENDBRANCH  12  13
ENDBRANCH  11  12
ENDBRANCH  10  11
ENDBRANCH   1  10
TORSDOF 12
ENDMDL
MODEL 6
REMARK VINA RESULT:    -2.728      1.954      3.681
REMARK INTER + INTRA:          -6.601
REMARK INTER:                  -4.571
REMARK INTRA:                  -2.030
REMARK UNBOUND:                -1.959
REMARK SMILES CCCCCCCCCCCCCC(=O)[O-]
REMARK SMILES IDX 8 1 9 2 10 3 11 4 12 5 13 6 14 7 15 8 16 9 7 10 6 11 5 12
REMARK SMILES IDX 4 13 3 14 2 15 1 16
REMARK H PARENT
REMARK Flexibility Score: inf
ROOT
ATOM      1  C   UNL     1       8.535  40.413 150.182  1.00  0.00     0.000 C 
ENDROOT
BRANCH   1   2
ATOM      2  C   UNL     1       8.126  39.812 151.531  1.00  0.00     0.000 C 
BRANCH   2   3
ATOM      3  C   UNL     1       8.640  40.669 152.695  1.00  0.00     0.000 C 
BRANCH   3   4
ATOM      4  C   UNL     1       8.339  42.157 152.456  1.00  0.00     0.000 C 
BRANCH   4   5
ATOM      5  C   UNL     1       9.247  43.083 153.281  1.00  0.00     0.006 C 
BRANCH   5   6
ATOM      6  C   UNL     1       9.120  42.842 154.791  1.00  0.00     0.053 C 
BRANCH   6   7
ATOM      7  C   UNL     1      10.459  42.539 155.385  1.00  0.00     0.041 C 
ATOM      8  O   UNL     1      10.548  42.137 156.575  1.00  0.00    -0.550 OA
ATOM      9  O   UNL     1      11.614  42.748 154.640  1.00  0.00    -0.550 OA
ENDBRANCH   6   7
ENDBRANCH   5   6
ENDBRANCH   4   5
ENDBRANCH   3   4
ENDBRANCH   2   3
ENDBRANCH   1   2
BRANCH   1  10
ATOM     10  C   UNL     1       9.171  39.351 149.276  1.00  0.00     0.000 C 
BRANCH  10  11
ATOM     11  C   UNL     1      10.202  38.516 150.044  1.00  0.00    -0.000 C 
BRANCH  11  12
ATOM     12  C   UNL     1      11.586  39.181 150.007  1.00  0.00    -0.000 C 
BRANCH  12  13
ATOM     13  C   UNL     1      12.013  39.743 151.373  1.00  0.00    -0.000 C 
BRANCH  13  14
ATOM     14  C   UNL     1      12.009  41.280 151.472  1.00  0.00    -0.000 C 
BRANCH  14  15
ATOM     15  C   UNL     1      12.110  41.992 150.107  1.00  0.00    -0.003 C 
ATOM     16  C   UNL     1      11.039  43.067 149.927  1.00  0.00     0.004 C 
ENDBRANCH  14  15
ENDBRANCH  13  14
ENDBRANCH  12  13
ENDBRANCH  11  12
ENDBRANCH  10  11
ENDBRANCH   1  10
TORSDOF 12
ENDMDL
MODEL 7
REMARK VINA RESULT:    -2.721      2.183      3.328
REMARK INTER + INTRA:          -6.589
REMARK INTER:                  -4.718
REMARK INTRA:                  -1.871
REMARK UNBOUND:                -1.959
REMARK SMILES CCCCCCCCCCCCCC(=O)[O-]
REMARK SMILES IDX 8 1 9 2 10 3 11 4 12 5 13 6 14 7 15 8 16 9 7 10 6 11 5 12
REMARK SMILES IDX 4 13 3 14 2 15 1 16
REMARK H PARENT
REMARK Flexibility Score: inf
ROOT
ATOM      1  C   UNL     1      11.262  43.420 154.147  1.00  0.00     0.000 C 
ENDROOT
BRANCH   1   2
ATOM      2  C   UNL     1      10.498  42.420 155.022  1.00  0.00     0.000 C 
BRANCH   2   3
ATOM      3  C   UNL     1       9.037  42.299 154.574  1.00  0.00     0.000 C 
BRANCH   3   4
ATOM      4  C   UNL     1       8.874  41.190 153.523  1.00  0.00     0.000 C 
BRANCH   4   5
ATOM      5  C   UNL     1       8.454  41.735 152.149  1.00  0.00     0.006 C 
BRANCH   5   6
ATOM      6  C   UNL     1       7.793  43.116 152.238  1.00  0.00     0.053 C 
BRANCH   6   7
ATOM      7  C   UNL     1       8.592  44.127 151.478  1.00  0.00     0.041 C 
ATOM      8  O   UNL     1       8.838  43.951 150.255  1.00  0.00    -0.550 OA
ATOM      9  O   UNL     1       9.108  45.240 152.130  1.00  0.00    -0.550 OA
ENDBRANCH   6   7
ENDBRANCH   5   6
ENDBRANCH   4   5
ENDBRANCH   3   4
ENDBRANCH   2   3
ENDBRANCH   1   2
BRANCH   1  10
ATOM     10  C   UNL     1      12.274  42.704 153.245  1.00  0.00     0.000 C 
BRANCH  10  11
ATOM     11  C   UNL     1      12.089  43.108 151.778  1.00  0.00    -0.000 C 
BRANCH  11  12
ATOM     12  C   UNL     1      11.932  41.869 150.883  1.00  0.00    -0.000 C 
BRANCH  12  13
ATOM     13  C   UNL     1      11.977  40.552 151.676  1.00  0.00    -0.000 C 
BRANCH  13  14
ATOM     14  C   UNL     1      11.770  39.280 150.832  1.00  0.00    -0.000 C 
BRANCH  14  15
ATOM     15  C   UNL     1      10.289  38.970 150.526  1.00  0.00    -0.003 C 
ATOM     16  C   UNL     1      10.079  37.534 150.047  1.00  0.00     0.004 C 
ENDBRANCH  14  15
ENDBRANCH  13  14
ENDBRANCH  12  13
ENDBRANCH  11  12
ENDBRANCH  10  11
ENDBRANCH   1  10
TORSDOF 12
ENDMDL
MODEL 8
REMARK VINA RESULT:    -2.708     13.192     15.260
REMARK INTER + INTRA:          -6.568
REMARK INTER:                  -4.576
REMARK INTRA:                  -1.991
REMARK UNBOUND:                -1.959
REMARK SMILES CCCCCCCCCCCCCC(=O)[O-]
REMARK SMILES IDX 8 1 9 2 10 3 11 4 12 5 13 6 14 7 15 8 16 9 7 10 6 11 5 12
REMARK SMILES IDX 4 13 3 14 2 15 1 16
REMARK H PARENT
REMARK Flexibility Score: inf
ROOT
ATOM      1  C   UNL     1       9.224  36.111 141.330  1.00  0.00     0.000 C 
ENDROOT
BRANCH   1   2
ATOM      2  C   UNL     1       8.023  36.778 140.649  1.00  0.00     0.000 C 
BRANCH   2   3
ATOM      3  C   UNL     1       7.407  35.855 139.591  1.00  0.00     0.000 C 
BRANCH   3   4
ATOM      4  C   UNL     1       7.126  36.621 138.289  1.00  0.00     0.000 C 
BRANCH   4   5
ATOM      5  C   UNL     1       7.590  38.085 138.354  1.00  0.00     0.006 C 
BRANCH   5   6
ATOM      6  C   UNL     1       6.608  39.046 137.671  1.00  0.00     0.053 C 
BRANCH   6   7
ATOM      7  C   UNL     1       5.448  39.333 138.570  1.00  0.00     0.041 C 
ATOM      8  O   UNL     1       5.629  39.493 139.807  1.00  0.00    -0.550 OA
ATOM      9  O   UNL     1       4.159  39.375 138.052  1.00  0.00    -0.550 OA
ENDBRANCH   6   7
ENDBRANCH   5   6
ENDBRANCH   4   5
ENDBRANCH   3   4
ENDBRANCH   2   3
ENDBRANCH   1   2
BRANCH   1  10
ATOM     10  C   UNL     1       9.685  34.875 140.548  1.00  0.00     0.000 C 
BRANCH  10  11
ATOM     11  C   UNL     1      11.100  35.070 139.992  1.00  0.00    -0.000 C 
BRANCH  11  12
ATOM     12  C   UNL     1      11.066  35.831 138.658  1.00  0.00    -0.000 C 
BRANCH  12  13
ATOM     13  C   UNL     1      11.861  37.147 138.703  1.00  0.00    -0.000 C 
BRANCH  13  14
ATOM     14  C   UNL     1      11.000  38.423 138.762  1.00  0.00    -0.000 C 
BRANCH  14  15
ATOM     15  C   UNL     1      11.112  39.187 140.099  1.00  0.00    -0.003 C 
ATOM     16  C   UNL     1      12.116  38.547 141.057  1.00  0.00     0.004 C 
ENDBRANCH  14  15
ENDBRANCH  13  14
ENDBRANCH  12  13
ENDBRANCH  11  12
ENDBRANCH  10  11
ENDBRANCH   1  10
TORSDOF 12
ENDMDL
MODEL 9
REMARK VINA RESULT:    -2.707      2.657      4.838
REMARK INTER + INTRA:          -6.566
REMARK INTER:                  -4.537
REMARK INTRA:                  -2.029
REMARK UNBOUND:                -1.959
REMARK SMILES CCCCCCCCCCCCCC(=O)[O-]
REMARK SMILES IDX 8 1 9 2 10 3 11 4 12 5 13 6 14 7 15 8 16 9 7 10 6 11 5 12
REMARK SMILES IDX 4 13 3 14 2 15 1 16
REMARK H PARENT
REMARK Flexibility Score: inf
ROOT
ATOM      1  C   UNL     1      11.481  42.947 150.893  1.00  0.00     0.000 C 
ENDROOT
BRANCH   1   2
ATOM      2  C   UNL     1      12.007  41.603 150.377  1.00  0.00     0.000 C 
BRANCH   2   3
ATOM      3  C   UNL     1      12.024  40.552 151.494  1.00  0.00     0.000 C 
BRANCH   3   4
ATOM      4  C   UNL     1      11.452  39.214 150.999  1.00  0.00     0.000 C 
BRANCH   4   5
ATOM      5  C   UNL     1      10.647  39.362 149.698  1.00  0.00     0.006 C 
BRANCH   5   6
ATOM      6  C   UNL     1       9.240  38.759 149.804  1.00  0.00     0.053 C 
BRANCH   6   7
ATOM      7  C   UNL     1       8.207  39.841 149.781  1.00  0.00     0.041 C 
ATOM      8  O   UNL     1       8.517  41.007 149.418  1.00  0.00    -0.550 OA
ATOM      9  O   UNL     1       6.911  39.575 150.207  1.00  0.00    -0.550 OA
ENDBRANCH   6   7
ENDBRANCH   5   6
ENDBRANCH   4   5
ENDBRANCH   3   4
ENDBRANCH   2   3
ENDBRANCH   1   2
BRANCH   1  10
ATOM     10  C   UNL     1      12.421  43.536 151.952  1.00  0.00     0.000 C 
BRANCH  10  11
ATOM     11  C   UNL     1      11.650  43.923 153.220  1.00  0.00    -0.000 C 
BRANCH  11  12
ATOM     12  C   UNL     1      11.734  42.810 154.275  1.00  0.00    -0.000 C 
BRANCH  12  13
ATOM     13  C   UNL     1      10.352  42.341 154.758  1.00  0.00    -0.000 C 
BRANCH  13  14
ATOM     14  C   UNL     1       9.163  42.877 153.939  1.00  0.00    -0.000 C 
BRANCH  14  15
ATOM     15  C   UNL     1       8.583  41.853 152.940  1.00  0.00    -0.003 C 
ATOM     16  C   UNL     1       8.861  40.409 153.354  1.00  0.00     0.004 C 
ENDBRANCH  14  15
ENDBRANCH  13  14
ENDBRANCH  12  13
ENDBRANCH  11  12
ENDBRANCH  10  11
ENDBRANCH   1  10
TORSDOF 12
ENDMDL
