MODEL 1
REMARK VINA RESULT:    -6.654      0.000      0.000
REMARK INTER + INTRA:          -8.414
REMARK INTER:                  -8.015
REMARK INTRA:                  -0.399
REMARK UNBOUND:                -0.399
REMARK SMILES O=c1c(O)c(-c2ccc(O)cc2O)oc2cc(O)cc(O)c12
REMARK SMILES IDX 5 1 3 2 2 3 1 4 22 5 20 6 19 7 17 8 16 9 15 10 14 11 6 12
REMARK SMILES IDX 8 13 7 14 9 15 11 16 12 17 10 18 13 20 4 22 21 24 18 26
REMARK H PARENT 10 19 13 21 4 23 21 25 18 27
REMARK Flexibility Score: inf
ROOT
ATOM      1  C   UNL     1      20.151  17.540 -12.195  1.00  0.00     0.184 A 
ATOM      2  C   UNL     1      20.213  16.382 -12.990  1.00  0.00     0.208 A 
ATOM      3  C   UNL     1      21.094  15.352 -12.622  1.00  0.00     0.238 A 
ATOM      4  O   UNL     1      21.165  14.314 -13.332  1.00  0.00    -0.285 OA
ATOM      5  C   UNL     1      21.879  15.492 -11.458  1.00  0.00     0.111 A 
ATOM      6  C   UNL     1      22.788  14.502 -11.014  1.00  0.00     0.134 A 
ATOM      7  C   UNL     1      23.526  14.711  -9.841  1.00  0.00     0.093 A 
ATOM      8  C   UNL     1      23.376  15.888  -9.103  1.00  0.00     0.123 A 
ATOM      9  C   UNL     1      22.479  16.871  -9.537  1.00  0.00     0.094 A 
ATOM     10  C   UNL     1      21.735  16.681 -10.705  1.00  0.00     0.146 A 
ATOM     11  O   UNL     1      20.894  17.632 -11.096  1.00  0.00    -0.451 OA
ENDROOT
BRANCH   1  12
ATOM     12  C   UNL     1      19.254  18.664 -12.533  1.00  0.00     0.063 A 
ATOM     13  C   UNL     1      18.697  20.499 -14.028  1.00  0.00     0.047 A 
ATOM     14  C   UNL     1      19.529  19.433 -13.676  1.00  0.00     0.020 A 
ATOM     15  C   UNL     1      17.574  20.802 -13.250  1.00  0.00     0.119 A 
ATOM     16  C   UNL     1      17.279  20.027 -12.125  1.00  0.00     0.093 A 
ATOM     17  C   UNL     1      18.106  18.951 -11.767  1.00  0.00     0.130 A 
BRANCH  15  18
ATOM     18  O   UNL     1      16.740  21.866 -13.589  1.00  0.00    -0.508 OA
ATOM     19  H   UNL     1      16.908  22.426 -14.417  1.00  0.00     0.293 HD
ENDBRANCH  15  18
BRANCH  17  20
ATOM     20  O   UNL     1      17.773  18.156 -10.669  1.00  0.00    -0.507 OA
ATOM     21  H   UNL     1      18.055  17.185 -10.611  1.00  0.00     0.293 HD
ENDBRANCH  17  20
ENDBRANCH   1  12
BRANCH   2  22
ATOM     22  O   UNL     1      19.389  16.255 -14.111  1.00  0.00    -0.502 OA
ATOM     23  H   UNL     1      18.386  16.131 -14.037  1.00  0.00     0.293 HD
ENDBRANCH   2  22
BRANCH   6  24
ATOM     24  O   UNL     1      22.962  13.315 -11.728  1.00  0.00    -0.507 OA
ATOM     25  H   UNL     1      22.245  12.599 -11.755  1.00  0.00     0.293 HD
ENDBRANCH   6  24
BRANCH   8  26
ATOM     26  O   UNL     1      24.121  16.070  -7.941  1.00  0.00    -0.508 OA
ATOM     27  H   UNL     1      25.090  15.779  -7.882  1.00  0.00     0.293 HD
ENDBRANCH   8  26
TORSDOF 6
ENDMDL
MODEL 2
REMARK VINA RESULT:    -6.513     11.685     13.557
REMARK INTER + INTRA:          -8.245
REMARK INTER:                  -7.817
REMARK INTRA:                  -0.428
REMARK UNBOUND:                -0.399
REMARK SMILES O=c1c(O)c(-c2ccc(O)cc2O)oc2cc(O)cc(O)c12
REMARK SMILES IDX 5 1 3 2 2 3 1 4 22 5 20 6 19 7 17 8 16 9 15 10 14 11 6 12
REMARK SMILES IDX 8 13 7 14 9 15 11 16 12 17 10 18 13 20 4 22 21 24 18 26
REMARK H PARENT 10 19 13 21 4 23 21 25 18 27
REMARK Flexibility Score: inf
ROOT
ATOM      1  C   UNL     1       7.438  14.573  -9.002  1.00  0.00     0.184 A 
ATOM      2  C   UNL     1       7.270  14.634 -10.397  1.00  0.00     0.208 A 
ATOM      3  C   UNL     1       8.129  13.885 -11.217  1.00  0.00     0.238 A 
ATOM      4  O   UNL     1       7.994  13.940 -12.469  1.00  0.00    -0.285 OA
ATOM      5  C   UNL     1       9.123  13.076 -10.628  1.00  0.00     0.111 A 
ATOM      6  C   UNL     1      10.026  12.288 -11.381  1.00  0.00     0.134 A 
ATOM      7  C   UNL     1      10.982  11.502 -10.721  1.00  0.00     0.093 A 
ATOM      8  C   UNL     1      11.053  11.489  -9.326  1.00  0.00     0.123 A 
ATOM      9  C   UNL     1      10.164  12.266  -8.575  1.00  0.00     0.094 A 
ATOM     10  C   UNL     1       9.205  13.056  -9.215  1.00  0.00     0.146 A 
ATOM     11  O   UNL     1       8.376  13.788  -8.480  1.00  0.00    -0.451 OA
ENDROOT
BRANCH   1  12
ATOM     12  C   UNL     1       6.576  15.345  -8.083  1.00  0.00     0.063 A 
ATOM     13  C   UNL     1       4.427  15.601  -6.976  1.00  0.00     0.047 A 
ATOM     14  C   UNL     1       5.266  14.898  -7.844  1.00  0.00     0.020 A 
ATOM     15  C   UNL     1       4.890  16.750  -6.325  1.00  0.00     0.119 A 
ATOM     16  C   UNL     1       6.201  17.188  -6.539  1.00  0.00     0.093 A 
ATOM     17  C   UNL     1       7.052  16.486  -7.405  1.00  0.00     0.130 A 
BRANCH  15  18
ATOM     18  O   UNL     1       4.060  17.461  -5.461  1.00  0.00    -0.508 OA
ATOM     19  H   UNL     1       4.355  17.700  -4.521  1.00  0.00     0.293 HD
ENDBRANCH  15  18
BRANCH  17  20
ATOM     20  O   UNL     1       8.372  16.906  -7.571  1.00  0.00    -0.507 OA
ATOM     21  H   UNL     1       8.832  17.496  -6.889  1.00  0.00     0.293 HD
ENDBRANCH  17  20
ENDBRANCH   1  12
BRANCH   2  22
ATOM     22  O   UNL     1       6.246  15.409 -10.947  1.00  0.00    -0.502 OA
ATOM     23  H   UNL     1       6.100  16.378 -10.689  1.00  0.00     0.293 HD
ENDBRANCH   2  22
BRANCH   6  24
ATOM     24  O   UNL     1       9.980  12.280 -12.776  1.00  0.00    -0.507 OA
ATOM     25  H   UNL     1       9.186  12.648 -13.286  1.00  0.00     0.293 HD
ENDBRANCH   6  24
BRANCH   8  26
ATOM     26  O   UNL     1      12.011  10.699  -8.695  1.00  0.00    -0.508 OA
ATOM     27  H   UNL     1      12.423   9.896  -9.157  1.00  0.00     0.293 HD
ENDBRANCH   8  26
TORSDOF 6
ENDMDL
MODEL 3
REMARK VINA RESULT:    -6.404     12.792     13.937
REMARK INTER + INTRA:          -8.113
REMARK INTER:                  -7.876
REMARK INTRA:                  -0.237
REMARK UNBOUND:                -0.399
REMARK SMILES O=c1c(O)c(-c2ccc(O)cc2O)oc2cc(O)cc(O)c12
REMARK SMILES IDX 5 1 3 2 2 3 1 4 22 5 20 6 19 7 17 8 16 9 15 10 14 11 6 12
REMARK SMILES IDX 8 13 7 14 9 15 11 16 12 17 10 18 13 20 4 22 21 24 18 26
REMARK H PARENT 10 19 13 21 4 23 21 25 18 27
REMARK Flexibility Score: inf
ROOT
ATOM      1  C   UNL     1      12.104  11.846  -2.495  1.00  0.00     0.184 A 
ATOM      2  C   UNL     1      12.405  12.303  -3.790  1.00  0.00     0.208 A 
ATOM      3  C   UNL     1      13.649  12.910  -4.024  1.00  0.00     0.238 A 
ATOM      4  O   UNL     1      13.926  13.333  -5.179  1.00  0.00    -0.285 OA
ATOM      5  C   UNL     1      14.574  13.030  -2.966  1.00  0.00     0.111 A 
ATOM      6  C   UNL     1      15.850  13.624  -3.116  1.00  0.00     0.134 A 
ATOM      7  C   UNL     1      16.717  13.697  -2.016  1.00  0.00     0.093 A 
ATOM      8  C   UNL     1      16.336  13.190  -0.772  1.00  0.00     0.123 A 
ATOM      9  C   UNL     1      15.076  12.601  -0.616  1.00  0.00     0.094 A 
ATOM     10  C   UNL     1      14.197  12.520  -1.700  1.00  0.00     0.146 A 
ATOM     11  O   UNL     1      13.005  11.961  -1.524  1.00  0.00    -0.451 OA
ENDROOT
BRANCH   1  12
ATOM     12  C   UNL     1      10.809  11.209  -2.180  1.00  0.00     0.063 A 
ATOM     13  C   UNL     1       9.170   9.481  -2.671  1.00  0.00     0.047 A 
ATOM     14  C   UNL     1      10.387  10.111  -2.947  1.00  0.00     0.020 A 
ATOM     15  C   UNL     1       8.367   9.932  -1.617  1.00  0.00     0.119 A 
ATOM     16  C   UNL     1       8.792  11.009  -0.833  1.00  0.00     0.093 A 
ATOM     17  C   UNL     1      10.014  11.644  -1.100  1.00  0.00     0.130 A 
BRANCH  15  18
ATOM     18  O   UNL     1       7.150   9.315  -1.336  1.00  0.00    -0.508 OA
ATOM     19  H   UNL     1       7.062   8.305  -1.311  1.00  0.00     0.293 HD
ENDBRANCH  15  18
BRANCH  17  20
ATOM     20  O   UNL     1      10.447  12.686  -0.279  1.00  0.00    -0.507 OA
ATOM     21  H   UNL     1       9.888  13.518  -0.134  1.00  0.00     0.293 HD
ENDBRANCH  17  20
ENDBRANCH   1  12
BRANCH   2  22
ATOM     22  O   UNL     1      11.485  12.129  -4.828  1.00  0.00    -0.502 OA
ATOM     23  H   UNL     1      10.712  11.476  -4.764  1.00  0.00     0.293 HD
ENDBRANCH   2  22
BRANCH   6  24
ATOM     24  O   UNL     1      16.261  14.140  -4.346  1.00  0.00    -0.507 OA
ATOM     25  H   UNL     1      15.594  14.412  -5.060  1.00  0.00     0.293 HD
ENDBRANCH   6  24
BRANCH   8  26
ATOM     26  O   UNL     1      17.217  13.274   0.303  1.00  0.00    -0.508 OA
ATOM     27  H   UNL     1      17.278  14.110   0.874  1.00  0.00     0.293 HD
ENDBRANCH   8  26
TORSDOF 6
ENDMDL
MODEL 4
REMARK VINA RESULT:    -6.334      9.199     10.392
REMARK INTER + INTRA:          -8.029
REMARK INTER:                  -7.891
REMARK INTRA:                  -0.138
REMARK UNBOUND:                -0.399
REMARK SMILES O=c1c(O)c(-c2ccc(O)cc2O)oc2cc(O)cc(O)c12
REMARK SMILES IDX 5 1 3 2 2 3 1 4 22 5 20 6 19 7 17 8 16 9 15 10 14 11 6 12
REMARK SMILES IDX 8 13 7 14 9 15 11 16 12 17 10 18 13 20 4 22 21 24 18 26
REMARK H PARENT 10 19 13 21 4 23 21 25 18 27
REMARK Flexibility Score: inf
ROOT
ATOM      1  C   UNL     1      14.922  12.326  -6.933  1.00  0.00     0.184 A 
ATOM      2  C   UNL     1      16.163  12.863  -6.549  1.00  0.00     0.208 A 
ATOM      3  C   UNL     1      16.341  13.276  -5.218  1.00  0.00     0.238 A 
ATOM      4  O   UNL     1      17.446  13.769  -4.864  1.00  0.00    -0.285 OA
ATOM      5  C   UNL     1      15.285  13.125  -4.296  1.00  0.00     0.111 A 
ATOM      6  C   UNL     1      15.382  13.512  -2.938  1.00  0.00     0.134 A 
ATOM      7  C   UNL     1      14.288  13.320  -2.080  1.00  0.00     0.093 A 
ATOM      8  C   UNL     1      13.103  12.752  -2.552  1.00  0.00     0.123 A 
ATOM      9  C   UNL     1      13.000  12.369  -3.894  1.00  0.00     0.094 A 
ATOM     10  C   UNL     1      14.078  12.552  -4.765  1.00  0.00     0.146 A 
ATOM     11  O   UNL     1      13.953  12.184  -6.035  1.00  0.00    -0.451 OA
ENDROOT
BRANCH   1  12
ATOM     12  C   UNL     1      14.666  11.883  -8.319  1.00  0.00     0.063 A 
ATOM     13  C   UNL     1      15.395  10.618 -10.263  1.00  0.00     0.047 A 
ATOM     14  C   UNL     1      15.609  11.060  -8.955  1.00  0.00     0.020 A 
ATOM     15  C   UNL     1      14.229  10.982 -10.947  1.00  0.00     0.119 A 
ATOM     16  C   UNL     1      13.273  11.781 -10.312  1.00  0.00     0.093 A 
ATOM     17  C   UNL     1      13.478  12.225  -8.997  1.00  0.00     0.130 A 
BRANCH  15  18
ATOM     18  O   UNL     1      14.007  10.551 -12.253  1.00  0.00    -0.508 OA
ATOM     19  H   UNL     1      14.367   9.664 -12.586  1.00  0.00     0.293 HD
ENDBRANCH  15  18
BRANCH  17  20
ATOM     20  O   UNL     1      12.493  12.980  -8.359  1.00  0.00    -0.507 OA
ATOM     21  H   UNL     1      12.225  12.802  -7.398  1.00  0.00     0.293 HD
ENDBRANCH  17  20
ENDBRANCH   1  12
BRANCH   2  22
ATOM     22  O   UNL     1      17.205  12.957  -7.475  1.00  0.00    -0.502 OA
ATOM     23  H   UNL     1      18.081  13.420  -7.261  1.00  0.00     0.293 HD
ENDBRANCH   2  22
BRANCH   6  24
ATOM     24  O   UNL     1      16.552  14.082  -2.436  1.00  0.00    -0.507 OA
ATOM     25  H   UNL     1      16.831  15.027  -2.675  1.00  0.00     0.293 HD
ENDBRANCH   6  24
BRANCH   8  26
ATOM     26  O   UNL     1      12.033  12.573  -1.679  1.00  0.00    -0.508 OA
ATOM     27  H   UNL     1      11.878  13.197  -0.895  1.00  0.00     0.293 HD
ENDBRANCH   8  26
TORSDOF 6
ENDMDL
MODEL 5
REMARK VINA RESULT:    -6.263      1.848      3.363
REMARK INTER + INTRA:          -7.943
REMARK INTER:                  -7.551
REMARK INTRA:                  -0.392
REMARK UNBOUND:                -0.399
REMARK SMILES O=c1c(O)c(-c2ccc(O)cc2O)oc2cc(O)cc(O)c12
REMARK SMILES IDX 5 1 3 2 2 3 1 4 22 5 20 6 19 7 17 8 16 9 15 10 14 11 6 12
REMARK SMILES IDX 8 13 7 14 9 15 11 16 12 17 10 18 13 20 4 22 21 24 18 26
REMARK H PARENT 10 19 13 21 4 23 21 25 18 27
REMARK Flexibility Score: inf
ROOT
ATOM      1  C   UNL     1      19.638  17.479 -11.369  1.00  0.00     0.184 A 
ATOM      2  C   UNL     1      20.656  17.684 -10.421  1.00  0.00     0.208 A 
ATOM      3  C   UNL     1      21.314  16.568  -9.880  1.00  0.00     0.238 A 
ATOM      4  O   UNL     1      22.222  16.739  -9.022  1.00  0.00    -0.285 OA
ATOM      5  C   UNL     1      20.957  15.274 -10.311  1.00  0.00     0.111 A 
ATOM      6  C   UNL     1      21.573  14.097  -9.821  1.00  0.00     0.134 A 
ATOM      7  C   UNL     1      21.167  12.845 -10.307  1.00  0.00     0.093 A 
ATOM      8  C   UNL     1      20.162  12.746 -11.271  1.00  0.00     0.123 A 
ATOM      9  C   UNL     1      19.549  13.905 -11.760  1.00  0.00     0.094 A 
ATOM     10  C   UNL     1      19.938  15.162 -11.287  1.00  0.00     0.146 A 
ATOM     11  O   UNL     1      19.337  16.246 -11.765  1.00  0.00    -0.451 OA
ENDROOT
BRANCH   1  12
ATOM     12  C   UNL     1      18.898  18.609 -11.969  1.00  0.00     0.063 A 
ATOM     13  C   UNL     1      16.964  20.082 -11.924  1.00  0.00     0.047 A 
ATOM     14  C   UNL     1      17.686  19.012 -11.386  1.00  0.00     0.020 A 
ATOM     15  C   UNL     1      17.452  20.769 -13.041  1.00  0.00     0.119 A 
ATOM     16  C   UNL     1      18.671  20.389 -13.612  1.00  0.00     0.093 A 
ATOM     17  C   UNL     1      19.404  19.321 -13.076  1.00  0.00     0.130 A 
BRANCH  15  18
ATOM     18  O   UNL     1      16.739  21.834 -13.588  1.00  0.00    -0.508 OA
ATOM     19  H   UNL     1      17.117  22.391 -14.345  1.00  0.00     0.293 HD
ENDBRANCH  15  18
BRANCH  17  20
ATOM     20  O   UNL     1      20.642  18.984 -13.625  1.00  0.00    -0.507 OA
ATOM     21  H   UNL     1      21.387  19.664 -13.714  1.00  0.00     0.293 HD
ENDBRANCH  17  20
ENDBRANCH   1  12
BRANCH   2  22
ATOM     22  O   UNL     1      21.017  18.981 -10.049  1.00  0.00    -0.502 OA
ATOM     23  H   UNL     1      21.984  19.261  -9.926  1.00  0.00     0.293 HD
ENDBRANCH   2  22
BRANCH   6  24
ATOM     24  O   UNL     1      22.580  14.162  -8.857  1.00  0.00    -0.507 OA
ATOM     25  H   UNL     1      23.164  13.362  -8.641  1.00  0.00     0.293 HD
ENDBRANCH   6  24
BRANCH   8  26
ATOM     26  O   UNL     1      19.779  11.491 -11.737  1.00  0.00    -0.508 OA
ATOM     27  H   UNL     1      20.459  10.756 -11.900  1.00  0.00     0.293 HD
ENDBRANCH   8  26
TORSDOF 6
ENDMDL
MODEL 6
REMARK VINA RESULT:    -6.213     11.719     14.201
REMARK INTER + INTRA:          -7.883
REMARK INTER:                  -7.663
REMARK INTRA:                  -0.220
REMARK UNBOUND:                -0.399
REMARK SMILES O=c1c(O)c(-c2ccc(O)cc2O)oc2cc(O)cc(O)c12
REMARK SMILES IDX 5 1 3 2 2 3 1 4 22 5 20 6 19 7 17 8 16 9 15 10 14 11 6 12
REMARK SMILES IDX 8 13 7 14 9 15 11 16 12 17 10 18 13 20 4 22 21 24 18 26
REMARK H PARENT 10 19 13 21 4 23 21 25 18 27
REMARK Flexibility Score: inf
ROOT
ATOM      1  C   UNL     1      16.412  12.498   0.136  1.00  0.00     0.184 A 
ATOM      2  C   UNL     1      15.070  12.722  -0.220  1.00  0.00     0.208 A 
ATOM      3  C   UNL     1      14.770  13.077  -1.545  1.00  0.00     0.238 A 
ATOM      4  O   UNL     1      13.572  13.290  -1.874  1.00  0.00    -0.285 OA
ATOM      5  C   UNL     1      15.811  13.182  -2.490  1.00  0.00     0.111 A 
ATOM      6  C   UNL     1      15.595  13.531  -3.845  1.00  0.00     0.134 A 
ATOM      7  C   UNL     1      16.684  13.605  -4.726  1.00  0.00     0.093 A 
ATOM      8  C   UNL     1      17.981  13.339  -4.282  1.00  0.00     0.123 A 
ATOM      9  C   UNL     1      18.202  12.994  -2.944  1.00  0.00     0.094 A 
ATOM     10  C   UNL     1      17.130  12.916  -2.050  1.00  0.00     0.146 A 
ATOM     11  O   UNL     1      17.367  12.590  -0.784  1.00  0.00    -0.451 OA
ENDROOT
BRANCH   1  12
ATOM     12  C   UNL     1      16.797  12.133   1.514  1.00  0.00     0.063 A 
ATOM     13  C   UNL     1      16.508  10.664   3.431  1.00  0.00     0.047 A 
ATOM     14  C   UNL     1      16.163  11.041   2.130  1.00  0.00     0.020 A 
ATOM     15  C   UNL     1      17.500  11.365   4.127  1.00  0.00     0.119 A 
ATOM     16  C   UNL     1      18.152  12.438   3.512  1.00  0.00     0.093 A 
ATOM     17  C   UNL     1      17.816  12.820   2.205  1.00  0.00     0.130 A 
BRANCH  15  18
ATOM     18  O   UNL     1      17.848  11.002   5.426  1.00  0.00    -0.508 OA
ATOM     19  H   UNL     1      18.673  11.379   5.878  1.00  0.00     0.293 HD
ENDBRANCH  15  18
BRANCH  17  20
ATOM     20  O   UNL     1      18.509  13.861   1.586  1.00  0.00    -0.507 OA
ATOM     21  H   UNL     1      19.266  13.684   0.936  1.00  0.00     0.293 HD
ENDBRANCH  17  20
ENDBRANCH   1  12
BRANCH   2  22
ATOM     22  O   UNL     1      14.056  12.566   0.728  1.00  0.00    -0.502 OA
ATOM     23  H   UNL     1      13.288  13.221   0.815  1.00  0.00     0.293 HD
ENDBRANCH   2  22
BRANCH   6  24
ATOM     24  O   UNL     1      14.312  13.803  -4.320  1.00  0.00    -0.507 OA
ATOM     25  H   UNL     1      13.831  13.171  -4.951  1.00  0.00     0.293 HD
ENDBRANCH   6  24
BRANCH   8  26
ATOM     26  O   UNL     1      19.044  13.419  -5.179  1.00  0.00    -0.508 OA
ATOM     27  H   UNL     1      18.946  13.880  -6.077  1.00  0.00     0.293 HD
ENDBRANCH   8  26
TORSDOF 6
ENDMDL
MODEL 7
REMARK VINA RESULT:    -6.197     11.421     14.190
REMARK INTER + INTRA:          -7.863
REMARK INTER:                  -7.435
REMARK INTRA:                  -0.428
REMARK UNBOUND:                -0.399
REMARK SMILES O=c1c(O)c(-c2ccc(O)cc2O)oc2cc(O)cc(O)c12
REMARK SMILES IDX 5 1 3 2 2 3 1 4 22 5 20 6 19 7 17 8 16 9 15 10 14 11 6 12
REMARK SMILES IDX 8 13 7 14 9 15 11 16 12 17 10 18 13 20 4 22 21 24 18 26
REMARK H PARENT 10 19 13 21 4 23 21 25 18 27
REMARK Flexibility Score: inf
ROOT
ATOM      1  C   UNL     1       8.768  13.552  -9.292  1.00  0.00     0.184 A 
ATOM      2  C   UNL     1       7.589  12.929  -9.737  1.00  0.00     0.208 A 
ATOM      3  C   UNL     1       6.353  13.525  -9.440  1.00  0.00     0.238 A 
ATOM      4  O   UNL     1       5.288  12.970  -9.826  1.00  0.00    -0.285 OA
ATOM      5  C   UNL     1       6.320  14.740  -8.725  1.00  0.00     0.111 A 
ATOM      6  C   UNL     1       5.119  15.409  -8.389  1.00  0.00     0.134 A 
ATOM      7  C   UNL     1       5.171  16.619  -7.682  1.00  0.00     0.093 A 
ATOM      8  C   UNL     1       6.396  17.174  -7.306  1.00  0.00     0.123 A 
ATOM      9  C   UNL     1       7.588  16.518  -7.635  1.00  0.00     0.094 A 
ATOM     10  C   UNL     1       7.557  15.309  -8.337  1.00  0.00     0.146 A 
ATOM     11  O   UNL     1       8.702  14.705  -8.633  1.00  0.00    -0.451 OA
ENDROOT
BRANCH   1  12
ATOM     12  C   UNL     1      10.100  12.971  -9.560  1.00  0.00     0.063 A 
ATOM     13  C   UNL     1      11.915  12.574 -11.128  1.00  0.00     0.047 A 
ATOM     14  C   UNL     1      10.654  13.106 -10.843  1.00  0.00     0.020 A 
ATOM     15  C   UNL     1      12.642  11.914 -10.132  1.00  0.00     0.119 A 
ATOM     16  C   UNL     1      12.107  11.796  -8.845  1.00  0.00     0.093 A 
ATOM     17  C   UNL     1      10.845  12.331  -8.549  1.00  0.00     0.130 A 
BRANCH  15  18
ATOM     18  O   UNL     1      13.897  11.375 -10.407  1.00  0.00    -0.508 OA
ATOM     19  H   UNL     1      14.745  11.798 -10.045  1.00  0.00     0.293 HD
ENDBRANCH  15  18
BRANCH  17  20
ATOM     20  O   UNL     1      10.345  12.250  -7.248  1.00  0.00    -0.507 OA
ATOM     21  H   UNL     1      10.352  11.380  -6.729  1.00  0.00     0.293 HD
ENDBRANCH  17  20
ENDBRANCH   1  12
BRANCH   2  22
ATOM     22  O   UNL     1       7.656  11.749 -10.483  1.00  0.00    -0.502 OA
ATOM     23  H   UNL     1       8.072  10.900 -10.119  1.00  0.00     0.293 HD
ENDBRANCH   2  22
BRANCH   6  24
ATOM     24  O   UNL     1       3.879  14.881  -8.750  1.00  0.00    -0.507 OA
ATOM     25  H   UNL     1       3.383  15.200  -9.575  1.00  0.00     0.293 HD
ENDBRANCH   6  24
BRANCH   8  26
ATOM     26  O   UNL     1       6.419  18.377  -6.606  1.00  0.00    -0.508 OA
ATOM     27  H   UNL     1       6.410  18.401  -5.592  1.00  0.00     0.293 HD
ENDBRANCH   8  26
TORSDOF 6
ENDMDL
MODEL 8
REMARK VINA RESULT:    -6.167     12.433     14.154
REMARK INTER + INTRA:          -7.827
REMARK INTER:                  -7.408
REMARK INTRA:                  -0.419
REMARK UNBOUND:                -0.399
REMARK SMILES O=c1c(O)c(-c2ccc(O)cc2O)oc2cc(O)cc(O)c12
REMARK SMILES IDX 5 1 3 2 2 3 1 4 22 5 20 6 19 7 17 8 16 9 15 10 14 11 6 12
REMARK SMILES IDX 8 13 7 14 9 15 11 16 12 17 10 18 13 20 4 22 21 24 18 26
REMARK H PARENT 10 19 13 21 4 23 21 25 18 27
REMARK Flexibility Score: inf
ROOT
ATOM      1  C   UNL     1      14.800  12.349  -1.742  1.00  0.00     0.184 A 
ATOM      2  C   UNL     1      15.282  12.408  -0.422  1.00  0.00     0.208 A 
ATOM      3  C   UNL     1      14.364  12.349   0.639  1.00  0.00     0.238 A 
ATOM      4  O   UNL     1      14.783  12.411   1.826  1.00  0.00    -0.285 OA
ATOM      5  C   UNL     1      12.988  12.211   0.361  1.00  0.00     0.111 A 
ATOM      6  C   UNL     1      11.998  12.140   1.370  1.00  0.00     0.134 A 
ATOM      7  C   UNL     1      10.649  11.994   1.013  1.00  0.00     0.093 A 
ATOM      8  C   UNL     1      10.271  11.919  -0.330  1.00  0.00     0.123 A 
ATOM      9  C   UNL     1      11.245  11.989  -1.332  1.00  0.00     0.094 A 
ATOM     10  C   UNL     1      12.594  12.136  -0.997  1.00  0.00     0.146 A 
ATOM     11  O   UNL     1      13.498  12.205  -1.968  1.00  0.00    -0.451 OA
ENDROOT
BRANCH   1  12
ATOM     12  C   UNL     1      15.711  12.418  -2.903  1.00  0.00     0.063 A 
ATOM     13  C   UNL     1      17.242  11.282  -4.411  1.00  0.00     0.047 A 
ATOM     14  C   UNL     1      16.378  11.253  -3.313  1.00  0.00     0.020 A 
ATOM     15  C   UNL     1      17.438  12.472  -5.121  1.00  0.00     0.119 A 
ATOM     16  C   UNL     1      16.759  13.631  -4.734  1.00  0.00     0.093 A 
ATOM     17  C   UNL     1      15.886  13.610  -3.636  1.00  0.00     0.130 A 
BRANCH  15  18
ATOM     18  O   UNL     1      18.300  12.514  -6.215  1.00  0.00    -0.508 OA
ATOM     19  H   UNL     1      18.597  11.668  -6.688  1.00  0.00     0.293 HD
ENDBRANCH  15  18
BRANCH  17  20
ATOM     20  O   UNL     1      15.177  14.761  -3.291  1.00  0.00    -0.507 OA
ATOM     21  H   UNL     1      15.483  15.682  -3.583  1.00  0.00     0.293 HD
ENDBRANCH  17  20
ENDBRANCH   1  12
BRANCH   2  22
ATOM     22  O   UNL     1      16.655  12.499  -0.179  1.00  0.00    -0.502 OA
ATOM     23  H   UNL     1      17.058  13.236   0.386  1.00  0.00     0.293 HD
ENDBRANCH   2  22
BRANCH   6  24
ATOM     24  O   UNL     1      12.343  12.212   2.720  1.00  0.00    -0.507 OA
ATOM     25  H   UNL     1      12.222  13.064   3.257  1.00  0.00     0.293 HD
ENDBRANCH   6  24
BRANCH   8  26
ATOM     26  O   UNL     1       8.926  11.773  -0.657  1.00  0.00    -0.508 OA
ATOM     27  H   UNL     1       8.470  10.867  -0.636  1.00  0.00     0.293 HD
ENDBRANCH   8  26
TORSDOF 6
ENDMDL
MODEL 9
REMARK VINA RESULT:    -6.117     10.895     12.536
REMARK INTER + INTRA:          -7.768
REMARK INTER:                  -7.354
REMARK INTRA:                  -0.414
REMARK UNBOUND:                -0.399
REMARK SMILES O=c1c(O)c(-c2ccc(O)cc2O)oc2cc(O)cc(O)c12
REMARK SMILES IDX 5 1 3 2 2 3 1 4 22 5 20 6 19 7 17 8 16 9 15 10 14 11 6 12
REMARK SMILES IDX 8 13 7 14 9 15 11 16 12 17 10 18 13 20 4 22 21 24 18 26
REMARK H PARENT 10 19 13 21 4 23 21 25 18 27
REMARK Flexibility Score: inf
ROOT
ATOM      1  C   UNL     1      16.195  12.595  -1.600  1.00  0.00     0.184 A 
ATOM      2  C   UNL     1      15.658  12.542  -0.302  1.00  0.00     0.208 A 
ATOM      3  C   UNL     1      16.519  12.708   0.795  1.00  0.00     0.238 A 
ATOM      4  O   UNL     1      16.050  12.653   1.964  1.00  0.00    -0.285 OA
ATOM      5  C   UNL     1      17.891  12.943   0.573  1.00  0.00     0.111 A 
ATOM      6  C   UNL     1      18.825  13.125   1.621  1.00  0.00     0.134 A 
ATOM      7  C   UNL     1      20.174  13.364   1.318  1.00  0.00     0.093 A 
ATOM      8  C   UNL     1      20.607  13.424  -0.008  1.00  0.00     0.123 A 
ATOM      9  C   UNL     1      19.689  13.245  -1.050  1.00  0.00     0.094 A 
ATOM     10  C   UNL     1      18.341  13.005  -0.768  1.00  0.00     0.146 A 
ATOM     11  O   UNL     1      17.491  12.834  -1.774  1.00  0.00    -0.451 OA
ENDROOT
BRANCH   1  12
ATOM     12  C   UNL     1      15.346  12.417  -2.797  1.00  0.00     0.063 A 
ATOM     13  C   UNL     1      14.054  10.932  -4.223  1.00  0.00     0.047 A 
ATOM     14  C   UNL     1      14.864  11.135  -3.103  1.00  0.00     0.020 A 
ATOM     15  C   UNL     1      13.705  12.011  -5.043  1.00  0.00     0.119 A 
ATOM     16  C   UNL     1      14.161  13.295  -4.732  1.00  0.00     0.093 A 
ATOM     17  C   UNL     1      14.971  13.509  -3.607  1.00  0.00     0.130 A 
BRANCH  15  18
ATOM     18  O   UNL     1      12.902  11.820  -6.166  1.00  0.00    -0.508 OA
ATOM     19  H   UNL     1      12.000  12.274  -6.255  1.00  0.00     0.293 HD
ENDBRANCH  15  18
BRANCH  17  20
ATOM     20  O   UNL     1      15.378  14.803  -3.281  1.00  0.00    -0.507 OA
ATOM     21  H   UNL     1      16.095  15.284  -3.811  1.00  0.00     0.293 HD
ENDBRANCH  17  20
ENDBRANCH   1  12
BRANCH   2  22
ATOM     22  O   UNL     1      14.286  12.353  -0.116  1.00  0.00    -0.502 OA
ATOM     23  H   UNL     1      13.665  12.106  -0.877  1.00  0.00     0.293 HD
ENDBRANCH   2  22
BRANCH   6  24
ATOM     24  O   UNL     1      18.425  13.070   2.957  1.00  0.00    -0.507 OA
ATOM     25  H   UNL     1      17.531  13.439   3.261  1.00  0.00     0.293 HD
ENDBRANCH   6  24
BRANCH   8  26
ATOM     26  O   UNL     1      21.951  13.664  -0.282  1.00  0.00    -0.508 OA
ATOM     27  H   UNL     1      22.352  13.460  -1.190  1.00  0.00     0.293 HD
ENDBRANCH   8  26
TORSDOF 6
ENDMDL
