MODEL 1
REMARK VINA RESULT:    -4.395      0.000      0.000
REMARK INTER + INTRA:         -11.801
REMARK INTER:                  -9.533
REMARK INTRA:                  -2.268
REMARK UNBOUND:                -2.268
REMARK SMILES CCCCCCCCCCCCCCCCCCCCCC(=O)[O-]
REMARK SMILES IDX 12 1 11 2 10 3 9 4 8 5 7 6 6 7 5 8 4 9 3 10 2 11 1 12 13 13
REMARK SMILES IDX 14 14 15 15 16 16 17 17 18 18 19 19 20 20 21 21 22 22 23 23
REMARK SMILES IDX 24 24
REMARK H PARENT
REMARK Flexibility Score: inf
ROOT
ATOM      1  C   UNL     1       6.448  -2.717  -3.655  1.00  0.00     0.000 C 
ENDROOT
BRANCH   1   2
ATOM      2  C   UNL     1       6.001  -1.687  -4.708  1.00  0.00     0.000 C 
BRANCH   2   3
ATOM      3  C   UNL     1       4.859  -0.753  -4.263  1.00  0.00     0.000 C 
BRANCH   3   4
ATOM      4  C   UNL     1       3.555  -1.462  -3.849  1.00  0.00    -0.000 C 
BRANCH   4   5
ATOM      5  C   UNL     1       2.473  -1.478  -4.950  1.00  0.00    -0.000 C 
BRANCH   5   6
ATOM      6  C   UNL     1       2.554  -2.731  -5.834  1.00  0.00    -0.000 C 
BRANCH   6   7
ATOM      7  C   UNL     1       2.703  -4.000  -4.983  1.00  0.00    -0.000 C 
BRANCH   7   8
ATOM      8  C   UNL     1       1.355  -4.538  -4.467  1.00  0.00    -0.000 C 
BRANCH   8   9
ATOM      9  C   UNL     1       1.035  -4.207  -2.996  1.00  0.00    -0.000 C 
BRANCH   9  10
ATOM     10  C   UNL     1       0.202  -5.269  -2.252  1.00  0.00    -0.000 C 
BRANCH  10  11
ATOM     11  C   UNL     1       1.007  -6.069  -1.207  1.00  0.00    -0.003 C 
ATOM     12  C   UNL     1       1.725  -7.276  -1.809  1.00  0.00     0.004 C 
ENDBRANCH  10  11
ENDBRANCH   9  10
ENDBRANCH   8   9
ENDBRANCH   7   8
ENDBRANCH   6   7
ENDBRANCH   5   6
ENDBRANCH   4   5
ENDBRANCH   3   4
ENDBRANCH   2   3
ENDBRANCH   1   2
BRANCH   1  13
ATOM     13  C   UNL     1       7.895  -2.507  -3.185  1.00  0.00     0.000 C 
BRANCH  13  14
ATOM     14  C   UNL     1       8.235  -3.450  -2.025  1.00  0.00     0.000 C 
BRANCH  14  15
ATOM     15  C   UNL     1       7.475  -3.054  -0.750  1.00  0.00     0.000 C 
BRANCH  15  16
ATOM     16  C   UNL     1       7.633  -1.561  -0.403  1.00  0.00     0.000 C 
BRANCH  16  17
ATOM     17  C   UNL     1       6.403  -0.939   0.280  1.00  0.00     0.000 C 
BRANCH  17  18
ATOM     18  C   UNL     1       5.556  -0.062  -0.673  1.00  0.00     0.000 C 
BRANCH  18  19
ATOM     19  C   UNL     1       6.385   1.022  -1.388  1.00  0.00     0.000 C 
BRANCH  19  20
ATOM     20  C   UNL     1       6.281   2.416  -0.729  1.00  0.00     0.006 C 
BRANCH  20  21
ATOM     21  C   UNL     1       6.644   2.421   0.764  1.00  0.00     0.053 C 
BRANCH  21  22
ATOM     22  C   UNL     1       5.479   2.777   1.634  1.00  0.00     0.041 C 
ATOM     23  O   UNL     1       5.589   2.735   2.889  1.00  0.00    -0.550 OA
ATOM     24  O   UNL     1       4.268   3.144   1.061  1.00  0.00    -0.550 OA
ENDBRANCH  21  22
ENDBRANCH  20  21
ENDBRANCH  19  20
ENDBRANCH  18  19
ENDBRANCH  17  18
ENDBRANCH  16  17
ENDBRANCH  15  16
ENDBRANCH  14  15
ENDBRANCH  13  14
ENDBRANCH   1  13
TORSDOF 20
ENDMDL
MODEL 2
REMARK VINA RESULT:    -4.336      1.059      2.444
REMARK INTER + INTRA:         -11.673
REMARK INTER:                  -8.984
REMARK INTRA:                  -2.689
REMARK UNBOUND:                -2.268
REMARK SMILES CCCCCCCCCCCCCCCCCCCCCC(=O)[O-]
REMARK SMILES IDX 12 1 11 2 10 3 9 4 8 5 7 6 6 7 5 8 4 9 3 10 2 11 1 12 13 13
REMARK SMILES IDX 14 14 15 15 16 16 17 17 18 18 19 19 20 20 21 21 22 22 23 23
REMARK SMILES IDX 24 24
REMARK H PARENT
REMARK Flexibility Score: inf
ROOT
ATOM      1  C   UNL     1       4.336  -1.969  -4.003  1.00  0.00     0.000 C 
ENDROOT
BRANCH   1   2
ATOM      2  C   UNL     1       2.874  -1.486  -4.026  1.00  0.00     0.000 C 
BRANCH   2   3
ATOM      3  C   UNL     1       2.192  -1.537  -5.406  1.00  0.00     0.000 C 
BRANCH   3   4
ATOM      4  C   UNL     1       2.810  -2.533  -6.408  1.00  0.00    -0.000 C 
BRANCH   4   5
ATOM      5  C   UNL     1       2.103  -3.904  -6.447  1.00  0.00    -0.000 C 
BRANCH   5   6
ATOM      6  C   UNL     1       2.841  -4.970  -5.626  1.00  0.00    -0.000 C 
BRANCH   6   7
ATOM      7  C   UNL     1       2.139  -5.219  -4.283  1.00  0.00    -0.000 C 
BRANCH   7   8
ATOM      8  C   UNL     1       0.613  -5.023  -4.359  1.00  0.00    -0.000 C 
BRANCH   8   9
ATOM      9  C   UNL     1      -0.105  -4.922  -2.999  1.00  0.00    -0.000 C 
BRANCH   9  10
ATOM     10  C   UNL     1       0.825  -4.895  -1.769  1.00  0.00    -0.000 C 
BRANCH  10  11
ATOM     11  C   UNL     1       1.081  -6.287  -1.154  1.00  0.00    -0.003 C 
ATOM     12  C   UNL     1      -0.009  -7.299  -1.504  1.00  0.00     0.004 C 
ENDBRANCH  10  11
ENDBRANCH   9  10
ENDBRANCH   8   9
ENDBRANCH   7   8
ENDBRANCH   6   7
ENDBRANCH   5   6
ENDBRANCH   4   5
ENDBRANCH   3   4
ENDBRANCH   2   3
ENDBRANCH   1   2
BRANCH   1  13
ATOM     13  C   UNL     1       5.340  -0.866  -4.367  1.00  0.00     0.000 C 
BRANCH  13  14
ATOM     14  C   UNL     1       6.780  -1.345  -4.151  1.00  0.00     0.000 C 
BRANCH  14  15
ATOM     15  C   UNL     1       6.809  -2.769  -3.577  1.00  0.00     0.000 C 
BRANCH  15  16
ATOM     16  C   UNL     1       7.962  -2.986  -2.579  1.00  0.00     0.000 C 
BRANCH  16  17
ATOM     17  C   UNL     1       7.524  -3.008  -1.104  1.00  0.00     0.000 C 
BRANCH  17  18
ATOM     18  C   UNL     1       7.750  -1.658  -0.382  1.00  0.00     0.000 C 
BRANCH  18  19
ATOM     19  C   UNL     1       6.463  -1.092   0.249  1.00  0.00     0.000 C 
BRANCH  19  20
ATOM     20  C   UNL     1       5.587  -0.292  -0.741  1.00  0.00     0.006 C 
BRANCH  20  21
ATOM     21  C   UNL     1       6.238   1.012  -1.226  1.00  0.00     0.053 C 
BRANCH  21  22
ATOM     22  C   UNL     1       6.340   2.038  -0.140  1.00  0.00     0.041 C 
ATOM     23  O   UNL     1       7.363   2.084   0.595  1.00  0.00    -0.550 OA
ATOM     24  O   UNL     1       5.300   2.937   0.068  1.00  0.00    -0.550 OA
ENDBRANCH  21  22
ENDBRANCH  20  21
ENDBRANCH  19  20
ENDBRANCH  18  19
ENDBRANCH  17  18
ENDBRANCH  16  17
ENDBRANCH  15  16
ENDBRANCH  14  15
ENDBRANCH  13  14
ENDBRANCH   1  13
TORSDOF 20
ENDMDL
MODEL 3
REMARK VINA RESULT:    -4.298      1.468      2.239
REMARK INTER + INTRA:         -11.591
REMARK INTER:                  -9.900
REMARK INTRA:                  -1.691
REMARK UNBOUND:                -2.268
REMARK SMILES CCCCCCCCCCCCCCCCCCCCCC(=O)[O-]
REMARK SMILES IDX 12 1 11 2 10 3 9 4 8 5 7 6 6 7 5 8 4 9 3 10 2 11 1 12 13 13
REMARK SMILES IDX 14 14 15 15 16 16 17 17 18 18 19 19 20 20 21 21 22 22 23 23
REMARK SMILES IDX 24 24
REMARK H PARENT
REMARK Flexibility Score: inf
ROOT
ATOM      1  C   UNL     1       7.148  -2.213  -2.419  1.00  0.00     0.000 C 
ENDROOT
BRANCH   1   2
ATOM      2  C   UNL     1       5.892  -1.390  -2.762  1.00  0.00     0.000 C 
BRANCH   2   3
ATOM      3  C   UNL     1       6.079  -0.351  -3.883  1.00  0.00     0.000 C 
BRANCH   3   4
ATOM      4  C   UNL     1       5.301  -0.638  -5.182  1.00  0.00    -0.000 C 
BRANCH   4   5
ATOM      5  C   UNL     1       4.468  -1.938  -5.139  1.00  0.00    -0.000 C 
BRANCH   5   6
ATOM      6  C   UNL     1       2.958  -1.670  -5.208  1.00  0.00    -0.000 C 
BRANCH   6   7
ATOM      7  C   UNL     1       2.244  -2.215  -3.963  1.00  0.00    -0.000 C 
BRANCH   7   8
ATOM      8  C   UNL     1       1.690  -3.639  -4.162  1.00  0.00    -0.000 C 
BRANCH   8   9
ATOM      9  C   UNL     1       0.960  -4.237  -2.943  1.00  0.00    -0.000 C 
BRANCH   9  10
ATOM     10  C   UNL     1       1.078  -5.766  -2.796  1.00  0.00    -0.000 C 
BRANCH  10  11
ATOM     11  C   UNL     1       1.039  -6.254  -1.333  1.00  0.00    -0.003 C 
ATOM     12  C   UNL     1       1.809  -7.557  -1.123  1.00  0.00     0.004 C 
ENDBRANCH  10  11
ENDBRANCH   9  10
ENDBRANCH   8   9
ENDBRANCH   7   8
ENDBRANCH   6   7
ENDBRANCH   5   6
ENDBRANCH   4   5
ENDBRANCH   3   4
ENDBRANCH   2   3
ENDBRANCH   1   2
BRANCH   1  13
ATOM     13  C   UNL     1       7.230  -2.594  -0.934  1.00  0.00     0.000 C 
BRANCH  13  14
ATOM     14  C   UNL     1       6.988  -1.369  -0.042  1.00  0.00     0.000 C 
BRANCH  14  15
ATOM     15  C   UNL     1       8.317  -0.731   0.391  1.00  0.00     0.000 C 
BRANCH  15  16
ATOM     16  C   UNL     1       8.283   0.808   0.332  1.00  0.00     0.000 C 
BRANCH  16  17
ATOM     17  C   UNL     1       7.795   1.377  -1.011  1.00  0.00     0.000 C 
BRANCH  17  18
ATOM     18  C   UNL     1       6.371   1.979  -0.936  1.00  0.00     0.000 C 
BRANCH  18  19
ATOM     19  C   UNL     1       6.326   3.327  -0.191  1.00  0.00     0.000 C 
BRANCH  19  20
ATOM     20  C   UNL     1       4.894   3.817   0.118  1.00  0.00     0.006 C 
BRANCH  20  21
ATOM     21  C   UNL     1       4.330   3.274   1.441  1.00  0.00     0.053 C 
BRANCH  21  22
ATOM     22  C   UNL     1       3.003   3.876   1.786  1.00  0.00     0.041 C 
ATOM     23  O   UNL     1       2.350   4.511   0.915  1.00  0.00    -0.550 OA
ATOM     24  O   UNL     1       2.492   3.747   3.072  1.00  0.00    -0.550 OA
ENDBRANCH  21  22
ENDBRANCH  20  21
ENDBRANCH  19  20
ENDBRANCH  18  19
ENDBRANCH  17  18
ENDBRANCH  16  17
ENDBRANCH  15  16
ENDBRANCH  14  15
ENDBRANCH  13  14
ENDBRANCH   1  13
TORSDOF 20
ENDMDL
MODEL 4
REMARK VINA RESULT:    -4.282      1.380      2.350
REMARK INTER + INTRA:         -11.555
REMARK INTER:                  -8.571
REMARK INTRA:                  -2.984
REMARK UNBOUND:                -2.268
REMARK SMILES CCCCCCCCCCCCCCCCCCCCCC(=O)[O-]
REMARK SMILES IDX 12 1 11 2 10 3 9 4 8 5 7 6 6 7 5 8 4 9 3 10 2 11 1 12 13 13
REMARK SMILES IDX 14 14 15 15 16 16 17 17 18 18 19 19 20 20 21 21 22 22 23 23
REMARK SMILES IDX 24 24
REMARK H PARENT
REMARK Flexibility Score: inf
ROOT
ATOM      1  C   UNL     1       5.258  -0.864  -4.305  1.00  0.00     0.000 C 
ENDROOT
BRANCH   1   2
ATOM      2  C   UNL     1       4.317  -1.700  -3.418  1.00  0.00     0.000 C 
BRANCH   2   3
ATOM      3  C   UNL     1       2.831  -1.658  -3.824  1.00  0.00     0.000 C 
BRANCH   3   4
ATOM      4  C   UNL     1       2.556  -1.178  -5.263  1.00  0.00    -0.000 C 
BRANCH   4   5
ATOM      5  C   UNL     1       2.232  -2.318  -6.252  1.00  0.00    -0.000 C 
BRANCH   5   6
ATOM      6  C   UNL     1       3.493  -2.918  -6.891  1.00  0.00    -0.000 C 
BRANCH   6   7
ATOM      7  C   UNL     1       3.913  -4.209  -6.174  1.00  0.00    -0.000 C 
BRANCH   7   8
ATOM      8  C   UNL     1       3.134  -5.446  -6.660  1.00  0.00    -0.000 C 
BRANCH   8   9
ATOM      9  C   UNL     1       2.144  -6.041  -5.639  1.00  0.00    -0.000 C 
BRANCH   9  10
ATOM     10  C   UNL     1       2.168  -5.385  -4.245  1.00  0.00    -0.000 C 
BRANCH  10  11
ATOM     11  C   UNL     1       0.834  -4.717  -3.851  1.00  0.00    -0.003 C 
ATOM     12  C   UNL     1       0.602  -4.704  -2.341  1.00  0.00     0.004 C 
ENDBRANCH  10  11
ENDBRANCH   9  10
ENDBRANCH   8   9
ENDBRANCH   7   8
ENDBRANCH   6   7
ENDBRANCH   5   6
ENDBRANCH   4   5
ENDBRANCH   3   4
ENDBRANCH   2   3
ENDBRANCH   1   2
BRANCH   1  13
ATOM     13  C   UNL     1       6.430  -1.679  -4.872  1.00  0.00     0.000 C 
BRANCH  13  14
ATOM     14  C   UNL     1       6.776  -2.853  -3.948  1.00  0.00     0.000 C 
BRANCH  14  15
ATOM     15  C   UNL     1       7.827  -2.444  -2.904  1.00  0.00     0.000 C 
BRANCH  15  16
ATOM     16  C   UNL     1       7.602  -3.119  -1.538  1.00  0.00     0.000 C 
BRANCH  16  17
ATOM     17  C   UNL     1       7.157  -2.155  -0.425  1.00  0.00     0.000 C 
BRANCH  17  18
ATOM     18  C   UNL     1       6.863  -0.725  -0.939  1.00  0.00     0.000 C 
BRANCH  18  19
ATOM     19  C   UNL     1       5.534  -0.156  -0.406  1.00  0.00     0.000 C 
BRANCH  19  20
ATOM     20  C   UNL     1       5.711   1.069   0.518  1.00  0.00     0.006 C 
BRANCH  20  21
ATOM     21  C   UNL     1       6.878   0.931   1.508  1.00  0.00     0.053 C 
BRANCH  21  22
ATOM     22  C   UNL     1       6.464   1.203   2.921  1.00  0.00     0.041 C 
ATOM     23  O   UNL     1       6.213   2.381   3.292  1.00  0.00    -0.550 OA
ATOM     24  O   UNL     1       6.365   0.158   3.832  1.00  0.00    -0.550 OA
ENDBRANCH  21  22
ENDBRANCH  20  21
ENDBRANCH  19  20
ENDBRANCH  18  19
ENDBRANCH  17  18
ENDBRANCH  16  17
ENDBRANCH  15  16
ENDBRANCH  14  15
ENDBRANCH  13  14
ENDBRANCH   1  13
TORSDOF 20
ENDMDL
MODEL 5
REMARK VINA RESULT:    -4.278      1.209      3.788
REMARK INTER + INTRA:         -11.548
REMARK INTER:                  -9.106
REMARK INTRA:                  -2.442
REMARK UNBOUND:                -2.268
REMARK SMILES CCCCCCCCCCCCCCCCCCCCCC(=O)[O-]
REMARK SMILES IDX 12 1 11 2 10 3 9 4 8 5 7 6 6 7 5 8 4 9 3 10 2 11 1 12 13 13
REMARK SMILES IDX 14 14 15 15 16 16 17 17 18 18 19 19 20 20 21 21 22 22 23 23
REMARK SMILES IDX 24 24
REMARK H PARENT
REMARK Flexibility Score: inf
ROOT
ATOM      1  C   UNL     1       2.212  -2.003  -5.791  1.00  0.00     0.000 C 
ENDROOT
BRANCH   1   2
ATOM      2  C   UNL     1       2.945  -3.327  -6.075  1.00  0.00     0.000 C 
BRANCH   2   3
ATOM      3  C   UNL     1       2.877  -4.366  -4.940  1.00  0.00     0.000 C 
BRANCH   3   4
ATOM      4  C   UNL     1       1.806  -5.461  -5.115  1.00  0.00    -0.000 C 
BRANCH   4   5
ATOM      5  C   UNL     1       0.517  -5.214  -4.303  1.00  0.00    -0.000 C 
BRANCH   5   6
ATOM      6  C   UNL     1       0.715  -4.178  -3.188  1.00  0.00    -0.000 C 
BRANCH   6   7
ATOM      7  C   UNL     1       0.827  -4.858  -1.816  1.00  0.00    -0.000 C 
BRANCH   7   8
ATOM      8  C   UNL     1       0.747  -6.393  -1.898  1.00  0.00    -0.000 C 
BRANCH   8   9
ATOM      9  C   UNL     1       1.640  -7.153  -0.897  1.00  0.00    -0.000 C 
BRANCH   9  10
ATOM     10  C   UNL     1       2.357  -8.392  -1.469  1.00  0.00    -0.000 C 
BRANCH  10  11
ATOM     11  C   UNL     1       2.404  -8.425  -3.011  1.00  0.00    -0.003 C 
ATOM     12  C   UNL     1       3.802  -8.156  -3.566  1.00  0.00     0.004 C 
ENDBRANCH  10  11
ENDBRANCH   9  10
ENDBRANCH   8   9
ENDBRANCH   7   8
ENDBRANCH   6   7
ENDBRANCH   5   6
ENDBRANCH   4   5
ENDBRANCH   3   4
ENDBRANCH   2   3
ENDBRANCH   1   2
BRANCH   1  13
ATOM     13  C   UNL     1       2.823  -1.217  -4.622  1.00  0.00     0.000 C 
BRANCH  13  14
ATOM     14  C   UNL     1       4.316  -0.960  -4.857  1.00  0.00     0.000 C 
BRANCH  14  15
ATOM     15  C   UNL     1       5.152  -1.416  -3.651  1.00  0.00     0.000 C 
BRANCH  15  16
ATOM     16  C   UNL     1       6.020  -2.650  -3.962  1.00  0.00     0.000 C 
BRANCH  16  17
ATOM     17  C   UNL     1       7.327  -2.721  -3.152  1.00  0.00     0.000 C 
BRANCH  17  18
ATOM     18  C   UNL     1       7.408  -1.655  -2.033  1.00  0.00     0.000 C 
BRANCH  18  19
ATOM     19  C   UNL     1       7.081  -2.221  -0.638  1.00  0.00     0.000 C 
BRANCH  19  20
ATOM     20  C   UNL     1       6.582  -1.155   0.362  1.00  0.00     0.006 C 
BRANCH  20  21
ATOM     21  C   UNL     1       5.999   0.097  -0.312  1.00  0.00     0.053 C 
BRANCH  21  22
ATOM     22  C   UNL     1       5.622   1.155   0.677  1.00  0.00     0.041 C 
ATOM     23  O   UNL     1       5.370   2.327   0.287  1.00  0.00    -0.550 OA
ATOM     24  O   UNL     1       5.558   0.852   2.032  1.00  0.00    -0.550 OA
ENDBRANCH  21  22
ENDBRANCH  20  21
ENDBRANCH  19  20
ENDBRANCH  18  19
ENDBRANCH  17  18
ENDBRANCH  16  17
ENDBRANCH  15  16
ENDBRANCH  14  15
ENDBRANCH  13  14
ENDBRANCH   1  13
TORSDOF 20
ENDMDL
MODEL 6
REMARK VINA RESULT:    -4.235      3.342      7.945
REMARK INTER + INTRA:         -11.453
REMARK INTER:                  -9.379
REMARK INTRA:                  -2.075
REMARK UNBOUND:                -2.268
REMARK SMILES CCCCCCCCCCCCCCCCCCCCCC(=O)[O-]
REMARK SMILES IDX 12 1 11 2 10 3 9 4 8 5 7 6 6 7 5 8 4 9 3 10 2 11 1 12 13 13
REMARK SMILES IDX 14 14 15 15 16 16 17 17 18 18 19 19 20 20 21 21 22 22 23 23
REMARK SMILES IDX 24 24
REMARK H PARENT
REMARK Flexibility Score: inf
ROOT
ATOM      1  C   UNL     1       7.873  -3.259  -1.219  1.00  0.00     0.000 C 
ENDROOT
BRANCH   1   2
ATOM      2  C   UNL     1       7.714  -1.748  -0.967  1.00  0.00     0.000 C 
BRANCH   2   3
ATOM      3  C   UNL     1       6.600  -1.367   0.026  1.00  0.00     0.000 C 
BRANCH   3   4
ATOM      4  C   UNL     1       5.624  -0.281  -0.467  1.00  0.00    -0.000 C 
BRANCH   4   5
ATOM      5  C   UNL     1       6.290   0.821  -1.318  1.00  0.00    -0.000 C 
BRANCH   5   6
ATOM      6  C   UNL     1       6.169   2.212  -0.680  1.00  0.00    -0.000 C 
BRANCH   6   7
ATOM      7  C   UNL     1       5.424   2.141   0.661  1.00  0.00    -0.000 C 
BRANCH   7   8
ATOM      8  C   UNL     1       5.737   3.332   1.585  1.00  0.00    -0.000 C 
BRANCH   8   9
ATOM      9  C   UNL     1       4.638   4.410   1.663  1.00  0.00    -0.000 C 
BRANCH   9  10
ATOM     10  C   UNL     1       3.195   3.884   1.539  1.00  0.00    -0.000 C 
BRANCH  10  11
ATOM     11  C   UNL     1       2.344   4.644   0.501  1.00  0.00    -0.003 C 
ATOM     12  C   UNL     1       3.054   5.875  -0.060  1.00  0.00     0.004 C 
ENDBRANCH  10  11
ENDBRANCH   9  10
ENDBRANCH   8   9
ENDBRANCH   7   8
ENDBRANCH   6   7
ENDBRANCH   5   6
ENDBRANCH   4   5
ENDBRANCH   3   4
ENDBRANCH   2   3
ENDBRANCH   1   2
BRANCH   1  13
ATOM     13  C   UNL     1       7.727  -3.639  -2.700  1.00  0.00     0.000 C 
BRANCH  13  14
ATOM     14  C   UNL     1       7.253  -2.438  -3.528  1.00  0.00     0.000 C 
BRANCH  14  15
ATOM     15  C   UNL     1       5.850  -2.684  -4.104  1.00  0.00     0.000 C 
BRANCH  15  16
ATOM     16  C   UNL     1       4.855  -1.564  -3.745  1.00  0.00     0.000 C 
BRANCH  16  17
ATOM     17  C   UNL     1       4.095  -0.985  -4.952  1.00  0.00     0.000 C 
BRANCH  17  18
ATOM     18  C   UNL     1       2.575  -1.273  -4.908  1.00  0.00     0.000 C 
BRANCH  18  19
ATOM     19  C   UNL     1       2.175  -2.517  -5.725  1.00  0.00     0.000 C 
BRANCH  19  20
ATOM     20  C   UNL     1       2.158  -3.822  -4.899  1.00  0.00     0.006 C 
BRANCH  20  21
ATOM     21  C   UNL     1       1.420  -3.692  -3.557  1.00  0.00     0.053 C 
BRANCH  21  22
ATOM     22  C   UNL     1       0.710  -4.951  -3.171  1.00  0.00     0.041 C 
ATOM     23  O   UNL     1       1.243  -5.758  -2.362  1.00  0.00    -0.550 OA
ATOM     24  O   UNL     1      -0.537  -5.243  -3.713  1.00  0.00    -0.550 OA
ENDBRANCH  21  22
ENDBRANCH  20  21
ENDBRANCH  19  20
ENDBRANCH  18  19
ENDBRANCH  17  18
ENDBRANCH  16  17
ENDBRANCH  15  16
ENDBRANCH  14  15
ENDBRANCH  13  14
ENDBRANCH   1  13
TORSDOF 20
ENDMDL
MODEL 7
REMARK VINA RESULT:    -4.224      1.097      2.733
REMARK INTER + INTRA:         -11.430
REMARK INTER:                  -9.162
REMARK INTRA:                  -2.268
REMARK UNBOUND:                -2.268
REMARK SMILES CCCCCCCCCCCCCCCCCCCCCC(=O)[O-]
REMARK SMILES IDX 12 1 11 2 10 3 9 4 8 5 7 6 6 7 5 8 4 9 3 10 2 11 1 12 13 13
REMARK SMILES IDX 14 14 15 15 16 16 17 17 18 18 19 19 20 20 21 21 22 22 23 23
REMARK SMILES IDX 24 24
REMARK H PARENT
REMARK Flexibility Score: inf
ROOT
ATOM      1  C   UNL     1       3.877  -1.611  -3.564  1.00  0.00     0.000 C 
ENDROOT
BRANCH   1   2
ATOM      2  C   UNL     1       2.967  -1.193  -4.733  1.00  0.00     0.000 C 
BRANCH   2   3
ATOM      3  C   UNL     1       2.126  -2.330  -5.343  1.00  0.00     0.000 C 
BRANCH   3   4
ATOM      4  C   UNL     1       2.748  -3.736  -5.239  1.00  0.00    -0.000 C 
BRANCH   4   5
ATOM      5  C   UNL     1       1.899  -4.739  -4.429  1.00  0.00    -0.000 C 
BRANCH   5   6
ATOM      6  C   UNL     1       1.272  -4.104  -3.180  1.00  0.00    -0.000 C 
BRANCH   6   7
ATOM      7  C   UNL     1      -0.153  -4.629  -2.950  1.00  0.00    -0.000 C 
BRANCH   7   8
ATOM      8  C   UNL     1      -0.184  -5.971  -2.195  1.00  0.00    -0.000 C 
BRANCH   8   9
ATOM      9  C   UNL     1       1.045  -6.256  -1.310  1.00  0.00    -0.000 C 
BRANCH   9  10
ATOM     10  C   UNL     1       1.328  -7.747  -1.044  1.00  0.00    -0.000 C 
BRANCH  10  11
ATOM     11  C   UNL     1       2.623  -8.261  -1.707  1.00  0.00    -0.003 C 
ATOM     12  C   UNL     1       2.574  -8.196  -3.232  1.00  0.00     0.004 C 
ENDBRANCH  10  11
ENDBRANCH   9  10
ENDBRANCH   8   9
ENDBRANCH   7   8
ENDBRANCH   6   7
ENDBRANCH   5   6
ENDBRANCH   4   5
ENDBRANCH   3   4
ENDBRANCH   2   3
ENDBRANCH   1   2
BRANCH   1  13
ATOM     13  C   UNL     1       5.357  -1.281  -3.808  1.00  0.00     0.000 C 
BRANCH  13  14
ATOM     14  C   UNL     1       6.191  -2.564  -3.917  1.00  0.00     0.000 C 
BRANCH  14  15
ATOM     15  C   UNL     1       7.559  -2.393  -3.239  1.00  0.00     0.000 C 
BRANCH  15  16
ATOM     16  C   UNL     1       7.822  -3.454  -2.153  1.00  0.00     0.000 C 
BRANCH  16  17
ATOM     17  C   UNL     1       7.486  -2.990  -0.724  1.00  0.00     0.000 C 
BRANCH  17  18
ATOM     18  C   UNL     1       7.561  -1.454  -0.550  1.00  0.00     0.000 C 
BRANCH  18  19
ATOM     19  C   UNL     1       6.211  -0.829  -0.149  1.00  0.00     0.000 C 
BRANCH  19  20
ATOM     20  C   UNL     1       6.043   0.634  -0.617  1.00  0.00     0.006 C 
BRANCH  20  21
ATOM     21  C   UNL     1       5.517   1.575   0.479  1.00  0.00     0.053 C 
BRANCH  21  22
ATOM     22  C   UNL     1       6.424   1.630   1.668  1.00  0.00     0.041 C 
ATOM     23  O   UNL     1       7.507   2.273   1.610  1.00  0.00    -0.550 OA
ATOM     24  O   UNL     1       6.081   0.963   2.838  1.00  0.00    -0.550 OA
ENDBRANCH  21  22
ENDBRANCH  20  21
ENDBRANCH  19  20
ENDBRANCH  18  19
ENDBRANCH  17  18
ENDBRANCH  16  17
ENDBRANCH  15  16
ENDBRANCH  14  15
ENDBRANCH  13  14
ENDBRANCH   1  13
TORSDOF 20
ENDMDL
MODEL 8
REMARK VINA RESULT:    -4.216      1.673      4.631
REMARK INTER + INTRA:         -11.414
REMARK INTER:                  -9.165
REMARK INTRA:                  -2.249
REMARK UNBOUND:                -2.268
REMARK SMILES CCCCCCCCCCCCCCCCCCCCCC(=O)[O-]
REMARK SMILES IDX 12 1 11 2 10 3 9 4 8 5 7 6 6 7 5 8 4 9 3 10 2 11 1 12 13 13
REMARK SMILES IDX 14 14 15 15 16 16 17 17 18 18 19 19 20 20 21 21 22 22 23 23
REMARK SMILES IDX 24 24
REMARK H PARENT
REMARK Flexibility Score: inf
ROOT
ATOM      1  C   UNL     1       2.854  -4.498  -5.426  1.00  0.00     0.000 C 
ENDROOT
BRANCH   1   2
ATOM      2  C   UNL     1       1.873  -4.361  -4.247  1.00  0.00     0.000 C 
BRANCH   2   3
ATOM      3  C   UNL     1       0.547  -5.128  -4.410  1.00  0.00     0.000 C 
BRANCH   3   4
ATOM      4  C   UNL     1      -0.185  -5.459  -3.095  1.00  0.00    -0.000 C 
BRANCH   4   5
ATOM      5  C   UNL     1       0.431  -4.790  -1.848  1.00  0.00    -0.000 C 
BRANCH   5   6
ATOM      6  C   UNL     1       1.084  -5.804  -0.898  1.00  0.00    -0.000 C 
BRANCH   6   7
ATOM      7  C   UNL     1       0.662  -7.239  -1.248  1.00  0.00    -0.000 C 
BRANCH   7   8
ATOM      8  C   UNL     1       1.799  -8.261  -1.059  1.00  0.00    -0.000 C 
BRANCH   8   9
ATOM      9  C   UNL     1       2.801  -8.353  -2.226  1.00  0.00    -0.000 C 
BRANCH   9  10
ATOM     10  C   UNL     1       2.174  -8.302  -3.633  1.00  0.00    -0.000 C 
BRANCH  10  11
ATOM     11  C   UNL     1       3.205  -8.122  -4.767  1.00  0.00    -0.003 C 
ATOM     12  C   UNL     1       4.594  -7.752  -4.250  1.00  0.00     0.004 C 
ENDBRANCH  10  11
ENDBRANCH   9  10
ENDBRANCH   8   9
ENDBRANCH   7   8
ENDBRANCH   6   7
ENDBRANCH   5   6
ENDBRANCH   4   5
ENDBRANCH   3   4
ENDBRANCH   2   3
ENDBRANCH   1   2
BRANCH   1  13
ATOM     13  C   UNL     1       3.183  -3.155  -6.094  1.00  0.00     0.000 C 
BRANCH  13  14
ATOM     14  C   UNL     1       2.292  -2.036  -5.539  1.00  0.00     0.000 C 
BRANCH  14  15
ATOM     15  C   UNL     1       3.116  -1.029  -4.721  1.00  0.00     0.000 C 
BRANCH  15  16
ATOM     16  C   UNL     1       4.634  -1.227  -4.889  1.00  0.00     0.000 C 
BRANCH  16  17
ATOM     17  C   UNL     1       5.309  -1.951  -3.711  1.00  0.00     0.000 C 
BRANCH  17  18
ATOM     18  C   UNL     1       5.375  -1.091  -2.426  1.00  0.00     0.000 C 
BRANCH  18  19
ATOM     19  C   UNL     1       6.660  -1.330  -1.609  1.00  0.00     0.000 C 
BRANCH  19  20
ATOM     20  C   UNL     1       6.500  -1.034  -0.101  1.00  0.00     0.006 C 
BRANCH  20  21
ATOM     21  C   UNL     1       5.639   0.205   0.196  1.00  0.00     0.053 C 
BRANCH  21  22
ATOM     22  C   UNL     1       5.556   0.505   1.660  1.00  0.00     0.041 C 
ATOM     23  O   UNL     1       5.308  -0.417   2.483  1.00  0.00    -0.550 OA
ATOM     24  O   UNL     1       5.741   1.805   2.116  1.00  0.00    -0.550 OA
ENDBRANCH  21  22
ENDBRANCH  20  21
ENDBRANCH  19  20
ENDBRANCH  18  19
ENDBRANCH  17  18
ENDBRANCH  16  17
ENDBRANCH  15  16
ENDBRANCH  14  15
ENDBRANCH  13  14
ENDBRANCH   1  13
TORSDOF 20
ENDMDL
MODEL 9
REMARK VINA RESULT:    -4.211      1.499      2.937
REMARK INTER + INTRA:         -11.403
REMARK INTER:                  -8.515
REMARK INTRA:                  -2.888
REMARK UNBOUND:                -2.268
REMARK SMILES CCCCCCCCCCCCCCCCCCCCCC(=O)[O-]
REMARK SMILES IDX 12 1 11 2 10 3 9 4 8 5 7 6 6 7 5 8 4 9 3 10 2 11 1 12 13 13
REMARK SMILES IDX 14 14 15 15 16 16 17 17 18 18 19 19 20 20 21 21 22 22 23 23
REMARK SMILES IDX 24 24
REMARK H PARENT
REMARK Flexibility Score: inf
ROOT
ATOM      1  C   UNL     1       8.908  -4.864  -2.502  1.00  0.00     0.000 C 
ENDROOT
BRANCH   1   2
ATOM      2  C   UNL     1       7.807  -4.898  -3.578  1.00  0.00     0.000 C 
BRANCH   2   3
ATOM      3  C   UNL     1       8.129  -4.117  -4.866  1.00  0.00     0.000 C 
BRANCH   3   4
ATOM      4  C   UNL     1       7.193  -2.930  -5.166  1.00  0.00    -0.000 C 
BRANCH   4   5
ATOM      5  C   UNL     1       5.858  -2.974  -4.393  1.00  0.00    -0.000 C 
BRANCH   5   6
ATOM      6  C   UNL     1       5.030  -1.693  -4.576  1.00  0.00    -0.000 C 
BRANCH   6   7
ATOM      7  C   UNL     1       3.922  -1.596  -3.518  1.00  0.00    -0.000 C 
BRANCH   7   8
ATOM      8  C   UNL     1       2.518  -1.863  -4.092  1.00  0.00    -0.000 C 
BRANCH   8   9
ATOM      9  C   UNL     1       2.419  -3.065  -5.053  1.00  0.00    -0.000 C 
BRANCH   9  10
ATOM     10  C   UNL     1       1.474  -4.192  -4.595  1.00  0.00    -0.000 C 
BRANCH  10  11
ATOM     11  C   UNL     1       1.052  -4.086  -3.114  1.00  0.00    -0.003 C 
ATOM     12  C   UNL     1       0.684  -5.438  -2.505  1.00  0.00     0.004 C 
ENDBRANCH  10  11
ENDBRANCH   9  10
ENDBRANCH   8   9
ENDBRANCH   7   8
ENDBRANCH   6   7
ENDBRANCH   5   6
ENDBRANCH   4   5
ENDBRANCH   3   4
ENDBRANCH   2   3
ENDBRANCH   1   2
BRANCH   1  13
ATOM     13  C   UNL     1       8.370  -4.542  -1.101  1.00  0.00     0.000 C 
BRANCH  13  14
ATOM     14  C   UNL     1       7.827  -3.109  -1.041  1.00  0.00     0.000 C 
BRANCH  14  15
ATOM     15  C   UNL     1       8.938  -2.085  -1.319  1.00  0.00     0.000 C 
BRANCH  15  16
ATOM     16  C   UNL     1       8.540  -1.052  -2.391  1.00  0.00     0.000 C 
BRANCH  16  17
ATOM     17  C   UNL     1       8.839   0.406  -2.001  1.00  0.00     0.000 C 
BRANCH  17  18
ATOM     18  C   UNL     1       7.640   1.113  -1.324  1.00  0.00     0.000 C 
BRANCH  18  19
ATOM     19  C   UNL     1       6.278   0.546  -1.770  1.00  0.00     0.000 C 
BRANCH  19  20
ATOM     20  C   UNL     1       5.466  -0.091  -0.621  1.00  0.00     0.006 C 
BRANCH  20  21
ATOM     21  C   UNL     1       6.283  -0.314   0.662  1.00  0.00     0.053 C 
BRANCH  21  22
ATOM     22  C   UNL     1       5.666   0.349   1.854  1.00  0.00     0.041 C 
ATOM     23  O   UNL     1       5.439  -0.315   2.901  1.00  0.00    -0.550 OA
ATOM     24  O   UNL     1       5.333   1.697   1.807  1.00  0.00    -0.550 OA
ENDBRANCH  21  22
ENDBRANCH  20  21
ENDBRANCH  19  20
ENDBRANCH  18  19
ENDBRANCH  17  18
ENDBRANCH  16  17
ENDBRANCH  15  16
ENDBRANCH  14  15
ENDBRANCH  13  14
ENDBRANCH   1  13
TORSDOF 20
ENDMDL
