MODEL 1
REMARK VINA RESULT:    -4.576      0.000      0.000
REMARK INTER + INTRA:         -14.281
REMARK INTER:                 -10.462
REMARK INTRA:                  -3.819
REMARK UNBOUND:                -3.819
REMARK SMILES CCCCCCCCCCCCCCCCCCCCCCCC(=O)[O-]
REMARK SMILES IDX 13 1 14 2 15 3 16 4 17 5 18 6 19 7 20 8 21 9 22 10 23 11
REMARK SMILES IDX 24 12 25 13 26 14 12 15 11 16 10 17 9 18 8 19 7 20 6 21 5 22
REMARK SMILES IDX 4 23 3 24 2 25 1 26
REMARK H PARENT
REMARK Flexibility Score: inf
ROOT
ATOM      1  C   UNL     1       9.162  14.726  15.429  1.00  0.00     0.000 C 
ENDROOT
BRANCH   1   2
ATOM      2  C   UNL     1       9.321  15.928  14.480  1.00  0.00     0.000 C 
BRANCH   2   3
ATOM      3  C   UNL     1       8.218  16.986  14.653  1.00  0.00     0.000 C 
BRANCH   3   4
ATOM      4  C   UNL     1       8.753  18.429  14.595  1.00  0.00     0.000 C 
BRANCH   4   5
ATOM      5  C   UNL     1      10.252  18.561  14.267  1.00  0.00     0.000 C 
BRANCH   5   6
ATOM      6  C   UNL     1      10.991  19.528  15.203  1.00  0.00     0.000 C 
BRANCH   6   7
ATOM      7  C   UNL     1      12.509  19.454  14.980  1.00  0.00     0.000 C 
BRANCH   7   8
ATOM      8  C   UNL     1      13.293  19.258  16.288  1.00  0.00     0.000 C 
BRANCH   8   9
ATOM      9  C   UNL     1      14.764  18.881  16.043  1.00  0.00     0.000 C 
BRANCH   9  10
ATOM     10  C   UNL     1      15.218  19.141  14.595  1.00  0.00     0.006 C 
BRANCH  10  11
ATOM     11  C   UNL     1      16.012  17.979  13.970  1.00  0.00     0.053 C 
BRANCH  11  12
ATOM     12  C   UNL     1      16.761  18.391  12.738  1.00  0.00     0.041 C 
ATOM     13  O   UNL     1      17.769  17.735  12.361  1.00  0.00    -0.550 OA
ATOM     14  O   UNL     1      16.327  19.475  11.985  1.00  0.00    -0.550 OA
ENDBRANCH  11  12
ENDBRANCH  10  11
ENDBRANCH   9  10
ENDBRANCH   8   9
ENDBRANCH   7   8
ENDBRANCH   6   7
ENDBRANCH   5   6
ENDBRANCH   4   5
ENDBRANCH   3   4
ENDBRANCH   2   3
ENDBRANCH   1   2
BRANCH   1  15
ATOM     15  C   UNL     1      10.039  13.497  15.112  1.00  0.00     0.000 C 
BRANCH  15  16
ATOM     16  C   UNL     1      10.968  13.018  16.250  1.00  0.00     0.000 C 
BRANCH  16  17
ATOM     17  C   UNL     1      12.195  13.923  16.502  1.00  0.00     0.000 C 
BRANCH  17  18
ATOM     18  C   UNL     1      13.035  14.278  15.259  1.00  0.00    -0.000 C 
BRANCH  18  19
ATOM     19  C   UNL     1      13.065  15.770  14.880  1.00  0.00    -0.000 C 
BRANCH  19  20
ATOM     20  C   UNL     1      12.922  16.011  13.370  1.00  0.00    -0.000 C 
BRANCH  20  21
ATOM     21  C   UNL     1      12.380  14.761  12.663  1.00  0.00    -0.000 C 
BRANCH  21  22
ATOM     22  C   UNL     1      11.824  15.059  11.261  1.00  0.00    -0.000 C 
BRANCH  22  23
ATOM     23  C   UNL     1      10.305  14.816  11.135  1.00  0.00    -0.000 C 
BRANCH  23  24
ATOM     24  C   UNL     1       9.507  16.128  11.105  1.00  0.00    -0.000 C 
BRANCH  24  25
ATOM     25  C   UNL     1       8.021  15.863  10.837  1.00  0.00    -0.003 C 
ATOM     26  C   UNL     1       7.209  17.154  10.902  1.00  0.00     0.004 C 
ENDBRANCH  24  25
ENDBRANCH  23  24
ENDBRANCH  22  23
ENDBRANCH  21  22
ENDBRANCH  20  21
ENDBRANCH  19  20
ENDBRANCH  18  19
ENDBRANCH  17  18
ENDBRANCH  16  17
ENDBRANCH  15  16
ENDBRANCH   1  15
TORSDOF 22
ENDMDL
MODEL 2
REMARK VINA RESULT:    -4.505      1.934      3.763
REMARK INTER + INTRA:         -14.119
REMARK INTER:                 -10.173
REMARK INTRA:                  -3.946
REMARK UNBOUND:                -3.819
REMARK SMILES CCCCCCCCCCCCCCCCCCCCCCCC(=O)[O-]
REMARK SMILES IDX 13 1 14 2 15 3 16 4 17 5 18 6 19 7 20 8 21 9 22 10 23 11
REMARK SMILES IDX 24 12 25 13 26 14 12 15 11 16 10 17 9 18 8 19 7 20 6 21 5 22
REMARK SMILES IDX 4 23 3 24 2 25 1 26
REMARK H PARENT
REMARK Flexibility Score: inf
ROOT
ATOM      1  C   UNL     1      12.886  16.633  15.016  1.00  0.00     0.000 C 
ENDROOT
BRANCH   1   2
ATOM      2  C   UNL     1      12.270  17.624  14.011  1.00  0.00     0.000 C 
BRANCH   2   3
ATOM      3  C   UNL     1      12.429  19.094  14.434  1.00  0.00     0.000 C 
BRANCH   3   4
ATOM      4  C   UNL     1      12.929  19.253  15.883  1.00  0.00     0.000 C 
BRANCH   4   5
ATOM      5  C   UNL     1      14.359  19.806  16.028  1.00  0.00     0.000 C 
BRANCH   5   6
ATOM      6  C   UNL     1      15.150  19.782  14.712  1.00  0.00     0.000 C 
BRANCH   6   7
ATOM      7  C   UNL     1      16.024  18.521  14.622  1.00  0.00     0.000 C 
BRANCH   7   8
ATOM      8  C   UNL     1      16.430  18.181  13.178  1.00  0.00     0.000 C 
BRANCH   8   9
ATOM      9  C   UNL     1      15.311  18.480  12.165  1.00  0.00     0.000 C 
BRANCH   9  10
ATOM     10  C   UNL     1      15.330  17.532  10.953  1.00  0.00     0.006 C 
BRANCH  10  11
ATOM     11  C   UNL     1      14.173  16.515  10.934  1.00  0.00     0.053 C 
BRANCH  11  12
ATOM     12  C   UNL     1      14.652  15.096  11.002  1.00  0.00     0.041 C 
ATOM     13  O   UNL     1      15.869  14.848  11.209  1.00  0.00    -0.550 OA
ATOM     14  O   UNL     1      13.750  14.047  10.875  1.00  0.00    -0.550 OA
ENDBRANCH  11  12
ENDBRANCH  10  11
ENDBRANCH   9  10
ENDBRANCH   8   9
ENDBRANCH   7   8
ENDBRANCH   6   7
ENDBRANCH   5   6
ENDBRANCH   4   5
ENDBRANCH   3   4
ENDBRANCH   2   3
ENDBRANCH   1   2
BRANCH   1  15
ATOM     15  C   UNL     1      13.616  15.420  14.405  1.00  0.00     0.000 C 
BRANCH  15  16
ATOM     16  C   UNL     1      13.254  14.042  15.003  1.00  0.00     0.000 C 
BRANCH  16  17
ATOM     17  C   UNL     1      12.515  14.103  16.359  1.00  0.00     0.000 C 
BRANCH  17  18
ATOM     18  C   UNL     1      11.247  13.235  16.473  1.00  0.00    -0.000 C 
BRANCH  18  19
ATOM     19  C   UNL     1      10.262  13.334  15.293  1.00  0.00    -0.000 C 
BRANCH  19  20
ATOM     20  C   UNL     1       9.422  14.619  15.316  1.00  0.00    -0.000 C 
BRANCH  20  21
ATOM     21  C   UNL     1       9.605  15.420  14.020  1.00  0.00    -0.000 C 
BRANCH  21  22
ATOM     22  C   UNL     1      10.303  14.615  12.911  1.00  0.00    -0.000 C 
BRANCH  22  23
ATOM     23  C   UNL     1      10.325  15.334  11.545  1.00  0.00    -0.000 C 
BRANCH  23  24
ATOM     24  C   UNL     1      10.341  14.348  10.368  1.00  0.00    -0.000 C 
BRANCH  24  25
ATOM     25  C   UNL     1       9.023  14.404   9.586  1.00  0.00    -0.003 C 
ATOM     26  C   UNL     1       8.447  13.006   9.375  1.00  0.00     0.004 C 
ENDBRANCH  24  25
ENDBRANCH  23  24
ENDBRANCH  22  23
ENDBRANCH  21  22
ENDBRANCH  20  21
ENDBRANCH  19  20
ENDBRANCH  18  19
ENDBRANCH  17  18
ENDBRANCH  16  17
ENDBRANCH  15  16
ENDBRANCH   1  15
TORSDOF 22
ENDMDL
MODEL 3
REMARK VINA RESULT:    -4.478      1.449      3.988
REMARK INTER + INTRA:         -14.056
REMARK INTER:                 -10.051
REMARK INTRA:                  -4.005
REMARK UNBOUND:                -3.819
REMARK SMILES CCCCCCCCCCCCCCCCCCCCCCCC(=O)[O-]
REMARK SMILES IDX 13 1 14 2 15 3 16 4 17 5 18 6 19 7 20 8 21 9 22 10 23 11
REMARK SMILES IDX 24 12 25 13 26 14 12 15 11 16 10 17 9 18 8 19 7 20 6 21 5 22
REMARK SMILES IDX 4 23 3 24 2 25 1 26
REMARK H PARENT
REMARK Flexibility Score: inf
ROOT
ATOM      1  C   UNL     1       9.519  14.542  15.184  1.00  0.00     0.000 C 
ENDROOT
BRANCH   1   2
ATOM      2  C   UNL     1      10.274  13.209  15.344  1.00  0.00     0.000 C 
BRANCH   2   3
ATOM      3  C   UNL     1      11.249  13.205  16.533  1.00  0.00     0.000 C 
BRANCH   3   4
ATOM      4  C   UNL     1      12.465  14.126  16.317  1.00  0.00     0.000 C 
BRANCH   4   5
ATOM      5  C   UNL     1      13.189  13.954  14.969  1.00  0.00     0.000 C 
BRANCH   5   6
ATOM      6  C   UNL     1      13.788  15.263  14.436  1.00  0.00     0.000 C 
BRANCH   6   7
ATOM      7  C   UNL     1      12.830  16.441  14.674  1.00  0.00     0.000 C 
BRANCH   7   8
ATOM      8  C   UNL     1      13.516  17.636  15.357  1.00  0.00     0.000 C 
BRANCH   8   9
ATOM      9  C   UNL     1      14.307  18.506  14.367  1.00  0.00     0.000 C 
BRANCH   9  10
ATOM     10  C   UNL     1      15.832  18.373  14.534  1.00  0.00     0.006 C 
BRANCH  10  11
ATOM     11  C   UNL     1      16.640  18.861  13.318  1.00  0.00     0.053 C 
BRANCH  11  12
ATOM     12  C   UNL     1      17.130  17.732  12.461  1.00  0.00     0.041 C 
ATOM     13  O   UNL     1      16.359  16.781  12.166  1.00  0.00    -0.550 OA
ATOM     14  O   UNL     1      18.425  17.747  11.957  1.00  0.00    -0.550 OA
ENDBRANCH  11  12
ENDBRANCH  10  11
ENDBRANCH   9  10
ENDBRANCH   8   9
ENDBRANCH   7   8
ENDBRANCH   6   7
ENDBRANCH   5   6
ENDBRANCH   4   5
ENDBRANCH   3   4
ENDBRANCH   2   3
ENDBRANCH   1   2
BRANCH   1  15
ATOM     15  C   UNL     1       9.716  15.271  13.838  1.00  0.00     0.000 C 
BRANCH  15  16
ATOM     16  C   UNL     1       9.322  16.764  13.814  1.00  0.00     0.000 C 
BRANCH  16  17
ATOM     17  C   UNL     1       8.569  17.210  12.540  1.00  0.00     0.000 C 
BRANCH  17  18
ATOM     18  C   UNL     1       8.106  16.077  11.602  1.00  0.00    -0.000 C 
BRANCH  18  19
ATOM     19  C   UNL     1       8.443  16.269  10.111  1.00  0.00    -0.000 C 
BRANCH  19  20
ATOM     20  C   UNL     1       8.866  14.967   9.417  1.00  0.00    -0.000 C 
BRANCH  20  21
ATOM     21  C   UNL     1       9.822  14.157  10.304  1.00  0.00    -0.000 C 
BRANCH  21  22
ATOM     22  C   UNL     1      11.302  14.382   9.952  1.00  0.00    -0.000 C 
BRANCH  22  23
ATOM     23  C   UNL     1      12.157  14.855  11.147  1.00  0.00    -0.000 C 
BRANCH  23  24
ATOM     24  C   UNL     1      12.908  16.161  10.844  1.00  0.00    -0.000 C 
BRANCH  24  25
ATOM     25  C   UNL     1      12.117  17.378  11.337  1.00  0.00    -0.003 C 
ATOM     26  C   UNL     1      11.560  18.185  10.168  1.00  0.00     0.004 C 
ENDBRANCH  24  25
ENDBRANCH  23  24
ENDBRANCH  22  23
ENDBRANCH  21  22
ENDBRANCH  20  21
ENDBRANCH  19  20
ENDBRANCH  18  19
ENDBRANCH  17  18
ENDBRANCH  16  17
ENDBRANCH  15  16
ENDBRANCH   1  15
TORSDOF 22
ENDMDL
MODEL 4
REMARK VINA RESULT:    -4.382      1.095      3.891
REMARK INTER + INTRA:         -13.838
REMARK INTER:                 -10.122
REMARK INTRA:                  -3.716
REMARK UNBOUND:                -3.819
REMARK SMILES CCCCCCCCCCCCCCCCCCCCCCCC(=O)[O-]
REMARK SMILES IDX 13 1 14 2 15 3 16 4 17 5 18 6 19 7 20 8 21 9 22 10 23 11
REMARK SMILES IDX 24 12 25 13 26 14 12 15 11 16 10 17 9 18 8 19 7 20 6 21 5 22
REMARK SMILES IDX 4 23 3 24 2 25 1 26
REMARK H PARENT
REMARK Flexibility Score: inf
ROOT
ATOM      1  C   UNL     1       9.405  14.752  15.613  1.00  0.00     0.000 C 
ENDROOT
BRANCH   1   2
ATOM      2  C   UNL     1      10.193  13.452  15.370  1.00  0.00     0.000 C 
BRANCH   2   3
ATOM      3  C   UNL     1      11.317  13.224  16.395  1.00  0.00     0.000 C 
BRANCH   3   4
ATOM      4  C   UNL     1      12.580  14.055  16.098  1.00  0.00     0.000 C 
BRANCH   4   5
ATOM      5  C   UNL     1      13.124  13.933  14.662  1.00  0.00     0.000 C 
BRANCH   5   6
ATOM      6  C   UNL     1      13.750  15.235  14.143  1.00  0.00     0.000 C 
BRANCH   6   7
ATOM      7  C   UNL     1      12.739  16.391  14.205  1.00  0.00     0.000 C 
BRANCH   7   8
ATOM      8  C   UNL     1      13.171  17.507  15.171  1.00  0.00     0.000 C 
BRANCH   8   9
ATOM      9  C   UNL     1      14.031  18.581  14.485  1.00  0.00     0.000 C 
BRANCH   9  10
ATOM     10  C   UNL     1      15.535  18.420  14.771  1.00  0.00     0.006 C 
BRANCH  10  11
ATOM     11  C   UNL     1      16.448  19.071  13.716  1.00  0.00     0.053 C 
BRANCH  11  12
ATOM     12  C   UNL     1      16.759  18.149  12.576  1.00  0.00     0.041 C 
ATOM     13  O   UNL     1      15.848  17.793  11.782  1.00  0.00    -0.550 OA
ATOM     14  O   UNL     1      18.062  17.710  12.367  1.00  0.00    -0.550 OA
ENDBRANCH  11  12
ENDBRANCH  10  11
ENDBRANCH   9  10
ENDBRANCH   8   9
ENDBRANCH   7   8
ENDBRANCH   6   7
ENDBRANCH   5   6
ENDBRANCH   4   5
ENDBRANCH   3   4
ENDBRANCH   2   3
ENDBRANCH   1   2
BRANCH   1  15
ATOM     15  C   UNL     1       9.187  15.650  14.378  1.00  0.00     0.000 C 
BRANCH  15  16
ATOM     16  C   UNL     1       8.473  16.995  14.636  1.00  0.00     0.000 C 
BRANCH  16  17
ATOM     17  C   UNL     1       9.381  18.239  14.512  1.00  0.00     0.000 C 
BRANCH  17  18
ATOM     18  C   UNL     1       9.378  18.940  13.139  1.00  0.00    -0.000 C 
BRANCH  18  19
ATOM     19  C   UNL     1      10.284  18.307  12.066  1.00  0.00    -0.000 C 
BRANCH  19  20
ATOM     20  C   UNL     1       9.547  18.016  10.751  1.00  0.00    -0.000 C 
BRANCH  20  21
ATOM     21  C   UNL     1       8.141  17.463  11.019  1.00  0.00    -0.000 C 
BRANCH  21  22
ATOM     22  C   UNL     1       8.075  15.928  10.947  1.00  0.00    -0.000 C 
BRANCH  22  23
ATOM     23  C   UNL     1       8.780  15.338   9.706  1.00  0.00    -0.000 C 
BRANCH  23  24
ATOM     24  C   UNL     1       9.757  14.212  10.073  1.00  0.00    -0.000 C 
BRANCH  24  25
ATOM     25  C   UNL     1      10.631  14.609  11.269  1.00  0.00    -0.003 C 
ATOM     26  C   UNL     1      12.107  14.645  10.886  1.00  0.00     0.004 C 
ENDBRANCH  24  25
ENDBRANCH  23  24
ENDBRANCH  22  23
ENDBRANCH  21  22
ENDBRANCH  20  21
ENDBRANCH  19  20
ENDBRANCH  18  19
ENDBRANCH  17  18
ENDBRANCH  16  17
ENDBRANCH  15  16
ENDBRANCH   1  15
TORSDOF 22
ENDMDL
MODEL 5
REMARK VINA RESULT:    -4.382      2.520      5.716
REMARK INTER + INTRA:         -13.838
REMARK INTER:                  -9.536
REMARK INTRA:                  -4.302
REMARK UNBOUND:                -3.819
REMARK SMILES CCCCCCCCCCCCCCCCCCCCCCCC(=O)[O-]
REMARK SMILES IDX 13 1 14 2 15 3 16 4 17 5 18 6 19 7 20 8 21 9 22 10 23 11
REMARK SMILES IDX 24 12 25 13 26 14 12 15 11 16 10 17 9 18 8 19 7 20 6 21 5 22
REMARK SMILES IDX 4 23 3 24 2 25 1 26
REMARK H PARENT
REMARK Flexibility Score: inf
ROOT
ATOM      1  C   UNL     1      10.983  12.745  15.877  1.00  0.00     0.000 C 
ENDROOT
BRANCH   1   2
ATOM      2  C   UNL     1       9.993  13.349  14.863  1.00  0.00     0.000 C 
BRANCH   2   3
ATOM      3  C   UNL     1       9.251  14.583  15.403  1.00  0.00     0.000 C 
BRANCH   3   4
ATOM      4  C   UNL     1       9.102  15.701  14.354  1.00  0.00     0.000 C 
BRANCH   4   5
ATOM      5  C   UNL     1       8.346  16.955  14.833  1.00  0.00     0.000 C 
BRANCH   5   6
ATOM      6  C   UNL     1       8.252  18.048  13.760  1.00  0.00     0.000 C 
BRANCH   6   7
ATOM      7  C   UNL     1       6.859  18.059  13.110  1.00  0.00     0.000 C 
BRANCH   7   8
ATOM      8  C   UNL     1       6.917  17.929  11.579  1.00  0.00     0.000 C 
BRANCH   8   9
ATOM      9  C   UNL     1       8.263  17.373  11.085  1.00  0.00     0.000 C 
BRANCH   9  10
ATOM     10  C   UNL     1       8.160  15.934  10.550  1.00  0.00     0.006 C 
BRANCH  10  11
ATOM     11  C   UNL     1       9.413  15.077  10.809  1.00  0.00     0.053 C 
BRANCH  11  12
ATOM     12  C   UNL     1      10.192  14.804   9.559  1.00  0.00     0.041 C 
ATOM     13  O   UNL     1      11.248  14.119   9.608  1.00  0.00    -0.550 OA
ATOM     14  O   UNL     1       9.735  15.273   8.332  1.00  0.00    -0.550 OA
ENDBRANCH  11  12
ENDBRANCH  10  11
ENDBRANCH   9  10
ENDBRANCH   8   9
ENDBRANCH   7   8
ENDBRANCH   6   7
ENDBRANCH   5   6
ENDBRANCH   4   5
ENDBRANCH   3   4
ENDBRANCH   2   3
ENDBRANCH   1   2
BRANCH   1  15
ATOM     15  C   UNL     1      11.863  13.753  16.643  1.00  0.00     0.000 C 
BRANCH  15  16
ATOM     16  C   UNL     1      12.807  14.620  15.781  1.00  0.00     0.000 C 
BRANCH  16  17
ATOM     17  C   UNL     1      13.610  13.834  14.719  1.00  0.00     0.000 C 
BRANCH  17  18
ATOM     18  C   UNL     1      13.670  14.469  13.316  1.00  0.00    -0.000 C 
BRANCH  18  19
ATOM     19  C   UNL     1      12.387  15.185  12.853  1.00  0.00    -0.000 C 
BRANCH  19  20
ATOM     20  C   UNL     1      12.668  16.444  12.020  1.00  0.00    -0.000 C 
BRANCH  20  21
ATOM     21  C   UNL     1      11.872  17.644  12.551  1.00  0.00    -0.000 C 
BRANCH  21  22
ATOM     22  C   UNL     1      11.928  17.770  14.083  1.00  0.00    -0.000 C 
BRANCH  22  23
ATOM     23  C   UNL     1      12.936  18.828  14.579  1.00  0.00    -0.000 C 
BRANCH  23  24
ATOM     24  C   UNL     1      14.101  18.200  15.360  1.00  0.00    -0.000 C 
BRANCH  24  25
ATOM     25  C   UNL     1      15.207  17.725  14.410  1.00  0.00    -0.003 C 
ATOM     26  C   UNL     1      16.023  18.900  13.881  1.00  0.00     0.004 C 
ENDBRANCH  24  25
ENDBRANCH  23  24
ENDBRANCH  22  23
ENDBRANCH  21  22
ENDBRANCH  20  21
ENDBRANCH  19  20
ENDBRANCH  18  19
ENDBRANCH  17  18
ENDBRANCH  16  17
ENDBRANCH  15  16
ENDBRANCH   1  15
TORSDOF 22
ENDMDL
MODEL 6
REMARK VINA RESULT:    -4.362      3.074      5.515
REMARK INTER + INTRA:         -13.791
REMARK INTER:                  -9.303
REMARK INTRA:                  -4.487
REMARK UNBOUND:                -3.819
REMARK SMILES CCCCCCCCCCCCCCCCCCCCCCCC(=O)[O-]
REMARK SMILES IDX 13 1 14 2 15 3 16 4 17 5 18 6 19 7 20 8 21 9 22 10 23 11
REMARK SMILES IDX 24 12 25 13 26 14 12 15 11 16 10 17 9 18 8 19 7 20 6 21 5 22
REMARK SMILES IDX 4 23 3 24 2 25 1 26
REMARK H PARENT
REMARK Flexibility Score: inf
ROOT
ATOM      1  C   UNL     1      13.241  13.911  14.941  1.00  0.00     0.000 C 
ENDROOT
BRANCH   1   2
ATOM      2  C   UNL     1      13.768  15.188  14.261  1.00  0.00     0.000 C 
BRANCH   2   3
ATOM      3  C   UNL     1      13.240  16.480  14.908  1.00  0.00     0.000 C 
BRANCH   3   4
ATOM      4  C   UNL     1      14.159  17.693  14.665  1.00  0.00     0.000 C 
BRANCH   4   5
ATOM      5  C   UNL     1      13.439  19.049  14.543  1.00  0.00     0.000 C 
BRANCH   5   6
ATOM      6  C   UNL     1      12.870  19.551  15.878  1.00  0.00     0.000 C 
BRANCH   6   7
ATOM      7  C   UNL     1      11.408  19.997  15.717  1.00  0.00     0.000 C 
BRANCH   7   8
ATOM      8  C   UNL     1      10.597  19.060  14.806  1.00  0.00     0.000 C 
BRANCH   8   9
ATOM      9  C   UNL     1       9.086  19.338  14.870  1.00  0.00     0.000 C 
BRANCH   9  10
ATOM     10  C   UNL     1       8.373  19.099  13.526  1.00  0.00     0.006 C 
BRANCH  10  11
ATOM     11  C   UNL     1       7.439  17.876  13.521  1.00  0.00     0.053 C 
BRANCH  11  12
ATOM     12  C   UNL     1       6.985  17.503  12.142  1.00  0.00     0.041 C 
ATOM     13  O   UNL     1       6.146  18.220  11.536  1.00  0.00    -0.550 OA
ATOM     14  O   UNL     1       7.515  16.385  11.509  1.00  0.00    -0.550 OA
ENDBRANCH  11  12
ENDBRANCH  10  11
ENDBRANCH   9  10
ENDBRANCH   8   9
ENDBRANCH   7   8
ENDBRANCH   6   7
ENDBRANCH   5   6
ENDBRANCH   4   5
ENDBRANCH   3   4
ENDBRANCH   2   3
ENDBRANCH   1   2
BRANCH   1  15
ATOM     15  C   UNL     1      12.525  14.113  16.292  1.00  0.00     0.000 C 
BRANCH  15  16
ATOM     16  C   UNL     1      11.254  13.264  16.517  1.00  0.00     0.000 C 
BRANCH  16  17
ATOM     17  C   UNL     1      10.253  13.281  15.340  1.00  0.00     0.000 C 
BRANCH  17  18
ATOM     18  C   UNL     1       9.506  14.610  15.112  1.00  0.00    -0.000 C 
BRANCH  18  19
ATOM     19  C   UNL     1       9.977  15.438  13.901  1.00  0.00    -0.000 C 
BRANCH  19  20
ATOM     20  C   UNL     1      10.474  14.572  12.736  1.00  0.00    -0.000 C 
BRANCH  20  21
ATOM     21  C   UNL     1      11.044  15.442  11.608  1.00  0.00    -0.000 C 
BRANCH  21  22
ATOM     22  C   UNL     1      10.958  16.948  11.910  1.00  0.00    -0.000 C 
BRANCH  22  23
ATOM     23  C   UNL     1      12.177  17.750  11.404  1.00  0.00    -0.000 C 
BRANCH  23  24
ATOM     24  C   UNL     1      13.364  16.842  11.049  1.00  0.00    -0.000 C 
BRANCH  24  25
ATOM     25  C   UNL     1      14.440  17.618  10.281  1.00  0.00    -0.003 C 
ATOM     26  C   UNL     1      15.530  18.126  11.221  1.00  0.00     0.004 C 
ENDBRANCH  24  25
ENDBRANCH  23  24
ENDBRANCH  22  23
ENDBRANCH  21  22
ENDBRANCH  20  21
ENDBRANCH  19  20
ENDBRANCH  18  19
ENDBRANCH  17  18
ENDBRANCH  16  17
ENDBRANCH  15  16
ENDBRANCH   1  15
TORSDOF 22
ENDMDL
MODEL 7
REMARK VINA RESULT:    -4.357      3.073      5.060
REMARK INTER + INTRA:         -13.779
REMARK INTER:                 -10.085
REMARK INTRA:                  -3.694
REMARK UNBOUND:                -3.819
REMARK SMILES CCCCCCCCCCCCCCCCCCCCCCCC(=O)[O-]
REMARK SMILES IDX 13 1 14 2 15 3 16 4 17 5 18 6 19 7 20 8 21 9 22 10 23 11
REMARK SMILES IDX 24 12 25 13 26 14 12 15 11 16 10 17 9 18 8 19 7 20 6 21 5 22
REMARK SMILES IDX 4 23 3 24 2 25 1 26
REMARK H PARENT
REMARK Flexibility Score: inf
ROOT
ATOM      1  C   UNL     1      13.930  14.918  14.077  1.00  0.00     0.000 C 
ENDROOT
BRANCH   1   2
ATOM      2  C   UNL     1      13.579  16.333  14.574  1.00  0.00     0.000 C 
BRANCH   2   3
ATOM      3  C   UNL     1      14.667  17.374  14.257  1.00  0.00     0.000 C 
BRANCH   3   4
ATOM      4  C   UNL     1      14.537  18.655  15.101  1.00  0.00     0.000 C 
BRANCH   4   5
ATOM      5  C   UNL     1      13.201  18.817  15.849  1.00  0.00     0.000 C 
BRANCH   5   6
ATOM      6  C   UNL     1      12.258  19.830  15.185  1.00  0.00     0.000 C 
BRANCH   6   7
ATOM      7  C   UNL     1      10.830  19.268  15.090  1.00  0.00     0.000 C 
BRANCH   7   8
ATOM      8  C   UNL     1      10.169  19.551  13.731  1.00  0.00     0.000 C 
BRANCH   8   9
ATOM      9  C   UNL     1      10.904  18.871  12.565  1.00  0.00     0.000 C 
BRANCH   9  10
ATOM     10  C   UNL     1       9.954  18.396  11.450  1.00  0.00     0.006 C 
BRANCH  10  11
ATOM     11  C   UNL     1       8.485  18.805  11.662  1.00  0.00     0.053 C 
BRANCH  11  12
ATOM     12  C   UNL     1       7.588  17.628  11.898  1.00  0.00     0.041 C 
ATOM     13  O   UNL     1       7.125  17.405  13.048  1.00  0.00    -0.550 OA
ATOM     14  O   UNL     1       7.231  16.797  10.842  1.00  0.00    -0.550 OA
ENDBRANCH  11  12
ENDBRANCH  10  11
ENDBRANCH   9  10
ENDBRANCH   8   9
ENDBRANCH   7   8
ENDBRANCH   6   7
ENDBRANCH   5   6
ENDBRANCH   4   5
ENDBRANCH   3   4
ENDBRANCH   2   3
ENDBRANCH   1   2
BRANCH   1  15
ATOM     15  C   UNL     1      13.225  13.755  14.803  1.00  0.00     0.000 C 
BRANCH  15  16
ATOM     16  C   UNL     1      12.609  14.090  16.180  1.00  0.00     0.000 C 
BRANCH  16  17
ATOM     17  C   UNL     1      11.276  13.368  16.480  1.00  0.00     0.000 C 
BRANCH  17  18
ATOM     18  C   UNL     1      10.221  13.409  15.357  1.00  0.00    -0.000 C 
BRANCH  18  19
ATOM     19  C   UNL     1       9.437  14.728  15.227  1.00  0.00    -0.000 C 
BRANCH  19  20
ATOM     20  C   UNL     1       9.984  15.649  14.128  1.00  0.00    -0.000 C 
BRANCH  20  21
ATOM     21  C   UNL     1       9.898  14.974  12.752  1.00  0.00    -0.000 C 
BRANCH  21  22
ATOM     22  C   UNL     1      11.216  15.049  11.963  1.00  0.00    -0.000 C 
BRANCH  22  23
ATOM     23  C   UNL     1      11.071  14.652  10.478  1.00  0.00    -0.000 C 
BRANCH  23  24
ATOM     24  C   UNL     1       9.629  14.264  10.118  1.00  0.00    -0.000 C 
BRANCH  24  25
ATOM     25  C   UNL     1       9.523  13.839   8.649  1.00  0.00    -0.003 C 
ATOM     26  C   UNL     1       8.309  12.943   8.420  1.00  0.00     0.004 C 
ENDBRANCH  24  25
ENDBRANCH  23  24
ENDBRANCH  22  23
ENDBRANCH  21  22
ENDBRANCH  20  21
ENDBRANCH  19  20
ENDBRANCH  18  19
ENDBRANCH  17  18
ENDBRANCH  16  17
ENDBRANCH  15  16
ENDBRANCH   1  15
TORSDOF 22
ENDMDL
MODEL 8
REMARK VINA RESULT:    -4.340      1.675      4.358
REMARK INTER + INTRA:         -13.741
REMARK INTER:                  -9.805
REMARK INTRA:                  -3.936
REMARK UNBOUND:                -3.819
REMARK SMILES CCCCCCCCCCCCCCCCCCCCCCCC(=O)[O-]
REMARK SMILES IDX 13 1 14 2 15 3 16 4 17 5 18 6 19 7 20 8 21 9 22 10 23 11
REMARK SMILES IDX 24 12 25 13 26 14 12 15 11 16 10 17 9 18 8 19 7 20 6 21 5 22
REMARK SMILES IDX 4 23 3 24 2 25 1 26
REMARK H PARENT
REMARK Flexibility Score: inf
ROOT
ATOM      1  C   UNL     1       9.478  14.509  15.348  1.00  0.00     0.000 C 
ENDROOT
BRANCH   1   2
ATOM      2  C   UNL     1      10.280  13.212  15.563  1.00  0.00     0.000 C 
BRANCH   2   3
ATOM      3  C   UNL     1      11.391  13.354  16.616  1.00  0.00     0.000 C 
BRANCH   3   4
ATOM      4  C   UNL     1      12.599  14.164  16.110  1.00  0.00     0.000 C 
BRANCH   4   5
ATOM      5  C   UNL     1      13.144  13.741  14.733  1.00  0.00     0.000 C 
BRANCH   5   6
ATOM      6  C   UNL     1      13.550  14.932  13.854  1.00  0.00     0.000 C 
BRANCH   6   7
ATOM      7  C   UNL     1      13.187  14.676  12.383  1.00  0.00     0.000 C 
BRANCH   7   8
ATOM      8  C   UNL     1      13.499  15.878  11.476  1.00  0.00     0.000 C 
BRANCH   8   9
ATOM      9  C   UNL     1      13.231  17.224  12.168  1.00  0.00     0.000 C 
BRANCH   9  10
ATOM     10  C   UNL     1      14.081  18.374  11.597  1.00  0.00     0.006 C 
BRANCH  10  11
ATOM     11  C   UNL     1      14.972  19.073  12.640  1.00  0.00     0.053 C 
BRANCH  11  12
ATOM     12  C   UNL     1      15.833  18.111  13.400  1.00  0.00     0.041 C 
ATOM     13  O   UNL     1      15.579  17.848  14.605  1.00  0.00    -0.550 OA
ATOM     14  O   UNL     1      16.896  17.475  12.768  1.00  0.00    -0.550 OA
ENDBRANCH  11  12
ENDBRANCH  10  11
ENDBRANCH   9  10
ENDBRANCH   8   9
ENDBRANCH   7   8
ENDBRANCH   6   7
ENDBRANCH   5   6
ENDBRANCH   4   5
ENDBRANCH   3   4
ENDBRANCH   2   3
ENDBRANCH   1   2
BRANCH   1  15
ATOM     15  C   UNL     1       9.725  15.241  14.013  1.00  0.00     0.000 C 
BRANCH  15  16
ATOM     16  C   UNL     1      10.235  16.695  14.123  1.00  0.00     0.000 C 
BRANCH  16  17
ATOM     17  C   UNL     1       9.139  17.774  13.962  1.00  0.00     0.000 C 
BRANCH  17  18
ATOM     18  C   UNL     1       7.709  17.250  13.726  1.00  0.00    -0.000 C 
BRANCH  18  19
ATOM     19  C   UNL     1       7.131  17.502  12.320  1.00  0.00    -0.000 C 
BRANCH  19  20
ATOM     20  C   UNL     1       7.654  16.514  11.268  1.00  0.00    -0.000 C 
BRANCH  20  21
ATOM     21  C   UNL     1       8.645  17.197  10.317  1.00  0.00    -0.000 C 
BRANCH  21  22
ATOM     22  C   UNL     1      10.026  16.519  10.301  1.00  0.00    -0.000 C 
BRANCH  22  23
ATOM     23  C   UNL     1       9.961  14.983  10.437  1.00  0.00    -0.000 C 
BRANCH  23  24
ATOM     24  C   UNL     1      10.544  14.265   9.211  1.00  0.00    -0.000 C 
BRANCH  24  25
ATOM     25  C   UNL     1       9.431  13.672   8.339  1.00  0.00    -0.003 C 
ATOM     26  C   UNL     1       8.324  13.065   9.196  1.00  0.00     0.004 C 
ENDBRANCH  24  25
ENDBRANCH  23  24
ENDBRANCH  22  23
ENDBRANCH  21  22
ENDBRANCH  20  21
ENDBRANCH  19  20
ENDBRANCH  18  19
ENDBRANCH  17  18
ENDBRANCH  16  17
ENDBRANCH  15  16
ENDBRANCH   1  15
TORSDOF 22
ENDMDL
MODEL 9
REMARK VINA RESULT:    -4.333      2.017      4.723
REMARK INTER + INTRA:         -13.724
REMARK INTER:                 -10.064
REMARK INTRA:                  -3.661
REMARK UNBOUND:                -3.819
REMARK SMILES CCCCCCCCCCCCCCCCCCCCCCCC(=O)[O-]
REMARK SMILES IDX 13 1 14 2 15 3 16 4 17 5 18 6 19 7 20 8 21 9 22 10 23 11
REMARK SMILES IDX 24 12 25 13 26 14 12 15 11 16 10 17 9 18 8 19 7 20 6 21 5 22
REMARK SMILES IDX 4 23 3 24 2 25 1 26
REMARK H PARENT
REMARK Flexibility Score: inf
ROOT
ATOM      1  C   UNL     1       9.434  14.649  15.332  1.00  0.00     0.000 C 
ENDROOT
BRANCH   1   2
ATOM      2  C   UNL     1      10.244  13.340  15.365  1.00  0.00     0.000 C 
BRANCH   2   3
ATOM      3  C   UNL     1      11.383  13.358  16.398  1.00  0.00     0.000 C 
BRANCH   3   4
ATOM      4  C   UNL     1      12.572  14.236  15.966  1.00  0.00     0.000 C 
BRANCH   4   5
ATOM      5  C   UNL     1      13.350  13.731  14.736  1.00  0.00     0.000 C 
BRANCH   5   6
ATOM      6  C   UNL     1      13.244  14.673  13.528  1.00  0.00     0.000 C 
BRANCH   6   7
ATOM      7  C   UNL     1      14.615  14.864  12.861  1.00  0.00     0.000 C 
BRANCH   7   8
ATOM      8  C   UNL     1      14.876  16.322  12.445  1.00  0.00     0.000 C 
BRANCH   8   9
ATOM      9  C   UNL     1      15.380  17.187  13.613  1.00  0.00     0.000 C 
BRANCH   9  10
ATOM     10  C   UNL     1      14.345  18.225  14.083  1.00  0.00     0.006 C 
BRANCH  10  11
ATOM     11  C   UNL     1      13.674  17.878  15.425  1.00  0.00     0.053 C 
BRANCH  11  12
ATOM     12  C   UNL     1      13.331  19.096  16.228  1.00  0.00     0.041 C 
ATOM     13  O   UNL     1      12.401  19.859  15.855  1.00  0.00    -0.550 OA
ATOM     14  O   UNL     1      14.011  19.369  17.409  1.00  0.00    -0.550 OA
ENDBRANCH  11  12
ENDBRANCH  10  11
ENDBRANCH   9  10
ENDBRANCH   8   9
ENDBRANCH   7   8
ENDBRANCH   6   7
ENDBRANCH   5   6
ENDBRANCH   4   5
ENDBRANCH   3   4
ENDBRANCH   2   3
ENDBRANCH   1   2
BRANCH   1  15
ATOM     15  C   UNL     1       9.502  15.451  14.016  1.00  0.00     0.000 C 
BRANCH  15  16
ATOM     16  C   UNL     1      10.412  16.700  14.031  1.00  0.00     0.000 C 
BRANCH  16  17
ATOM     17  C   UNL     1       9.666  18.035  14.251  1.00  0.00     0.000 C 
BRANCH  17  18
ATOM     18  C   UNL     1       8.182  17.919  14.651  1.00  0.00    -0.000 C 
BRANCH  18  19
ATOM     19  C   UNL     1       7.184  18.637  13.723  1.00  0.00    -0.000 C 
BRANCH  19  20
ATOM     20  C   UNL     1       6.919  17.873  12.418  1.00  0.00    -0.000 C 
BRANCH  20  21
ATOM     21  C   UNL     1       7.682  18.505  11.246  1.00  0.00    -0.000 C 
BRANCH  21  22
ATOM     22  C   UNL     1       8.413  17.468  10.376  1.00  0.00    -0.000 C 
BRANCH  22  23
ATOM     23  C   UNL     1       8.195  16.011  10.838  1.00  0.00    -0.000 C 
BRANCH  23  24
ATOM     24  C   UNL     1       8.780  14.994   9.848  1.00  0.00    -0.000 C 
BRANCH  24  25
ATOM     25  C   UNL     1       9.909  14.183  10.494  1.00  0.00    -0.003 C 
ATOM     26  C   UNL     1      11.218  14.967  10.500  1.00  0.00     0.004 C 
ENDBRANCH  24  25
ENDBRANCH  23  24
ENDBRANCH  22  23
ENDBRANCH  21  22
ENDBRANCH  20  21
ENDBRANCH  19  20
ENDBRANCH  18  19
ENDBRANCH  17  18
ENDBRANCH  16  17
ENDBRANCH  15  16
ENDBRANCH   1  15
TORSDOF 22
ENDMDL
