MODEL 1
REMARK VINA RESULT:    16.731      0.000      0.000
REMARK INTER + INTRA:          41.913
REMARK INTER:                  42.161
REMARK INTRA:                  -0.248
REMARK UNBOUND:                -0.248
REMARK SMILES CCCCCCCCCCCCCCCCCCCCCCCCCCCC(=O)[O-]
REMARK SMILES IDX 15 1 16 2 17 3 18 4 19 5 20 6 21 7 22 8 23 9 24 10 25 11
REMARK SMILES IDX 26 12 27 13 28 14 29 15 30 16 14 17 13 18 12 19 11 20 10 21
REMARK SMILES IDX 9 22 8 23 7 24 6 25 5 26 4 27 3 28 2 29 1 30
REMARK H PARENT
REMARK Flexibility Score: inf
ROOT
ATOM      1  C   UNL     1      25.764  44.872   6.247  1.00  0.00     0.000 C 
ENDROOT
BRANCH   1   2
ATOM      2  C   UNL     1      26.391  45.436   7.530  1.00  0.00     0.000 C 
BRANCH   2   3
ATOM      3  C   UNL     1      26.321  46.970   7.553  1.00  0.00     0.000 C 
BRANCH   3   4
ATOM      4  C   UNL     1      27.494  47.621   6.798  1.00  0.00     0.000 C 
BRANCH   4   5
ATOM      5  C   UNL     1      27.456  47.393   5.275  1.00  0.00     0.000 C 
BRANCH   5   6
ATOM      6  C   UNL     1      28.612  46.497   4.793  1.00  0.00     0.000 C 
BRANCH   6   7
ATOM      7  C   UNL     1      28.283  45.747   3.489  1.00  0.00     0.000 C 
BRANCH   7   8
ATOM      8  C   UNL     1      29.392  44.762   3.075  1.00  0.00     0.000 C 
BRANCH   8   9
ATOM      9  C   UNL     1      29.000  43.896   1.860  1.00  0.00     0.000 C 
BRANCH   9  10
ATOM     10  C   UNL     1      30.124  43.725   0.821  1.00  0.00     0.000 C 
BRANCH  10  11
ATOM     11  C   UNL     1      29.843  42.604  -0.188  1.00  0.00     0.000 C 
BRANCH  11  12
ATOM     12  C   UNL     1      30.634  42.818  -1.486  1.00  0.00     0.006 C 
BRANCH  12  13
ATOM     13  C   UNL     1      29.708  43.253  -2.631  1.00  0.00     0.053 C 
BRANCH  13  14
ATOM     14  C   UNL     1      28.982  42.080  -3.217  1.00  0.00     0.041 C 
ATOM     15  O   UNL     1      29.216  41.708  -4.398  1.00  0.00    -0.550 OA
ATOM     16  O   UNL     1      28.073  41.370  -2.443  1.00  0.00    -0.550 OA
ENDBRANCH  13  14
ENDBRANCH  12  13
ENDBRANCH  11  12
ENDBRANCH  10  11
ENDBRANCH   9  10
ENDBRANCH   8   9
ENDBRANCH   7   8
ENDBRANCH   6   7
ENDBRANCH   5   6
ENDBRANCH   4   5
ENDBRANCH   3   4
ENDBRANCH   2   3
ENDBRANCH   1   2
BRANCH   1  17
ATOM     17  C   UNL     1      26.537  43.665   5.684  1.00  0.00     0.000 C 
BRANCH  17  18
ATOM     18  C   UNL     1      26.564  43.564   4.145  1.00  0.00     0.000 C 
BRANCH  18  19
ATOM     19  C   UNL     1      25.186  43.640   3.461  1.00  0.00     0.000 C 
BRANCH  19  20
ATOM     20  C   UNL     1      25.004  42.565   2.374  1.00  0.00     0.000 C 
BRANCH  20  21
ATOM     21  C   UNL     1      23.570  42.010   2.326  1.00  0.00     0.000 C 
BRANCH  21  22
ATOM     22  C   UNL     1      22.633  42.720   3.320  1.00  0.00    -0.000 C 
BRANCH  22  23
ATOM     23  C   UNL     1      23.013  42.461   4.791  1.00  0.00    -0.000 C 
BRANCH  23  24
ATOM     24  C   UNL     1      23.201  40.980   5.162  1.00  0.00    -0.000 C 
BRANCH  24  25
ATOM     25  C   UNL     1      24.533  40.706   5.882  1.00  0.00    -0.000 C 
BRANCH  25  26
ATOM     26  C   UNL     1      24.361  39.801   7.123  1.00  0.00    -0.000 C 
BRANCH  26  27
ATOM     27  C   UNL     1      25.656  39.090   7.555  1.00  0.00    -0.000 C 
BRANCH  27  28
ATOM     28  C   UNL     1      26.509  38.531   6.401  1.00  0.00    -0.000 C 
BRANCH  28  29
ATOM     29  C   UNL     1      25.711  37.682   5.388  1.00  0.00    -0.003 C 
ATOM     30  C   UNL     1      24.701  36.746   6.051  1.00  0.00     0.004 C 
ENDBRANCH  28  29
ENDBRANCH  27  28
ENDBRANCH  26  27
ENDBRANCH  25  26
ENDBRANCH  24  25
ENDBRANCH  23  24
ENDBRANCH  22  23
ENDBRANCH  21  22
ENDBRANCH  20  21
ENDBRANCH  19  20
ENDBRANCH  18  19
ENDBRANCH  17  18
ENDBRANCH   1  17
TORSDOF 26
ENDMDL
MODEL 2
REMARK VINA RESULT:    17.637      3.499      8.406
REMARK INTER + INTRA:          44.198
REMARK INTER:                  44.966
REMARK INTRA:                  -0.768
REMARK UNBOUND:                -0.248
REMARK SMILES CCCCCCCCCCCCCCCCCCCCCCCCCCCC(=O)[O-]
REMARK SMILES IDX 15 1 16 2 17 3 18 4 19 5 20 6 21 7 22 8 23 9 24 10 25 11
REMARK SMILES IDX 26 12 27 13 28 14 29 15 30 16 14 17 13 18 12 19 11 20 10 21
REMARK SMILES IDX 9 22 8 23 7 24 6 25 5 26 4 27 3 28 2 29 1 30
REMARK H PARENT
REMARK Flexibility Score: inf
ROOT
ATOM      1  C   UNL     1      26.882  43.611   5.761  1.00  0.00     0.000 C 
ENDROOT
BRANCH   1   2
ATOM      2  C   UNL     1      25.872  44.038   4.686  1.00  0.00     0.000 C 
BRANCH   2   3
ATOM      3  C   UNL     1      25.962  43.130   3.450  1.00  0.00     0.000 C 
BRANCH   3   4
ATOM      4  C   UNL     1      24.830  43.399   2.442  1.00  0.00     0.000 C 
BRANCH   4   5
ATOM      5  C   UNL     1      23.989  42.153   2.106  1.00  0.00     0.000 C 
BRANCH   5   6
ATOM      6  C   UNL     1      22.624  42.164   2.820  1.00  0.00     0.000 C 
BRANCH   6   7
ATOM      7  C   UNL     1      22.716  42.659   4.275  1.00  0.00     0.000 C 
BRANCH   7   8
ATOM      8  C   UNL     1      23.191  41.562   5.246  1.00  0.00     0.000 C 
BRANCH   8   9
ATOM      9  C   UNL     1      24.478  40.857   4.771  1.00  0.00     0.000 C 
BRANCH   9  10
ATOM     10  C   UNL     1      24.622  39.407   5.269  1.00  0.00     0.000 C 
BRANCH  10  11
ATOM     11  C   UNL     1      26.051  39.063   5.709  1.00  0.00     0.000 C 
BRANCH  11  12
ATOM     12  C   UNL     1      26.110  38.768   7.214  1.00  0.00     0.006 C 
BRANCH  12  13
ATOM     13  C   UNL     1      24.700  38.686   7.816  1.00  0.00     0.053 C 
BRANCH  13  14
ATOM     14  C   UNL     1      24.496  39.737   8.865  1.00  0.00     0.041 C 
ATOM     15  O   UNL     1      25.445  40.494   9.204  1.00  0.00    -0.550 OA
ATOM     16  O   UNL     1      23.243  39.909   9.440  1.00  0.00    -0.550 OA
ENDBRANCH  13  14
ENDBRANCH  12  13
ENDBRANCH  11  12
ENDBRANCH  10  11
ENDBRANCH   9  10
ENDBRANCH   8   9
ENDBRANCH   7   8
ENDBRANCH   6   7
ENDBRANCH   5   6
ENDBRANCH   4   5
ENDBRANCH   3   4
ENDBRANCH   2   3
ENDBRANCH   1   2
BRANCH   1  17
ATOM     17  C   UNL     1      26.755  44.430   7.059  1.00  0.00     0.000 C 
BRANCH  17  18
ATOM     18  C   UNL     1      25.945  45.736   6.931  1.00  0.00     0.000 C 
BRANCH  18  19
ATOM     19  C   UNL     1      26.525  46.942   7.694  1.00  0.00     0.000 C 
BRANCH  19  20
ATOM     20  C   UNL     1      27.571  47.717   6.871  1.00  0.00     0.000 C 
BRANCH  20  21
ATOM     21  C   UNL     1      27.423  47.483   5.358  1.00  0.00     0.000 C 
BRANCH  21  22
ATOM     22  C   UNL     1      28.597  46.679   4.771  1.00  0.00    -0.000 C 
BRANCH  22  23
ATOM     23  C   UNL     1      28.146  45.629   3.737  1.00  0.00    -0.000 C 
BRANCH  23  24
ATOM     24  C   UNL     1      29.252  44.668   3.265  1.00  0.00    -0.000 C 
BRANCH  24  25
ATOM     25  C   UNL     1      29.569  44.808   1.765  1.00  0.00    -0.000 C 
BRANCH  25  26
ATOM     26  C   UNL     1      29.427  43.472   1.002  1.00  0.00    -0.000 C 
BRANCH  26  27
ATOM     27  C   UNL     1      30.549  43.223  -0.022  1.00  0.00    -0.000 C 
BRANCH  27  28
ATOM     28  C   UNL     1      30.198  42.232  -1.147  1.00  0.00    -0.000 C 
BRANCH  28  29
ATOM     29  C   UNL     1      29.762  42.911  -2.464  1.00  0.00    -0.003 C 
ATOM     30  C   UNL     1      28.732  42.097  -3.247  1.00  0.00     0.004 C 
ENDBRANCH  28  29
ENDBRANCH  27  28
ENDBRANCH  26  27
ENDBRANCH  25  26
ENDBRANCH  24  25
ENDBRANCH  23  24
ENDBRANCH  22  23
ENDBRANCH  21  22
ENDBRANCH  20  21
ENDBRANCH  19  20
ENDBRANCH  18  19
ENDBRANCH  17  18
ENDBRANCH   1  17
TORSDOF 26
ENDMDL
MODEL 3
REMARK VINA RESULT:    17.717      2.568      7.993
REMARK INTER + INTRA:          44.398
REMARK INTER:                  45.497
REMARK INTRA:                  -1.100
REMARK UNBOUND:                -0.248
REMARK SMILES CCCCCCCCCCCCCCCCCCCCCCCCCCCC(=O)[O-]
REMARK SMILES IDX 15 1 16 2 17 3 18 4 19 5 20 6 21 7 22 8 23 9 24 10 25 11
REMARK SMILES IDX 26 12 27 13 28 14 29 15 30 16 14 17 13 18 12 19 11 20 10 21
REMARK SMILES IDX 9 22 8 23 7 24 6 25 5 26 4 27 3 28 2 29 1 30
REMARK H PARENT
REMARK Flexibility Score: inf
ROOT
ATOM      1  C   UNL     1      26.963  43.608   5.857  1.00  0.00     0.000 C 
ENDROOT
BRANCH   1   2
ATOM      2  C   UNL     1      25.863  43.958   4.844  1.00  0.00     0.000 C 
BRANCH   2   3
ATOM      3  C   UNL     1      26.124  43.285   3.489  1.00  0.00     0.000 C 
BRANCH   3   4
ATOM      4  C   UNL     1      24.962  43.489   2.500  1.00  0.00     0.000 C 
BRANCH   4   5
ATOM      5  C   UNL     1      24.306  42.176   2.032  1.00  0.00     0.000 C 
BRANCH   5   6
ATOM      6  C   UNL     1      22.806  42.119   2.378  1.00  0.00     0.000 C 
BRANCH   6   7
ATOM      7  C   UNL     1      22.468  42.853   3.689  1.00  0.00     0.000 C 
BRANCH   7   8
ATOM      8  C   UNL     1      22.851  42.041   4.940  1.00  0.00     0.000 C 
BRANCH   8   9
ATOM      9  C   UNL     1      23.962  41.006   4.665  1.00  0.00     0.000 C 
BRANCH   9  10
ATOM     10  C   UNL     1      24.805  40.646   5.902  1.00  0.00     0.000 C 
BRANCH  10  11
ATOM     11  C   UNL     1      24.076  39.707   6.873  1.00  0.00     0.000 C 
BRANCH  11  12
ATOM     12  C   UNL     1      24.901  38.441   7.141  1.00  0.00     0.006 C 
BRANCH  12  13
ATOM     13  C   UNL     1      25.793  38.098   5.939  1.00  0.00     0.053 C 
BRANCH  13  14
ATOM     14  C   UNL     1      27.243  38.112   6.319  1.00  0.00     0.041 C 
ATOM     15  O   UNL     1      28.136  38.002   5.437  1.00  0.00    -0.550 OA
ATOM     16  O   UNL     1      27.610  38.288   7.647  1.00  0.00    -0.550 OA
ENDBRANCH  13  14
ENDBRANCH  12  13
ENDBRANCH  11  12
ENDBRANCH  10  11
ENDBRANCH   9  10
ENDBRANCH   8   9
ENDBRANCH   7   8
ENDBRANCH   6   7
ENDBRANCH   5   6
ENDBRANCH   4   5
ENDBRANCH   3   4
ENDBRANCH   2   3
ENDBRANCH   1   2
BRANCH   1  17
ATOM     17  C   UNL     1      26.911  44.483   7.123  1.00  0.00     0.000 C 
BRANCH  17  18
ATOM     18  C   UNL     1      25.810  45.563   7.127  1.00  0.00     0.000 C 
BRANCH  18  19
ATOM     19  C   UNL     1      26.275  46.970   7.547  1.00  0.00     0.000 C 
BRANCH  19  20
ATOM     20  C   UNL     1      27.483  47.464   6.730  1.00  0.00     0.000 C 
BRANCH  20  21
ATOM     21  C   UNL     1      27.353  47.143   5.231  1.00  0.00     0.000 C 
BRANCH  21  22
ATOM     22  C   UNL     1      28.594  46.422   4.675  1.00  0.00    -0.000 C 
BRANCH  22  23
ATOM     23  C   UNL     1      28.280  45.547   3.447  1.00  0.00    -0.000 C 
BRANCH  23  24
ATOM     24  C   UNL     1      29.494  44.824   2.837  1.00  0.00    -0.000 C 
BRANCH  24  25
ATOM     25  C   UNL     1      29.106  43.825   1.733  1.00  0.00    -0.000 C 
BRANCH  25  26
ATOM     26  C   UNL     1      30.110  43.819   0.559  1.00  0.00    -0.000 C 
BRANCH  26  27
ATOM     27  C   UNL     1      30.142  42.491  -0.221  1.00  0.00    -0.000 C 
BRANCH  27  28
ATOM     28  C   UNL     1      30.523  42.616  -1.707  1.00  0.00    -0.000 C 
BRANCH  28  29
ATOM     29  C   UNL     1      29.343  43.003  -2.626  1.00  0.00    -0.003 C 
ATOM     30  C   UNL     1      28.665  41.796  -3.274  1.00  0.00     0.004 C 
ENDBRANCH  28  29
ENDBRANCH  27  28
ENDBRANCH  26  27
ENDBRANCH  25  26
ENDBRANCH  24  25
ENDBRANCH  23  24
ENDBRANCH  22  23
ENDBRANCH  21  22
ENDBRANCH  20  21
ENDBRANCH  19  20
ENDBRANCH  18  19
ENDBRANCH  17  18
ENDBRANCH   1  17
TORSDOF 26
ENDMDL
MODEL 4
REMARK VINA RESULT:    17.761      1.103      2.183
REMARK INTER + INTRA:          44.509
REMARK INTER:                  44.687
REMARK INTRA:                  -0.178
REMARK UNBOUND:                -0.248
REMARK SMILES CCCCCCCCCCCCCCCCCCCCCCCCCCCC(=O)[O-]
REMARK SMILES IDX 15 1 16 2 17 3 18 4 19 5 20 6 21 7 22 8 23 9 24 10 25 11
REMARK SMILES IDX 26 12 27 13 28 14 29 15 30 16 14 17 13 18 12 19 11 20 10 21
REMARK SMILES IDX 9 22 8 23 7 24 6 25 5 26 4 27 3 28 2 29 1 30
REMARK H PARENT
REMARK Flexibility Score: inf
ROOT
ATOM      1  C   UNL     1      25.838  43.988   4.990  1.00  0.00     0.000 C 
ENDROOT
BRANCH   1   2
ATOM      2  C   UNL     1      26.835  43.583   6.086  1.00  0.00     0.000 C 
BRANCH   2   3
ATOM      3  C   UNL     1      26.827  44.595   7.242  1.00  0.00     0.000 C 
BRANCH   3   4
ATOM      4  C   UNL     1      26.002  45.853   6.914  1.00  0.00     0.000 C 
BRANCH   4   5
ATOM      5  C   UNL     1      26.788  47.169   7.066  1.00  0.00     0.000 C 
BRANCH   5   6
ATOM      6  C   UNL     1      27.818  47.364   5.937  1.00  0.00     0.000 C 
BRANCH   6   7
ATOM      7  C   UNL     1      27.494  46.531   4.683  1.00  0.00     0.000 C 
BRANCH   7   8
ATOM      8  C   UNL     1      28.718  45.767   4.147  1.00  0.00     0.000 C 
BRANCH   8   9
ATOM      9  C   UNL     1      28.422  45.004   2.838  1.00  0.00     0.000 C 
BRANCH   9  10
ATOM     10  C   UNL     1      29.681  44.594   2.052  1.00  0.00     0.000 C 
BRANCH  10  11
ATOM     11  C   UNL     1      29.414  43.479   1.032  1.00  0.00     0.000 C 
BRANCH  11  12
ATOM     12  C   UNL     1      30.484  43.467  -0.068  1.00  0.00     0.006 C 
BRANCH  12  13
ATOM     13  C   UNL     1      30.313  42.254  -0.992  1.00  0.00     0.053 C 
BRANCH  13  14
ATOM     14  C   UNL     1      29.379  42.561  -2.123  1.00  0.00     0.041 C 
ATOM     15  O   UNL     1      28.514  41.720  -2.485  1.00  0.00    -0.550 OA
ATOM     16  O   UNL     1      29.438  43.797  -2.754  1.00  0.00    -0.550 OA
ENDBRANCH  13  14
ENDBRANCH  12  13
ENDBRANCH  11  12
ENDBRANCH  10  11
ENDBRANCH   9  10
ENDBRANCH   8   9
ENDBRANCH   7   8
ENDBRANCH   6   7
ENDBRANCH   5   6
ENDBRANCH   4   5
ENDBRANCH   3   4
ENDBRANCH   2   3
ENDBRANCH   1   2
BRANCH   1  17
ATOM     17  C   UNL     1      26.038  43.201   3.681  1.00  0.00     0.000 C 
BRANCH  17  18
ATOM     18  C   UNL     1      25.023  43.521   2.564  1.00  0.00     0.000 C 
BRANCH  18  19
ATOM     19  C   UNL     1      24.264  42.305   2.001  1.00  0.00     0.000 C 
BRANCH  19  20
ATOM     20  C   UNL     1      22.766  42.327   2.350  1.00  0.00     0.000 C 
BRANCH  20  21
ATOM     21  C   UNL     1      22.482  43.024   3.692  1.00  0.00     0.000 C 
BRANCH  21  22
ATOM     22  C   UNL     1      22.774  42.113   4.899  1.00  0.00    -0.000 C 
BRANCH  22  23
ATOM     23  C   UNL     1      23.712  40.941   4.552  1.00  0.00    -0.000 C 
BRANCH  23  24
ATOM     24  C   UNL     1      24.521  40.384   5.737  1.00  0.00    -0.000 C 
BRANCH  24  25
ATOM     25  C   UNL     1      25.613  39.390   5.304  1.00  0.00    -0.000 C 
BRANCH  25  26
ATOM     26  C   UNL     1      25.649  38.125   6.193  1.00  0.00    -0.000 C 
BRANCH  26  27
ATOM     27  C   UNL     1      26.637  38.225   7.369  1.00  0.00    -0.000 C 
BRANCH  27  28
ATOM     28  C   UNL     1      26.045  38.790   8.673  1.00  0.00    -0.000 C 
BRANCH  28  29
ATOM     29  C   UNL     1      24.951  39.858   8.451  1.00  0.00    -0.003 C 
ATOM     30  C   UNL     1      23.877  39.854   9.538  1.00  0.00     0.004 C 
ENDBRANCH  28  29
ENDBRANCH  27  28
ENDBRANCH  26  27
ENDBRANCH  25  26
ENDBRANCH  24  25
ENDBRANCH  23  24
ENDBRANCH  22  23
ENDBRANCH  21  22
ENDBRANCH  20  21
ENDBRANCH  19  20
ENDBRANCH  18  19
ENDBRANCH  17  18
ENDBRANCH   1  17
TORSDOF 26
ENDMDL
MODEL 5
REMARK VINA RESULT:    17.778      0.693      1.217
REMARK INTER + INTRA:          44.553
REMARK INTER:                  45.308
REMARK INTRA:                  -0.755
REMARK UNBOUND:                -0.248
REMARK SMILES CCCCCCCCCCCCCCCCCCCCCCCCCCCC(=O)[O-]
REMARK SMILES IDX 15 1 16 2 17 3 18 4 19 5 20 6 21 7 22 8 23 9 24 10 25 11
REMARK SMILES IDX 26 12 27 13 28 14 29 15 30 16 14 17 13 18 12 19 11 20 10 21
REMARK SMILES IDX 9 22 8 23 7 24 6 25 5 26 4 27 3 28 2 29 1 30
REMARK H PARENT
REMARK Flexibility Score: inf
ROOT
ATOM      1  C   UNL     1      25.775  44.396   6.100  1.00  0.00     0.000 C 
ENDROOT
BRANCH   1   2
ATOM      2  C   UNL     1      26.635  45.256   7.036  1.00  0.00     0.000 C 
BRANCH   2   3
ATOM      3  C   UNL     1      25.979  46.621   7.293  1.00  0.00     0.000 C 
BRANCH   3   4
ATOM      4  C   UNL     1      27.015  47.735   7.525  1.00  0.00     0.000 C 
BRANCH   4   5
ATOM      5  C   UNL     1      27.934  47.991   6.315  1.00  0.00     0.000 C 
BRANCH   5   6
ATOM      6  C   UNL     1      27.513  47.171   5.082  1.00  0.00     0.000 C 
BRANCH   6   7
ATOM      7  C   UNL     1      28.641  46.270   4.550  1.00  0.00     0.000 C 
BRANCH   7   8
ATOM      8  C   UNL     1      28.271  45.572   3.228  1.00  0.00     0.000 C 
BRANCH   8   9
ATOM      9  C   UNL     1      29.212  44.397   2.887  1.00  0.00     0.000 C 
BRANCH   9  10
ATOM     10  C   UNL     1      29.029  43.840   1.463  1.00  0.00     0.000 C 
BRANCH  10  11
ATOM     11  C   UNL     1      30.350  43.723   0.691  1.00  0.00     0.000 C 
BRANCH  11  12
ATOM     12  C   UNL     1      30.308  42.553  -0.302  1.00  0.00     0.006 C 
BRANCH  12  13
ATOM     13  C   UNL     1      30.330  43.058  -1.752  1.00  0.00     0.053 C 
BRANCH  13  14
ATOM     14  C   UNL     1      29.251  42.413  -2.567  1.00  0.00     0.041 C 
ATOM     15  O   UNL     1      28.525  41.512  -2.068  1.00  0.00    -0.550 OA
ATOM     16  O   UNL     1      29.019  42.837  -3.870  1.00  0.00    -0.550 OA
ENDBRANCH  13  14
ENDBRANCH  12  13
ENDBRANCH  11  12
ENDBRANCH  10  11
ENDBRANCH   9  10
ENDBRANCH   8   9
ENDBRANCH   7   8
ENDBRANCH   6   7
ENDBRANCH   5   6
ENDBRANCH   4   5
ENDBRANCH   3   4
ENDBRANCH   2   3
ENDBRANCH   1   2
BRANCH   1  17
ATOM     17  C   UNL     1      26.575  43.267   5.422  1.00  0.00     0.000 C 
BRANCH  17  18
ATOM     18  C   UNL     1      26.488  43.237   3.882  1.00  0.00     0.000 C 
BRANCH  18  19
ATOM     19  C   UNL     1      25.143  43.703   3.294  1.00  0.00     0.000 C 
BRANCH  19  20
ATOM     20  C   UNL     1      24.757  42.937   2.016  1.00  0.00     0.000 C 
BRANCH  20  21
ATOM     21  C   UNL     1      23.639  41.908   2.259  1.00  0.00     0.000 C 
BRANCH  21  22
ATOM     22  C   UNL     1      22.492  42.479   3.112  1.00  0.00    -0.000 C 
BRANCH  22  23
ATOM     23  C   UNL     1      22.870  42.634   4.598  1.00  0.00    -0.000 C 
BRANCH  23  24
ATOM     24  C   UNL     1      22.870  41.325   5.407  1.00  0.00    -0.000 C 
BRANCH  24  25
ATOM     25  C   UNL     1      24.284  40.759   5.633  1.00  0.00    -0.000 C 
BRANCH  25  26
ATOM     26  C   UNL     1      24.289  39.538   6.580  1.00  0.00    -0.000 C 
BRANCH  26  27
ATOM     27  C   UNL     1      25.431  39.560   7.612  1.00  0.00    -0.000 C 
BRANCH  27  28
ATOM     28  C   UNL     1      26.519  38.490   7.406  1.00  0.00    -0.000 C 
BRANCH  28  29
ATOM     29  C   UNL     1      26.517  37.861   5.995  1.00  0.00    -0.003 C 
ATOM     30  C   UNL     1      27.858  37.997   5.274  1.00  0.00     0.004 C 
ENDBRANCH  28  29
ENDBRANCH  27  28
ENDBRANCH  26  27
ENDBRANCH  25  26
ENDBRANCH  24  25
ENDBRANCH  23  24
ENDBRANCH  22  23
ENDBRANCH  21  22
ENDBRANCH  20  21
ENDBRANCH  19  20
ENDBRANCH  18  19
ENDBRANCH  17  18
ENDBRANCH   1  17
TORSDOF 26
ENDMDL
MODEL 6
REMARK VINA RESULT:    18.197      4.421     10.264
REMARK INTER + INTRA:          45.608
REMARK INTER:                  46.714
REMARK INTRA:                  -1.106
REMARK UNBOUND:                -0.248
REMARK SMILES CCCCCCCCCCCCCCCCCCCCCCCCCCCC(=O)[O-]
REMARK SMILES IDX 15 1 16 2 17 3 18 4 19 5 20 6 21 7 22 8 23 9 24 10 25 11
REMARK SMILES IDX 26 12 27 13 28 14 29 15 30 16 14 17 13 18 12 19 11 20 10 21
REMARK SMILES IDX 9 22 8 23 7 24 6 25 5 26 4 27 3 28 2 29 1 30
REMARK H PARENT
REMARK Flexibility Score: inf
ROOT
ATOM      1  C   UNL     1      28.834  44.400   3.830  1.00  0.00     0.000 C 
ENDROOT
BRANCH   1   2
ATOM      2  C   UNL     1      27.871  45.375   4.522  1.00  0.00     0.000 C 
BRANCH   2   3
ATOM      3  C   UNL     1      26.722  44.623   5.211  1.00  0.00     0.000 C 
BRANCH   3   4
ATOM      4  C   UNL     1      26.257  43.397   4.405  1.00  0.00     0.000 C 
BRANCH   4   5
ATOM      5  C   UNL     1      25.513  43.755   3.104  1.00  0.00     0.000 C 
BRANCH   5   6
ATOM      6  C   UNL     1      24.883  42.518   2.436  1.00  0.00     0.000 C 
BRANCH   6   7
ATOM      7  C   UNL     1      23.361  42.651   2.250  1.00  0.00     0.000 C 
BRANCH   7   8
ATOM      8  C   UNL     1      22.564  42.013   3.403  1.00  0.00     0.000 C 
BRANCH   8   9
ATOM      9  C   UNL     1      23.099  42.413   4.794  1.00  0.00     0.000 C 
BRANCH   9  10
ATOM     10  C   UNL     1      22.971  41.307   5.857  1.00  0.00     0.000 C 
BRANCH  10  11
ATOM     11  C   UNL     1      24.136  40.308   5.827  1.00  0.00     0.000 C 
BRANCH  11  12
ATOM     12  C   UNL     1      24.232  39.532   7.148  1.00  0.00     0.006 C 
BRANCH  12  13
ATOM     13  C   UNL     1      25.691  39.185   7.479  1.00  0.00     0.053 C 
BRANCH  13  14
ATOM     14  C   UNL     1      26.284  38.283   6.440  1.00  0.00     0.041 C 
ATOM     15  O   UNL     1      27.526  38.280   6.229  1.00  0.00    -0.550 OA
ATOM     16  O   UNL     1      25.466  37.413   5.729  1.00  0.00    -0.550 OA
ENDBRANCH  13  14
ENDBRANCH  12  13
ENDBRANCH  11  12
ENDBRANCH  10  11
ENDBRANCH   9  10
ENDBRANCH   8   9
ENDBRANCH   7   8
ENDBRANCH   6   7
ENDBRANCH   5   6
ENDBRANCH   4   5
ENDBRANCH   3   4
ENDBRANCH   2   3
ENDBRANCH   1   2
BRANCH   1  17
ATOM     17  C   UNL     1      28.983  44.676   2.322  1.00  0.00     0.000 C 
BRANCH  17  18
ATOM     18  C   UNL     1      29.644  43.542   1.512  1.00  0.00     0.000 C 
BRANCH  18  19
ATOM     19  C   UNL     1      29.567  43.701  -0.018  1.00  0.00     0.000 C 
BRANCH  19  20
ATOM     20  C   UNL     1      30.106  42.470  -0.770  1.00  0.00     0.000 C 
BRANCH  20  21
ATOM     21  C   UNL     1      31.504  42.707  -1.366  1.00  0.00     0.000 C 
BRANCH  21  22
ATOM     22  C   UNL     1      32.458  43.394  -0.370  1.00  0.00    -0.000 C 
BRANCH  22  23
ATOM     23  C   UNL     1      33.854  42.743  -0.331  1.00  0.00    -0.000 C 
BRANCH  23  24
ATOM     24  C   UNL     1      35.031  43.733  -0.287  1.00  0.00    -0.000 C 
BRANCH  24  25
ATOM     25  C   UNL     1      36.266  43.232  -1.056  1.00  0.00    -0.000 C 
BRANCH  25  26
ATOM     26  C   UNL     1      37.086  44.385  -1.677  1.00  0.00    -0.000 C 
BRANCH  26  27
ATOM     27  C   UNL     1      38.536  43.998  -2.020  1.00  0.00    -0.000 C 
BRANCH  27  28
ATOM     28  C   UNL     1      38.856  42.496  -1.902  1.00  0.00    -0.000 C 
BRANCH  28  29
ATOM     29  C   UNL     1      38.848  41.747  -3.252  1.00  0.00    -0.003 C 
ATOM     30  C   UNL     1      39.298  40.291  -3.135  1.00  0.00     0.004 C 
ENDBRANCH  28  29
ENDBRANCH  27  28
ENDBRANCH  26  27
ENDBRANCH  25  26
ENDBRANCH  24  25
ENDBRANCH  23  24
ENDBRANCH  22  23
ENDBRANCH  21  22
ENDBRANCH  20  21
ENDBRANCH  19  20
ENDBRANCH  18  19
ENDBRANCH  17  18
ENDBRANCH   1  17
TORSDOF 26
ENDMDL
MODEL 7
REMARK VINA RESULT:    18.377      1.401      2.542
REMARK INTER + INTRA:          46.062
REMARK INTER:                  47.664
REMARK INTRA:                  -1.601
REMARK UNBOUND:                -0.248
REMARK SMILES CCCCCCCCCCCCCCCCCCCCCCCCCCCC(=O)[O-]
REMARK SMILES IDX 15 1 16 2 17 3 18 4 19 5 20 6 21 7 22 8 23 9 24 10 25 11
REMARK SMILES IDX 26 12 27 13 28 14 29 15 30 16 14 17 13 18 12 19 11 20 10 21
REMARK SMILES IDX 9 22 8 23 7 24 6 25 5 26 4 27 3 28 2 29 1 30
REMARK H PARENT
REMARK Flexibility Score: inf
ROOT
ATOM      1  C   UNL     1      27.503  47.108   4.885  1.00  0.00     0.000 C 
ENDROOT
BRANCH   1   2
ATOM      2  C   UNL     1      27.388  47.578   6.342  1.00  0.00     0.000 C 
BRANCH   2   3
ATOM      3  C   UNL     1      26.657  46.537   7.203  1.00  0.00     0.000 C 
BRANCH   3   4
ATOM      4  C   UNL     1      25.958  45.460   6.354  1.00  0.00     0.000 C 
BRANCH   4   5
ATOM      5  C   UNL     1      26.843  44.237   6.050  1.00  0.00     0.000 C 
BRANCH   5   6
ATOM      6  C   UNL     1      26.511  43.605   4.685  1.00  0.00     0.000 C 
BRANCH   6   7
ATOM      7  C   UNL     1      27.319  44.221   3.529  1.00  0.00     0.000 C 
BRANCH   7   8
ATOM      8  C   UNL     1      28.741  44.633   3.953  1.00  0.00     0.000 C 
BRANCH   8   9
ATOM      9  C   UNL     1      29.738  44.644   2.775  1.00  0.00     0.000 C 
BRANCH   9  10
ATOM     10  C   UNL     1      29.383  43.662   1.643  1.00  0.00     0.000 C 
BRANCH  10  11
ATOM     11  C   UNL     1      29.948  44.088   0.281  1.00  0.00     0.000 C 
BRANCH  11  12
ATOM     12  C   UNL     1      30.629  42.909  -0.428  1.00  0.00     0.006 C 
BRANCH  12  13
ATOM     13  C   UNL     1      29.604  42.053  -1.185  1.00  0.00     0.053 C 
BRANCH  13  14
ATOM     14  C   UNL     1      29.332  42.613  -2.548  1.00  0.00     0.041 C 
ATOM     15  O   UNL     1      29.765  43.752  -2.870  1.00  0.00    -0.550 OA
ATOM     16  O   UNL     1      28.631  41.858  -3.481  1.00  0.00    -0.550 OA
ENDBRANCH  13  14
ENDBRANCH  12  13
ENDBRANCH  11  12
ENDBRANCH  10  11
ENDBRANCH   9  10
ENDBRANCH   8   9
ENDBRANCH   7   8
ENDBRANCH   6   7
ENDBRANCH   5   6
ENDBRANCH   4   5
ENDBRANCH   3   4
ENDBRANCH   2   3
ENDBRANCH   1   2
BRANCH   1  17
ATOM     17  C   UNL     1      26.654  47.953   3.916  1.00  0.00     0.000 C 
BRANCH  17  18
ATOM     18  C   UNL     1      26.638  47.454   2.456  1.00  0.00     0.000 C 
BRANCH  18  19
ATOM     19  C   UNL     1      25.236  47.219   1.861  1.00  0.00     0.000 C 
BRANCH  19  20
ATOM     20  C   UNL     1      25.077  45.812   1.257  1.00  0.00     0.000 C 
BRANCH  20  21
ATOM     21  C   UNL     1      24.221  44.885   2.135  1.00  0.00     0.000 C 
BRANCH  21  22
ATOM     22  C   UNL     1      24.621  43.405   1.991  1.00  0.00    -0.000 C 
BRANCH  22  23
ATOM     23  C   UNL     1      23.522  42.437   2.470  1.00  0.00    -0.000 C 
BRANCH  23  24
ATOM     24  C   UNL     1      22.816  42.850   3.774  1.00  0.00    -0.000 C 
BRANCH  24  25
ATOM     25  C   UNL     1      23.168  41.937   4.962  1.00  0.00    -0.000 C 
BRANCH  25  26
ATOM     26  C   UNL     1      24.190  40.840   4.584  1.00  0.00    -0.000 C 
BRANCH  26  27
ATOM     27  C   UNL     1      25.297  40.639   5.634  1.00  0.00    -0.000 C 
BRANCH  27  28
ATOM     28  C   UNL     1      24.907  39.754   6.832  1.00  0.00    -0.000 C 
BRANCH  28  29
ATOM     29  C   UNL     1      25.751  38.467   6.960  1.00  0.00    -0.003 C 
ATOM     30  C   UNL     1      26.114  37.849   5.611  1.00  0.00     0.004 C 
ENDBRANCH  28  29
ENDBRANCH  27  28
ENDBRANCH  26  27
ENDBRANCH  25  26
ENDBRANCH  24  25
ENDBRANCH  23  24
ENDBRANCH  22  23
ENDBRANCH  21  22
ENDBRANCH  20  21
ENDBRANCH  19  20
ENDBRANCH  18  19
ENDBRANCH  17  18
ENDBRANCH   1  17
TORSDOF 26
ENDMDL
MODEL 8
REMARK VINA RESULT:    18.404      3.771      5.085
REMARK INTER + INTRA:          46.131
REMARK INTER:                  46.434
REMARK INTRA:                  -0.303
REMARK UNBOUND:                -0.248
REMARK SMILES CCCCCCCCCCCCCCCCCCCCCCCCCCCC(=O)[O-]
REMARK SMILES IDX 15 1 16 2 17 3 18 4 19 5 20 6 21 7 22 8 23 9 24 10 25 11
REMARK SMILES IDX 26 12 27 13 28 14 29 15 30 16 14 17 13 18 12 19 11 20 10 21
REMARK SMILES IDX 9 22 8 23 7 24 6 25 5 26 4 27 3 28 2 29 1 30
REMARK H PARENT
REMARK Flexibility Score: inf
ROOT
ATOM      1  C   UNL     1      27.785  45.555   4.631  1.00  0.00     0.000 C 
ENDROOT
BRANCH   1   2
ATOM      2  C   UNL     1      28.312  44.605   3.546  1.00  0.00     0.000 C 
BRANCH   2   3
ATOM      3  C   UNL     1      29.542  45.197   2.842  1.00  0.00     0.000 C 
BRANCH   3   4
ATOM      4  C   UNL     1      29.561  44.886   1.334  1.00  0.00     0.000 C 
BRANCH   4   5
ATOM      5  C   UNL     1      29.683  43.384   1.011  1.00  0.00     0.000 C 
BRANCH   5   6
ATOM      6  C   UNL     1      29.444  43.090  -0.482  1.00  0.00     0.000 C 
BRANCH   6   7
ATOM      7  C   UNL     1      30.652  42.418  -1.158  1.00  0.00     0.000 C 
BRANCH   7   8
ATOM      8  C   UNL     1      31.884  42.345  -0.236  1.00  0.00     0.000 C 
BRANCH   8   9
ATOM      9  C   UNL     1      32.970  43.376  -0.605  1.00  0.00     0.000 C 
BRANCH   9  10
ATOM     10  C   UNL     1      34.411  42.852  -0.456  1.00  0.00     0.000 C 
BRANCH  10  11
ATOM     11  C   UNL     1      35.434  43.970  -0.218  1.00  0.00     0.000 C 
BRANCH  11  12
ATOM     12  C   UNL     1      36.508  43.979  -1.316  1.00  0.00     0.006 C 
BRANCH  12  13
ATOM     13  C   UNL     1      37.554  42.882  -1.073  1.00  0.00     0.053 C 
BRANCH  13  14
ATOM     14  C   UNL     1      38.637  42.927  -2.109  1.00  0.00     0.041 C 
ATOM     15  O   UNL     1      39.100  44.031  -2.501  1.00  0.00    -0.550 OA
ATOM     16  O   UNL     1      39.164  41.744  -2.612  1.00  0.00    -0.550 OA
ENDBRANCH  13  14
ENDBRANCH  12  13
ENDBRANCH  11  12
ENDBRANCH  10  11
ENDBRANCH   9  10
ENDBRANCH   8   9
ENDBRANCH   7   8
ENDBRANCH   6   7
ENDBRANCH   5   6
ENDBRANCH   4   5
ENDBRANCH   3   4
ENDBRANCH   2   3
ENDBRANCH   1   2
BRANCH   1  17
ATOM     17  C   UNL     1      26.795  44.872   5.593  1.00  0.00     0.000 C 
BRANCH  17  18
ATOM     18  C   UNL     1      26.083  43.628   5.024  1.00  0.00     0.000 C 
BRANCH  18  19
ATOM     19  C   UNL     1      26.236  43.424   3.505  1.00  0.00     0.000 C 
BRANCH  19  20
ATOM     20  C   UNL     1      24.940  43.727   2.732  1.00  0.00     0.000 C 
BRANCH  20  21
ATOM     21  C   UNL     1      24.344  42.476   2.064  1.00  0.00     0.000 C 
BRANCH  21  22
ATOM     22  C   UNL     1      22.926  42.158   2.573  1.00  0.00    -0.000 C 
BRANCH  22  23
ATOM     23  C   UNL     1      22.686  42.641   4.017  1.00  0.00    -0.000 C 
BRANCH  23  24
ATOM     24  C   UNL     1      22.894  41.570   5.102  1.00  0.00    -0.000 C 
BRANCH  24  25
ATOM     25  C   UNL     1      24.200  40.777   4.920  1.00  0.00    -0.000 C 
BRANCH  25  26
ATOM     26  C   UNL     1      24.869  40.420   6.267  1.00  0.00    -0.000 C 
BRANCH  26  27
ATOM     27  C   UNL     1      25.068  38.908   6.478  1.00  0.00    -0.000 C 
BRANCH  27  28
ATOM     28  C   UNL     1      26.114  38.529   7.542  1.00  0.00    -0.000 C 
BRANCH  28  29
ATOM     29  C   UNL     1      27.511  38.218   6.963  1.00  0.00    -0.003 C 
ATOM     30  C   UNL     1      27.494  37.959   5.457  1.00  0.00     0.004 C 
ENDBRANCH  28  29
ENDBRANCH  27  28
ENDBRANCH  26  27
ENDBRANCH  25  26
ENDBRANCH  24  25
ENDBRANCH  23  24
ENDBRANCH  22  23
ENDBRANCH  21  22
ENDBRANCH  20  21
ENDBRANCH  19  20
ENDBRANCH  18  19
ENDBRANCH  17  18
ENDBRANCH   1  17
TORSDOF 26
ENDMDL
MODEL 9
REMARK VINA RESULT:    18.768      4.689      8.555
REMARK INTER + INTRA:          47.048
REMARK INTER:                  48.863
REMARK INTRA:                  -1.815
REMARK UNBOUND:                -0.248
REMARK SMILES CCCCCCCCCCCCCCCCCCCCCCCCCCCC(=O)[O-]
REMARK SMILES IDX 15 1 16 2 17 3 18 4 19 5 20 6 21 7 22 8 23 9 24 10 25 11
REMARK SMILES IDX 26 12 27 13 28 14 29 15 30 16 14 17 13 18 12 19 11 20 10 21
REMARK SMILES IDX 9 22 8 23 7 24 6 25 5 26 4 27 3 28 2 29 1 30
REMARK H PARENT
REMARK Flexibility Score: inf
ROOT
ATOM      1  C   UNL     1      27.435  46.724   4.725  1.00  0.00     0.000 C 
ENDROOT
BRANCH   1   2
ATOM      2  C   UNL     1      28.474  45.626   4.457  1.00  0.00     0.000 C 
BRANCH   2   3
ATOM      3  C   UNL     1      27.856  44.459   3.672  1.00  0.00     0.000 C 
BRANCH   3   4
ATOM      4  C   UNL     1      26.466  44.066   4.203  1.00  0.00     0.000 C 
BRANCH   4   5
ATOM      5  C   UNL     1      25.848  42.851   3.487  1.00  0.00     0.000 C 
BRANCH   5   6
ATOM      6  C   UNL     1      24.828  43.267   2.411  1.00  0.00     0.000 C 
BRANCH   6   7
ATOM      7  C   UNL     1      23.612  42.326   2.345  1.00  0.00     0.000 C 
BRANCH   7   8
ATOM      8  C   UNL     1      22.482  42.747   3.304  1.00  0.00     0.000 C 
BRANCH   8   9
ATOM      9  C   UNL     1      22.718  42.272   4.753  1.00  0.00     0.000 C 
BRANCH   9  10
ATOM     10  C   UNL     1      23.437  40.915   4.859  1.00  0.00     0.000 C 
BRANCH  10  11
ATOM     11  C   UNL     1      24.502  40.886   5.965  1.00  0.00     0.000 C 
BRANCH  11  12
ATOM     12  C   UNL     1      24.400  39.599   6.796  1.00  0.00     0.006 C 
BRANCH  12  13
ATOM     13  C   UNL     1      25.793  39.076   7.177  1.00  0.00     0.053 C 
BRANCH  13  14
ATOM     14  C   UNL     1      26.232  37.981   6.253  1.00  0.00     0.041 C 
ATOM     15  O   UNL     1      25.460  37.022   5.986  1.00  0.00    -0.550 OA
ATOM     16  O   UNL     1      27.483  38.042   5.652  1.00  0.00    -0.550 OA
ENDBRANCH  13  14
ENDBRANCH  12  13
ENDBRANCH  11  12
ENDBRANCH  10  11
ENDBRANCH   9  10
ENDBRANCH   8   9
ENDBRANCH   7   8
ENDBRANCH   6   7
ENDBRANCH   5   6
ENDBRANCH   4   5
ENDBRANCH   3   4
ENDBRANCH   2   3
ENDBRANCH   1   2
BRANCH   1  17
ATOM     17  C   UNL     1      27.844  47.668   5.871  1.00  0.00     0.000 C 
BRANCH  17  18
ATOM     18  C   UNL     1      27.148  47.397   7.221  1.00  0.00     0.000 C 
BRANCH  18  19
ATOM     19  C   UNL     1      26.003  46.368   7.172  1.00  0.00     0.000 C 
BRANCH  19  20
ATOM     20  C   UNL     1      26.472  44.943   7.516  1.00  0.00     0.000 C 
BRANCH  20  21
ATOM     21  C   UNL     1      27.309  44.891   8.806  1.00  0.00     0.000 C 
BRANCH  21  22
ATOM     22  C   UNL     1      28.003  43.531   9.001  1.00  0.00    -0.000 C 
BRANCH  22  23
ATOM     23  C   UNL     1      29.101  43.568  10.082  1.00  0.00    -0.000 C 
BRANCH  23  24
ATOM     24  C   UNL     1      30.532  43.346   9.561  1.00  0.00    -0.000 C 
BRANCH  24  25
ATOM     25  C   UNL     1      31.591  44.113  10.373  1.00  0.00    -0.000 C 
BRANCH  25  26
ATOM     26  C   UNL     1      32.378  43.195  11.335  1.00  0.00    -0.000 C 
BRANCH  26  27
ATOM     27  C   UNL     1      33.711  43.799  11.814  1.00  0.00    -0.000 C 
BRANCH  27  28
ATOM     28  C   UNL     1      34.187  45.034  11.028  1.00  0.00    -0.000 C 
BRANCH  28  29
ATOM     29  C   UNL     1      35.456  45.695  11.611  1.00  0.00    -0.003 C 
ATOM     30  C   UNL     1      36.560  45.897  10.574  1.00  0.00     0.004 C 
ENDBRANCH  28  29
ENDBRANCH  27  28
ENDBRANCH  26  27
ENDBRANCH  25  26
ENDBRANCH  24  25
ENDBRANCH  23  24
ENDBRANCH  22  23
ENDBRANCH  21  22
ENDBRANCH  20  21
ENDBRANCH  19  20
ENDBRANCH  18  19
ENDBRANCH  17  18
ENDBRANCH   1  17
TORSDOF 26
ENDMDL
