MODEL 1
REMARK VINA RESULT:    -2.830      0.000      0.000
REMARK INTER + INTRA:         -11.144
REMARK INTER:                  -7.463
REMARK INTRA:                  -3.680
REMARK UNBOUND:                -3.680
REMARK SMILES CCCCCCCCCCCCCCCCCCCCCCCCCCCCCC(=O)[O-]
REMARK SMILES IDX 16 1 17 2 18 3 19 4 20 5 21 6 22 7 23 8 24 9 25 10 26 11
REMARK SMILES IDX 27 12 28 13 29 14 30 15 31 16 32 17 15 18 14 19 13 20 12 21
REMARK SMILES IDX 11 22 10 23 9 24 8 25 7 26 6 27 5 28 4 29 3 30 2 31 1 32
REMARK H PARENT
REMARK Flexibility Score: inf
ROOT
ATOM      1  C   UNL     1      22.485   3.155  24.930  1.00  0.00     0.000 C 
ENDROOT
BRANCH   1   2
ATOM      2  C   UNL     1      21.613   1.981  25.412  1.00  0.00     0.000 C 
BRANCH   2   3
ATOM      3  C   UNL     1      20.144   2.016  24.943  1.00  0.00     0.000 C 
BRANCH   3   4
ATOM      4  C   UNL     1      19.141   1.302  25.868  1.00  0.00     0.000 C 
BRANCH   4   5
ATOM      5  C   UNL     1      19.117   1.895  27.287  1.00  0.00     0.000 C 
BRANCH   5   6
ATOM      6  C   UNL     1      18.309   3.201  27.372  1.00  0.00     0.000 C 
BRANCH   6   7
ATOM      7  C   UNL     1      19.106   4.348  28.020  1.00  0.00     0.000 C 
BRANCH   7   8
ATOM      8  C   UNL     1      18.370   5.700  27.945  1.00  0.00     0.000 C 
BRANCH   8   9
ATOM      9  C   UNL     1      19.259   6.886  27.525  1.00  0.00     0.000 C 
BRANCH   9  10
ATOM     10  C   UNL     1      18.727   8.238  28.027  1.00  0.00     0.000 C 
BRANCH  10  11
ATOM     11  C   UNL     1      17.193   8.356  27.882  1.00  0.00     0.000 C 
BRANCH  11  12
ATOM     12  C   UNL     1      16.748   9.132  26.629  1.00  0.00     0.000 C 
BRANCH  12  13
ATOM     13  C   UNL     1      15.892   8.322  25.634  1.00  0.00     0.006 C 
BRANCH  13  14
ATOM     14  C   UNL     1      16.405   8.378  24.180  1.00  0.00     0.053 C 
BRANCH  14  15
ATOM     15  C   UNL     1      16.722   7.021  23.627  1.00  0.00     0.041 C 
ATOM     16  O   UNL     1      17.848   6.493  23.839  1.00  0.00    -0.550 OA
ATOM     17  O   UNL     1      15.765   6.326  22.899  1.00  0.00    -0.550 OA
ENDBRANCH  14  15
ENDBRANCH  13  14
ENDBRANCH  12  13
ENDBRANCH  11  12
ENDBRANCH  10  11
ENDBRANCH   9  10
ENDBRANCH   8   9
ENDBRANCH   7   8
ENDBRANCH   6   7
ENDBRANCH   5   6
ENDBRANCH   4   5
ENDBRANCH   3   4
ENDBRANCH   2   3
ENDBRANCH   1   2
BRANCH   1  18
ATOM     18  C   UNL     1      23.820   3.252  25.688  1.00  0.00     0.000 C 
BRANCH  18  19
ATOM     19  C   UNL     1      23.643   3.711  27.144  1.00  0.00     0.000 C 
BRANCH  19  20
ATOM     20  C   UNL     1      22.807   4.997  27.269  1.00  0.00     0.000 C 
BRANCH  20  21
ATOM     21  C   UNL     1      23.519   6.100  28.074  1.00  0.00     0.000 C 
BRANCH  21  22
ATOM     22  C   UNL     1      24.674   6.816  27.340  1.00  0.00     0.000 C 
BRANCH  22  23
ATOM     23  C   UNL     1      24.926   8.272  27.775  1.00  0.00     0.000 C 
BRANCH  23  24
ATOM     24  C   UNL     1      25.322   9.183  26.599  1.00  0.00    -0.000 C 
BRANCH  24  25
ATOM     25  C   UNL     1      24.129   9.962  26.020  1.00  0.00    -0.000 C 
BRANCH  25  26
ATOM     26  C   UNL     1      22.927  10.124  26.972  1.00  0.00    -0.000 C 
BRANCH  26  27
ATOM     27  C   UNL     1      21.638   9.434  26.477  1.00  0.00    -0.000 C 
BRANCH  27  28
ATOM     28  C   UNL     1      21.482   9.515  24.948  1.00  0.00    -0.000 C 
BRANCH  28  29
ATOM     29  C   UNL     1      20.054   9.191  24.482  1.00  0.00    -0.000 C 
BRANCH  29  30
ATOM     30  C   UNL     1      20.015   8.648  23.044  1.00  0.00    -0.000 C 
BRANCH  30  31
ATOM     31  C   UNL     1      19.827   9.787  22.033  1.00  0.00    -0.003 C 
ATOM     32  C   UNL     1      18.451   9.721  21.371  1.00  0.00     0.004 C 
ENDBRANCH  30  31
ENDBRANCH  29  30
ENDBRANCH  28  29
ENDBRANCH  27  28
ENDBRANCH  26  27
ENDBRANCH  25  26
ENDBRANCH  24  25
ENDBRANCH  23  24
ENDBRANCH  22  23
ENDBRANCH  21  22
ENDBRANCH  20  21
ENDBRANCH  19  20
ENDBRANCH  18  19
ENDBRANCH   1  18
TORSDOF 28
ENDMDL
MODEL 2
REMARK VINA RESULT:    -2.744      1.600      4.055
REMARK INTER + INTRA:         -10.915
REMARK INTER:                  -6.483
REMARK INTRA:                  -4.432
REMARK UNBOUND:                -3.680
REMARK SMILES CCCCCCCCCCCCCCCCCCCCCCCCCCCCCC(=O)[O-]
REMARK SMILES IDX 16 1 17 2 18 3 19 4 20 5 21 6 22 7 23 8 24 9 25 10 26 11
REMARK SMILES IDX 27 12 28 13 29 14 30 15 31 16 32 17 15 18 14 19 13 20 12 21
REMARK SMILES IDX 11 22 10 23 9 24 8 25 7 26 6 27 5 28 4 29 3 30 2 31 1 32
REMARK H PARENT
REMARK Flexibility Score: inf
ROOT
ATOM      1  C   UNL     1      20.122   4.500  24.229  1.00  0.00     0.000 C 
ENDROOT
BRANCH   1   2
ATOM      2  C   UNL     1      21.463   3.823  23.888  1.00  0.00     0.000 C 
BRANCH   2   3
ATOM      3  C   UNL     1      21.956   2.783  24.914  1.00  0.00     0.000 C 
BRANCH   3   4
ATOM      4  C   UNL     1      20.854   1.927  25.565  1.00  0.00     0.000 C 
BRANCH   4   5
ATOM      5  C   UNL     1      20.948   1.906  27.100  1.00  0.00     0.000 C 
BRANCH   5   6
ATOM      6  C   UNL     1      19.571   1.812  27.779  1.00  0.00     0.000 C 
BRANCH   6   7
ATOM      7  C   UNL     1      18.504   2.670  27.073  1.00  0.00     0.000 C 
BRANCH   7   8
ATOM      8  C   UNL     1      17.889   3.736  28.000  1.00  0.00     0.000 C 
BRANCH   8   9
ATOM      9  C   UNL     1      18.288   5.184  27.658  1.00  0.00     0.000 C 
BRANCH   9  10
ATOM     10  C   UNL     1      17.238   6.214  28.106  1.00  0.00     0.000 C 
BRANCH  10  11
ATOM     11  C   UNL     1      16.661   7.019  26.919  1.00  0.00     0.000 C 
BRANCH  11  12
ATOM     12  C   UNL     1      17.529   8.223  26.507  1.00  0.00     0.000 C 
BRANCH  12  13
ATOM     13  C   UNL     1      17.245   8.775  25.096  1.00  0.00     0.006 C 
BRANCH  13  14
ATOM     14  C   UNL     1      17.994   8.029  23.972  1.00  0.00     0.053 C 
BRANCH  14  15
ATOM     15  C   UNL     1      18.693   8.960  23.027  1.00  0.00     0.041 C 
ATOM     16  O   UNL     1      18.046   9.857  22.420  1.00  0.00    -0.550 OA
ATOM     17  O   UNL     1      20.064   8.855  22.835  1.00  0.00    -0.550 OA
ENDBRANCH  14  15
ENDBRANCH  13  14
ENDBRANCH  12  13
ENDBRANCH  11  12
ENDBRANCH  10  11
ENDBRANCH   9  10
ENDBRANCH   8   9
ENDBRANCH   7   8
ENDBRANCH   6   7
ENDBRANCH   5   6
ENDBRANCH   4   5
ENDBRANCH   3   4
ENDBRANCH   2   3
ENDBRANCH   1   2
BRANCH   1  18
ATOM     18  C   UNL     1      20.303   5.889  24.864  1.00  0.00     0.000 C 
BRANCH  18  19
ATOM     19  C   UNL     1      21.420   5.917  25.920  1.00  0.00     0.000 C 
BRANCH  19  20
ATOM     20  C   UNL     1      20.955   6.500  27.267  1.00  0.00     0.000 C 
BRANCH  20  21
ATOM     21  C   UNL     1      21.504   7.915  27.529  1.00  0.00     0.000 C 
BRANCH  21  22
ATOM     22  C   UNL     1      20.615   9.074  27.031  1.00  0.00     0.000 C 
BRANCH  22  23
ATOM     23  C   UNL     1      21.327  10.116  26.148  1.00  0.00     0.000 C 
BRANCH  23  24
ATOM     24  C   UNL     1      22.305   9.478  25.147  1.00  0.00    -0.000 C 
BRANCH  24  25
ATOM     25  C   UNL     1      23.714  10.093  25.214  1.00  0.00    -0.000 C 
BRANCH  25  26
ATOM     26  C   UNL     1      24.785   9.207  25.881  1.00  0.00    -0.000 C 
BRANCH  26  27
ATOM     27  C   UNL     1      24.860   9.362  27.415  1.00  0.00    -0.000 C 
BRANCH  27  28
ATOM     28  C   UNL     1      25.139   8.025  28.124  1.00  0.00    -0.000 C 
BRANCH  28  29
ATOM     29  C   UNL     1      24.908   6.812  27.210  1.00  0.00    -0.000 C 
BRANCH  29  30
ATOM     30  C   UNL     1      24.229   5.644  27.944  1.00  0.00    -0.000 C 
BRANCH  30  31
ATOM     31  C   UNL     1      24.287   4.361  27.104  1.00  0.00    -0.003 C 
ATOM     32  C   UNL     1      24.320   3.117  27.991  1.00  0.00     0.004 C 
ENDBRANCH  30  31
ENDBRANCH  29  30
ENDBRANCH  28  29
ENDBRANCH  27  28
ENDBRANCH  26  27
ENDBRANCH  25  26
ENDBRANCH  24  25
ENDBRANCH  23  24
ENDBRANCH  22  23
ENDBRANCH  21  22
ENDBRANCH  20  21
ENDBRANCH  19  20
ENDBRANCH  18  19
ENDBRANCH   1  18
TORSDOF 28
ENDMDL
MODEL 3
REMARK VINA RESULT:    -2.640      1.615      4.692
REMARK INTER + INTRA:         -10.641
REMARK INTER:                  -7.038
REMARK INTRA:                  -3.603
REMARK UNBOUND:                -3.680
REMARK SMILES CCCCCCCCCCCCCCCCCCCCCCCCCCCCCC(=O)[O-]
REMARK SMILES IDX 16 1 17 2 18 3 19 4 20 5 21 6 22 7 23 8 24 9 25 10 26 11
REMARK SMILES IDX 27 12 28 13 29 14 30 15 31 16 32 17 15 18 14 19 13 20 12 21
REMARK SMILES IDX 11 22 10 23 9 24 8 25 7 26 6 27 5 28 4 29 3 30 2 31 1 32
REMARK H PARENT
REMARK Flexibility Score: inf
ROOT
ATOM      1  C   UNL     1      22.493   2.871  24.351  1.00  0.00     0.000 C 
ENDROOT
BRANCH   1   2
ATOM      2  C   UNL     1      22.909   3.834  25.478  1.00  0.00     0.000 C 
BRANCH   2   3
ATOM      3  C   UNL     1      24.127   3.388  26.311  1.00  0.00     0.000 C 
BRANCH   3   4
ATOM      4  C   UNL     1      24.189   3.951  27.743  1.00  0.00     0.000 C 
BRANCH   4   5
ATOM      5  C   UNL     1      23.032   4.918  28.050  1.00  0.00     0.000 C 
BRANCH   5   6
ATOM      6  C   UNL     1      23.129   6.232  27.258  1.00  0.00     0.000 C 
BRANCH   6   7
ATOM      7  C   UNL     1      24.255   7.150  27.769  1.00  0.00     0.000 C 
BRANCH   7   8
ATOM      8  C   UNL     1      23.864   8.640  27.746  1.00  0.00     0.000 C 
BRANCH   8   9
ATOM      9  C   UNL     1      22.384   8.916  28.072  1.00  0.00     0.000 C 
BRANCH   9  10
ATOM     10  C   UNL     1      21.441   8.564  26.910  1.00  0.00     0.000 C 
BRANCH  10  11
ATOM     11  C   UNL     1      20.204   9.489  26.857  1.00  0.00     0.000 C 
BRANCH  11  12
ATOM     12  C   UNL     1      19.332   9.430  28.125  1.00  0.00     0.000 C 
BRANCH  12  13
ATOM     13  C   UNL     1      17.833   9.707  27.895  1.00  0.00     0.006 C 
BRANCH  13  14
ATOM     14  C   UNL     1      17.023   8.459  27.482  1.00  0.00     0.053 C 
BRANCH  14  15
ATOM     15  C   UNL     1      16.016   8.753  26.411  1.00  0.00     0.041 C 
ATOM     16  O   UNL     1      15.295   7.830  25.944  1.00  0.00    -0.550 OA
ATOM     17  O   UNL     1      15.855  10.052  25.946  1.00  0.00    -0.550 OA
ENDBRANCH  14  15
ENDBRANCH  13  14
ENDBRANCH  12  13
ENDBRANCH  11  12
ENDBRANCH  10  11
ENDBRANCH   9  10
ENDBRANCH   8   9
ENDBRANCH   7   8
ENDBRANCH   6   7
ENDBRANCH   5   6
ENDBRANCH   4   5
ENDBRANCH   3   4
ENDBRANCH   2   3
ENDBRANCH   1   2
BRANCH   1  18
ATOM     18  C   UNL     1      21.011   2.468  24.432  1.00  0.00     0.000 C 
BRANCH  18  19
ATOM     19  C   UNL     1      20.787   1.195  25.265  1.00  0.00     0.000 C 
BRANCH  19  20
ATOM     20  C   UNL     1      20.890   1.446  26.780  1.00  0.00     0.000 C 
BRANCH  20  21
ATOM     21  C   UNL     1      19.518   1.451  27.480  1.00  0.00     0.000 C 
BRANCH  21  22
ATOM     22  C   UNL     1      18.484   2.444  26.906  1.00  0.00     0.000 C 
BRANCH  22  23
ATOM     23  C   UNL     1      18.261   3.717  27.741  1.00  0.00     0.000 C 
BRANCH  23  24
ATOM     24  C   UNL     1      19.383   4.754  27.556  1.00  0.00    -0.000 C 
BRANCH  24  25
ATOM     25  C   UNL     1      19.069   5.783  26.456  1.00  0.00    -0.000 C 
BRANCH  25  26
ATOM     26  C   UNL     1      20.048   5.788  25.264  1.00  0.00    -0.000 C 
BRANCH  26  27
ATOM     27  C   UNL     1      19.354   5.839  23.886  1.00  0.00    -0.000 C 
BRANCH  27  28
ATOM     28  C   UNL     1      17.904   6.347  23.980  1.00  0.00    -0.000 C 
BRANCH  28  29
ATOM     29  C   UNL     1      17.687   7.660  23.214  1.00  0.00    -0.000 C 
BRANCH  29  30
ATOM     30  C   UNL     1      18.373   8.857  23.892  1.00  0.00    -0.000 C 
BRANCH  30  31
ATOM     31  C   UNL     1      18.737   9.936  22.863  1.00  0.00    -0.003 C 
ATOM     32  C   UNL     1      19.748   9.412  21.843  1.00  0.00     0.004 C 
ENDBRANCH  30  31
ENDBRANCH  29  30
ENDBRANCH  28  29
ENDBRANCH  27  28
ENDBRANCH  26  27
ENDBRANCH  25  26
ENDBRANCH  24  25
ENDBRANCH  23  24
ENDBRANCH  22  23
ENDBRANCH  21  22
ENDBRANCH  20  21
ENDBRANCH  19  20
ENDBRANCH  18  19
ENDBRANCH   1  18
TORSDOF 28
ENDMDL
MODEL 4
REMARK VINA RESULT:    -2.582      1.907      4.611
REMARK INTER + INTRA:         -10.488
REMARK INTER:                  -7.789
REMARK INTRA:                  -2.699
REMARK UNBOUND:                -3.680
REMARK SMILES CCCCCCCCCCCCCCCCCCCCCCCCCCCCCC(=O)[O-]
REMARK SMILES IDX 16 1 17 2 18 3 19 4 20 5 21 6 22 7 23 8 24 9 25 10 26 11
REMARK SMILES IDX 27 12 28 13 29 14 30 15 31 16 32 17 15 18 14 19 13 20 12 21
REMARK SMILES IDX 11 22 10 23 9 24 8 25 7 26 6 27 5 28 4 29 3 30 2 31 1 32
REMARK H PARENT
REMARK Flexibility Score: inf
ROOT
ATOM      1  C   UNL     1      21.662   2.672  23.508  1.00  0.00     0.000 C 
ENDROOT
BRANCH   1   2
ATOM      2  C   UNL     1      21.325   4.051  24.104  1.00  0.00     0.000 C 
BRANCH   2   3
ATOM      3  C   UNL     1      19.867   4.228  24.574  1.00  0.00     0.000 C 
BRANCH   3   4
ATOM      4  C   UNL     1      19.118   5.425  23.959  1.00  0.00     0.000 C 
BRANCH   4   5
ATOM      5  C   UNL     1      20.067   6.541  23.488  1.00  0.00     0.000 C 
BRANCH   5   6
ATOM      6  C   UNL     1      20.351   7.581  24.584  1.00  0.00     0.000 C 
BRANCH   6   7
ATOM      7  C   UNL     1      20.760   8.950  24.010  1.00  0.00     0.000 C 
BRANCH   7   8
ATOM      8  C   UNL     1      20.072   9.261  22.667  1.00  0.00     0.000 C 
BRANCH   8   9
ATOM      9  C   UNL     1      18.672   9.890  22.799  1.00  0.00     0.000 C 
BRANCH   9  10
ATOM     10  C   UNL     1      17.542   8.849  22.749  1.00  0.00     0.000 C 
BRANCH  10  11
ATOM     11  C   UNL     1      16.721   8.809  24.058  1.00  0.00     0.000 C 
BRANCH  11  12
ATOM     12  C   UNL     1      17.204   9.812  25.122  1.00  0.00     0.000 C 
BRANCH  12  13
ATOM     13  C   UNL     1      17.820   9.172  26.383  1.00  0.00     0.006 C 
BRANCH  13  14
ATOM     14  C   UNL     1      16.828   9.024  27.555  1.00  0.00     0.053 C 
BRANCH  14  15
ATOM     15  C   UNL     1      16.221   7.654  27.628  1.00  0.00     0.041 C 
ATOM     16  O   UNL     1      14.980   7.497  27.474  1.00  0.00    -0.550 OA
ATOM     17  O   UNL     1      17.032   6.546  27.841  1.00  0.00    -0.550 OA
ENDBRANCH  14  15
ENDBRANCH  13  14
ENDBRANCH  12  13
ENDBRANCH  11  12
ENDBRANCH  10  11
ENDBRANCH   9  10
ENDBRANCH   8   9
ENDBRANCH   7   8
ENDBRANCH   6   7
ENDBRANCH   5   6
ENDBRANCH   4   5
ENDBRANCH   3   4
ENDBRANCH   2   3
ENDBRANCH   1   2
BRANCH   1  18
ATOM     18  C   UNL     1      22.173   1.678  24.565  1.00  0.00     0.000 C 
BRANCH  18  19
ATOM     19  C   UNL     1      21.482   1.854  25.927  1.00  0.00     0.000 C 
BRANCH  19  20
ATOM     20  C   UNL     1      22.404   1.519  27.114  1.00  0.00     0.000 C 
BRANCH  20  21
ATOM     21  C   UNL     1      23.630   2.448  27.200  1.00  0.00     0.000 C 
BRANCH  21  22
ATOM     22  C   UNL     1      23.435   3.727  28.044  1.00  0.00     0.000 C 
BRANCH  22  23
ATOM     23  C   UNL     1      23.754   5.048  27.320  1.00  0.00     0.000 C 
BRANCH  23  24
ATOM     24  C   UNL     1      22.874   6.216  27.799  1.00  0.00    -0.000 C 
BRANCH  24  25
ATOM     25  C   UNL     1      21.387   5.837  27.907  1.00  0.00    -0.000 C 
BRANCH  25  26
ATOM     26  C   UNL     1      20.423   7.021  28.123  1.00  0.00    -0.000 C 
BRANCH  26  27
ATOM     27  C   UNL     1      21.115   8.400  28.123  1.00  0.00    -0.000 C 
BRANCH  27  28
ATOM     28  C   UNL     1      22.317   8.451  27.162  1.00  0.00    -0.000 C 
BRANCH  28  29
ATOM     29  C   UNL     1      22.921   9.859  27.045  1.00  0.00    -0.000 C 
BRANCH  29  30
ATOM     30  C   UNL     1      24.214   9.876  26.214  1.00  0.00    -0.000 C 
BRANCH  30  31
ATOM     31  C   UNL     1      25.196   8.803  26.705  1.00  0.00    -0.003 C 
ATOM     32  C   UNL     1      25.687   9.106  28.120  1.00  0.00     0.004 C 
ENDBRANCH  30  31
ENDBRANCH  29  30
ENDBRANCH  28  29
ENDBRANCH  27  28
ENDBRANCH  26  27
ENDBRANCH  25  26
ENDBRANCH  24  25
ENDBRANCH  23  24
ENDBRANCH  22  23
ENDBRANCH  21  22
ENDBRANCH  20  21
ENDBRANCH  19  20
ENDBRANCH  18  19
ENDBRANCH   1  18
TORSDOF 28
ENDMDL
MODEL 5
REMARK VINA RESULT:    -2.422      1.741      5.740
REMARK INTER + INTRA:         -10.067
REMARK INTER:                  -7.476
REMARK INTRA:                  -2.591
REMARK UNBOUND:                -3.680
REMARK SMILES CCCCCCCCCCCCCCCCCCCCCCCCCCCCCC(=O)[O-]
REMARK SMILES IDX 16 1 17 2 18 3 19 4 20 5 21 6 22 7 23 8 24 9 25 10 26 11
REMARK SMILES IDX 27 12 28 13 29 14 30 15 31 16 32 17 15 18 14 19 13 20 12 21
REMARK SMILES IDX 11 22 10 23 9 24 8 25 7 26 6 27 5 28 4 29 3 30 2 31 1 32
REMARK H PARENT
REMARK Flexibility Score: inf
ROOT
ATOM      1  C   UNL     1      21.607   2.092  23.664  1.00  0.00     0.000 C 
ENDROOT
BRANCH   1   2
ATOM      2  C   UNL     1      21.920   3.127  24.760  1.00  0.00     0.000 C 
BRANCH   2   3
ATOM      3  C   UNL     1      21.363   4.543  24.509  1.00  0.00     0.000 C 
BRANCH   3   4
ATOM      4  C   UNL     1      21.275   5.446  25.752  1.00  0.00     0.000 C 
BRANCH   4   5
ATOM      5  C   UNL     1      22.302   5.069  26.834  1.00  0.00     0.000 C 
BRANCH   5   6
ATOM      6  C   UNL     1      22.171   5.928  28.103  1.00  0.00     0.000 C 
BRANCH   6   7
ATOM      7  C   UNL     1      22.966   7.243  28.012  1.00  0.00     0.000 C 
BRANCH   7   8
ATOM      8  C   UNL     1      24.402   7.036  27.491  1.00  0.00     0.000 C 
BRANCH   8   9
ATOM      9  C   UNL     1      25.427   8.053  28.028  1.00  0.00     0.000 C 
BRANCH   9  10
ATOM     10  C   UNL     1      25.270   9.447  27.400  1.00  0.00     0.000 C 
BRANCH  10  11
ATOM     11  C   UNL     1      25.629   9.458  25.897  1.00  0.00     0.000 C 
BRANCH  11  12
ATOM     12  C   UNL     1      24.549  10.104  25.008  1.00  0.00     0.000 C 
BRANCH  12  13
ATOM     13  C   UNL     1      23.122  10.068  25.592  1.00  0.00     0.006 C 
BRANCH  13  14
ATOM     14  C   UNL     1      22.028   9.760  24.547  1.00  0.00     0.053 C 
BRANCH  14  15
ATOM     15  C   UNL     1      20.801   9.153  25.159  1.00  0.00     0.041 C 
ATOM     16  O   UNL     1      20.051   8.405  24.475  1.00  0.00    -0.550 OA
ATOM     17  O   UNL     1      20.499   9.392  26.493  1.00  0.00    -0.550 OA
ENDBRANCH  14  15
ENDBRANCH  13  14
ENDBRANCH  12  13
ENDBRANCH  11  12
ENDBRANCH  10  11
ENDBRANCH   9  10
ENDBRANCH   8   9
ENDBRANCH   7   8
ENDBRANCH   6   7
ENDBRANCH   5   6
ENDBRANCH   4   5
ENDBRANCH   3   4
ENDBRANCH   2   3
ENDBRANCH   1   2
BRANCH   1  18
ATOM     18  C   UNL     1      20.915   0.834  24.216  1.00  0.00     0.000 C 
BRANCH  18  19
ATOM     19  C   UNL     1      19.668   1.163  25.053  1.00  0.00     0.000 C 
BRANCH  19  20
ATOM     20  C   UNL     1      19.975   2.083  26.248  1.00  0.00     0.000 C 
BRANCH  20  21
ATOM     21  C   UNL     1      18.704   2.616  26.935  1.00  0.00     0.000 C 
BRANCH  21  22
ATOM     22  C   UNL     1      18.938   3.681  28.029  1.00  0.00     0.000 C 
BRANCH  22  23
ATOM     23  C   UNL     1      17.948   4.860  28.022  1.00  0.00     0.000 C 
BRANCH  23  24
ATOM     24  C   UNL     1      18.615   6.194  27.643  1.00  0.00    -0.000 C 
BRANCH  24  25
ATOM     25  C   UNL     1      17.595   7.299  27.317  1.00  0.00    -0.000 C 
BRANCH  25  26
ATOM     26  C   UNL     1      16.283   7.241  28.124  1.00  0.00    -0.000 C 
BRANCH  26  27
ATOM     27  C   UNL     1      15.103   7.977  27.456  1.00  0.00    -0.000 C 
BRANCH  27  28
ATOM     28  C   UNL     1      15.071   7.765  25.931  1.00  0.00    -0.000 C 
BRANCH  28  29
ATOM     29  C   UNL     1      15.665   8.953  25.157  1.00  0.00    -0.000 C 
BRANCH  29  30
ATOM     30  C   UNL     1      16.592   8.506  24.016  1.00  0.00    -0.000 C 
BRANCH  30  31
ATOM     31  C   UNL     1      16.540   6.983  23.831  1.00  0.00    -0.003 C 
ATOM     32  C   UNL     1      17.943   6.392  23.692  1.00  0.00     0.004 C 
ENDBRANCH  30  31
ENDBRANCH  29  30
ENDBRANCH  28  29
ENDBRANCH  27  28
ENDBRANCH  26  27
ENDBRANCH  25  26
ENDBRANCH  24  25
ENDBRANCH  23  24
ENDBRANCH  22  23
ENDBRANCH  21  22
ENDBRANCH  20  21
ENDBRANCH  19  20
ENDBRANCH  18  19
ENDBRANCH   1  18
TORSDOF 28
ENDMDL
MODEL 6
REMARK VINA RESULT:    -2.278      1.604      5.246
REMARK INTER + INTRA:          -9.688
REMARK INTER:                  -6.042
REMARK INTRA:                  -3.646
REMARK UNBOUND:                -3.680
REMARK SMILES CCCCCCCCCCCCCCCCCCCCCCCCCCCCCC(=O)[O-]
REMARK SMILES IDX 16 1 17 2 18 3 19 4 20 5 21 6 22 7 23 8 24 9 25 10 26 11
REMARK SMILES IDX 27 12 28 13 29 14 30 15 31 16 32 17 15 18 14 19 13 20 12 21
REMARK SMILES IDX 11 22 10 23 9 24 8 25 7 26 6 27 5 28 4 29 3 30 2 31 1 32
REMARK H PARENT
REMARK Flexibility Score: inf
ROOT
ATOM      1  C   UNL     1      22.361   2.580  24.106  1.00  0.00     0.000 C 
ENDROOT
BRANCH   1   2
ATOM      2  C   UNL     1      23.057   3.688  24.918  1.00  0.00     0.000 C 
BRANCH   2   3
ATOM      3  C   UNL     1      23.943   3.196  26.080  1.00  0.00     0.000 C 
BRANCH   3   4
ATOM      4  C   UNL     1      23.900   4.063  27.352  1.00  0.00     0.000 C 
BRANCH   4   5
ATOM      5  C   UNL     1      23.029   5.320  27.185  1.00  0.00     0.000 C 
BRANCH   5   6
ATOM      6  C   UNL     1      23.853   6.572  26.840  1.00  0.00     0.000 C 
BRANCH   6   7
ATOM      7  C   UNL     1      24.228   7.396  28.086  1.00  0.00     0.000 C 
BRANCH   7   8
ATOM      8  C   UNL     1      23.657   8.827  28.047  1.00  0.00     0.000 C 
BRANCH   8   9
ATOM      9  C   UNL     1      22.383   8.982  27.194  1.00  0.00     0.000 C 
BRANCH   9  10
ATOM     10  C   UNL     1      22.532  10.037  26.086  1.00  0.00     0.000 C 
BRANCH  10  11
ATOM     11  C   UNL     1      21.439   9.907  25.000  1.00  0.00     0.000 C 
BRANCH  11  12
ATOM     12  C   UNL     1      20.980   8.457  24.756  1.00  0.00     0.000 C 
BRANCH  12  13
ATOM     13  C   UNL     1      19.757   8.311  23.828  1.00  0.00     0.006 C 
BRANCH  13  14
ATOM     14  C   UNL     1      19.269   9.645  23.225  1.00  0.00     0.053 C 
BRANCH  14  15
ATOM     15  C   UNL     1      19.573   9.763  21.761  1.00  0.00     0.041 C 
ATOM     16  O   UNL     1      18.648   9.984  20.933  1.00  0.00    -0.550 OA
ATOM     17  O   UNL     1      20.884   9.655  21.313  1.00  0.00    -0.550 OA
ENDBRANCH  14  15
ENDBRANCH  13  14
ENDBRANCH  12  13
ENDBRANCH  11  12
ENDBRANCH  10  11
ENDBRANCH   9  10
ENDBRANCH   8   9
ENDBRANCH   7   8
ENDBRANCH   6   7
ENDBRANCH   5   6
ENDBRANCH   4   5
ENDBRANCH   3   4
ENDBRANCH   2   3
ENDBRANCH   1   2
BRANCH   1  18
ATOM     18  C   UNL     1      20.860   2.468  24.419  1.00  0.00     0.000 C 
BRANCH  18  19
ATOM     19  C   UNL     1      20.502   1.165  25.153  1.00  0.00     0.000 C 
BRANCH  19  20
ATOM     20  C   UNL     1      20.892   1.191  26.642  1.00  0.00     0.000 C 
BRANCH  20  21
ATOM     21  C   UNL     1      19.717   1.575  27.561  1.00  0.00     0.000 C 
BRANCH  21  22
ATOM     22  C   UNL     1      18.592   2.395  26.893  1.00  0.00     0.000 C 
BRANCH  22  23
ATOM     23  C   UNL     1      18.308   3.766  27.534  1.00  0.00     0.000 C 
BRANCH  23  24
ATOM     24  C   UNL     1      19.542   4.684  27.545  1.00  0.00    -0.000 C 
BRANCH  24  25
ATOM     25  C   UNL     1      19.241   6.082  28.113  1.00  0.00    -0.000 C 
BRANCH  25  26
ATOM     26  C   UNL     1      19.149   7.209  27.065  1.00  0.00    -0.000 C 
BRANCH  26  27
ATOM     27  C   UNL     1      18.416   8.471  27.567  1.00  0.00    -0.000 C 
BRANCH  27  28
ATOM     28  C   UNL     1      17.017   8.152  28.123  1.00  0.00    -0.000 C 
BRANCH  28  29
ATOM     29  C   UNL     1      16.146   7.376  27.123  1.00  0.00    -0.000 C 
BRANCH  29  30
ATOM     30  C   UNL     1      14.975   8.216  26.588  1.00  0.00    -0.000 C 
BRANCH  30  31
ATOM     31  C   UNL     1      14.875   8.108  25.061  1.00  0.00    -0.003 C 
ATOM     32  C   UNL     1      16.125   8.668  24.382  1.00  0.00     0.004 C 
ENDBRANCH  30  31
ENDBRANCH  29  30
ENDBRANCH  28  29
ENDBRANCH  27  28
ENDBRANCH  26  27
ENDBRANCH  25  26
ENDBRANCH  24  25
ENDBRANCH  23  24
ENDBRANCH  22  23
ENDBRANCH  21  22
ENDBRANCH  20  21
ENDBRANCH  19  20
ENDBRANCH  18  19
ENDBRANCH   1  18
TORSDOF 28
ENDMDL
MODEL 7
REMARK VINA RESULT:    -2.267      1.638      5.462
REMARK INTER + INTRA:          -9.658
REMARK INTER:                  -6.580
REMARK INTRA:                  -3.078
REMARK UNBOUND:                -3.680
REMARK SMILES CCCCCCCCCCCCCCCCCCCCCCCCCCCCCC(=O)[O-]
REMARK SMILES IDX 16 1 17 2 18 3 19 4 20 5 21 6 22 7 23 8 24 9 25 10 26 11
REMARK SMILES IDX 27 12 28 13 29 14 30 15 31 16 32 17 15 18 14 19 13 20 12 21
REMARK SMILES IDX 11 22 10 23 9 24 8 25 7 26 6 27 5 28 4 29 3 30 2 31 1 32
REMARK H PARENT
REMARK Flexibility Score: inf
ROOT
ATOM      1  C   UNL     1      19.861   3.855  27.315  1.00  0.00     0.000 C 
ENDROOT
BRANCH   1   2
ATOM      2  C   UNL     1      19.511   5.208  27.962  1.00  0.00     0.000 C 
BRANCH   2   3
ATOM      3  C   UNL     1      18.008   5.553  27.995  1.00  0.00     0.000 C 
BRANCH   3   4
ATOM      4  C   UNL     1      17.680   7.052  28.119  1.00  0.00     0.000 C 
BRANCH   4   5
ATOM      5  C   UNL     1      18.936   7.940  28.090  1.00  0.00     0.000 C 
BRANCH   5   6
ATOM      6  C   UNL     1      18.839   9.073  27.055  1.00  0.00     0.000 C 
BRANCH   6   7
ATOM      7  C   UNL     1      20.220   9.560  26.579  1.00  0.00     0.000 C 
BRANCH   7   8
ATOM      8  C   UNL     1      20.670   8.887  25.269  1.00  0.00     0.000 C 
BRANCH   8   9
ATOM      9  C   UNL     1      20.544   7.351  25.266  1.00  0.00     0.000 C 
BRANCH   9  10
ATOM     10  C   UNL     1      20.095   6.791  23.907  1.00  0.00     0.000 C 
BRANCH  10  11
ATOM     11  C   UNL     1      18.741   7.379  23.447  1.00  0.00     0.000 C 
BRANCH  11  12
ATOM     12  C   UNL     1      17.525   6.770  24.170  1.00  0.00     0.000 C 
BRANCH  12  13
ATOM     13  C   UNL     1      16.217   6.773  23.355  1.00  0.00     0.006 C 
BRANCH  13  14
ATOM     14  C   UNL     1      15.069   7.561  24.019  1.00  0.00     0.053 C 
BRANCH  14  15
ATOM     15  C   UNL     1      15.561   8.558  25.026  1.00  0.00     0.041 C 
ATOM     16  O   UNL     1      15.236   8.452  26.240  1.00  0.00    -0.550 OA
ATOM     17  O   UNL     1      16.400   9.591  24.628  1.00  0.00    -0.550 OA
ENDBRANCH  14  15
ENDBRANCH  13  14
ENDBRANCH  12  13
ENDBRANCH  11  12
ENDBRANCH  10  11
ENDBRANCH   9  10
ENDBRANCH   8   9
ENDBRANCH   7   8
ENDBRANCH   6   7
ENDBRANCH   5   6
ENDBRANCH   4   5
ENDBRANCH   3   4
ENDBRANCH   2   3
ENDBRANCH   1   2
BRANCH   1  18
ATOM     18  C   UNL     1      18.676   2.874  27.313  1.00  0.00     0.000 C 
BRANCH  18  19
ATOM     19  C   UNL     1      18.230   2.487  25.895  1.00  0.00     0.000 C 
BRANCH  19  20
ATOM     20  C   UNL     1      19.086   1.363  25.283  1.00  0.00     0.000 C 
BRANCH  20  21
ATOM     21  C   UNL     1      20.578   1.480  25.650  1.00  0.00     0.000 C 
BRANCH  21  22
ATOM     22  C   UNL     1      21.565   1.315  24.474  1.00  0.00     0.000 C 
BRANCH  22  23
ATOM     23  C   UNL     1      22.442   2.544  24.174  1.00  0.00     0.000 C 
BRANCH  23  24
ATOM     24  C   UNL     1      22.623   3.458  25.399  1.00  0.00    -0.000 C 
BRANCH  24  25
ATOM     25  C   UNL     1      23.785   3.017  26.305  1.00  0.00    -0.000 C 
BRANCH  25  26
ATOM     26  C   UNL     1      24.940   4.032  26.432  1.00  0.00    -0.000 C 
BRANCH  26  27
ATOM     27  C   UNL     1      24.634   5.212  27.378  1.00  0.00    -0.000 C 
BRANCH  27  28
ATOM     28  C   UNL     1      23.154   5.635  27.324  1.00  0.00    -0.000 C 
BRANCH  28  29
ATOM     29  C   UNL     1      22.913   7.020  27.946  1.00  0.00    -0.000 C 
BRANCH  29  30
ATOM     30  C   UNL     1      23.625   8.142  27.175  1.00  0.00    -0.000 C 
BRANCH  30  31
ATOM     31  C   UNL     1      24.446   9.025  28.125  1.00  0.00    -0.003 C 
ATOM     32  C   UNL     1      25.858   9.256  27.587  1.00  0.00     0.004 C 
ENDBRANCH  30  31
ENDBRANCH  29  30
ENDBRANCH  28  29
ENDBRANCH  27  28
ENDBRANCH  26  27
ENDBRANCH  25  26
ENDBRANCH  24  25
ENDBRANCH  23  24
ENDBRANCH  22  23
ENDBRANCH  21  22
ENDBRANCH  20  21
ENDBRANCH  19  20
ENDBRANCH  18  19
ENDBRANCH   1  18
TORSDOF 28
ENDMDL
MODEL 8
REMARK VINA RESULT:    -1.805      1.407      4.764
REMARK INTER + INTRA:          -8.440
REMARK INTER:                  -5.333
REMARK INTRA:                  -3.107
REMARK UNBOUND:                -3.680
REMARK SMILES CCCCCCCCCCCCCCCCCCCCCCCCCCCCCC(=O)[O-]
REMARK SMILES IDX 16 1 17 2 18 3 19 4 20 5 21 6 22 7 23 8 24 9 25 10 26 11
REMARK SMILES IDX 27 12 28 13 29 14 30 15 31 16 32 17 15 18 14 19 13 20 12 21
REMARK SMILES IDX 11 22 10 23 9 24 8 25 7 26 6 27 5 28 4 29 3 30 2 31 1 32
REMARK H PARENT
REMARK Flexibility Score: inf
ROOT
ATOM      1  C   UNL     1      20.336   2.336  27.054  1.00  0.00     0.000 C 
ENDROOT
BRANCH   1   2
ATOM      2  C   UNL     1      20.190   3.868  27.046  1.00  0.00     0.000 C 
BRANCH   2   3
ATOM      3  C   UNL     1      19.144   4.436  28.027  1.00  0.00     0.000 C 
BRANCH   3   4
ATOM      4  C   UNL     1      19.100   5.972  28.125  1.00  0.00     0.000 C 
BRANCH   4   5
ATOM      5  C   UNL     1      18.293   6.617  26.985  1.00  0.00     0.000 C 
BRANCH   5   6
ATOM      6  C   UNL     1      16.774   6.511  27.198  1.00  0.00     0.000 C 
BRANCH   6   7
ATOM      7  C   UNL     1      16.083   7.887  27.229  1.00  0.00     0.000 C 
BRANCH   7   8
ATOM      8  C   UNL     1      15.195   8.136  25.995  1.00  0.00     0.000 C 
BRANCH   8   9
ATOM      9  C   UNL     1      15.339   9.542  25.380  1.00  0.00     0.000 C 
BRANCH   9  10
ATOM     10  C   UNL     1      16.756  10.118  25.533  1.00  0.00     0.000 C 
BRANCH  10  11
ATOM     11  C   UNL     1      17.748   9.519  24.511  1.00  0.00     0.000 C 
BRANCH  11  12
ATOM     12  C   UNL     1      19.226   9.723  24.891  1.00  0.00     0.000 C 
BRANCH  12  13
ATOM     13  C   UNL     1      20.236   9.372  23.779  1.00  0.00     0.006 C 
BRANCH  13  14
ATOM     14  C   UNL     1      19.771   8.230  22.852  1.00  0.00     0.053 C 
BRANCH  14  15
ATOM     15  C   UNL     1      19.600   6.929  23.578  1.00  0.00     0.041 C 
ATOM     16  O   UNL     1      20.605   6.311  24.024  1.00  0.00    -0.550 OA
ATOM     17  O   UNL     1      18.328   6.412  23.786  1.00  0.00    -0.550 OA
ENDBRANCH  14  15
ENDBRANCH  13  14
ENDBRANCH  12  13
ENDBRANCH  11  12
ENDBRANCH  10  11
ENDBRANCH   9  10
ENDBRANCH   8   9
ENDBRANCH   7   8
ENDBRANCH   6   7
ENDBRANCH   5   6
ENDBRANCH   4   5
ENDBRANCH   3   4
ENDBRANCH   2   3
ENDBRANCH   1   2
BRANCH   1  18
ATOM     18  C   UNL     1      19.361   1.642  26.087  1.00  0.00     0.000 C 
BRANCH  18  19
ATOM     19  C   UNL     1      19.896   1.582  24.648  1.00  0.00     0.000 C 
BRANCH  19  20
ATOM     20  C   UNL     1      21.428   1.448  24.583  1.00  0.00     0.000 C 
BRANCH  20  21
ATOM     21  C   UNL     1      22.129   2.768  24.212  1.00  0.00     0.000 C 
BRANCH  21  22
ATOM     22  C   UNL     1      23.540   2.960  24.810  1.00  0.00     0.000 C 
BRANCH  22  23
ATOM     23  C   UNL     1      23.653   2.708  26.324  1.00  0.00     0.000 C 
BRANCH  23  24
ATOM     24  C   UNL     1      24.687   3.623  27.004  1.00  0.00    -0.000 C 
BRANCH  24  25
ATOM     25  C   UNL     1      24.038   4.783  27.778  1.00  0.00    -0.000 C 
BRANCH  25  26
ATOM     26  C   UNL     1      22.950   5.558  27.008  1.00  0.00    -0.000 C 
BRANCH  26  27
ATOM     27  C   UNL     1      22.461   6.832  27.730  1.00  0.00    -0.000 C 
BRANCH  27  28
ATOM     28  C   UNL     1      22.047   7.939  26.743  1.00  0.00    -0.000 C 
BRANCH  28  29
ATOM     29  C   UNL     1      22.994   9.148  26.782  1.00  0.00    -0.000 C 
BRANCH  29  30
ATOM     30  C   UNL     1      24.383   8.790  27.335  1.00  0.00    -0.000 C 
BRANCH  30  31
ATOM     31  C   UNL     1      25.460   9.718  26.757  1.00  0.00    -0.003 C 
ATOM     32  C   UNL     1      26.474  10.125  27.825  1.00  0.00     0.004 C 
ENDBRANCH  30  31
ENDBRANCH  29  30
ENDBRANCH  28  29
ENDBRANCH  27  28
ENDBRANCH  26  27
ENDBRANCH  25  26
ENDBRANCH  24  25
ENDBRANCH  23  24
ENDBRANCH  22  23
ENDBRANCH  21  22
ENDBRANCH  20  21
ENDBRANCH  19  20
ENDBRANCH  18  19
ENDBRANCH   1  18
TORSDOF 28
ENDMDL
