MODEL 1
REMARK VINA RESULT:    -4.898      0.000      0.000
REMARK INTER + INTRA:         -17.900
REMARK INTER:                 -12.915
REMARK INTRA:                  -4.985
REMARK UNBOUND:                -4.985
REMARK SMILES CCCCCCCCCCCCCCCCCCCCCCCCCCCCCC(=O)[O-]
REMARK SMILES IDX 16 1 17 2 18 3 19 4 20 5 21 6 22 7 23 8 24 9 25 10 26 11
REMARK SMILES IDX 27 12 28 13 29 14 30 15 31 16 32 17 15 18 14 19 13 20 12 21
REMARK SMILES IDX 11 22 10 23 9 24 8 25 7 26 6 27 5 28 4 29 3 30 2 31 1 32
REMARK H PARENT
REMARK Flexibility Score: inf
ROOT
ATOM      1  C   UNL     1       1.455  22.374  51.709  1.00  0.00     0.000 C 
ENDROOT
BRANCH   1   2
ATOM      2  C   UNL     1       2.451  21.504  52.494  1.00  0.00     0.000 C 
BRANCH   2   3
ATOM      3  C   UNL     1       3.878  21.549  51.913  1.00  0.00     0.000 C 
BRANCH   3   4
ATOM      4  C   UNL     1       4.103  22.593  50.803  1.00  0.00     0.000 C 
BRANCH   4   5
ATOM      5  C   UNL     1       5.444  23.338  50.938  1.00  0.00     0.000 C 
BRANCH   5   6
ATOM      6  C   UNL     1       5.258  24.868  50.982  1.00  0.00     0.000 C 
BRANCH   6   7
ATOM      7  C   UNL     1       4.204  25.341  51.998  1.00  0.00     0.000 C 
BRANCH   7   8
ATOM      8  C   UNL     1       3.092  26.188  51.357  1.00  0.00     0.000 C 
BRANCH   8   9
ATOM      9  C   UNL     1       2.952  25.935  49.848  1.00  0.00     0.000 C 
BRANCH   9  10
ATOM     10  C   UNL     1       1.605  25.284  49.482  1.00  0.00     0.000 C 
BRANCH  10  11
ATOM     11  C   UNL     1       1.715  24.292  48.311  1.00  0.00     0.000 C 
BRANCH  11  12
ATOM     12  C   UNL     1       1.366  24.878  46.931  1.00  0.00     0.000 C 
BRANCH  12  13
ATOM     13  C   UNL     1       1.230  23.803  45.838  1.00  0.00     0.006 C 
BRANCH  13  14
ATOM     14  C   UNL     1       2.477  22.916  45.740  1.00  0.00     0.053 C 
BRANCH  14  15
ATOM     15  C   UNL     1       2.752  22.496  44.328  1.00  0.00     0.041 C 
ATOM     16  O   UNL     1       3.848  22.789  43.782  1.00  0.00    -0.550 OA
ATOM     17  O   UNL     1       1.814  21.746  43.630  1.00  0.00    -0.550 OA
ENDBRANCH  14  15
ENDBRANCH  13  14
ENDBRANCH  12  13
ENDBRANCH  11  12
ENDBRANCH  10  11
ENDBRANCH   9  10
ENDBRANCH   8   9
ENDBRANCH   7   8
ENDBRANCH   6   7
ENDBRANCH   5   6
ENDBRANCH   4   5
ENDBRANCH   3   4
ENDBRANCH   2   3
ENDBRANCH   1   2
BRANCH   1  18
ATOM     18  C   UNL     1       0.756  23.411  52.599  1.00  0.00     0.000 C 
BRANCH  18  19
ATOM     19  C   UNL     1       1.535  23.740  53.891  1.00  0.00     0.000 C 
BRANCH  19  20
ATOM     20  C   UNL     1       1.192  25.136  54.437  1.00  0.00     0.000 C 
BRANCH  20  21
ATOM     21  C   UNL     1      -0.136  25.680  53.864  1.00  0.00     0.000 C 
BRANCH  21  22
ATOM     22  C   UNL     1      -1.255  25.808  54.915  1.00  0.00     0.000 C 
BRANCH  22  23
ATOM     23  C   UNL     1      -2.099  24.533  55.117  1.00  0.00     0.000 C 
BRANCH  23  24
ATOM     24  C   UNL     1      -1.974  23.892  56.513  1.00  0.00    -0.000 C 
BRANCH  24  25
ATOM     25  C   UNL     1      -0.582  23.316  56.849  1.00  0.00    -0.000 C 
BRANCH  25  26
ATOM     26  C   UNL     1      -0.386  22.900  58.318  1.00  0.00    -0.000 C 
BRANCH  26  27
ATOM     27  C   UNL     1       1.082  22.606  58.665  1.00  0.00    -0.000 C 
BRANCH  27  28
ATOM     28  C   UNL     1       1.966  22.667  57.410  1.00  0.00    -0.000 C 
BRANCH  28  29
ATOM     29  C   UNL     1       3.400  23.137  57.711  1.00  0.00    -0.000 C 
BRANCH  29  30
ATOM     30  C   UNL     1       4.516  22.259  57.107  1.00  0.00    -0.000 C 
BRANCH  30  31
ATOM     31  C   UNL     1       4.473  22.119  55.574  1.00  0.00    -0.003 C 
ATOM     32  C   UNL     1       5.250  23.222  54.856  1.00  0.00     0.004 C 
ENDBRANCH  30  31
ENDBRANCH  29  30
ENDBRANCH  28  29
ENDBRANCH  27  28
ENDBRANCH  26  27
ENDBRANCH  25  26
ENDBRANCH  24  25
ENDBRANCH  23  24
ENDBRANCH  22  23
ENDBRANCH  21  22
ENDBRANCH  20  21
ENDBRANCH  19  20
ENDBRANCH  18  19
ENDBRANCH   1  18
TORSDOF 28
ENDMDL
MODEL 2
REMARK VINA RESULT:    -4.885      1.100      2.032
REMARK INTER + INTRA:         -17.867
REMARK INTER:                 -12.606
REMARK INTRA:                  -5.261
REMARK UNBOUND:                -4.985
REMARK SMILES CCCCCCCCCCCCCCCCCCCCCCCCCCCCCC(=O)[O-]
REMARK SMILES IDX 16 1 17 2 18 3 19 4 20 5 21 6 22 7 23 8 24 9 25 10 26 11
REMARK SMILES IDX 27 12 28 13 29 14 30 15 31 16 32 17 15 18 14 19 13 20 12 21
REMARK SMILES IDX 11 22 10 23 9 24 8 25 7 26 6 27 5 28 4 29 3 30 2 31 1 32
REMARK H PARENT
REMARK Flexibility Score: inf
ROOT
ATOM      1  C   UNL     1       3.462  21.512  52.558  1.00  0.00     0.000 C 
ENDROOT
BRANCH   1   2
ATOM      2  C   UNL     1       3.985  22.248  51.312  1.00  0.00     0.000 C 
BRANCH   2   3
ATOM      3  C   UNL     1       5.096  23.264  51.636  1.00  0.00     0.000 C 
BRANCH   3   4
ATOM      4  C   UNL     1       4.959  23.980  52.993  1.00  0.00     0.000 C 
BRANCH   4   5
ATOM      5  C   UNL     1       3.947  25.140  52.964  1.00  0.00     0.000 C 
BRANCH   5   6
ATOM      6  C   UNL     1       3.949  25.881  51.611  1.00  0.00     0.000 C 
BRANCH   6   7
ATOM      7  C   UNL     1       2.709  26.762  51.380  1.00  0.00     0.000 C 
BRANCH   7   8
ATOM      8  C   UNL     1       1.824  26.261  50.227  1.00  0.00     0.000 C 
BRANCH   8   9
ATOM      9  C   UNL     1       2.486  25.131  49.422  1.00  0.00     0.000 C 
BRANCH   9  10
ATOM     10  C   UNL     1       1.523  24.487  48.409  1.00  0.00     0.000 C 
BRANCH  10  11
ATOM     11  C   UNL     1       1.775  24.947  46.963  1.00  0.00     0.000 C 
BRANCH  11  12
ATOM     12  C   UNL     1       1.323  23.954  45.878  1.00  0.00     0.000 C 
BRANCH  12  13
ATOM     13  C   UNL     1       2.403  22.915  45.526  1.00  0.00     0.006 C 
BRANCH  13  14
ATOM     14  C   UNL     1       2.043  22.108  44.272  1.00  0.00     0.053 C 
BRANCH  14  15
ATOM     15  C   UNL     1       2.861  22.526  43.088  1.00  0.00     0.041 C 
ATOM     16  O   UNL     1       3.692  23.466  43.191  1.00  0.00    -0.550 OA
ATOM     17  O   UNL     1       2.734  21.849  41.881  1.00  0.00    -0.550 OA
ENDBRANCH  14  15
ENDBRANCH  13  14
ENDBRANCH  12  13
ENDBRANCH  11  12
ENDBRANCH  10  11
ENDBRANCH   9  10
ENDBRANCH   8   9
ENDBRANCH   7   8
ENDBRANCH   6   7
ENDBRANCH   5   6
ENDBRANCH   4   5
ENDBRANCH   3   4
ENDBRANCH   2   3
ENDBRANCH   1   2
BRANCH   1  18
ATOM     18  C   UNL     1       2.000  21.860  52.872  1.00  0.00     0.000 C 
BRANCH  18  19
ATOM     19  C   UNL     1       1.230  22.435  51.664  1.00  0.00     0.000 C 
BRANCH  19  20
ATOM     20  C   UNL     1       0.378  23.658  52.046  1.00  0.00     0.000 C 
BRANCH  20  21
ATOM     21  C   UNL     1       0.488  24.004  53.548  1.00  0.00     0.000 C 
BRANCH  21  22
ATOM     22  C   UNL     1       0.179  25.478  53.866  1.00  0.00     0.000 C 
BRANCH  22  23
ATOM     23  C   UNL     1      -1.072  25.702  54.738  1.00  0.00     0.000 C 
BRANCH  23  24
ATOM     24  C   UNL     1      -1.984  24.468  54.887  1.00  0.00    -0.000 C 
BRANCH  24  25
ATOM     25  C   UNL     1      -1.957  23.795  56.275  1.00  0.00    -0.000 C 
BRANCH  25  26
ATOM     26  C   UNL     1      -1.159  24.554  57.351  1.00  0.00    -0.000 C 
BRANCH  26  27
ATOM     27  C   UNL     1      -0.026  23.713  57.959  1.00  0.00    -0.000 C 
BRANCH  27  28
ATOM     28  C   UNL     1       0.443  22.630  56.976  1.00  0.00    -0.000 C 
BRANCH  28  29
ATOM     29  C   UNL     1       1.965  22.408  57.013  1.00  0.00    -0.000 C 
BRANCH  29  30
ATOM     30  C   UNL     1       2.783  23.330  56.085  1.00  0.00    -0.000 C 
BRANCH  30  31
ATOM     31  C   UNL     1       3.753  24.282  56.808  1.00  0.00    -0.003 C 
ATOM     32  C   UNL     1       3.401  25.755  56.605  1.00  0.00     0.004 C 
ENDBRANCH  30  31
ENDBRANCH  29  30
ENDBRANCH  28  29
ENDBRANCH  27  28
ENDBRANCH  26  27
ENDBRANCH  25  26
ENDBRANCH  24  25
ENDBRANCH  23  24
ENDBRANCH  22  23
ENDBRANCH  21  22
ENDBRANCH  20  21
ENDBRANCH  19  20
ENDBRANCH  18  19
ENDBRANCH   1  18
TORSDOF 28
ENDMDL
MODEL 3
REMARK VINA RESULT:    -4.840      1.150      2.884
REMARK INTER + INTRA:         -17.747
REMARK INTER:                 -12.474
REMARK INTRA:                  -5.272
REMARK UNBOUND:                -4.985
REMARK SMILES CCCCCCCCCCCCCCCCCCCCCCCCCCCCCC(=O)[O-]
REMARK SMILES IDX 16 1 17 2 18 3 19 4 20 5 21 6 22 7 23 8 24 9 25 10 26 11
REMARK SMILES IDX 27 12 28 13 29 14 30 15 31 16 32 17 15 18 14 19 13 20 12 21
REMARK SMILES IDX 11 22 10 23 9 24 8 25 7 26 6 27 5 28 4 29 3 30 2 31 1 32
REMARK H PARENT
REMARK Flexibility Score: inf
ROOT
ATOM      1  C   UNL     1       5.333  24.012  52.369  1.00  0.00     0.000 C 
ENDROOT
BRANCH   1   2
ATOM      2  C   UNL     1       5.338  23.017  51.196  1.00  0.00     0.000 C 
BRANCH   2   3
ATOM      3  C   UNL     1       4.104  22.094  51.184  1.00  0.00     0.000 C 
BRANCH   3   4
ATOM      4  C   UNL     1       3.705  21.513  52.553  1.00  0.00     0.000 C 
BRANCH   4   5
ATOM      5  C   UNL     1       2.285  21.919  52.991  1.00  0.00     0.000 C 
BRANCH   5   6
ATOM      6  C   UNL     1       1.383  22.271  51.790  1.00  0.00     0.000 C 
BRANCH   6   7
ATOM      7  C   UNL     1       0.502  23.512  52.014  1.00  0.00     0.000 C 
BRANCH   7   8
ATOM      8  C   UNL     1       0.922  24.709  51.145  1.00  0.00     0.000 C 
BRANCH   8   9
ATOM      9  C   UNL     1       1.602  24.280  49.836  1.00  0.00     0.000 C 
BRANCH   9  10
ATOM     10  C   UNL     1       2.342  25.441  49.148  1.00  0.00     0.000 C 
BRANCH  10  11
ATOM     11  C   UNL     1       1.985  25.582  47.658  1.00  0.00     0.000 C 
BRANCH  11  12
ATOM     12  C   UNL     1       0.923  24.592  47.149  1.00  0.00     0.000 C 
BRANCH  12  13
ATOM     13  C   UNL     1       1.180  24.122  45.706  1.00  0.00     0.006 C 
BRANCH  13  14
ATOM     14  C   UNL     1       2.356  23.141  45.619  1.00  0.00     0.053 C 
BRANCH  14  15
ATOM     15  C   UNL     1       3.091  23.268  44.319  1.00  0.00     0.041 C 
ATOM     16  O   UNL     1       3.153  22.290  43.528  1.00  0.00    -0.550 OA
ATOM     17  O   UNL     1       3.674  24.477  43.964  1.00  0.00    -0.550 OA
ENDBRANCH  14  15
ENDBRANCH  13  14
ENDBRANCH  12  13
ENDBRANCH  11  12
ENDBRANCH  10  11
ENDBRANCH   9  10
ENDBRANCH   8   9
ENDBRANCH   7   8
ENDBRANCH   6   7
ENDBRANCH   5   6
ENDBRANCH   4   5
ENDBRANCH   3   4
ENDBRANCH   2   3
ENDBRANCH   1   2
BRANCH   1  18
ATOM     18  C   UNL     1       4.674  25.348  52.000  1.00  0.00     0.000 C 
BRANCH  18  19
ATOM     19  C   UNL     1       3.838  25.960  53.145  1.00  0.00     0.000 C 
BRANCH  19  20
ATOM     20  C   UNL     1       3.625  24.970  54.303  1.00  0.00     0.000 C 
BRANCH  20  21
ATOM     21  C   UNL     1       2.294  25.217  55.049  1.00  0.00     0.000 C 
BRANCH  21  22
ATOM     22  C   UNL     1       1.532  26.460  54.554  1.00  0.00     0.000 C 
BRANCH  22  23
ATOM     23  C   UNL     1       0.137  26.654  55.180  1.00  0.00     0.000 C 
BRANCH  23  24
ATOM     24  C   UNL     1      -1.023  26.033  54.375  1.00  0.00    -0.000 C 
BRANCH  24  25
ATOM     25  C   UNL     1      -1.443  24.616  54.816  1.00  0.00    -0.000 C 
BRANCH  25  26
ATOM     26  C   UNL     1      -2.334  24.560  56.070  1.00  0.00    -0.000 C 
BRANCH  26  27
ATOM     27  C   UNL     1      -1.756  23.663  57.175  1.00  0.00    -0.000 C 
BRANCH  27  28
ATOM     28  C   UNL     1      -0.446  24.244  57.727  1.00  0.00    -0.000 C 
BRANCH  28  29
ATOM     29  C   UNL     1       0.555  23.159  58.160  1.00  0.00    -0.000 C 
BRANCH  29  30
ATOM     30  C   UNL     1       1.188  22.356  57.005  1.00  0.00    -0.000 C 
BRANCH  30  31
ATOM     31  C   UNL     1       2.692  22.065  57.164  1.00  0.00    -0.003 C 
ATOM     32  C   UNL     1       3.434  23.171  57.912  1.00  0.00     0.004 C 
ENDBRANCH  30  31
ENDBRANCH  29  30
ENDBRANCH  28  29
ENDBRANCH  27  28
ENDBRANCH  26  27
ENDBRANCH  25  26
ENDBRANCH  24  25
ENDBRANCH  23  24
ENDBRANCH  22  23
ENDBRANCH  21  22
ENDBRANCH  20  21
ENDBRANCH  19  20
ENDBRANCH  18  19
ENDBRANCH   1  18
TORSDOF 28
ENDMDL
MODEL 4
REMARK VINA RESULT:    -4.802      3.787      9.457
REMARK INTER + INTRA:         -17.647
REMARK INTER:                 -13.815
REMARK INTRA:                  -3.832
REMARK UNBOUND:                -4.985
REMARK SMILES CCCCCCCCCCCCCCCCCCCCCCCCCCCCCC(=O)[O-]
REMARK SMILES IDX 16 1 17 2 18 3 19 4 20 5 21 6 22 7 23 8 24 9 25 10 26 11
REMARK SMILES IDX 27 12 28 13 29 14 30 15 31 16 32 17 15 18 14 19 13 20 12 21
REMARK SMILES IDX 11 22 10 23 9 24 8 25 7 26 6 27 5 28 4 29 3 30 2 31 1 32
REMARK H PARENT
REMARK Flexibility Score: inf
ROOT
ATOM      1  C   UNL     1       4.616  23.255  53.923  1.00  0.00     0.000 C 
ENDROOT
BRANCH   1   2
ATOM      2  C   UNL     1       4.171  24.527  54.664  1.00  0.00     0.000 C 
BRANCH   2   3
ATOM      3  C   UNL     1       2.941  25.198  54.025  1.00  0.00     0.000 C 
BRANCH   3   4
ATOM      4  C   UNL     1       1.766  25.468  54.983  1.00  0.00     0.000 C 
BRANCH   4   5
ATOM      5  C   UNL     1       0.920  26.687  54.572  1.00  0.00     0.000 C 
BRANCH   5   6
ATOM      6  C   UNL     1      -0.533  26.298  54.228  1.00  0.00     0.000 C 
BRANCH   6   7
ATOM      7  C   UNL     1      -0.858  24.815  54.478  1.00  0.00     0.000 C 
BRANCH   7   8
ATOM      8  C   UNL     1      -2.178  24.612  55.240  1.00  0.00     0.000 C 
BRANCH   8   9
ATOM      9  C   UNL     1      -2.018  23.700  56.466  1.00  0.00     0.000 C 
BRANCH   9  10
ATOM     10  C   UNL     1      -0.818  24.100  57.345  1.00  0.00     0.000 C 
BRANCH  10  11
ATOM     11  C   UNL     1       0.051  22.899  57.758  1.00  0.00     0.000 C 
BRANCH  11  12
ATOM     12  C   UNL     1       1.048  23.182  58.896  1.00  0.00     0.000 C 
BRANCH  12  13
ATOM     13  C   UNL     1       1.529  21.904  59.606  1.00  0.00     0.006 C 
BRANCH  13  14
ATOM     14  C   UNL     1       2.267  20.956  58.654  1.00  0.00     0.053 C 
BRANCH  14  15
ATOM     15  C   UNL     1       3.623  21.479  58.287  1.00  0.00     0.041 C 
ATOM     16  O   UNL     1       3.801  22.061  57.185  1.00  0.00    -0.550 OA
ATOM     17  O   UNL     1       4.680  21.359  59.180  1.00  0.00    -0.550 OA
ENDBRANCH  14  15
ENDBRANCH  13  14
ENDBRANCH  12  13
ENDBRANCH  11  12
ENDBRANCH  10  11
ENDBRANCH   9  10
ENDBRANCH   8   9
ENDBRANCH   7   8
ENDBRANCH   6   7
ENDBRANCH   5   6
ENDBRANCH   4   5
ENDBRANCH   3   4
ENDBRANCH   2   3
ENDBRANCH   1   2
BRANCH   1  18
ATOM     18  C   UNL     1       5.248  23.564  52.558  1.00  0.00     0.000 C 
BRANCH  18  19
ATOM     19  C   UNL     1       4.746  22.646  51.423  1.00  0.00     0.000 C 
BRANCH  19  20
ATOM     20  C   UNL     1       3.722  21.612  51.923  1.00  0.00     0.000 C 
BRANCH  20  21
ATOM     21  C   UNL     1       2.355  21.752  51.215  1.00  0.00     0.000 C 
BRANCH  21  22
ATOM     22  C   UNL     1       1.405  22.751  51.901  1.00  0.00     0.000 C 
BRANCH  22  23
ATOM     23  C   UNL     1       0.656  23.694  50.940  1.00  0.00     0.000 C 
BRANCH  23  24
ATOM     24  C   UNL     1       1.383  25.021  50.639  1.00  0.00    -0.000 C 
BRANCH  24  25
ATOM     25  C   UNL     1       2.362  24.976  49.447  1.00  0.00    -0.000 C 
BRANCH  25  26
ATOM     26  C   UNL     1       1.974  24.002  48.320  1.00  0.00    -0.000 C 
BRANCH  26  27
ATOM     27  C   UNL     1       1.005  24.621  47.302  1.00  0.00    -0.000 C 
BRANCH  27  28
ATOM     28  C   UNL     1       1.459  24.330  45.864  1.00  0.00    -0.000 C 
BRANCH  28  29
ATOM     29  C   UNL     1       2.248  23.015  45.740  1.00  0.00    -0.000 C 
BRANCH  29  30
ATOM     30  C   UNL     1       3.277  22.976  44.592  1.00  0.00    -0.000 C 
BRANCH  30  31
ATOM     31  C   UNL     1       2.740  22.427  43.257  1.00  0.00    -0.003 C 
ATOM     32  C   UNL     1       1.600  21.427  43.442  1.00  0.00     0.004 C 
ENDBRANCH  30  31
ENDBRANCH  29  30
ENDBRANCH  28  29
ENDBRANCH  27  28
ENDBRANCH  26  27
ENDBRANCH  25  26
ENDBRANCH  24  25
ENDBRANCH  23  24
ENDBRANCH  22  23
ENDBRANCH  21  22
ENDBRANCH  20  21
ENDBRANCH  19  20
ENDBRANCH  18  19
ENDBRANCH   1  18
TORSDOF 28
ENDMDL
MODEL 5
REMARK VINA RESULT:    -4.756      3.261      9.296
REMARK INTER + INTRA:         -17.525
REMARK INTER:                 -13.511
REMARK INTRA:                  -4.014
REMARK UNBOUND:                -4.985
REMARK SMILES CCCCCCCCCCCCCCCCCCCCCCCCCCCCCC(=O)[O-]
REMARK SMILES IDX 16 1 17 2 18 3 19 4 20 5 21 6 22 7 23 8 24 9 25 10 26 11
REMARK SMILES IDX 27 12 28 13 29 14 30 15 31 16 32 17 15 18 14 19 13 20 12 21
REMARK SMILES IDX 11 22 10 23 9 24 8 25 7 26 6 27 5 28 4 29 3 30 2 31 1 32
REMARK H PARENT
REMARK Flexibility Score: inf
ROOT
ATOM      1  C   UNL     1       2.898  21.885  51.740  1.00  0.00     0.000 C 
ENDROOT
BRANCH   1   2
ATOM      2  C   UNL     1       1.544  22.288  52.349  1.00  0.00     0.000 C 
BRANCH   2   3
ATOM      3  C   UNL     1       1.621  22.553  53.865  1.00  0.00     0.000 C 
BRANCH   3   4
ATOM      4  C   UNL     1       1.321  24.000  54.296  1.00  0.00     0.000 C 
BRANCH   4   5
ATOM      5  C   UNL     1      -0.013  24.532  53.739  1.00  0.00     0.000 C 
BRANCH   5   6
ATOM      6  C   UNL     1      -0.818  25.310  54.800  1.00  0.00     0.000 C 
BRANCH   6   7
ATOM      7  C   UNL     1      -2.140  24.633  55.201  1.00  0.00     0.000 C 
BRANCH   7   8
ATOM      8  C   UNL     1      -1.997  23.716  56.427  1.00  0.00     0.000 C 
BRANCH   8   9
ATOM      9  C   UNL     1      -0.871  24.165  57.372  1.00  0.00     0.000 C 
BRANCH   9  10
ATOM     10  C   UNL     1      -0.185  22.980  58.075  1.00  0.00     0.000 C 
BRANCH  10  11
ATOM     11  C   UNL     1       1.278  22.787  57.639  1.00  0.00     0.000 C 
BRANCH  11  12
ATOM     12  C   UNL     1       1.931  21.478  58.120  1.00  0.00     0.000 C 
BRANCH  12  13
ATOM     13  C   UNL     1       3.428  21.390  57.775  1.00  0.00     0.006 C 
BRANCH  13  14
ATOM     14  C   UNL     1       4.138  22.741  57.930  1.00  0.00     0.053 C 
BRANCH  14  15
ATOM     15  C   UNL     1       4.860  23.138  56.678  1.00  0.00     0.041 C 
ATOM     16  O   UNL     1       5.858  22.477  56.286  1.00  0.00    -0.550 OA
ATOM     17  O   UNL     1       4.406  24.212  55.924  1.00  0.00    -0.550 OA
ENDBRANCH  14  15
ENDBRANCH  13  14
ENDBRANCH  12  13
ENDBRANCH  11  12
ENDBRANCH  10  11
ENDBRANCH   9  10
ENDBRANCH   8   9
ENDBRANCH   7   8
ENDBRANCH   6   7
ENDBRANCH   5   6
ENDBRANCH   4   5
ENDBRANCH   3   4
ENDBRANCH   2   3
ENDBRANCH   1   2
BRANCH   1  18
ATOM     18  C   UNL     1       4.013  21.808  52.792  1.00  0.00     0.000 C 
BRANCH  18  19
ATOM     19  C   UNL     1       5.042  22.954  52.686  1.00  0.00     0.000 C 
BRANCH  19  20
ATOM     20  C   UNL     1       5.340  23.335  51.226  1.00  0.00     0.000 C 
BRANCH  20  21
ATOM     21  C   UNL     1       5.160  24.847  50.966  1.00  0.00     0.000 C 
BRANCH  21  22
ATOM     22  C   UNL     1       4.214  25.537  51.966  1.00  0.00     0.000 C 
BRANCH  22  23
ATOM     23  C   UNL     1       2.767  25.717  51.467  1.00  0.00     0.000 C 
BRANCH  23  24
ATOM     24  C   UNL     1       2.615  25.775  49.934  1.00  0.00    -0.000 C 
BRANCH  24  25
ATOM     25  C   UNL     1       1.457  24.935  49.356  1.00  0.00    -0.000 C 
BRANCH  25  26
ATOM     26  C   UNL     1       1.814  24.101  48.113  1.00  0.00    -0.000 C 
BRANCH  26  27
ATOM     27  C   UNL     1       0.968  24.467  46.884  1.00  0.00    -0.000 C 
BRANCH  27  28
ATOM     28  C   UNL     1       1.762  24.256  45.587  1.00  0.00    -0.000 C 
BRANCH  28  29
ATOM     29  C   UNL     1       2.376  22.849  45.483  1.00  0.00    -0.000 C 
BRANCH  29  30
ATOM     30  C   UNL     1       2.712  22.387  44.050  1.00  0.00    -0.000 C 
BRANCH  30  31
ATOM     31  C   UNL     1       1.747  21.341  43.463  1.00  0.00    -0.003 C 
ATOM     32  C   UNL     1       1.688  21.378  41.936  1.00  0.00     0.004 C 
ENDBRANCH  30  31
ENDBRANCH  29  30
ENDBRANCH  28  29
ENDBRANCH  27  28
ENDBRANCH  26  27
ENDBRANCH  25  26
ENDBRANCH  24  25
ENDBRANCH  23  24
ENDBRANCH  22  23
ENDBRANCH  21  22
ENDBRANCH  20  21
ENDBRANCH  19  20
ENDBRANCH  18  19
ENDBRANCH   1  18
TORSDOF 28
ENDMDL
MODEL 6
REMARK VINA RESULT:    -4.705      3.652      9.120
REMARK INTER + INTRA:         -17.392
REMARK INTER:                 -13.076
REMARK INTRA:                  -4.316
REMARK UNBOUND:                -4.985
REMARK SMILES CCCCCCCCCCCCCCCCCCCCCCCCCCCCCC(=O)[O-]
REMARK SMILES IDX 16 1 17 2 18 3 19 4 20 5 21 6 22 7 23 8 24 9 25 10 26 11
REMARK SMILES IDX 27 12 28 13 29 14 30 15 31 16 32 17 15 18 14 19 13 20 12 21
REMARK SMILES IDX 11 22 10 23 9 24 8 25 7 26 6 27 5 28 4 29 3 30 2 31 1 32
REMARK H PARENT
REMARK Flexibility Score: inf
ROOT
ATOM      1  C   UNL     1       1.146  22.303  52.085  1.00  0.00     0.000 C 
ENDROOT
BRANCH   1   2
ATOM      2  C   UNL     1       0.456  23.494  51.398  1.00  0.00     0.000 C 
BRANCH   2   3
ATOM      3  C   UNL     1       0.345  24.732  52.308  1.00  0.00     0.000 C 
BRANCH   3   4
ATOM      4  C   UNL     1       0.825  24.529  53.757  1.00  0.00     0.000 C 
BRANCH   4   5
ATOM      5  C   UNL     1       0.200  25.530  54.746  1.00  0.00     0.000 C 
BRANCH   5   6
ATOM      6  C   UNL     1      -1.339  25.435  54.777  1.00  0.00     0.000 C 
BRANCH   6   7
ATOM      7  C   UNL     1      -1.922  25.194  56.180  1.00  0.00     0.000 C 
BRANCH   7   8
ATOM      8  C   UNL     1      -1.933  23.708  56.577  1.00  0.00     0.000 C 
BRANCH   8   9
ATOM      9  C   UNL     1      -0.820  23.356  57.576  1.00  0.00     0.000 C 
BRANCH   9  10
ATOM     10  C   UNL     1       0.334  22.574  56.921  1.00  0.00     0.000 C 
BRANCH  10  11
ATOM     11  C   UNL     1       1.713  23.204  57.185  1.00  0.00     0.000 C 
BRANCH  11  12
ATOM     12  C   UNL     1       2.830  22.740  56.234  1.00  0.00     0.000 C 
BRANCH  12  13
ATOM     13  C   UNL     1       4.084  23.630  56.299  1.00  0.00     0.006 C 
BRANCH  13  14
ATOM     14  C   UNL     1       5.375  22.805  56.370  1.00  0.00     0.053 C 
BRANCH  14  15
ATOM     15  C   UNL     1       5.208  21.579  57.215  1.00  0.00     0.041 C 
ATOM     16  O   UNL     1       5.247  20.436  56.688  1.00  0.00    -0.550 OA
ATOM     17  O   UNL     1       5.050  21.697  58.589  1.00  0.00    -0.550 OA
ENDBRANCH  14  15
ENDBRANCH  13  14
ENDBRANCH  12  13
ENDBRANCH  11  12
ENDBRANCH  10  11
ENDBRANCH   9  10
ENDBRANCH   8   9
ENDBRANCH   7   8
ENDBRANCH   6   7
ENDBRANCH   5   6
ENDBRANCH   4   5
ENDBRANCH   3   4
ENDBRANCH   2   3
ENDBRANCH   1   2
BRANCH   1  18
ATOM     18  C   UNL     1       2.340  21.774  51.279  1.00  0.00     0.000 C 
BRANCH  18  19
ATOM     19  C   UNL     1       3.453  21.160  52.156  1.00  0.00     0.000 C 
BRANCH  19  20
ATOM     20  C   UNL     1       4.328  22.236  52.821  1.00  0.00     0.000 C 
BRANCH  20  21
ATOM     21  C   UNL     1       5.147  23.046  51.790  1.00  0.00     0.000 C 
BRANCH  21  22
ATOM     22  C   UNL     1       5.135  24.564  52.049  1.00  0.00     0.000 C 
BRANCH  22  23
ATOM     23  C   UNL     1       3.838  25.281  51.627  1.00  0.00     0.000 C 
BRANCH  23  24
ATOM     24  C   UNL     1       3.460  25.110  50.141  1.00  0.00    -0.000 C 
BRANCH  24  25
ATOM     25  C   UNL     1       2.763  26.326  49.497  1.00  0.00    -0.000 C 
BRANCH  25  26
ATOM     26  C   UNL     1       1.530  25.992  48.639  1.00  0.00    -0.000 C 
BRANCH  26  27
ATOM     27  C   UNL     1       1.490  24.521  48.198  1.00  0.00    -0.000 C 
BRANCH  27  28
ATOM     28  C   UNL     1       1.161  24.404  46.702  1.00  0.00    -0.000 C 
BRANCH  28  29
ATOM     29  C   UNL     1       2.029  23.360  45.979  1.00  0.00    -0.000 C 
BRANCH  29  30
ATOM     30  C   UNL     1       2.750  23.873  44.715  1.00  0.00    -0.000 C 
BRANCH  30  31
ATOM     31  C   UNL     1       3.114  22.785  43.688  1.00  0.00    -0.003 C 
ATOM     32  C   UNL     1       1.975  21.796  43.442  1.00  0.00     0.004 C 
ENDBRANCH  30  31
ENDBRANCH  29  30
ENDBRANCH  28  29
ENDBRANCH  27  28
ENDBRANCH  26  27
ENDBRANCH  25  26
ENDBRANCH  24  25
ENDBRANCH  23  24
ENDBRANCH  22  23
ENDBRANCH  21  22
ENDBRANCH  20  21
ENDBRANCH  19  20
ENDBRANCH  18  19
ENDBRANCH   1  18
TORSDOF 28
ENDMDL
MODEL 7
REMARK VINA RESULT:    -4.688      4.314      8.272
REMARK INTER + INTRA:         -17.346
REMARK INTER:                 -11.005
REMARK INTRA:                  -6.340
REMARK UNBOUND:                -4.985
REMARK SMILES CCCCCCCCCCCCCCCCCCCCCCCCCCCCCC(=O)[O-]
REMARK SMILES IDX 16 1 17 2 18 3 19 4 20 5 21 6 22 7 23 8 24 9 25 10 26 11
REMARK SMILES IDX 27 12 28 13 29 14 30 15 31 16 32 17 15 18 14 19 13 20 12 21
REMARK SMILES IDX 11 22 10 23 9 24 8 25 7 26 6 27 5 28 4 29 3 30 2 31 1 32
REMARK H PARENT
REMARK Flexibility Score: inf
ROOT
ATOM      1  C   UNL     1       0.949  22.273  57.422  1.00  0.00     0.000 C 
ENDROOT
BRANCH   1   2
ATOM      2  C   UNL     1       0.792  22.563  58.925  1.00  0.00     0.000 C 
BRANCH   2   3
ATOM      3  C   UNL     1       2.131  22.874  59.621  1.00  0.00     0.000 C 
BRANCH   3   4
ATOM      4  C   UNL     1       2.211  24.251  60.306  1.00  0.00     0.000 C 
BRANCH   4   5
ATOM      5  C   UNL     1       1.196  25.265  59.746  1.00  0.00     0.000 C 
BRANCH   5   6
ATOM      6  C   UNL     1       1.862  26.305  58.823  1.00  0.00     0.000 C 
BRANCH   6   7
ATOM      7  C   UNL     1       1.539  26.114  57.331  1.00  0.00     0.000 C 
BRANCH   7   8
ATOM      8  C   UNL     1       2.717  25.528  56.533  1.00  0.00     0.000 C 
BRANCH   8   9
ATOM      9  C   UNL     1       4.056  25.658  57.276  1.00  0.00     0.000 C 
BRANCH   9  10
ATOM     10  C   UNL     1       4.749  24.299  57.483  1.00  0.00     0.000 C 
BRANCH  10  11
ATOM     11  C   UNL     1       4.318  23.240  56.453  1.00  0.00     0.000 C 
BRANCH  11  12
ATOM     12  C   UNL     1       5.325  22.097  56.238  1.00  0.00     0.000 C 
BRANCH  12  13
ATOM     13  C   UNL     1       4.889  20.778  56.900  1.00  0.00     0.006 C 
BRANCH  13  14
ATOM     14  C   UNL     1       5.392  20.660  58.343  1.00  0.00     0.053 C 
BRANCH  14  15
ATOM     15  C   UNL     1       6.581  19.754  58.447  1.00  0.00     0.041 C 
ATOM     16  O   UNL     1       7.719  20.159  58.091  1.00  0.00    -0.550 OA
ATOM     17  O   UNL     1       6.439  18.477  58.975  1.00  0.00    -0.550 OA
ENDBRANCH  14  15
ENDBRANCH  13  14
ENDBRANCH  12  13
ENDBRANCH  11  12
ENDBRANCH  10  11
ENDBRANCH   9  10
ENDBRANCH   8   9
ENDBRANCH   7   8
ENDBRANCH   6   7
ENDBRANCH   5   6
ENDBRANCH   4   5
ENDBRANCH   3   4
ENDBRANCH   2   3
ENDBRANCH   1   2
BRANCH   1  18
ATOM     18  C   UNL     1      -0.078  23.032  56.569  1.00  0.00     0.000 C 
BRANCH  18  19
ATOM     19  C   UNL     1      -1.301  23.526  57.371  1.00  0.00     0.000 C 
BRANCH  19  20
ATOM     20  C   UNL     1      -2.084  24.619  56.624  1.00  0.00     0.000 C 
BRANCH  20  21
ATOM     21  C   UNL     1      -1.789  24.618  55.107  1.00  0.00     0.000 C 
BRANCH  21  22
ATOM     22  C   UNL     1      -1.135  25.919  54.605  1.00  0.00     0.000 C 
BRANCH  22  23
ATOM     23  C   UNL     1       0.167  25.720  53.804  1.00  0.00     0.000 C 
BRANCH  23  24
ATOM     24  C   UNL     1       0.399  24.283  53.297  1.00  0.00    -0.000 C 
BRANCH  24  25
ATOM     25  C   UNL     1       1.837  23.751  53.469  1.00  0.00    -0.000 C 
BRANCH  25  26
ATOM     26  C   UNL     1       1.955  22.222  53.605  1.00  0.00    -0.000 C 
BRANCH  26  27
ATOM     27  C   UNL     1       3.302  21.680  53.103  1.00  0.00    -0.000 C 
BRANCH  27  28
ATOM     28  C   UNL     1       4.244  22.827  52.709  1.00  0.00    -0.000 C 
BRANCH  28  29
ATOM     29  C   UNL     1       4.657  22.779  51.228  1.00  0.00    -0.000 C 
BRANCH  29  30
ATOM     30  C   UNL     1       3.498  22.936  50.221  1.00  0.00    -0.000 C 
BRANCH  30  31
ATOM     31  C   UNL     1       2.871  24.342  50.168  1.00  0.00    -0.003 C 
ATOM     32  C   UNL     1       1.412  24.324  49.714  1.00  0.00     0.004 C 
ENDBRANCH  30  31
ENDBRANCH  29  30
ENDBRANCH  28  29
ENDBRANCH  27  28
ENDBRANCH  26  27
ENDBRANCH  25  26
ENDBRANCH  24  25
ENDBRANCH  23  24
ENDBRANCH  22  23
ENDBRANCH  21  22
ENDBRANCH  20  21
ENDBRANCH  19  20
ENDBRANCH  18  19
ENDBRANCH   1  18
TORSDOF 28
ENDMDL
MODEL 8
REMARK VINA RESULT:    -4.645      1.162      3.064
REMARK INTER + INTRA:         -17.232
REMARK INTER:                 -13.398
REMARK INTRA:                  -3.834
REMARK UNBOUND:                -4.985
REMARK SMILES CCCCCCCCCCCCCCCCCCCCCCCCCCCCCC(=O)[O-]
REMARK SMILES IDX 16 1 17 2 18 3 19 4 20 5 21 6 22 7 23 8 24 9 25 10 26 11
REMARK SMILES IDX 27 12 28 13 29 14 30 15 31 16 32 17 15 18 14 19 13 20 12 21
REMARK SMILES IDX 11 22 10 23 9 24 8 25 7 26 6 27 5 28 4 29 3 30 2 31 1 32
REMARK H PARENT
REMARK Flexibility Score: inf
ROOT
ATOM      1  C   UNL     1       5.013  22.612  51.344  1.00  0.00     0.000 C 
ENDROOT
BRANCH   1   2
ATOM      2  C   UNL     1       5.337  23.927  52.073  1.00  0.00     0.000 C 
BRANCH   2   3
ATOM      3  C   UNL     1       5.738  25.064  51.114  1.00  0.00     0.000 C 
BRANCH   3   4
ATOM      4  C   UNL     1       4.608  26.041  50.742  1.00  0.00     0.000 C 
BRANCH   4   5
ATOM      5  C   UNL     1       3.480  26.086  51.790  1.00  0.00     0.000 C 
BRANCH   5   6
ATOM      6  C   UNL     1       2.100  26.344  51.149  1.00  0.00     0.000 C 
BRANCH   6   7
ATOM      7  C   UNL     1       2.071  26.134  49.625  1.00  0.00     0.000 C 
BRANCH   7   8
ATOM      8  C   UNL     1       1.193  24.944  49.201  1.00  0.00     0.000 C 
BRANCH   8   9
ATOM      9  C   UNL     1       1.782  24.170  48.012  1.00  0.00     0.000 C 
BRANCH   9  10
ATOM     10  C   UNL     1       1.045  24.465  46.693  1.00  0.00     0.000 C 
BRANCH  10  11
ATOM     11  C   UNL     1       1.909  24.198  45.448  1.00  0.00     0.000 C 
BRANCH  11  12
ATOM     12  C   UNL     1       2.598  22.822  45.421  1.00  0.00     0.000 C 
BRANCH  12  13
ATOM     13  C   UNL     1       3.505  22.628  44.193  1.00  0.00     0.006 C 
BRANCH  13  14
ATOM     14  C   UNL     1       2.754  22.856  42.876  1.00  0.00     0.053 C 
BRANCH  14  15
ATOM     15  C   UNL     1       2.130  21.593  42.364  1.00  0.00     0.041 C 
ATOM     16  O   UNL     1       2.413  21.167  41.213  1.00  0.00    -0.550 OA
ATOM     17  O   UNL     1       1.267  20.866  43.174  1.00  0.00    -0.550 OA
ENDBRANCH  14  15
ENDBRANCH  13  14
ENDBRANCH  12  13
ENDBRANCH  11  12
ENDBRANCH  10  11
ENDBRANCH   9  10
ENDBRANCH   8   9
ENDBRANCH   7   8
ENDBRANCH   6   7
ENDBRANCH   5   6
ENDBRANCH   4   5
ENDBRANCH   3   4
ENDBRANCH   2   3
ENDBRANCH   1   2
BRANCH   1  18
ATOM     18  C   UNL     1       3.780  21.907  51.928  1.00  0.00     0.000 C 
BRANCH  18  19
ATOM     19  C   UNL     1       2.494  22.128  51.103  1.00  0.00     0.000 C 
BRANCH  19  20
ATOM     20  C   UNL     1       1.286  22.474  51.991  1.00  0.00     0.000 C 
BRANCH  20  21
ATOM     21  C   UNL     1       1.674  22.612  53.481  1.00  0.00     0.000 C 
BRANCH  21  22
ATOM     22  C   UNL     1       1.358  23.998  54.074  1.00  0.00     0.000 C 
BRANCH  22  23
ATOM     23  C   UNL     1       0.017  24.606  53.617  1.00  0.00     0.000 C 
BRANCH  23  24
ATOM     24  C   UNL     1      -0.784  25.311  54.730  1.00  0.00    -0.000 C 
BRANCH  24  25
ATOM     25  C   UNL     1      -2.116  24.631  55.110  1.00  0.00    -0.000 C 
BRANCH  25  26
ATOM     26  C   UNL     1      -2.178  24.073  56.543  1.00  0.00    -0.000 C 
BRANCH  26  27
ATOM     27  C   UNL     1      -0.939  23.245  56.916  1.00  0.00    -0.000 C 
BRANCH  27  28
ATOM     28  C   UNL     1      -0.058  23.997  57.924  1.00  0.00    -0.000 C 
BRANCH  28  29
ATOM     29  C   UNL     1       1.177  23.188  58.359  1.00  0.00    -0.000 C 
BRANCH  29  30
ATOM     30  C   UNL     1       1.708  22.190  57.309  1.00  0.00    -0.000 C 
BRANCH  30  31
ATOM     31  C   UNL     1       3.201  22.342  56.966  1.00  0.00    -0.003 C 
ATOM     32  C   UNL     1       4.081  21.315  57.676  1.00  0.00     0.004 C 
ENDBRANCH  30  31
ENDBRANCH  29  30
ENDBRANCH  28  29
ENDBRANCH  27  28
ENDBRANCH  26  27
ENDBRANCH  25  26
ENDBRANCH  24  25
ENDBRANCH  23  24
ENDBRANCH  22  23
ENDBRANCH  21  22
ENDBRANCH  20  21
ENDBRANCH  19  20
ENDBRANCH  18  19
ENDBRANCH   1  18
TORSDOF 28
ENDMDL
MODEL 9
REMARK VINA RESULT:    -4.627      4.361      7.782
REMARK INTER + INTRA:         -17.186
REMARK INTER:                 -10.845
REMARK INTRA:                  -6.342
REMARK UNBOUND:                -4.985
REMARK SMILES CCCCCCCCCCCCCCCCCCCCCCCCCCCCCC(=O)[O-]
REMARK SMILES IDX 16 1 17 2 18 3 19 4 20 5 21 6 22 7 23 8 24 9 25 10 26 11
REMARK SMILES IDX 27 12 28 13 29 14 30 15 31 16 32 17 15 18 14 19 13 20 12 21
REMARK SMILES IDX 11 22 10 23 9 24 8 25 7 26 6 27 5 28 4 29 3 30 2 31 1 32
REMARK H PARENT
REMARK Flexibility Score: inf
ROOT
ATOM      1  C   UNL     1       1.109  22.259  59.020  1.00  0.00     0.000 C 
ENDROOT
BRANCH   1   2
ATOM      2  C   UNL     1       2.016  21.459  59.971  1.00  0.00     0.000 C 
BRANCH   2   3
ATOM      3  C   UNL     1       2.956  22.354  60.800  1.00  0.00     0.000 C 
BRANCH   3   4
ATOM      4  C   UNL     1       3.110  23.798  60.290  1.00  0.00     0.000 C 
BRANCH   4   5
ATOM      5  C   UNL     1       4.342  23.993  59.387  1.00  0.00     0.000 C 
BRANCH   5   6
ATOM      6  C   UNL     1       4.156  25.154  58.390  1.00  0.00     0.000 C 
BRANCH   6   7
ATOM      7  C   UNL     1       2.685  25.494  58.094  1.00  0.00     0.000 C 
BRANCH   7   8
ATOM      8  C   UNL     1       2.449  25.913  56.633  1.00  0.00     0.000 C 
BRANCH   8   9
ATOM      9  C   UNL     1       3.746  25.937  55.809  1.00  0.00     0.000 C 
BRANCH   9  10
ATOM     10  C   UNL     1       3.698  24.976  54.607  1.00  0.00     0.000 C 
BRANCH  10  11
ATOM     11  C   UNL     1       3.743  23.494  55.020  1.00  0.00     0.000 C 
BRANCH  11  12
ATOM     12  C   UNL     1       5.128  22.831  54.906  1.00  0.00     0.000 C 
BRANCH  12  13
ATOM     13  C   UNL     1       5.755  22.509  56.274  1.00  0.00     0.006 C 
BRANCH  13  14
ATOM     14  C   UNL     1       5.114  21.279  56.929  1.00  0.00     0.053 C 
BRANCH  14  15
ATOM     15  C   UNL     1       6.046  20.614  57.897  1.00  0.00     0.041 C 
ATOM     16  O   UNL     1       7.139  20.136  57.496  1.00  0.00    -0.550 OA
ATOM     17  O   UNL     1       5.724  20.560  59.246  1.00  0.00    -0.550 OA
ENDBRANCH  14  15
ENDBRANCH  13  14
ENDBRANCH  12  13
ENDBRANCH  11  12
ENDBRANCH  10  11
ENDBRANCH   9  10
ENDBRANCH   8   9
ENDBRANCH   7   8
ENDBRANCH   6   7
ENDBRANCH   5   6
ENDBRANCH   4   5
ENDBRANCH   3   4
ENDBRANCH   2   3
ENDBRANCH   1   2
BRANCH   1  18
ATOM     18  C   UNL     1       1.423  21.984  57.542  1.00  0.00     0.000 C 
BRANCH  18  19
ATOM     19  C   UNL     1       0.458  22.689  56.565  1.00  0.00     0.000 C 
BRANCH  19  20
ATOM     20  C   UNL     1      -0.496  23.656  57.286  1.00  0.00     0.000 C 
BRANCH  20  21
ATOM     21  C   UNL     1      -1.913  23.650  56.670  1.00  0.00     0.000 C 
BRANCH  21  22
ATOM     22  C   UNL     1      -2.020  24.452  55.360  1.00  0.00     0.000 C 
BRANCH  22  23
ATOM     23  C   UNL     1      -1.314  25.822  55.382  1.00  0.00     0.000 C 
BRANCH  23  24
ATOM     24  C   UNL     1      -0.404  26.099  54.169  1.00  0.00    -0.000 C 
BRANCH  24  25
ATOM     25  C   UNL     1       0.242  24.850  53.534  1.00  0.00    -0.000 C 
BRANCH  25  26
ATOM     26  C   UNL     1       0.739  25.036  52.090  1.00  0.00    -0.000 C 
BRANCH  26  27
ATOM     27  C   UNL     1       0.906  23.706  51.339  1.00  0.00    -0.000 C 
BRANCH  27  28
ATOM     28  C   UNL     1       1.011  22.530  52.321  1.00  0.00    -0.000 C 
BRANCH  28  29
ATOM     29  C   UNL     1       2.356  21.789  52.225  1.00  0.00    -0.000 C 
BRANCH  29  30
ATOM     30  C   UNL     1       3.202  22.130  50.981  1.00  0.00    -0.000 C 
BRANCH  30  31
ATOM     31  C   UNL     1       4.605  22.687  51.283  1.00  0.00    -0.003 C 
ATOM     32  C   UNL     1       4.684  24.206  51.140  1.00  0.00     0.004 C 
ENDBRANCH  30  31
ENDBRANCH  29  30
ENDBRANCH  28  29
ENDBRANCH  27  28
ENDBRANCH  26  27
ENDBRANCH  25  26
ENDBRANCH  24  25
ENDBRANCH  23  24
ENDBRANCH  22  23
ENDBRANCH  21  22
ENDBRANCH  20  21
ENDBRANCH  19  20
ENDBRANCH  18  19
ENDBRANCH   1  18
TORSDOF 28
ENDMDL
