MODEL 1
REMARK VINA RESULT:    -4.540      0.000      0.000
REMARK INTER + INTRA:          -7.736
REMARK INTER:                  -7.195
REMARK INTRA:                  -0.542
REMARK UNBOUND:                -0.542
REMARK SMILES CCCCCCCCCCCC(=O)[O-]
REMARK SMILES IDX 7 1 8 2 9 3 10 4 11 5 12 6 13 7 14 8 6 9 5 10 4 11 3 12 2 13
REMARK SMILES IDX 1 14
REMARK H PARENT
REMARK Flexibility Score: inf
ROOT
ATOM      1  C   UNL     1       3.509 -37.427  19.689  1.00  0.00     0.000 C 
ENDROOT
BRANCH   1   2
ATOM      2  C   UNL     1       4.937 -37.471  20.257  1.00  0.00     0.000 C 
BRANCH   2   3
ATOM      3  C   UNL     1       5.689 -36.142  20.071  1.00  0.00     0.000 C 
BRANCH   3   4
ATOM      4  C   UNL     1       6.062 -35.483  21.409  1.00  0.00     0.006 C 
BRANCH   4   5
ATOM      5  C   UNL     1       5.990 -36.459  22.591  1.00  0.00     0.053 C 
BRANCH   5   6
ATOM      6  C   UNL     1       5.907 -35.710  23.882  1.00  0.00     0.041 C 
ATOM      7  O   UNL     1       5.915 -34.451  23.886  1.00  0.00    -0.550 OA
ATOM      8  O   UNL     1       5.871 -36.402  25.086  1.00  0.00    -0.550 OA
ENDBRANCH   5   6
ENDBRANCH   4   5
ENDBRANCH   3   4
ENDBRANCH   2   3
ENDBRANCH   1   2
BRANCH   1   9
ATOM      9  C   UNL     1       3.476 -37.517  18.156  1.00  0.00     0.000 C 
BRANCH   9  10
ATOM     10  C   UNL     1       2.030 -37.573  17.642  1.00  0.00    -0.000 C 
BRANCH  10  11
ATOM     11  C   UNL     1       1.848 -36.877  16.280  1.00  0.00    -0.000 C 
BRANCH  11  12
ATOM     12  C   UNL     1       3.157 -36.477  15.575  1.00  0.00    -0.000 C 
BRANCH  12  13
ATOM     13  C   UNL     1       3.306 -37.111  14.185  1.00  0.00    -0.003 C 
ATOM     14  C   UNL     1       4.143 -38.386  14.250  1.00  0.00     0.004 C 
ENDBRANCH  12  13
ENDBRANCH  11  12
ENDBRANCH  10  11
ENDBRANCH   9  10
ENDBRANCH   1   9
TORSDOF 10
ENDMDL
MODEL 2
REMARK VINA RESULT:    -4.119      4.109      7.799
REMARK INTER + INTRA:          -7.069
REMARK INTER:                  -6.615
REMARK INTRA:                  -0.454
REMARK UNBOUND:                -0.542
REMARK SMILES CCCCCCCCCCCC(=O)[O-]
REMARK SMILES IDX 7 1 8 2 9 3 10 4 11 5 12 6 13 7 14 8 6 9 5 10 4 11 3 12 2 13
REMARK SMILES IDX 1 14
REMARK H PARENT
REMARK Flexibility Score: inf
ROOT
ATOM      1  C   UNL     1       4.427 -37.818  20.136  1.00  0.00     0.000 C 
ENDROOT
BRANCH   1   2
ATOM      2  C   UNL     1       3.919 -37.288  18.785  1.00  0.00     0.000 C 
BRANCH   2   3
ATOM      3  C   UNL     1       2.510 -37.801  18.440  1.00  0.00     0.000 C 
BRANCH   3   4
ATOM      4  C   UNL     1       2.083 -37.437  17.009  1.00  0.00     0.006 C 
BRANCH   4   5
ATOM      5  C   UNL     1       3.116 -36.563  16.287  1.00  0.00     0.053 C 
BRANCH   5   6
ATOM      6  C   UNL     1       3.162 -36.904  14.831  1.00  0.00     0.041 C 
ATOM      7  O   UNL     1       2.225 -36.551  14.068  1.00  0.00    -0.550 OA
ATOM      8  O   UNL     1       4.215 -37.656  14.326  1.00  0.00    -0.550 OA
ENDBRANCH   5   6
ENDBRANCH   4   5
ENDBRANCH   3   4
ENDBRANCH   2   3
ENDBRANCH   1   2
BRANCH   1   9
ATOM      9  C   UNL     1       5.553 -36.955  20.727  1.00  0.00     0.000 C 
BRANCH   9  10
ATOM     10  C   UNL     1       4.999 -35.627  21.265  1.00  0.00    -0.000 C 
BRANCH  10  11
ATOM     11  C   UNL     1       5.445 -35.331  22.710  1.00  0.00    -0.000 C 
BRANCH  11  12
ATOM     12  C   UNL     1       6.119 -36.510  23.436  1.00  0.00    -0.000 C 
BRANCH  12  13
ATOM     13  C   UNL     1       6.098 -36.363  24.963  1.00  0.00    -0.003 C 
ATOM     14  C   UNL     1       4.973 -37.190  25.580  1.00  0.00     0.004 C 
ENDBRANCH  12  13
ENDBRANCH  11  12
ENDBRANCH  10  11
ENDBRANCH   9  10
ENDBRANCH   1   9
TORSDOF 10
ENDMDL
MODEL 3
REMARK VINA RESULT:    -3.898      4.218      7.873
REMARK INTER + INTRA:          -6.718
REMARK INTER:                  -6.334
REMARK INTRA:                  -0.384
REMARK UNBOUND:                -0.542
REMARK SMILES CCCCCCCCCCCC(=O)[O-]
REMARK SMILES IDX 7 1 8 2 9 3 10 4 11 5 12 6 13 7 14 8 6 9 5 10 4 11 3 12 2 13
REMARK SMILES IDX 1 14
REMARK H PARENT
REMARK Flexibility Score: inf
ROOT
ATOM      1  C   UNL     1       3.871 -36.734  19.810  1.00  0.00     0.000 C 
ENDROOT
BRANCH   1   2
ATOM      2  C   UNL     1       3.360 -37.883  18.924  1.00  0.00     0.000 C 
BRANCH   2   3
ATOM      3  C   UNL     1       1.943 -37.626  18.382  1.00  0.00     0.000 C 
BRANCH   3   4
ATOM      4  C   UNL     1       1.947 -37.166  16.915  1.00  0.00     0.006 C 
BRANCH   4   5
ATOM      5  C   UNL     1       3.164 -37.682  16.135  1.00  0.00     0.053 C 
BRANCH   5   6
ATOM      6  C   UNL     1       3.115 -37.208  14.718  1.00  0.00     0.041 C 
ATOM      7  O   UNL     1       4.050 -37.488  13.923  1.00  0.00    -0.550 OA
ATOM      8  O   UNL     1       2.060 -36.412  14.288  1.00  0.00    -0.550 OA
ENDBRANCH   5   6
ENDBRANCH   4   5
ENDBRANCH   3   4
ENDBRANCH   2   3
ENDBRANCH   1   2
BRANCH   1   9
ATOM      9  C   UNL     1       5.353 -36.888  20.184  1.00  0.00     0.000 C 
BRANCH   9  10
ATOM     10  C   UNL     1       5.841 -35.677  20.992  1.00  0.00    -0.000 C 
BRANCH  10  11
ATOM     11  C   UNL     1       6.125 -36.014  22.468  1.00  0.00    -0.000 C 
BRANCH  11  12
ATOM     12  C   UNL     1       5.682 -34.938  23.476  1.00  0.00    -0.000 C 
BRANCH  12  13
ATOM     13  C   UNL     1       5.913 -35.354  24.935  1.00  0.00    -0.003 C 
ATOM     14  C   UNL     1       5.377 -36.759  25.198  1.00  0.00     0.004 C 
ENDBRANCH  12  13
ENDBRANCH  11  12
ENDBRANCH  10  11
ENDBRANCH   9  10
ENDBRANCH   1   9
TORSDOF 10
ENDMDL
MODEL 4
REMARK VINA RESULT:    -3.464      1.365      1.995
REMARK INTER + INTRA:          -6.031
REMARK INTER:                  -5.768
REMARK INTRA:                  -0.263
REMARK UNBOUND:                -0.542
REMARK SMILES CCCCCCCCCCCC(=O)[O-]
REMARK SMILES IDX 7 1 8 2 9 3 10 4 11 5 12 6 13 7 14 8 6 9 5 10 4 11 3 12 2 13
REMARK SMILES IDX 1 14
REMARK H PARENT
REMARK Flexibility Score: inf
ROOT
ATOM      1  C   UNL     1       4.607 -35.816  20.119  1.00  0.00     0.000 C 
ENDROOT
BRANCH   1   2
ATOM      2  C   UNL     1       5.942 -35.603  20.852  1.00  0.00     0.000 C 
BRANCH   2   3
ATOM      3  C   UNL     1       5.955 -36.233  22.255  1.00  0.00     0.000 C 
BRANCH   3   4
ATOM      4  C   UNL     1       5.476 -35.260  23.344  1.00  0.00     0.006 C 
BRANCH   4   5
ATOM      5  C   UNL     1       6.007 -35.622  24.737  1.00  0.00     0.053 C 
BRANCH   5   6
ATOM      6  C   UNL     1       5.369 -36.883  25.227  1.00  0.00     0.041 C 
ATOM      7  O   UNL     1       5.789 -38.001  24.831  1.00  0.00    -0.550 OA
ATOM      8  O   UNL     1       4.276 -36.821  26.083  1.00  0.00    -0.550 OA
ENDBRANCH   5   6
ENDBRANCH   4   5
ENDBRANCH   3   4
ENDBRANCH   2   3
ENDBRANCH   1   2
BRANCH   1   9
ATOM      9  C   UNL     1       4.683 -36.923  19.056  1.00  0.00     0.000 C 
BRANCH   9  10
ATOM     10  C   UNL     1       3.340 -37.657  18.933  1.00  0.00    -0.000 C 
BRANCH  10  11
ATOM     11  C   UNL     1       2.703 -37.516  17.538  1.00  0.00    -0.000 C 
BRANCH  11  12
ATOM     12  C   UNL     1       3.301 -36.402  16.660  1.00  0.00    -0.000 C 
BRANCH  12  13
ATOM     13  C   UNL     1       3.112 -36.656  15.159  1.00  0.00    -0.003 C 
ATOM     14  C   UNL     1       3.544 -38.071  14.782  1.00  0.00     0.004 C 
ENDBRANCH  12  13
ENDBRANCH  11  12
ENDBRANCH  10  11
ENDBRANCH   9  10
ENDBRANCH   1   9
TORSDOF 10
ENDMDL
MODEL 5
REMARK VINA RESULT:    -2.669      3.832      6.943
REMARK INTER + INTRA:          -4.770
REMARK INTER:                  -3.846
REMARK INTRA:                  -0.925
REMARK UNBOUND:                -0.542
REMARK SMILES CCCCCCCCCCCC(=O)[O-]
REMARK SMILES IDX 7 1 8 2 9 3 10 4 11 5 12 6 13 7 14 8 6 9 5 10 4 11 3 12 2 13
REMARK SMILES IDX 1 14
REMARK H PARENT
REMARK Flexibility Score: inf
ROOT
ATOM      1  C   UNL     1       5.180 -35.469  22.140  1.00  0.00     0.000 C 
ENDROOT
BRANCH   1   2
ATOM      2  C   UNL     1       5.886 -35.977  20.872  1.00  0.00     0.000 C 
BRANCH   2   3
ATOM      3  C   UNL     1       4.946 -36.034  19.655  1.00  0.00     0.000 C 
BRANCH   3   4
ATOM      4  C   UNL     1       4.414 -37.451  19.385  1.00  0.00     0.006 C 
BRANCH   4   5
ATOM      5  C   UNL     1       2.968 -37.642  19.862  1.00  0.00     0.053 C 
BRANCH   5   6
ATOM      6  C   UNL     1       2.055 -37.835  18.694  1.00  0.00     0.041 C 
ATOM      7  O   UNL     1       0.859 -38.181  18.874  1.00  0.00    -0.550 OA
ATOM      8  O   UNL     1       2.539 -37.680  17.400  1.00  0.00    -0.550 OA
ENDBRANCH   5   6
ENDBRANCH   4   5
ENDBRANCH   3   4
ENDBRANCH   2   3
ENDBRANCH   1   2
BRANCH   1   9
ATOM      9  C   UNL     1       6.125 -35.376  23.348  1.00  0.00     0.000 C 
BRANCH   9  10
ATOM     10  C   UNL     1       5.403 -35.784  24.640  1.00  0.00    -0.000 C 
BRANCH  10  11
ATOM     11  C   UNL     1       5.829 -37.172  25.155  1.00  0.00    -0.000 C 
BRANCH  11  12
ATOM     12  C   UNL     1       5.165 -38.362  24.440  1.00  0.00    -0.000 C 
BRANCH  12  13
ATOM     13  C   UNL     1       6.007 -38.907  23.277  1.00  0.00    -0.003 C 
ATOM     14  C   UNL     1       5.209 -39.905  22.441  1.00  0.00     0.004 C 
ENDBRANCH  12  13
ENDBRANCH  11  12
ENDBRANCH  10  11
ENDBRANCH   9  10
ENDBRANCH   1   9
TORSDOF 10
ENDMDL
MODEL 6
REMARK VINA RESULT:    -2.253      4.310      6.634
REMARK INTER + INTRA:          -4.111
REMARK INTER:                  -4.758
REMARK INTRA:                   0.647
REMARK UNBOUND:                -0.542
REMARK SMILES CCCCCCCCCCCC(=O)[O-]
REMARK SMILES IDX 7 1 8 2 9 3 10 4 11 5 12 6 13 7 14 8 6 9 5 10 4 11 3 12 2 13
REMARK SMILES IDX 1 14
REMARK H PARENT
REMARK Flexibility Score: inf
ROOT
ATOM      1  C   UNL     1       2.793 -37.752  19.868  1.00  0.00     0.000 C 
ENDROOT
BRANCH   1   2
ATOM      2  C   UNL     1       1.613 -38.150  18.965  1.00  0.00     0.000 C 
BRANCH   2   3
ATOM      3  C   UNL     1       1.688 -37.500  17.573  1.00  0.00     0.000 C 
BRANCH   3   4
ATOM      4  C   UNL     1       3.129 -37.164  17.154  1.00  0.00     0.006 C 
BRANCH   4   5
ATOM      5  C   UNL     1       3.191 -36.119  16.032  1.00  0.00     0.053 C 
BRANCH   5   6
ATOM      6  C   UNL     1       2.912 -36.757  14.709  1.00  0.00     0.041 C 
ATOM      7  O   UNL     1       1.752 -36.726  14.222  1.00  0.00    -0.550 OA
ATOM      8  O   UNL     1       3.923 -37.431  14.036  1.00  0.00    -0.550 OA
ENDBRANCH   5   6
ENDBRANCH   4   5
ENDBRANCH   3   4
ENDBRANCH   2   3
ENDBRANCH   1   2
BRANCH   1   9
ATOM      9  C   UNL     1       4.156 -37.964  19.191  1.00  0.00     0.000 C 
BRANCH   9  10
ATOM     10  C   UNL     1       5.301 -37.775  20.196  1.00  0.00    -0.000 C 
BRANCH  10  11
ATOM     11  C   UNL     1       5.043 -36.630  21.194  1.00  0.00    -0.000 C 
BRANCH  11  12
ATOM     12  C   UNL     1       5.605 -35.261  20.771  1.00  0.00    -0.000 C 
BRANCH  12  13
ATOM     13  C   UNL     1       6.125 -35.248  19.328  1.00  0.00    -0.003 C 
ATOM     14  C   UNL     1       5.254 -34.365  18.438  1.00  0.00     0.004 C 
ENDBRANCH  12  13
ENDBRANCH  11  12
ENDBRANCH  10  11
ENDBRANCH   9  10
ENDBRANCH   1   9
TORSDOF 10
ENDMDL
MODEL 7
REMARK VINA RESULT:    -1.953      1.531      2.758
REMARK INTER + INTRA:          -3.636
REMARK INTER:                  -3.047
REMARK INTRA:                  -0.589
REMARK UNBOUND:                -0.542
REMARK SMILES CCCCCCCCCCCC(=O)[O-]
REMARK SMILES IDX 7 1 8 2 9 3 10 4 11 5 12 6 13 7 14 8 6 9 5 10 4 11 3 12 2 13
REMARK SMILES IDX 1 14
REMARK H PARENT
REMARK Flexibility Score: inf
ROOT
ATOM      1  C   UNL     1       4.780 -34.812  18.156  1.00  0.00     0.000 C 
ENDROOT
BRANCH   1   2
ATOM      2  C   UNL     1       5.882 -35.189  19.159  1.00  0.00     0.000 C 
BRANCH   2   3
ATOM      3  C   UNL     1       5.333 -35.921  20.395  1.00  0.00     0.000 C 
BRANCH   3   4
ATOM      4  C   UNL     1       6.125 -35.599  21.673  1.00  0.00     0.006 C 
BRANCH   4   5
ATOM      5  C   UNL     1       5.217 -35.248  22.859  1.00  0.00     0.053 C 
BRANCH   5   6
ATOM      6  C   UNL     1       5.798 -35.771  24.134  1.00  0.00     0.041 C 
ATOM      7  O   UNL     1       6.125 -34.976  25.054  1.00  0.00    -0.550 OA
ATOM      8  O   UNL     1       6.027 -37.133  24.287  1.00  0.00    -0.550 OA
ENDBRANCH   5   6
ENDBRANCH   4   5
ENDBRANCH   3   4
ENDBRANCH   2   3
ENDBRANCH   1   2
BRANCH   1   9
ATOM      9  C   UNL     1       4.582 -35.876  17.065  1.00  0.00     0.000 C 
BRANCH   9  10
ATOM     10  C   UNL     1       3.124 -35.899  16.581  1.00  0.00    -0.000 C 
BRANCH  10  11
ATOM     11  C   UNL     1       2.376 -37.183  16.985  1.00  0.00    -0.000 C 
BRANCH  11  12
ATOM     12  C   UNL     1       2.717 -37.718  18.388  1.00  0.00    -0.000 C 
BRANCH  12  13
ATOM     13  C   UNL     1       1.490 -38.252  19.139  1.00  0.00    -0.003 C 
ATOM     14  C   UNL     1       0.199 -37.905  18.401  1.00  0.00     0.004 C 
ENDBRANCH  12  13
ENDBRANCH  11  12
ENDBRANCH  10  11
ENDBRANCH   9  10
ENDBRANCH   1   9
TORSDOF 10
ENDMDL
