MODEL 1
REMARK VINA RESULT:    -4.473      0.000      0.000
REMARK INTER + INTRA:          -8.806
REMARK INTER:                  -7.088
REMARK INTRA:                  -1.718
REMARK UNBOUND:                -1.718
REMARK SMILES CCCCCCCCCCCC(=O)[O-]
REMARK SMILES IDX 7 1 8 2 9 3 10 4 11 5 12 6 13 7 14 8 6 9 5 10 4 11 3 12 2 13
REMARK SMILES IDX 1 14
REMARK H PARENT
REMARK Flexibility Score: inf
ROOT
ATOM      1  C   UNL     1     138.212 130.046 129.457  1.00  0.00     0.000 C 
ENDROOT
BRANCH   1   2
ATOM      2  C   UNL     1     138.832 130.905 130.573  1.00  0.00     0.000 C 
BRANCH   2   3
ATOM      3  C   UNL     1     139.677 132.073 130.029  1.00  0.00     0.000 C 
BRANCH   3   4
ATOM      4  C   UNL     1     139.391 133.441 130.672  1.00  0.00     0.006 C 
BRANCH   4   5
ATOM      5  C   UNL     1     139.669 134.618 129.728  1.00  0.00     0.053 C 
BRANCH   5   6
ATOM      6  C   UNL     1     139.084 135.879 130.279  1.00  0.00     0.041 C 
ATOM      7  O   UNL     1     139.756 136.944 130.275  1.00  0.00    -0.550 OA
ATOM      8  O   UNL     1     137.779 135.891 130.754  1.00  0.00    -0.550 OA
ENDBRANCH   5   6
ENDBRANCH   4   5
ENDBRANCH   3   4
ENDBRANCH   2   3
ENDBRANCH   1   2
BRANCH   1   9
ATOM      9  C   UNL     1     138.185 130.771 128.102  1.00  0.00     0.000 C 
BRANCH   9  10
ATOM     10  C   UNL     1     136.811 131.377 127.780  1.00  0.00    -0.000 C 
BRANCH  10  11
ATOM     11  C   UNL     1     136.902 132.903 127.648  1.00  0.00    -0.000 C 
BRANCH  11  12
ATOM     12  C   UNL     1     136.004 133.600 128.676  1.00  0.00    -0.000 C 
BRANCH  12  13
ATOM     13  C   UNL     1     135.380 132.585 129.641  1.00  0.00    -0.003 C 
ATOM     14  C   UNL     1     135.747 132.901 131.088  1.00  0.00     0.004 C 
ENDBRANCH  12  13
ENDBRANCH  11  12
ENDBRANCH  10  11
ENDBRANCH   9  10
ENDBRANCH   1   9
TORSDOF 10
ENDMDL
MODEL 2
REMARK VINA RESULT:    -4.417      1.069      1.614
REMARK INTER + INTRA:          -8.716
REMARK INTER:                  -7.255
REMARK INTRA:                  -1.462
REMARK UNBOUND:                -1.718
REMARK SMILES CCCCCCCCCCCC(=O)[O-]
REMARK SMILES IDX 7 1 8 2 9 3 10 4 11 5 12 6 13 7 14 8 6 9 5 10 4 11 3 12 2 13
REMARK SMILES IDX 1 14
REMARK H PARENT
REMARK Flexibility Score: inf
ROOT
ATOM      1  C   UNL     1     138.067 130.858 127.992  1.00  0.00     0.000 C 
ENDROOT
BRANCH   1   2
ATOM      2  C   UNL     1     138.360 130.821 129.502  1.00  0.00     0.000 C 
BRANCH   2   3
ATOM      3  C   UNL     1     139.670 131.540 129.876  1.00  0.00     0.000 C 
BRANCH   3   4
ATOM      4  C   UNL     1     139.497 132.838 130.683  1.00  0.00     0.006 C 
BRANCH   4   5
ATOM      5  C   UNL     1     139.682 134.102 129.832  1.00  0.00     0.053 C 
BRANCH   5   6
ATOM      6  C   UNL     1     140.268 135.204 130.656  1.00  0.00     0.041 C 
ATOM      7  O   UNL     1     140.097 136.406 130.321  1.00  0.00    -0.550 OA
ATOM      8  O   UNL     1     140.963 134.907 131.821  1.00  0.00    -0.550 OA
ENDBRANCH   5   6
ENDBRANCH   4   5
ENDBRANCH   3   4
ENDBRANCH   2   3
ENDBRANCH   1   2
BRANCH   1   9
ATOM      9  C   UNL     1     136.729 131.542 127.668  1.00  0.00     0.000 C 
BRANCH   9  10
ATOM     10  C   UNL     1     136.774 133.063 127.876  1.00  0.00    -0.000 C 
BRANCH  10  11
ATOM     11  C   UNL     1     135.578 133.539 128.708  1.00  0.00    -0.000 C 
BRANCH  11  12
ATOM     12  C   UNL     1     135.994 133.837 130.153  1.00  0.00    -0.000 C 
BRANCH  12  13
ATOM     13  C   UNL     1     135.525 132.728 131.101  1.00  0.00    -0.003 C 
ATOM     14  C   UNL     1     134.364 131.941 130.499  1.00  0.00     0.004 C 
ENDBRANCH  12  13
ENDBRANCH  11  12
ENDBRANCH  10  11
ENDBRANCH   9  10
ENDBRANCH   1   9
TORSDOF 10
ENDMDL
MODEL 3
REMARK VINA RESULT:    -4.377      2.258      4.305
REMARK INTER + INTRA:          -8.654
REMARK INTER:                  -7.021
REMARK INTRA:                  -1.634
REMARK UNBOUND:                -1.718
REMARK SMILES CCCCCCCCCCCC(=O)[O-]
REMARK SMILES IDX 7 1 8 2 9 3 10 4 11 5 12 6 13 7 14 8 6 9 5 10 4 11 3 12 2 13
REMARK SMILES IDX 1 14
REMARK H PARENT
REMARK Flexibility Score: inf
ROOT
ATOM      1  C   UNL     1     138.198 130.864 128.309  1.00  0.00     0.000 C 
ENDROOT
BRANCH   1   2
ATOM      2  C   UNL     1     137.002 131.523 127.601  1.00  0.00     0.000 C 
BRANCH   2   3
ATOM      3  C   UNL     1     136.920 133.041 127.854  1.00  0.00     0.000 C 
BRANCH   3   4
ATOM      4  C   UNL     1     135.664 133.511 128.608  1.00  0.00     0.006 C 
BRANCH   4   5
ATOM      5  C   UNL     1     135.862 133.567 130.127  1.00  0.00     0.053 C 
BRANCH   5   6
ATOM      6  C   UNL     1     134.966 132.581 130.808  1.00  0.00     0.041 C 
ATOM      7  O   UNL     1     134.805 132.626 132.055  1.00  0.00    -0.550 OA
ATOM      8  O   UNL     1     134.270 131.641 130.057  1.00  0.00    -0.550 OA
ENDBRANCH   5   6
ENDBRANCH   4   5
ENDBRANCH   3   4
ENDBRANCH   2   3
ENDBRANCH   1   2
BRANCH   1   9
ATOM      9  C   UNL     1     137.864 130.427 129.745  1.00  0.00     0.000 C 
BRANCH   9  10
ATOM     10  C   UNL     1     138.672 131.195 130.802  1.00  0.00    -0.000 C 
BRANCH  10  11
ATOM     11  C   UNL     1     139.649 132.175 130.140  1.00  0.00    -0.000 C 
BRANCH  11  12
ATOM     12  C   UNL     1     139.543 133.568 130.770  1.00  0.00    -0.000 C 
BRANCH  12  13
ATOM     13  C   UNL     1     139.996 134.653 129.787  1.00  0.00    -0.003 C 
ATOM     14  C   UNL     1     138.898 135.689 129.563  1.00  0.00     0.004 C 
ENDBRANCH  12  13
ENDBRANCH  11  12
ENDBRANCH  10  11
ENDBRANCH   9  10
ENDBRANCH   1   9
TORSDOF 10
ENDMDL
MODEL 4
REMARK VINA RESULT:    -4.341      1.278      3.024
REMARK INTER + INTRA:          -8.597
REMARK INTER:                  -6.893
REMARK INTRA:                  -1.704
REMARK UNBOUND:                -1.718
REMARK SMILES CCCCCCCCCCCC(=O)[O-]
REMARK SMILES IDX 7 1 8 2 9 3 10 4 11 5 12 6 13 7 14 8 6 9 5 10 4 11 3 12 2 13
REMARK SMILES IDX 1 14
REMARK H PARENT
REMARK Flexibility Score: inf
ROOT
ATOM      1  C   UNL     1     134.912 132.783 130.533  1.00  0.00     0.000 C 
ENDROOT
BRANCH   1   2
ATOM      2  C   UNL     1     136.186 132.724 131.393  1.00  0.00     0.000 C 
BRANCH   2   3
ATOM      3  C   UNL     1     137.223 133.794 131.001  1.00  0.00     0.000 C 
BRANCH   3   4
ATOM      4  C   UNL     1     137.033 134.407 129.603  1.00  0.00     0.006 C 
BRANCH   4   5
ATOM      5  C   UNL     1     138.352 134.568 128.835  1.00  0.00     0.053 C 
BRANCH   5   6
ATOM      6  C   UNL     1     139.291 135.456 129.589  1.00  0.00     0.041 C 
ATOM      7  O   UNL     1     140.414 135.023 129.958  1.00  0.00    -0.550 OA
ATOM      8  O   UNL     1     138.945 136.777 129.842  1.00  0.00    -0.550 OA
ENDBRANCH   5   6
ENDBRANCH   4   5
ENDBRANCH   3   4
ENDBRANCH   2   3
ENDBRANCH   1   2
BRANCH   1   9
ATOM      9  C   UNL     1     134.575 131.430 129.886  1.00  0.00     0.000 C 
BRANCH   9  10
ATOM     10  C   UNL     1     135.825 130.662 129.430  1.00  0.00    -0.000 C 
BRANCH  10  11
ATOM     11  C   UNL     1     136.323 131.179 128.076  1.00  0.00    -0.000 C 
BRANCH  11  12
ATOM     12  C   UNL     1     137.833 130.962 127.923  1.00  0.00    -0.000 C 
BRANCH  12  13
ATOM     13  C   UNL     1     138.436 130.370 129.203  1.00  0.00    -0.003 C 
ATOM     14  C   UNL     1     139.620 131.199 129.690  1.00  0.00     0.004 C 
ENDBRANCH  12  13
ENDBRANCH  11  12
ENDBRANCH  10  11
ENDBRANCH   9  10
ENDBRANCH   1   9
TORSDOF 10
ENDMDL
MODEL 5
REMARK VINA RESULT:    -4.334      1.114      2.811
REMARK INTER + INTRA:          -8.585
REMARK INTER:                  -7.145
REMARK INTRA:                  -1.440
REMARK UNBOUND:                -1.718
REMARK SMILES CCCCCCCCCCCC(=O)[O-]
REMARK SMILES IDX 7 1 8 2 9 3 10 4 11 5 12 6 13 7 14 8 6 9 5 10 4 11 3 12 2 13
REMARK SMILES IDX 1 14
REMARK H PARENT
REMARK Flexibility Score: inf
ROOT
ATOM      1  C   UNL     1     137.356 133.181 131.160  1.00  0.00     0.000 C 
ENDROOT
BRANCH   1   2
ATOM      2  C   UNL     1     138.879 133.141 130.944  1.00  0.00     0.000 C 
BRANCH   2   3
ATOM      3  C   UNL     1     139.329 133.944 129.708  1.00  0.00     0.000 C 
BRANCH   3   4
ATOM      4  C   UNL     1     140.353 135.057 129.988  1.00  0.00     0.006 C 
BRANCH   4   5
ATOM      5  C   UNL     1     139.942 135.971 131.149  1.00  0.00     0.053 C 
BRANCH   5   6
ATOM      6  C   UNL     1     138.904 136.950 130.700  1.00  0.00     0.041 C 
ATOM      7  O   UNL     1     137.687 136.739 130.942  1.00  0.00    -0.550 OA
ATOM      8  O   UNL     1     139.285 138.121 130.057  1.00  0.00    -0.550 OA
ENDBRANCH   5   6
ENDBRANCH   4   5
ENDBRANCH   3   4
ENDBRANCH   2   3
ENDBRANCH   1   2
BRANCH   1   9
ATOM      9  C   UNL     1     136.581 133.407 129.852  1.00  0.00     0.000 C 
BRANCH   9  10
ATOM     10  C   UNL     1     135.502 132.340 129.610  1.00  0.00    -0.000 C 
BRANCH  10  11
ATOM     11  C   UNL     1     136.129 131.024 129.133  1.00  0.00    -0.000 C 
BRANCH  11  12
ATOM     12  C   UNL     1     137.125 131.269 127.994  1.00  0.00    -0.000 C 
BRANCH  12  13
ATOM     13  C   UNL     1     138.467 130.586 128.280  1.00  0.00    -0.003 C 
ATOM     14  C   UNL     1     138.414 129.787 129.579  1.00  0.00     0.004 C 
ENDBRANCH  12  13
ENDBRANCH  11  12
ENDBRANCH  10  11
ENDBRANCH   9  10
ENDBRANCH   1   9
TORSDOF 10
ENDMDL
MODEL 6
REMARK VINA RESULT:    -4.331      1.450      3.475
REMARK INTER + INTRA:          -8.581
REMARK INTER:                  -7.275
REMARK INTRA:                  -1.306
REMARK UNBOUND:                -1.718
REMARK SMILES CCCCCCCCCCCC(=O)[O-]
REMARK SMILES IDX 7 1 8 2 9 3 10 4 11 5 12 6 13 7 14 8 6 9 5 10 4 11 3 12 2 13
REMARK SMILES IDX 1 14
REMARK H PARENT
REMARK Flexibility Score: inf
ROOT
ATOM      1  C   UNL     1     134.237 133.844 130.206  1.00  0.00     0.000 C 
ENDROOT
BRANCH   1   2
ATOM      2  C   UNL     1     135.425 134.460 129.448  1.00  0.00     0.000 C 
BRANCH   2   3
ATOM      3  C   UNL     1     136.748 134.371 130.233  1.00  0.00     0.000 C 
BRANCH   3   4
ATOM      4  C   UNL     1     138.023 134.508 129.384  1.00  0.00     0.006 C 
BRANCH   4   5
ATOM      5  C   UNL     1     139.267 133.931 130.072  1.00  0.00     0.053 C 
BRANCH   5   6
ATOM      6  C   UNL     1     140.084 135.027 130.679  1.00  0.00     0.041 C 
ATOM      7  O   UNL     1     140.866 134.781 131.634  1.00  0.00    -0.550 OA
ATOM      8  O   UNL     1     140.018 136.313 130.156  1.00  0.00    -0.550 OA
ENDBRANCH   5   6
ENDBRANCH   4   5
ENDBRANCH   3   4
ENDBRANCH   2   3
ENDBRANCH   1   2
BRANCH   1   9
ATOM      9  C   UNL     1     134.573 132.470 130.809  1.00  0.00     0.000 C 
BRANCH   9  10
ATOM     10  C   UNL     1     134.569 131.345 129.762  1.00  0.00    -0.000 C 
BRANCH  10  11
ATOM     11  C   UNL     1     135.971 130.746 129.596  1.00  0.00    -0.000 C 
BRANCH  11  12
ATOM     12  C   UNL     1     136.610 131.196 128.278  1.00  0.00    -0.000 C 
BRANCH  12  13
ATOM     13  C   UNL     1     138.097 130.824 128.231  1.00  0.00    -0.003 C 
ATOM     14  C   UNL     1     138.529 130.118 129.513  1.00  0.00     0.004 C 
ENDBRANCH  12  13
ENDBRANCH  11  12
ENDBRANCH  10  11
ENDBRANCH   9  10
ENDBRANCH   1   9
TORSDOF 10
ENDMDL
MODEL 7
REMARK VINA RESULT:    -4.303      1.398      2.230
REMARK INTER + INTRA:          -8.536
REMARK INTER:                  -7.087
REMARK INTRA:                  -1.448
REMARK UNBOUND:                -1.718
REMARK SMILES CCCCCCCCCCCC(=O)[O-]
REMARK SMILES IDX 7 1 8 2 9 3 10 4 11 5 12 6 13 7 14 8 6 9 5 10 4 11 3 12 2 13
REMARK SMILES IDX 1 14
REMARK H PARENT
REMARK Flexibility Score: inf
ROOT
ATOM      1  C   UNL     1     139.348 132.379 130.350  1.00  0.00     0.000 C 
ENDROOT
BRANCH   1   2
ATOM      2  C   UNL     1     138.234 132.484 131.405  1.00  0.00     0.000 C 
BRANCH   2   3
ATOM      3  C   UNL     1     137.144 133.505 131.026  1.00  0.00     0.000 C 
BRANCH   3   4
ATOM      4  C   UNL     1     137.584 134.592 130.030  1.00  0.00     0.006 C 
BRANCH   4   5
ATOM      5  C   UNL     1     137.616 135.995 130.649  1.00  0.00     0.053 C 
BRANCH   5   6
ATOM      6  C   UNL     1     139.009 136.539 130.638  1.00  0.00     0.041 C 
ATOM      7  O   UNL     1     139.222 137.729 130.285  1.00  0.00    -0.550 OA
ATOM      8  O   UNL     1     140.068 135.747 131.064  1.00  0.00    -0.550 OA
ENDBRANCH   5   6
ENDBRANCH   4   5
ENDBRANCH   3   4
ENDBRANCH   2   3
ENDBRANCH   1   2
BRANCH   1   9
ATOM      9  C   UNL     1     139.556 130.939 129.854  1.00  0.00     0.000 C 
BRANCH   9  10
ATOM     10  C   UNL     1     138.267 130.308 129.304  1.00  0.00    -0.000 C 
BRANCH  10  11
ATOM     11  C   UNL     1     137.809 131.022 128.027  1.00  0.00    -0.000 C 
BRANCH  11  12
ATOM     12  C   UNL     1     136.313 131.349 128.083  1.00  0.00    -0.000 C 
BRANCH  12  13
ATOM     13  C   UNL     1     135.634 130.622 129.250  1.00  0.00    -0.003 C 
ATOM     14  C   UNL     1     134.439 131.413 129.773  1.00  0.00     0.004 C 
ENDBRANCH  12  13
ENDBRANCH  11  12
ENDBRANCH  10  11
ENDBRANCH   9  10
ENDBRANCH   1   9
TORSDOF 10
ENDMDL
MODEL 8
REMARK VINA RESULT:    -4.269      2.542      4.859
REMARK INTER + INTRA:          -8.483
REMARK INTER:                  -7.477
REMARK INTRA:                  -1.007
REMARK UNBOUND:                -1.718
REMARK SMILES CCCCCCCCCCCC(=O)[O-]
REMARK SMILES IDX 7 1 8 2 9 3 10 4 11 5 12 6 13 7 14 8 6 9 5 10 4 11 3 12 2 13
REMARK SMILES IDX 1 14
REMARK H PARENT
REMARK Flexibility Score: inf
ROOT
ATOM      1  C   UNL     1     139.615 131.598 129.873  1.00  0.00     0.000 C 
ENDROOT
BRANCH   1   2
ATOM      2  C   UNL     1     138.689 130.496 129.331  1.00  0.00     0.000 C 
BRANCH   2   3
ATOM      3  C   UNL     1     137.969 130.905 128.031  1.00  0.00     0.000 C 
BRANCH   3   4
ATOM      4  C   UNL     1     136.507 131.351 128.206  1.00  0.00     0.006 C 
BRANCH   4   5
ATOM      5  C   UNL     1     135.834 130.730 129.437  1.00  0.00     0.053 C 
BRANCH   5   6
ATOM      6  C   UNL     1     134.512 131.381 129.694  1.00  0.00     0.041 C 
ATOM      7  O   UNL     1     133.496 130.680 129.939  1.00  0.00    -0.550 OA
ATOM      8  O   UNL     1     134.412 132.767 129.710  1.00  0.00    -0.550 OA
ENDBRANCH   5   6
ENDBRANCH   4   5
ENDBRANCH   3   4
ENDBRANCH   2   3
ENDBRANCH   1   2
BRANCH   1   9
ATOM      9  C   UNL     1     138.959 132.418 130.996  1.00  0.00     0.000 C 
BRANCH   9  10
ATOM     10  C   UNL     1     138.237 133.669 130.474  1.00  0.00    -0.000 C 
BRANCH  10  11
ATOM     11  C   UNL     1     139.079 134.385 129.411  1.00  0.00    -0.000 C 
BRANCH  11  12
ATOM     12  C   UNL     1     140.263 135.120 130.048  1.00  0.00    -0.000 C 
BRANCH  12  13
ATOM     13  C   UNL     1     139.781 136.226 130.994  1.00  0.00    -0.003 C 
ATOM     14  C   UNL     1     139.121 137.365 130.221  1.00  0.00     0.004 C 
ENDBRANCH  12  13
ENDBRANCH  11  12
ENDBRANCH  10  11
ENDBRANCH   9  10
ENDBRANCH   1   9
TORSDOF 10
ENDMDL
MODEL 9
REMARK VINA RESULT:    -4.259      3.024      5.350
REMARK INTER + INTRA:          -8.467
REMARK INTER:                  -7.199
REMARK INTRA:                  -1.268
REMARK UNBOUND:                -1.718
REMARK SMILES CCCCCCCCCCCC(=O)[O-]
REMARK SMILES IDX 7 1 8 2 9 3 10 4 11 5 12 6 13 7 14 8 6 9 5 10 4 11 3 12 2 13
REMARK SMILES IDX 1 14
REMARK H PARENT
REMARK Flexibility Score: inf
ROOT
ATOM      1  C   UNL     1     138.079 134.346 129.205  1.00  0.00     0.000 C 
ENDROOT
BRANCH   1   2
ATOM      2  C   UNL     1     136.651 134.547 129.740  1.00  0.00     0.000 C 
BRANCH   2   3
ATOM      3  C   UNL     1     135.587 133.815 128.899  1.00  0.00     0.000 C 
BRANCH   3   4
ATOM      4  C   UNL     1     134.310 133.420 129.660  1.00  0.00     0.006 C 
BRANCH   4   5
ATOM      5  C   UNL     1     134.525 132.245 130.622  1.00  0.00     0.053 C 
BRANCH   5   6
ATOM      6  C   UNL     1     134.072 130.965 129.992  1.00  0.00     0.041 C 
ATOM      7  O   UNL     1     133.086 130.341 130.463  1.00  0.00    -0.550 OA
ATOM      8  O   UNL     1     134.709 130.488 128.853  1.00  0.00    -0.550 OA
ENDBRANCH   5   6
ENDBRANCH   4   5
ENDBRANCH   3   4
ENDBRANCH   2   3
ENDBRANCH   1   2
BRANCH   1   9
ATOM      9  C   UNL     1     139.128 134.300 130.327  1.00  0.00     0.000 C 
BRANCH   9  10
ATOM     10  C   UNL     1     139.615 132.874 130.626  1.00  0.00    -0.000 C 
BRANCH  10  11
ATOM     11  C   UNL     1     138.545 132.075 131.380  1.00  0.00    -0.000 C 
BRANCH  11  12
ATOM     12  C   UNL     1     137.952 130.973 130.495  1.00  0.00    -0.000 C 
BRANCH  12  13
ATOM     13  C   UNL     1     138.851 130.696 129.285  1.00  0.00    -0.003 C 
ATOM     14  C   UNL     1     138.077 130.835 127.978  1.00  0.00     0.004 C 
ENDBRANCH  12  13
ENDBRANCH  11  12
ENDBRANCH  10  11
ENDBRANCH   9  10
ENDBRANCH   1   9
TORSDOF 10
ENDMDL
