MODEL 1
REMARK VINA RESULT:    -6.925      0.000      0.000
REMARK INTER + INTRA:          -8.666
REMARK INTER:                  -8.342
REMARK INTRA:                  -0.324
REMARK UNBOUND:                -0.324
REMARK SMILES O=c1c(O)c(-c2ccc(O)c(O)c2)oc2cc(O)cc(O)c12
REMARK SMILES IDX 5 1 3 2 2 3 1 4 22 5 20 6 19 7 17 8 16 9 15 10 14 11 6 12
REMARK SMILES IDX 7 13 8 14 9 15 13 16 11 17 10 18 12 20 4 22 21 24 18 26
REMARK H PARENT 10 19 12 21 4 23 21 25 18 27
REMARK Flexibility Score: inf
ROOT
ATOM      1  C   UNL     1      25.593  40.272  31.784  1.00  0.00     0.180 A 
ATOM      2  C   UNL     1      26.392  39.291  31.170  1.00  0.00     0.208 A 
ATOM      3  C   UNL     1      26.935  38.264  31.957  1.00  0.00     0.238 A 
ATOM      4  O   UNL     1      27.604  37.359  31.393  1.00  0.00    -0.285 OA
ATOM      5  C   UNL     1      26.685  38.237  33.350  1.00  0.00     0.111 A 
ATOM      6  C   UNL     1      27.216  37.266  34.250  1.00  0.00     0.134 A 
ATOM      7  C   UNL     1      26.798  37.259  35.586  1.00  0.00     0.093 A 
ATOM      8  C   UNL     1      25.917  38.230  36.069  1.00  0.00     0.123 A 
ATOM      9  C   UNL     1      25.440  39.219  35.212  1.00  0.00     0.094 A 
ATOM     10  C   UNL     1      25.810  39.229  33.865  1.00  0.00     0.146 A 
ATOM     11  O   UNL     1      25.324  40.183  33.081  1.00  0.00    -0.452 OA
ENDROOT
BRANCH   1  12
ATOM     12  C   UNL     1      25.007  41.400  31.025  1.00  0.00     0.025 A 
ATOM     13  C   UNL     1      23.751  41.291  30.404  1.00  0.00     0.016 A 
ATOM     14  C   UNL     1      23.228  42.361  29.673  1.00  0.00     0.051 A 
ATOM     15  C   UNL     1      23.958  43.550  29.540  1.00  0.00     0.157 A 
ATOM     16  C   UNL     1      25.743  42.587  30.872  1.00  0.00     0.062 A 
ATOM     17  C   UNL     1      25.223  43.661  30.141  1.00  0.00     0.158 A 
BRANCH  15  18
ATOM     18  O   UNL     1      23.433  44.617  28.812  1.00  0.00    -0.504 OA
ATOM     19  H   UNL     1      24.027  45.350  28.441  1.00  0.00     0.293 HD
ENDBRANCH  15  18
BRANCH  17  20
ATOM     20  O   UNL     1      25.977  44.828  30.023  1.00  0.00    -0.504 OA
ATOM     21  H   UNL     1      26.820  44.870  29.462  1.00  0.00     0.293 HD
ENDBRANCH  17  20
ENDBRANCH   1  12
BRANCH   2  22
ATOM     22  O   UNL     1      26.608  39.325  29.789  1.00  0.00    -0.502 OA
ATOM     23  H   UNL     1      27.114  38.596  29.301  1.00  0.00     0.293 HD
ENDBRANCH   2  22
BRANCH   6  24
ATOM     24  O   UNL     1      28.172  36.309  33.892  1.00  0.00    -0.507 OA
ATOM     25  H   UNL     1      28.479  35.553  34.486  1.00  0.00     0.293 HD
ENDBRANCH   6  24
BRANCH   8  26
ATOM     26  O   UNL     1      25.518  38.227  37.405  1.00  0.00    -0.508 OA
ATOM     27  H   UNL     1      25.374  39.089  37.916  1.00  0.00     0.293 HD
ENDBRANCH   8  26
TORSDOF 6
ENDMDL
MODEL 2
REMARK VINA RESULT:    -6.251      1.602      3.087
REMARK INTER + INTRA:          -7.854
REMARK INTER:                  -7.678
REMARK INTRA:                  -0.176
REMARK UNBOUND:                -0.324
REMARK SMILES O=c1c(O)c(-c2ccc(O)c(O)c2)oc2cc(O)cc(O)c12
REMARK SMILES IDX 5 1 3 2 2 3 1 4 22 5 20 6 19 7 17 8 16 9 15 10 14 11 6 12
REMARK SMILES IDX 7 13 8 14 9 15 13 16 11 17 10 18 12 20 4 22 21 24 18 26
REMARK H PARENT 10 19 12 21 4 23 21 25 18 27
REMARK Flexibility Score: inf
ROOT
ATOM      1  C   UNL     1      25.459  40.286  31.374  1.00  0.00     0.180 A 
ATOM      2  C   UNL     1      24.822  39.659  32.460  1.00  0.00     0.208 A 
ATOM      3  C   UNL     1      25.377  38.485  32.990  1.00  0.00     0.238 A 
ATOM      4  O   UNL     1      24.833  37.959  33.996  1.00  0.00    -0.285 OA
ATOM      5  C   UNL     1      26.554  37.942  32.420  1.00  0.00     0.111 A 
ATOM      6  C   UNL     1      27.182  36.735  32.851  1.00  0.00     0.134 A 
ATOM      7  C   UNL     1      28.414  36.363  32.301  1.00  0.00     0.093 A 
ATOM      8  C   UNL     1      29.009  37.119  31.288  1.00  0.00     0.123 A 
ATOM      9  C   UNL     1      28.374  38.266  30.818  1.00  0.00     0.094 A 
ATOM     10  C   UNL     1      27.162  38.684  31.373  1.00  0.00     0.146 A 
ATOM     11  O   UNL     1      26.597  39.788  30.903  1.00  0.00    -0.452 OA
ENDROOT
BRANCH   1  12
ATOM     12  C   UNL     1      24.919  41.512  30.744  1.00  0.00     0.025 A 
ATOM     13  C   UNL     1      23.667  41.516  30.104  1.00  0.00     0.016 A 
ATOM     14  C   UNL     1      23.188  42.679  29.496  1.00  0.00     0.051 A 
ATOM     15  C   UNL     1      23.957  43.850  29.506  1.00  0.00     0.157 A 
ATOM     16  C   UNL     1      25.694  42.683  30.734  1.00  0.00     0.062 A 
ATOM     17  C   UNL     1      25.218  43.850  30.126  1.00  0.00     0.158 A 
BRANCH  15  18
ATOM     18  O   UNL     1      23.476  45.011  28.900  1.00  0.00    -0.504 OA
ATOM     19  H   UNL     1      22.755  45.576  29.335  1.00  0.00     0.293 HD
ENDBRANCH  15  18
BRANCH  17  20
ATOM     20  O   UNL     1      26.010  44.998  30.148  1.00  0.00    -0.504 OA
ATOM     21  H   UNL     1      27.001  44.964  30.357  1.00  0.00     0.293 HD
ENDBRANCH  17  20
ENDBRANCH   1  12
BRANCH   2  22
ATOM     22  O   UNL     1      23.673  40.224  33.022  1.00  0.00    -0.502 OA
ATOM     23  H   UNL     1      22.744  40.034  32.665  1.00  0.00     0.293 HD
ENDBRANCH   2  22
BRANCH   6  24
ATOM     24  O   UNL     1      26.628  35.860  33.790  1.00  0.00    -0.507 OA
ATOM     25  H   UNL     1      26.085  35.040  33.561  1.00  0.00     0.293 HD
ENDBRANCH   6  24
BRANCH   8  26
ATOM     26  O   UNL     1      30.228  36.732  30.733  1.00  0.00    -0.508 OA
ATOM     27  H   UNL     1      31.036  36.542  31.313  1.00  0.00     0.293 HD
ENDBRANCH   8  26
TORSDOF 6
ENDMDL
MODEL 3
REMARK VINA RESULT:    -6.176      1.345      2.847
REMARK INTER + INTRA:          -7.764
REMARK INTER:                  -7.534
REMARK INTRA:                  -0.230
REMARK UNBOUND:                -0.324
REMARK SMILES O=c1c(O)c(-c2ccc(O)c(O)c2)oc2cc(O)cc(O)c12
REMARK SMILES IDX 5 1 3 2 2 3 1 4 22 5 20 6 19 7 17 8 16 9 15 10 14 11 6 12
REMARK SMILES IDX 7 13 8 14 9 15 13 16 11 17 10 18 12 20 4 22 21 24 18 26
REMARK H PARENT 10 19 12 21 4 23 21 25 18 27
REMARK Flexibility Score: inf
ROOT
ATOM      1  C   UNL     1      25.068  40.541  32.238  1.00  0.00     0.180 A 
ATOM      2  C   UNL     1      25.112  40.744  33.628  1.00  0.00     0.208 A 
ATOM      3  C   UNL     1      25.484  39.678  34.461  1.00  0.00     0.238 A 
ATOM      4  O   UNL     1      25.575  39.881  35.700  1.00  0.00    -0.285 OA
ATOM      5  C   UNL     1      25.792  38.417  33.896  1.00  0.00     0.111 A 
ATOM      6  C   UNL     1      26.142  37.256  34.648  1.00  0.00     0.134 A 
ATOM      7  C   UNL     1      26.554  36.097  33.978  1.00  0.00     0.093 A 
ATOM      8  C   UNL     1      26.565  36.038  32.582  1.00  0.00     0.123 A 
ATOM      9  C   UNL     1      26.167  37.147  31.840  1.00  0.00     0.094 A 
ATOM     10  C   UNL     1      25.787  38.329  32.479  1.00  0.00     0.146 A 
ATOM     11  O   UNL     1      25.425  39.365  31.734  1.00  0.00    -0.452 OA
ENDROOT
BRANCH   1  12
ATOM     12  C   UNL     1      24.660  41.609  31.297  1.00  0.00     0.025 A 
ATOM     13  C   UNL     1      23.435  41.551  30.610  1.00  0.00     0.016 A 
ATOM     14  C   UNL     1      23.081  42.559  29.709  1.00  0.00     0.051 A 
ATOM     15  C   UNL     1      23.951  43.631  29.471  1.00  0.00     0.157 A 
ATOM     16  C   UNL     1      25.536  42.676  31.040  1.00  0.00     0.062 A 
ATOM     17  C   UNL     1      25.186  43.687  30.138  1.00  0.00     0.158 A 
BRANCH  15  18
ATOM     18  O   UNL     1      23.594  44.637  28.573  1.00  0.00    -0.504 OA
ATOM     19  H   UNL     1      23.511  44.456  27.579  1.00  0.00     0.293 HD
ENDBRANCH  15  18
BRANCH  17  20
ATOM     20  O   UNL     1      26.076  44.738  29.919  1.00  0.00    -0.504 OA
ATOM     21  H   UNL     1      25.767  45.701  29.854  1.00  0.00     0.293 HD
ENDBRANCH  17  20
ENDBRANCH   1  12
BRANCH   2  22
ATOM     22  O   UNL     1      24.825  42.004  34.163  1.00  0.00    -0.502 OA
ATOM     23  H   UNL     1      24.777  42.172  35.161  1.00  0.00     0.293 HD
ENDBRANCH   2  22
BRANCH   6  24
ATOM     24  O   UNL     1      26.077  37.179  36.042  1.00  0.00    -0.507 OA
ATOM     25  H   UNL     1      25.821  36.352  36.561  1.00  0.00     0.293 HD
ENDBRANCH   6  24
BRANCH   8  26
ATOM     26  O   UNL     1      26.961  34.875  31.923  1.00  0.00    -0.508 OA
ATOM     27  H   UNL     1      27.938  34.656  31.777  1.00  0.00     0.293 HD
ENDBRANCH   8  26
TORSDOF 6
ENDMDL
MODEL 4
REMARK VINA RESULT:    -6.083      0.626      1.447
REMARK INTER + INTRA:          -7.652
REMARK INTER:                  -7.360
REMARK INTRA:                  -0.292
REMARK UNBOUND:                -0.324
REMARK SMILES O=c1c(O)c(-c2ccc(O)c(O)c2)oc2cc(O)cc(O)c12
REMARK SMILES IDX 5 1 3 2 2 3 1 4 22 5 20 6 19 7 17 8 16 9 15 10 14 11 6 12
REMARK SMILES IDX 7 13 8 14 9 15 13 16 11 17 10 18 12 20 4 22 21 24 18 26
REMARK H PARENT 10 19 12 21 4 23 21 25 18 27
REMARK Flexibility Score: inf
ROOT
ATOM      1  C   UNL     1      25.524  40.333  31.791  1.00  0.00     0.180 A 
ATOM      2  C   UNL     1      26.270  39.314  31.172  1.00  0.00     0.208 A 
ATOM      3  C   UNL     1      26.730  38.240  31.949  1.00  0.00     0.238 A 
ATOM      4  O   UNL     1      27.350  37.303  31.379  1.00  0.00    -0.285 OA
ATOM      5  C   UNL     1      26.453  38.204  33.337  1.00  0.00     0.111 A 
ATOM      6  C   UNL     1      26.903  37.184  34.227  1.00  0.00     0.134 A 
ATOM      7  C   UNL     1      26.460  37.180  35.555  1.00  0.00     0.093 A 
ATOM      8  C   UNL     1      25.635  38.198  36.041  1.00  0.00     0.123 A 
ATOM      9  C   UNL     1      25.239  39.230  35.195  1.00  0.00     0.094 A 
ATOM     10  C   UNL     1      25.634  39.241  33.855  1.00  0.00     0.146 A 
ATOM     11  O   UNL     1      25.226  40.238  33.081  1.00  0.00    -0.452 OA
ENDROOT
BRANCH   1  12
ATOM     12  C   UNL     1      25.027  41.511  31.044  1.00  0.00     0.025 A 
ATOM     13  C   UNL     1      25.883  42.570  30.695  1.00  0.00     0.016 A 
ATOM     14  C   UNL     1      25.387  43.683  30.010  1.00  0.00     0.051 A 
ATOM     15  C   UNL     1      24.029  43.760  29.676  1.00  0.00     0.157 A 
ATOM     16  C   UNL     1      23.663  41.603  30.724  1.00  0.00     0.062 A 
ATOM     17  C   UNL     1      23.162  42.715  30.039  1.00  0.00     0.158 A 
BRANCH  15  18
ATOM     18  O   UNL     1      23.537  44.871  28.991  1.00  0.00    -0.504 OA
ATOM     19  H   UNL     1      23.586  45.803  29.386  1.00  0.00     0.293 HD
ENDBRANCH  15  18
BRANCH  17  20
ATOM     20  O   UNL     1      21.804  42.764  29.727  1.00  0.00    -0.504 OA
ATOM     21  H   UNL     1      21.392  43.549  29.235  1.00  0.00     0.293 HD
ENDBRANCH  17  20
ENDBRANCH   1  12
BRANCH   2  22
ATOM     22  O   UNL     1      26.513  39.358  29.796  1.00  0.00    -0.502 OA
ATOM     23  H   UNL     1      27.359  38.987  29.382  1.00  0.00     0.293 HD
ENDBRANCH   2  22
BRANCH   6  24
ATOM     24  O   UNL     1      27.801  36.174  33.868  1.00  0.00    -0.507 OA
ATOM     25  H   UNL     1      28.134  35.452  34.490  1.00  0.00     0.293 HD
ENDBRANCH   6  24
BRANCH   8  26
ATOM     26  O   UNL     1      25.211  38.196  37.369  1.00  0.00    -0.508 OA
ATOM     27  H   UNL     1      25.661  38.773  38.069  1.00  0.00     0.293 HD
ENDBRANCH   8  26
TORSDOF 6
ENDMDL
MODEL 5
REMARK VINA RESULT:    -5.736      1.576      1.871
REMARK INTER + INTRA:          -7.234
REMARK INTER:                  -7.207
REMARK INTRA:                  -0.027
REMARK UNBOUND:                -0.324
REMARK SMILES O=c1c(O)c(-c2ccc(O)c(O)c2)oc2cc(O)cc(O)c12
REMARK SMILES IDX 5 1 3 2 2 3 1 4 22 5 20 6 19 7 17 8 16 9 15 10 14 11 6 12
REMARK SMILES IDX 7 13 8 14 9 15 13 16 11 17 10 18 12 20 4 22 21 24 18 26
REMARK H PARENT 10 19 12 21 4 23 21 25 18 27
REMARK Flexibility Score: inf
ROOT
ATOM      1  C   UNL     1      25.867  39.389  32.396  1.00  0.00     0.180 A 
ATOM      2  C   UNL     1      26.595  38.554  31.531  1.00  0.00     0.208 A 
ATOM      3  C   UNL     1      27.598  37.730  32.063  1.00  0.00     0.238 A 
ATOM      4  O   UNL     1      28.209  36.945  31.291  1.00  0.00    -0.285 OA
ATOM      5  C   UNL     1      27.872  37.760  33.452  1.00  0.00     0.111 A 
ATOM      6  C   UNL     1      28.892  36.996  34.094  1.00  0.00     0.134 A 
ATOM      7  C   UNL     1      28.987  37.006  35.491  1.00  0.00     0.093 A 
ATOM      8  C   UNL     1      28.141  37.805  36.264  1.00  0.00     0.123 A 
ATOM      9  C   UNL     1      27.181  38.600  35.643  1.00  0.00     0.094 A 
ATOM     10  C   UNL     1      27.037  38.582  34.253  1.00  0.00     0.146 A 
ATOM     11  O   UNL     1      26.103  39.347  33.703  1.00  0.00    -0.452 OA
ENDROOT
BRANCH   1  12
ATOM     12  C   UNL     1      24.812  40.305  31.906  1.00  0.00     0.025 A 
ATOM     13  C   UNL     1      23.503  40.252  32.415  1.00  0.00     0.016 A 
ATOM     14  C   UNL     1      22.517  41.111  31.921  1.00  0.00     0.051 A 
ATOM     15  C   UNL     1      22.822  42.025  30.903  1.00  0.00     0.157 A 
ATOM     16  C   UNL     1      25.107  41.210  30.874  1.00  0.00     0.062 A 
ATOM     17  C   UNL     1      24.123  42.072  30.376  1.00  0.00     0.158 A 
BRANCH  15  18
ATOM     18  O   UNL     1      21.837  42.883  30.414  1.00  0.00    -0.504 OA
ATOM     19  H   UNL     1      21.008  43.102  30.953  1.00  0.00     0.293 HD
ENDBRANCH  15  18
BRANCH  17  20
ATOM     20  O   UNL     1      24.457  42.966  29.359  1.00  0.00    -0.504 OA
ATOM     21  H   UNL     1      23.821  43.179  28.599  1.00  0.00     0.293 HD
ENDBRANCH  17  20
ENDBRANCH   1  12
BRANCH   2  22
ATOM     22  O   UNL     1      26.294  38.524  30.166  1.00  0.00    -0.502 OA
ATOM     23  H   UNL     1      25.359  38.345  29.820  1.00  0.00     0.293 HD
ENDBRANCH   2  22
BRANCH   6  24
ATOM     24  O   UNL     1      29.847  36.238  33.410  1.00  0.00    -0.507 OA
ATOM     25  H   UNL     1      30.655  36.620  32.940  1.00  0.00     0.293 HD
ENDBRANCH   6  24
BRANCH   8  26
ATOM     26  O   UNL     1      28.253  37.822  37.653  1.00  0.00    -0.508 OA
ATOM     27  H   UNL     1      28.464  36.982  38.178  1.00  0.00     0.293 HD
ENDBRANCH   8  26
TORSDOF 6
ENDMDL
MODEL 6
REMARK VINA RESULT:    -5.638      1.909      3.648
REMARK INTER + INTRA:          -7.115
REMARK INTER:                  -7.211
REMARK INTRA:                   0.096
REMARK UNBOUND:                -0.324
REMARK SMILES O=c1c(O)c(-c2ccc(O)c(O)c2)oc2cc(O)cc(O)c12
REMARK SMILES IDX 5 1 3 2 2 3 1 4 22 5 20 6 19 7 17 8 16 9 15 10 14 11 6 12
REMARK SMILES IDX 7 13 8 14 9 15 13 16 11 17 10 18 12 20 4 22 21 24 18 26
REMARK H PARENT 10 19 12 21 4 23 21 25 18 27
REMARK Flexibility Score: inf
ROOT
ATOM      1  C   UNL     1      24.437  41.223  31.312  1.00  0.00     0.180 A 
ATOM      2  C   UNL     1      24.023  40.905  32.617  1.00  0.00     0.208 A 
ATOM      3  C   UNL     1      24.645  39.842  33.289  1.00  0.00     0.238 A 
ATOM      4  O   UNL     1      24.308  39.597  34.478  1.00  0.00    -0.285 OA
ATOM      5  C   UNL     1      25.664  39.100  32.644  1.00  0.00     0.111 A 
ATOM      6  C   UNL     1      26.336  37.978  33.216  1.00  0.00     0.134 A 
ATOM      7  C   UNL     1      27.417  37.402  32.538  1.00  0.00     0.093 A 
ATOM      8  C   UNL     1      27.808  37.865  31.280  1.00  0.00     0.123 A 
ATOM      9  C   UNL     1      27.119  38.921  30.687  1.00  0.00     0.094 A 
ATOM     10  C   UNL     1      26.061  39.540  31.354  1.00  0.00     0.146 A 
ATOM     11  O   UNL     1      25.439  40.550  30.758  1.00  0.00    -0.452 OA
ENDROOT
BRANCH   1  12
ATOM     12  C   UNL     1      23.810  42.312  30.529  1.00  0.00     0.025 A 
ATOM     13  C   UNL     1      24.588  43.261  29.843  1.00  0.00     0.016 A 
ATOM     14  C   UNL     1      23.976  44.295  29.130  1.00  0.00     0.051 A 
ATOM     15  C   UNL     1      22.579  44.404  29.103  1.00  0.00     0.157 A 
ATOM     16  C   UNL     1      22.412  42.438  30.514  1.00  0.00     0.062 A 
ATOM     17  C   UNL     1      21.794  43.472  29.802  1.00  0.00     0.158 A 
BRANCH  15  18
ATOM     18  O   UNL     1      21.970  45.435  28.388  1.00  0.00    -0.504 OA
ATOM     19  H   UNL     1      22.370  46.366  28.355  1.00  0.00     0.293 HD
ENDBRANCH  15  18
BRANCH  17  20
ATOM     20  O   UNL     1      20.402  43.556  29.799  1.00  0.00    -0.504 OA
ATOM     21  H   UNL     1      19.825  42.948  30.368  1.00  0.00     0.293 HD
ENDBRANCH  17  20
ENDBRANCH   1  12
BRANCH   2  22
ATOM     22  O   UNL     1      23.030  41.665  33.244  1.00  0.00    -0.502 OA
ATOM     23  H   UNL     1      23.101  41.959  34.210  1.00  0.00     0.293 HD
ENDBRANCH   2  22
BRANCH   6  24
ATOM     24  O   UNL     1      25.967  37.379  34.424  1.00  0.00    -0.507 OA
ATOM     25  H   UNL     1      25.347  37.793  35.105  1.00  0.00     0.293 HD
ENDBRANCH   6  24
BRANCH   8  26
ATOM     26  O   UNL     1      28.875  37.274  30.604  1.00  0.00    -0.508 OA
ATOM     27  H   UNL     1      29.832  37.556  30.777  1.00  0.00     0.293 HD
ENDBRANCH   8  26
TORSDOF 6
ENDMDL
MODEL 7
REMARK VINA RESULT:    -5.523      2.311      2.862
REMARK INTER + INTRA:          -6.977
REMARK INTER:                  -6.746
REMARK INTRA:                  -0.231
REMARK UNBOUND:                -0.324
REMARK SMILES O=c1c(O)c(-c2ccc(O)c(O)c2)oc2cc(O)cc(O)c12
REMARK SMILES IDX 5 1 3 2 2 3 1 4 22 5 20 6 19 7 17 8 16 9 15 10 14 11 6 12
REMARK SMILES IDX 7 13 8 14 9 15 13 16 11 17 10 18 12 20 4 22 21 24 18 26
REMARK H PARENT 10 19 12 21 4 23 21 25 18 27
REMARK Flexibility Score: inf
ROOT
ATOM      1  C   UNL     1      24.293  39.255  33.203  1.00  0.00     0.180 A 
ATOM      2  C   UNL     1      23.713  37.981  33.335  1.00  0.00     0.208 A 
ATOM      3  C   UNL     1      24.382  37.003  34.087  1.00  0.00     0.238 A 
ATOM      4  O   UNL     1      23.832  35.882  34.248  1.00  0.00    -0.285 OA
ATOM      5  C   UNL     1      25.630  37.305  34.685  1.00  0.00     0.111 A 
ATOM      6  C   UNL     1      26.414  36.379  35.436  1.00  0.00     0.134 A 
ATOM      7  C   UNL     1      27.568  36.824  36.092  1.00  0.00     0.093 A 
ATOM      8  C   UNL     1      28.002  38.147  35.969  1.00  0.00     0.123 A 
ATOM      9  C   UNL     1      27.275  39.043  35.189  1.00  0.00     0.094 A 
ATOM     10  C   UNL     1      26.099  38.638  34.554  1.00  0.00     0.146 A 
ATOM     11  O   UNL     1      25.432  39.527  33.829  1.00  0.00    -0.452 OA
ENDROOT
BRANCH   1  12
ATOM     12  C   UNL     1      23.660  40.329  32.404  1.00  0.00     0.025 A 
ATOM     13  C   UNL     1      22.497  40.982  32.847  1.00  0.00     0.016 A 
ATOM     14  C   UNL     1      21.903  41.977  32.066  1.00  0.00     0.051 A 
ATOM     15  C   UNL     1      22.455  42.325  30.826  1.00  0.00     0.157 A 
ATOM     16  C   UNL     1      24.197  40.668  31.152  1.00  0.00     0.062 A 
ATOM     17  C   UNL     1      23.607  41.664  30.366  1.00  0.00     0.158 A 
BRANCH  15  18
ATOM     18  O   UNL     1      21.863  43.321  30.049  1.00  0.00    -0.504 OA
ATOM     19  H   UNL     1      21.375  43.102  29.188  1.00  0.00     0.293 HD
ENDBRANCH  15  18
BRANCH  17  20
ATOM     20  O   UNL     1      24.177  41.983  29.134  1.00  0.00    -0.504 OA
ATOM     21  H   UNL     1      23.816  42.729  28.551  1.00  0.00     0.293 HD
ENDBRANCH  17  20
ENDBRANCH   1  12
BRANCH   2  22
ATOM     22  O   UNL     1      22.470  37.710  32.755  1.00  0.00    -0.502 OA
ATOM     23  H   UNL     1      22.251  36.816  32.333  1.00  0.00     0.293 HD
ENDBRANCH   2  22
BRANCH   6  24
ATOM     24  O   UNL     1      26.121  35.017  35.546  1.00  0.00    -0.507 OA
ATOM     25  H   UNL     1      26.801  34.296  35.738  1.00  0.00     0.293 HD
ENDBRANCH   6  24
BRANCH   8  26
ATOM     26  O   UNL     1      29.161  38.577  36.612  1.00  0.00    -0.508 OA
ATOM     27  H   UNL     1      30.055  38.595  36.136  1.00  0.00     0.293 HD
ENDBRANCH   8  26
TORSDOF 6
ENDMDL
MODEL 8
REMARK VINA RESULT:    -5.424      2.042      6.780
REMARK INTER + INTRA:          -6.858
REMARK INTER:                  -6.524
REMARK INTRA:                  -0.334
REMARK UNBOUND:                -0.324
REMARK SMILES O=c1c(O)c(-c2ccc(O)c(O)c2)oc2cc(O)cc(O)c12
REMARK SMILES IDX 5 1 3 2 2 3 1 4 22 5 20 6 19 7 17 8 16 9 15 10 14 11 6 12
REMARK SMILES IDX 7 13 8 14 9 15 13 16 11 17 10 18 12 20 4 22 21 24 18 26
REMARK H PARENT 10 19 12 21 4 23 21 25 18 27
REMARK Flexibility Score: inf
ROOT
ATOM      1  C   UNL     1      25.968  38.584  33.309  1.00  0.00     0.180 A 
ATOM      2  C   UNL     1      26.611  38.901  32.099  1.00  0.00     0.208 A 
ATOM      3  C   UNL     1      26.006  39.818  31.226  1.00  0.00     0.238 A 
ATOM      4  O   UNL     1      26.612  40.139  30.171  1.00  0.00    -0.285 OA
ATOM      5  C   UNL     1      24.758  40.395  31.565  1.00  0.00     0.111 A 
ATOM      6  C   UNL     1      24.035  41.306  30.738  1.00  0.00     0.134 A 
ATOM      7  C   UNL     1      22.875  41.915  31.231  1.00  0.00     0.093 A 
ATOM      8  C   UNL     1      22.376  41.597  32.496  1.00  0.00     0.123 A 
ATOM      9  C   UNL     1      23.042  40.664  33.287  1.00  0.00     0.094 A 
ATOM     10  C   UNL     1      24.223  40.067  32.838  1.00  0.00     0.146 A 
ATOM     11  O   UNL     1      24.831  39.191  33.628  1.00  0.00    -0.452 OA
ENDROOT
BRANCH   1  12
ATOM     12  C   UNL     1      26.531  37.607  34.268  1.00  0.00     0.025 A 
ATOM     13  C   UNL     1      26.254  36.233  34.161  1.00  0.00     0.016 A 
ATOM     14  C   UNL     1      26.776  35.331  35.092  1.00  0.00     0.051 A 
ATOM     15  C   UNL     1      27.572  35.789  36.150  1.00  0.00     0.157 A 
ATOM     16  C   UNL     1      27.312  38.063  35.342  1.00  0.00     0.062 A 
ATOM     17  C   UNL     1      27.838  37.163  36.277  1.00  0.00     0.158 A 
BRANCH  15  18
ATOM     18  O   UNL     1      28.095  34.888  37.076  1.00  0.00    -0.504 OA
ATOM     19  H   UNL     1      29.035  34.520  36.986  1.00  0.00     0.293 HD
ENDBRANCH  15  18
BRANCH  17  20
ATOM     20  O   UNL     1      28.621  37.653  37.322  1.00  0.00    -0.504 OA
ATOM     21  H   UNL     1      28.283  37.690  38.276  1.00  0.00     0.293 HD
ENDBRANCH  17  20
ENDBRANCH   1  12
BRANCH   2  22
ATOM     22  O   UNL     1      27.853  38.335  31.794  1.00  0.00    -0.502 OA
ATOM     23  H   UNL     1      27.981  37.689  31.026  1.00  0.00     0.293 HD
ENDBRANCH   2  22
BRANCH   6  24
ATOM     24  O   UNL     1      24.396  41.623  29.425  1.00  0.00    -0.507 OA
ATOM     25  H   UNL     1      25.341  41.785  29.111  1.00  0.00     0.293 HD
ENDBRANCH   6  24
BRANCH   8  26
ATOM     26  O   UNL     1      21.211  42.195  32.973  1.00  0.00    -0.508 OA
ATOM     27  H   UNL     1      21.078  43.198  32.936  1.00  0.00     0.293 HD
ENDBRANCH   8  26
TORSDOF 6
ENDMDL
MODEL 9
REMARK VINA RESULT:    -5.347      2.160      7.216
REMARK INTER + INTRA:          -6.765
REMARK INTER:                  -6.442
REMARK INTRA:                  -0.323
REMARK UNBOUND:                -0.324
REMARK SMILES O=c1c(O)c(-c2ccc(O)c(O)c2)oc2cc(O)cc(O)c12
REMARK SMILES IDX 5 1 3 2 2 3 1 4 22 5 20 6 19 7 17 8 16 9 15 10 14 11 6 12
REMARK SMILES IDX 7 13 8 14 9 15 13 16 11 17 10 18 12 20 4 22 21 24 18 26
REMARK H PARENT 10 19 12 21 4 23 21 25 18 27
REMARK Flexibility Score: inf
ROOT
ATOM      1  C   UNL     1      25.367  38.855  33.968  1.00  0.00     0.180 A 
ATOM      2  C   UNL     1      24.158  39.002  34.671  1.00  0.00     0.208 A 
ATOM      3  C   UNL     1      23.164  39.843  34.148  1.00  0.00     0.238 A 
ATOM      4  O   UNL     1      22.064  39.928  34.754  1.00  0.00    -0.285 OA
ATOM      5  C   UNL     1      23.395  40.540  32.937  1.00  0.00     0.111 A 
ATOM      6  C   UNL     1      22.474  41.448  32.336  1.00  0.00     0.134 A 
ATOM      7  C   UNL     1      22.752  41.980  31.071  1.00  0.00     0.093 A 
ATOM      8  C   UNL     1      23.950  41.686  30.415  1.00  0.00     0.123 A 
ATOM      9  C   UNL     1      24.883  40.847  31.021  1.00  0.00     0.094 A 
ATOM     10  C   UNL     1      24.617  40.272  32.265  1.00  0.00     0.146 A 
ATOM     11  O   UNL     1      25.528  39.470  32.802  1.00  0.00    -0.452 OA
ENDROOT
BRANCH   1  12
ATOM     12  C   UNL     1      26.472  38.007  34.468  1.00  0.00     0.025 A 
ATOM     13  C   UNL     1      26.572  36.650  34.112  1.00  0.00     0.016 A 
ATOM     14  C   UNL     1      27.611  35.862  34.616  1.00  0.00     0.051 A 
ATOM     15  C   UNL     1      28.556  36.413  35.491  1.00  0.00     0.157 A 
ATOM     16  C   UNL     1      27.410  38.548  35.362  1.00  0.00     0.062 A 
ATOM     17  C   UNL     1      28.452  37.763  35.868  1.00  0.00     0.158 A 
BRANCH  15  18
ATOM     18  O   UNL     1      29.593  35.625  35.990  1.00  0.00    -0.504 OA
ATOM     19  H   UNL     1      29.987  35.788  36.909  1.00  0.00     0.293 HD
ENDBRANCH  15  18
BRANCH  17  20
ATOM     20  O   UNL     1      29.373  38.340  36.742  1.00  0.00    -0.504 OA
ATOM     21  H   UNL     1      29.694  37.864  37.577  1.00  0.00     0.293 HD
ENDBRANCH  17  20
ENDBRANCH   1  12
BRANCH   2  22
ATOM     22  O   UNL     1      23.943  38.289  35.854  1.00  0.00    -0.502 OA
ATOM     23  H   UNL     1      24.700  38.001  36.461  1.00  0.00     0.293 HD
ENDBRANCH   2  22
BRANCH   6  24
ATOM     24  O   UNL     1      21.292  41.880  32.947  1.00  0.00    -0.507 OA
ATOM     25  H   UNL     1      20.563  41.269  33.284  1.00  0.00     0.293 HD
ENDBRANCH   6  24
BRANCH   8  26
ATOM     26  O   UNL     1      24.228  42.232  29.163  1.00  0.00    -0.508 OA
ATOM     27  H   UNL     1      24.878  41.790  28.525  1.00  0.00     0.293 HD
ENDBRANCH   8  26
TORSDOF 6
ENDMDL
