MODEL 1
REMARK VINA RESULT:    -7.878      0.000      0.000
REMARK INTER + INTRA:          -9.110
REMARK INTER:                  -9.490
REMARK INTRA:                   0.380
REMARK UNBOUND:                 0.380
REMARK SMILES O=c1c(O)c(-c2ccc(O)c(O)c2)oc2cc(O)cc(O)c12
REMARK SMILES IDX 5 1 3 2 2 3 1 4 22 5 20 6 19 7 17 8 16 9 15 10 14 11 6 12
REMARK SMILES IDX 7 13 8 14 9 15 13 16 11 17 10 18 12 20 4 22 21 24 18 26
REMARK H PARENT 10 19 12 21 4 23 21 25 18 27
REMARK Flexibility Score: inf
ROOT
ATOM      1  C   UNL     1      17.620  22.504  40.145  1.00  0.00     0.180 A 
ATOM      2  C   UNL     1      17.364  23.590  39.286  1.00  0.00     0.208 A 
ATOM      3  C   UNL     1      16.236  24.391  39.522  1.00  0.00     0.238 A 
ATOM      4  O   UNL     1      15.992  25.361  38.753  1.00  0.00    -0.285 OA
ATOM      5  C   UNL     1      15.397  24.107  40.619  1.00  0.00     0.111 A 
ATOM      6  C   UNL     1      14.244  24.868  40.929  1.00  0.00     0.134 A 
ATOM      7  C   UNL     1      13.465  24.526  42.044  1.00  0.00     0.093 A 
ATOM      8  C   UNL     1      13.818  23.442  42.856  1.00  0.00     0.123 A 
ATOM      9  C   UNL     1      14.953  22.689  42.554  1.00  0.00     0.094 A 
ATOM     10  C   UNL     1      15.742  23.012  41.445  1.00  0.00     0.146 A 
ATOM     11  O   UNL     1      16.814  22.276  41.178  1.00  0.00    -0.452 OA
ENDROOT
BRANCH   1  12
ATOM     12  C   UNL     1      18.777  21.602  39.951  1.00  0.00     0.025 A 
ATOM     13  C   UNL     1      18.776  20.290  40.457  1.00  0.00     0.016 A 
ATOM     14  C   UNL     1      19.890  19.464  40.282  1.00  0.00     0.051 A 
ATOM     15  C   UNL     1      21.022  19.937  39.612  1.00  0.00     0.157 A 
ATOM     16  C   UNL     1      19.925  22.080  39.298  1.00  0.00     0.062 A 
ATOM     17  C   UNL     1      21.043  21.252  39.119  1.00  0.00     0.158 A 
BRANCH  15  18
ATOM     18  O   UNL     1      22.118  19.089  39.451  1.00  0.00    -0.504 OA
ATOM     19  H   UNL     1      22.756  19.175  38.669  1.00  0.00     0.293 HD
ENDBRANCH  15  18
BRANCH  17  20
ATOM     20  O   UNL     1      22.172  21.733  38.458  1.00  0.00    -0.504 OA
ATOM     21  H   UNL     1      22.172  21.898  37.458  1.00  0.00     0.293 HD
ENDBRANCH  17  20
ENDBRANCH   1  12
BRANCH   2  22
ATOM     22  O   UNL     1      18.239  23.880  38.235  1.00  0.00    -0.502 OA
ATOM     23  H   UNL     1      19.094  24.408  38.371  1.00  0.00     0.293 HD
ENDBRANCH   2  22
BRANCH   6  24
ATOM     24  O   UNL     1      13.867  25.955  40.140  1.00  0.00    -0.507 OA
ATOM     25  H   UNL     1      13.176  25.866  39.404  1.00  0.00     0.293 HD
ENDBRANCH   6  24
BRANCH   8  26
ATOM     26  O   UNL     1      13.044  23.104  43.964  1.00  0.00    -0.508 OA
ATOM     27  H   UNL     1      12.999  22.152  44.308  1.00  0.00     0.293 HD
ENDBRANCH   8  26
TORSDOF 6
ENDMDL
MODEL 2
REMARK VINA RESULT:    -7.653      1.761      2.899
REMARK INTER + INTRA:          -8.839
REMARK INTER:                  -9.077
REMARK INTRA:                   0.239
REMARK UNBOUND:                 0.380
REMARK SMILES O=c1c(O)c(-c2ccc(O)c(O)c2)oc2cc(O)cc(O)c12
REMARK SMILES IDX 5 1 3 2 2 3 1 4 22 5 20 6 19 7 17 8 16 9 15 10 14 11 6 12
REMARK SMILES IDX 7 13 8 14 9 15 13 16 11 17 10 18 12 20 4 22 21 24 18 26
REMARK H PARENT 10 19 12 21 4 23 21 25 18 27
REMARK Flexibility Score: inf
ROOT
ATOM      1  C   UNL     1      15.502  23.249  41.069  1.00  0.00     0.180 A 
ATOM      2  C   UNL     1      14.859  24.442  40.687  1.00  0.00     0.208 A 
ATOM      3  C   UNL     1      13.852  24.964  41.514  1.00  0.00     0.238 A 
ATOM      4  O   UNL     1      13.263  26.027  41.177  1.00  0.00    -0.285 OA
ATOM      5  C   UNL     1      13.518  24.298  42.711  1.00  0.00     0.111 A 
ATOM      6  C   UNL     1      12.518  24.760  43.601  1.00  0.00     0.134 A 
ATOM      7  C   UNL     1      12.252  24.045  44.778  1.00  0.00     0.093 A 
ATOM      8  C   UNL     1      12.965  22.880  45.083  1.00  0.00     0.123 A 
ATOM      9  C   UNL     1      13.951  22.421  44.208  1.00  0.00     0.094 A 
ATOM     10  C   UNL     1      14.231  23.118  43.029  1.00  0.00     0.146 A 
ATOM     11  O   UNL     1      15.170  22.656  42.212  1.00  0.00    -0.452 OA
ENDROOT
BRANCH   1  12
ATOM     12  C   UNL     1      16.560  22.625  40.241  1.00  0.00     0.025 A 
ATOM     13  C   UNL     1      16.706  21.228  40.171  1.00  0.00     0.016 A 
ATOM     14  C   UNL     1      17.727  20.663  39.402  1.00  0.00     0.051 A 
ATOM     15  C   UNL     1      18.622  21.480  38.704  1.00  0.00     0.157 A 
ATOM     16  C   UNL     1      17.474  23.442  39.556  1.00  0.00     0.062 A 
ATOM     17  C   UNL     1      18.498  22.877  38.783  1.00  0.00     0.158 A 
BRANCH  15  18
ATOM     18  O   UNL     1      19.630  20.886  37.944  1.00  0.00    -0.504 OA
ATOM     19  H   UNL     1      20.596  20.870  38.249  1.00  0.00     0.293 HD
ENDBRANCH  15  18
BRANCH  17  20
ATOM     20  O   UNL     1      19.392  23.697  38.097  1.00  0.00    -0.504 OA
ATOM     21  H   UNL     1      19.816  23.407  37.223  1.00  0.00     0.293 HD
ENDBRANCH  17  20
ENDBRANCH   1  12
BRANCH   2  22
ATOM     22  O   UNL     1      15.243  25.108  39.520  1.00  0.00    -0.502 OA
ATOM     23  H   UNL     1      16.075  25.686  39.475  1.00  0.00     0.293 HD
ENDBRANCH   2  22
BRANCH   6  24
ATOM     24  O   UNL     1      11.792  25.918  43.325  1.00  0.00    -0.507 OA
ATOM     25  H   UNL     1      11.472  26.138  42.389  1.00  0.00     0.293 HD
ENDBRANCH   6  24
BRANCH   8  26
ATOM     26  O   UNL     1      12.700  22.172  46.252  1.00  0.00    -0.508 OA
ATOM     27  H   UNL     1      12.463  22.644  47.116  1.00  0.00     0.293 HD
ENDBRANCH   8  26
TORSDOF 6
ENDMDL
MODEL 3
REMARK VINA RESULT:    -7.476      1.095      6.748
REMARK INTER + INTRA:          -8.626
REMARK INTER:                  -9.060
REMARK INTRA:                   0.435
REMARK UNBOUND:                 0.380
REMARK SMILES O=c1c(O)c(-c2ccc(O)c(O)c2)oc2cc(O)cc(O)c12
REMARK SMILES IDX 5 1 3 2 2 3 1 4 22 5 20 6 19 7 17 8 16 9 15 10 14 11 6 12
REMARK SMILES IDX 7 13 8 14 9 15 13 16 11 17 10 18 12 20 4 22 21 24 18 26
REMARK H PARENT 10 19 12 21 4 23 21 25 18 27
REMARK Flexibility Score: inf
ROOT
ATOM      1  C   UNL     1      16.317  23.135  40.642  1.00  0.00     0.180 A 
ATOM      2  C   UNL     1      16.847  23.925  39.604  1.00  0.00     0.208 A 
ATOM      3  C   UNL     1      18.008  23.489  38.946  1.00  0.00     0.238 A 
ATOM      4  O   UNL     1      18.497  24.193  38.020  1.00  0.00    -0.285 OA
ATOM      5  C   UNL     1      18.605  22.268  39.321  1.00  0.00     0.111 A 
ATOM      6  C   UNL     1      19.772  21.756  38.704  1.00  0.00     0.134 A 
ATOM      7  C   UNL     1      20.301  20.528  39.129  1.00  0.00     0.093 A 
ATOM      8  C   UNL     1      19.684  19.802  40.154  1.00  0.00     0.123 A 
ATOM      9  C   UNL     1      18.533  20.303  40.765  1.00  0.00     0.094 A 
ATOM     10  C   UNL     1      17.992  21.526  40.358  1.00  0.00     0.146 A 
ATOM     11  O   UNL     1      16.900  21.982  40.959  1.00  0.00    -0.452 OA
ENDROOT
BRANCH   1  12
ATOM     12  C   UNL     1      15.108  23.536  41.398  1.00  0.00     0.025 A 
ATOM     13  C   UNL     1      14.277  24.578  40.950  1.00  0.00     0.016 A 
ATOM     14  C   UNL     1      13.154  24.954  41.692  1.00  0.00     0.051 A 
ATOM     15  C   UNL     1      12.851  24.307  42.894  1.00  0.00     0.157 A 
ATOM     16  C   UNL     1      14.812  22.902  42.616  1.00  0.00     0.062 A 
ATOM     17  C   UNL     1      13.685  23.278  43.361  1.00  0.00     0.158 A 
BRANCH  15  18
ATOM     18  O   UNL     1      11.723  24.704  43.611  1.00  0.00    -0.504 OA
ATOM     19  H   UNL     1      11.715  25.539  44.185  1.00  0.00     0.293 HD
ENDBRANCH  15  18
BRANCH  17  20
ATOM     20  O   UNL     1      13.393  22.634  44.562  1.00  0.00    -0.504 OA
ATOM     21  H   UNL     1      12.718  21.880  44.611  1.00  0.00     0.293 HD
ENDBRANCH  17  20
ENDBRANCH   1  12
BRANCH   2  22
ATOM     22  O   UNL     1      16.207  25.106  39.219  1.00  0.00    -0.502 OA
ATOM     23  H   UNL     1      15.619  25.160  38.396  1.00  0.00     0.293 HD
ENDBRANCH   2  22
BRANCH   6  24
ATOM     24  O   UNL     1      20.409  22.455  37.679  1.00  0.00    -0.507 OA
ATOM     25  H   UNL     1      21.125  23.147  37.869  1.00  0.00     0.293 HD
ENDBRANCH   6  24
BRANCH   8  26
ATOM     26  O   UNL     1      20.208  18.582  40.575  1.00  0.00    -0.508 OA
ATOM     27  H   UNL     1      21.202  18.391  40.537  1.00  0.00     0.293 HD
ENDBRANCH   8  26
TORSDOF 6
ENDMDL
MODEL 4
REMARK VINA RESULT:    -7.392      1.568      6.955
REMARK INTER + INTRA:          -8.525
REMARK INTER:                  -8.977
REMARK INTRA:                   0.452
REMARK UNBOUND:                 0.380
REMARK SMILES O=c1c(O)c(-c2ccc(O)c(O)c2)oc2cc(O)cc(O)c12
REMARK SMILES IDX 5 1 3 2 2 3 1 4 22 5 20 6 19 7 17 8 16 9 15 10 14 11 6 12
REMARK SMILES IDX 7 13 8 14 9 15 13 16 11 17 10 18 12 20 4 22 21 24 18 26
REMARK H PARENT 10 19 12 21 4 23 21 25 18 27
REMARK Flexibility Score: inf
ROOT
ATOM      1  C   UNL     1      14.939  23.513  41.643  1.00  0.00     0.180 A 
ATOM      2  C   UNL     1      15.088  24.479  40.630  1.00  0.00     0.208 A 
ATOM      3  C   UNL     1      16.128  24.331  39.699  1.00  0.00     0.238 A 
ATOM      4  O   UNL     1      16.277  25.196  38.793  1.00  0.00    -0.285 OA
ATOM      5  C   UNL     1      16.986  23.216  39.784  1.00  0.00     0.111 A 
ATOM      6  C   UNL     1      18.055  22.991  38.884  1.00  0.00     0.134 A 
ATOM      7  C   UNL     1      18.859  21.850  39.030  1.00  0.00     0.093 A 
ATOM      8  C   UNL     1      18.614  20.932  40.057  1.00  0.00     0.123 A 
ATOM      9  C   UNL     1      17.562  21.150  40.947  1.00  0.00     0.094 A 
ATOM     10  C   UNL     1      16.750  22.281  40.819  1.00  0.00     0.146 A 
ATOM     11  O   UNL     1      15.759  22.466  41.683  1.00  0.00    -0.452 OA
ENDROOT
BRANCH   1  12
ATOM     12  C   UNL     1      13.880  23.608  42.673  1.00  0.00     0.025 A 
ATOM     13  C   UNL     1      12.867  24.581  42.594  1.00  0.00     0.016 A 
ATOM     14  C   UNL     1      11.891  24.667  43.590  1.00  0.00     0.051 A 
ATOM     15  C   UNL     1      11.917  23.796  44.683  1.00  0.00     0.157 A 
ATOM     16  C   UNL     1      13.915  22.749  43.783  1.00  0.00     0.062 A 
ATOM     17  C   UNL     1      12.935  22.833  44.783  1.00  0.00     0.158 A 
BRANCH  15  18
ATOM     18  O   UNL     1      10.929  23.905  45.661  1.00  0.00    -0.504 OA
ATOM     19  H   UNL     1      10.063  24.406  45.498  1.00  0.00     0.293 HD
ENDBRANCH  15  18
BRANCH  17  20
ATOM     20  O   UNL     1      12.972  21.966  45.874  1.00  0.00    -0.504 OA
ATOM     21  H   UNL     1      13.752  21.337  46.028  1.00  0.00     0.293 HD
ENDBRANCH  17  20
ENDBRANCH   1  12
BRANCH   2  22
ATOM     22  O   UNL     1      14.193  25.549  40.538  1.00  0.00    -0.502 OA
ATOM     23  H   UNL     1      13.304  25.472  40.059  1.00  0.00     0.293 HD
ENDBRANCH   2  22
BRANCH   6  24
ATOM     24  O   UNL     1      18.323  23.888  37.849  1.00  0.00    -0.507 OA
ATOM     25  H   UNL     1      18.655  24.828  38.031  1.00  0.00     0.293 HD
ENDBRANCH   6  24
BRANCH   8  26
ATOM     26  O   UNL     1      19.412  19.799  40.201  1.00  0.00    -0.508 OA
ATOM     27  H   UNL     1      19.024  18.865  40.137  1.00  0.00     0.293 HD
ENDBRANCH   8  26
TORSDOF 6
ENDMDL
MODEL 5
REMARK VINA RESULT:    -6.513      1.682      7.172
REMARK INTER + INTRA:          -7.466
REMARK INTER:                  -7.302
REMARK INTRA:                  -0.164
REMARK UNBOUND:                 0.380
REMARK SMILES O=c1c(O)c(-c2ccc(O)c(O)c2)oc2cc(O)cc(O)c12
REMARK SMILES IDX 5 1 3 2 2 3 1 4 22 5 20 6 19 7 17 8 16 9 15 10 14 11 6 12
REMARK SMILES IDX 7 13 8 14 9 15 13 16 11 17 10 18 12 20 4 22 21 24 18 26
REMARK H PARENT 10 19 12 21 4 23 21 25 18 27
REMARK Flexibility Score: inf
ROOT
ATOM      1  C   UNL     1      17.044  22.123  40.879  1.00  0.00     0.180 A 
ATOM      2  C   UNL     1      17.193  20.739  40.669  1.00  0.00     0.208 A 
ATOM      3  C   UNL     1      18.402  20.259  40.141  1.00  0.00     0.238 A 
ATOM      4  O   UNL     1      18.543  19.022  39.940  1.00  0.00    -0.285 OA
ATOM      5  C   UNL     1      19.442  21.165  39.849  1.00  0.00     0.111 A 
ATOM      6  C   UNL     1      20.692  20.763  39.318  1.00  0.00     0.134 A 
ATOM      7  C   UNL     1      21.681  21.724  39.064  1.00  0.00     0.093 A 
ATOM      8  C   UNL     1      21.445  23.078  39.331  1.00  0.00     0.123 A 
ATOM      9  C   UNL     1      20.215  23.479  39.854  1.00  0.00     0.094 A 
ATOM     10  C   UNL     1      19.216  22.536  40.113  1.00  0.00     0.146 A 
ATOM     11  O   UNL     1      18.052  22.945  40.605  1.00  0.00    -0.452 OA
ENDROOT
BRANCH   1  12
ATOM     12  C   UNL     1      15.793  22.708  41.414  1.00  0.00     0.025 A 
ATOM     13  C   UNL     1      15.013  23.593  40.649  1.00  0.00     0.016 A 
ATOM     14  C   UNL     1      13.848  24.151  41.184  1.00  0.00     0.051 A 
ATOM     15  C   UNL     1      13.454  23.846  42.491  1.00  0.00     0.157 A 
ATOM     16  C   UNL     1      15.405  22.421  42.733  1.00  0.00     0.062 A 
ATOM     17  C   UNL     1      14.236  22.979  43.271  1.00  0.00     0.158 A 
BRANCH  15  18
ATOM     18  O   UNL     1      12.286  24.417  42.997  1.00  0.00    -0.504 OA
ATOM     19  H   UNL     1      11.565  23.862  43.442  1.00  0.00     0.293 HD
ENDBRANCH  15  18
BRANCH  17  20
ATOM     20  O   UNL     1      13.853  22.676  44.577  1.00  0.00    -0.504 OA
ATOM     21  H   UNL     1      14.466  22.172  45.207  1.00  0.00     0.293 HD
ENDBRANCH  17  20
ENDBRANCH   1  12
BRANCH   2  22
ATOM     22  O   UNL     1      16.164  19.858  41.013  1.00  0.00    -0.502 OA
ATOM     23  H   UNL     1      15.726  19.866  41.927  1.00  0.00     0.293 HD
ENDBRANCH   2  22
BRANCH   6  24
ATOM     24  O   UNL     1      20.957  19.421  39.043  1.00  0.00    -0.507 OA
ATOM     25  H   UNL     1      21.756  18.942  39.444  1.00  0.00     0.293 HD
ENDBRANCH   6  24
BRANCH   8  26
ATOM     26  O   UNL     1      22.428  24.032  39.079  1.00  0.00    -0.508 OA
ATOM     27  H   UNL     1      22.293  24.764  38.392  1.00  0.00     0.293 HD
ENDBRANCH   8  26
TORSDOF 6
ENDMDL
MODEL 6
REMARK VINA RESULT:    -6.390      1.571      2.358
REMARK INTER + INTRA:          -7.317
REMARK INTER:                  -7.675
REMARK INTRA:                   0.358
REMARK UNBOUND:                 0.380
REMARK SMILES O=c1c(O)c(-c2ccc(O)c(O)c2)oc2cc(O)cc(O)c12
REMARK SMILES IDX 5 1 3 2 2 3 1 4 22 5 20 6 19 7 17 8 16 9 15 10 14 11 6 12
REMARK SMILES IDX 7 13 8 14 9 15 13 16 11 17 10 18 12 20 4 22 21 24 18 26
REMARK H PARENT 10 19 12 21 4 23 21 25 18 27
REMARK Flexibility Score: inf
ROOT
ATOM      1  C   UNL     1      16.275  22.461  41.040  1.00  0.00     0.180 A 
ATOM      2  C   UNL     1      15.952  23.537  40.191  1.00  0.00     0.208 A 
ATOM      3  C   UNL     1      14.917  24.408  40.564  1.00  0.00     0.238 A 
ATOM      4  O   UNL     1      14.613  25.370  39.806  1.00  0.00    -0.285 OA
ATOM      5  C   UNL     1      14.238  24.203  41.782  1.00  0.00     0.111 A 
ATOM      6  C   UNL     1      13.186  25.037  42.233  1.00  0.00     0.134 A 
ATOM      7  C   UNL     1      12.566  24.771  43.463  1.00  0.00     0.093 A 
ATOM      8  C   UNL     1      12.977  23.690  44.250  1.00  0.00     0.123 A 
ATOM      9  C   UNL     1      14.013  22.864  43.809  1.00  0.00     0.094 A 
ATOM     10  C   UNL     1      14.642  23.111  42.586  1.00  0.00     0.146 A 
ATOM     11  O   UNL     1      15.621  22.307  42.188  1.00  0.00    -0.452 OA
ENDROOT
BRANCH   1  12
ATOM     12  C   UNL     1      17.340  21.488  40.708  1.00  0.00     0.025 A 
ATOM     13  C   UNL     1      18.376  21.813  39.815  1.00  0.00     0.016 A 
ATOM     14  C   UNL     1      19.357  20.870  39.498  1.00  0.00     0.051 A 
ATOM     15  C   UNL     1      19.313  19.588  40.057  1.00  0.00     0.157 A 
ATOM     16  C   UNL     1      17.287  20.193  41.250  1.00  0.00     0.062 A 
ATOM     17  C   UNL     1      18.272  19.246  40.935  1.00  0.00     0.158 A 
BRANCH  15  18
ATOM     18  O   UNL     1      20.308  18.669  39.723  1.00  0.00    -0.504 OA
ATOM     19  H   UNL     1      20.129  17.673  39.683  1.00  0.00     0.293 HD
ENDBRANCH  15  18
BRANCH  17  20
ATOM     20  O   UNL     1      18.218  17.968  41.489  1.00  0.00    -0.504 OA
ATOM     21  H   UNL     1      19.002  17.329  41.429  1.00  0.00     0.293 HD
ENDBRANCH  17  20
ENDBRANCH   1  12
BRANCH   2  22
ATOM     22  O   UNL     1      16.674  23.747  39.013  1.00  0.00    -0.502 OA
ATOM     23  H   UNL     1      17.666  23.958  39.015  1.00  0.00     0.293 HD
ENDBRANCH   2  22
BRANCH   6  24
ATOM     24  O   UNL     1      12.755  26.124  41.471  1.00  0.00    -0.507 OA
ATOM     25  H   UNL     1      13.189  27.036  41.550  1.00  0.00     0.293 HD
ENDBRANCH   6  24
BRANCH   8  26
ATOM     26  O   UNL     1      12.362  23.427  45.471  1.00  0.00    -0.508 OA
ATOM     27  H   UNL     1      12.676  23.865  46.329  1.00  0.00     0.293 HD
ENDBRANCH   8  26
TORSDOF 6
ENDMDL
MODEL 7
REMARK VINA RESULT:    -5.746     14.906     17.985
REMARK INTER + INTRA:          -6.541
REMARK INTER:                  -6.235
REMARK INTRA:                  -0.307
REMARK UNBOUND:                 0.380
REMARK SMILES O=c1c(O)c(-c2ccc(O)c(O)c2)oc2cc(O)cc(O)c12
REMARK SMILES IDX 5 1 3 2 2 3 1 4 22 5 20 6 19 7 17 8 16 9 15 10 14 11 6 12
REMARK SMILES IDX 7 13 8 14 9 15 13 16 11 17 10 18 12 20 4 22 21 24 18 26
REMARK H PARENT 10 19 12 21 4 23 21 25 18 27
REMARK Flexibility Score: inf
ROOT
ATOM      1  C   UNL     1      29.807  11.467  37.601  1.00  0.00     0.180 A 
ATOM      2  C   UNL     1      29.944  10.092  37.327  1.00  0.00     0.208 A 
ATOM      3  C   UNL     1      30.327   9.229  38.365  1.00  0.00     0.238 A 
ATOM      4  O   UNL     1      30.463   7.997  38.129  1.00  0.00    -0.285 OA
ATOM      5  C   UNL     1      30.548   9.748  39.658  1.00  0.00     0.111 A 
ATOM      6  C   UNL     1      30.932   8.945  40.759  1.00  0.00     0.134 A 
ATOM      7  C   UNL     1      31.123   9.536  42.017  1.00  0.00     0.093 A 
ATOM      8  C   UNL     1      30.935  10.912  42.194  1.00  0.00     0.123 A 
ATOM      9  C   UNL     1      30.557  11.707  41.111  1.00  0.00     0.094 A 
ATOM     10  C   UNL     1      30.364  11.137  39.850  1.00  0.00     0.146 A 
ATOM     11  O   UNL     1      30.009  11.918  38.835  1.00  0.00    -0.452 OA
ENDROOT
BRANCH   1  12
ATOM     12  C   UNL     1      29.425  12.443  36.556  1.00  0.00     0.025 A 
ATOM     13  C   UNL     1      30.390  13.230  35.901  1.00  0.00     0.016 A 
ATOM     14  C   UNL     1      30.003  14.162  34.934  1.00  0.00     0.051 A 
ATOM     15  C   UNL     1      28.653  14.332  34.616  1.00  0.00     0.157 A 
ATOM     16  C   UNL     1      28.068  12.633  36.248  1.00  0.00     0.062 A 
ATOM     17  C   UNL     1      27.678  13.566  35.277  1.00  0.00     0.158 A 
BRANCH  15  18
ATOM     18  O   UNL     1      28.298  15.269  33.645  1.00  0.00    -0.504 OA
ATOM     19  H   UNL     1      28.468  15.114  32.659  1.00  0.00     0.293 HD
ENDBRANCH  15  18
BRANCH  17  20
ATOM     20  O   UNL     1      26.329  13.737  34.971  1.00  0.00    -0.504 OA
ATOM     21  H   UNL     1      25.618  13.113  35.335  1.00  0.00     0.293 HD
ENDBRANCH  17  20
ENDBRANCH   1  12
BRANCH   2  22
ATOM     22  O   UNL     1      29.672   9.597  36.049  1.00  0.00    -0.502 OA
ATOM     23  H   UNL     1      28.727   9.423  35.725  1.00  0.00     0.293 HD
ENDBRANCH   2  22
BRANCH   6  24
ATOM     24  O   UNL     1      31.125   7.571  40.614  1.00  0.00    -0.507 OA
ATOM     25  H   UNL     1      30.688   7.048  39.863  1.00  0.00     0.293 HD
ENDBRANCH   6  24
BRANCH   8  26
ATOM     26  O   UNL     1      31.124  11.498  43.444  1.00  0.00    -0.508 OA
ATOM     27  H   UNL     1      30.468  11.354  44.202  1.00  0.00     0.293 HD
ENDBRANCH   8  26
TORSDOF 6
ENDMDL
MODEL 8
REMARK VINA RESULT:    -5.725     14.850     18.156
REMARK INTER + INTRA:          -6.516
REMARK INTER:                  -6.225
REMARK INTRA:                  -0.290
REMARK UNBOUND:                 0.380
REMARK SMILES O=c1c(O)c(-c2ccc(O)c(O)c2)oc2cc(O)cc(O)c12
REMARK SMILES IDX 5 1 3 2 2 3 1 4 22 5 20 6 19 7 17 8 16 9 15 10 14 11 6 12
REMARK SMILES IDX 7 13 8 14 9 15 13 16 11 17 10 18 12 20 4 22 21 24 18 26
REMARK H PARENT 10 19 12 21 4 23 21 25 18 27
REMARK Flexibility Score: inf
ROOT
ATOM      1  C   UNL     1      29.791  11.781  37.386  1.00  0.00     0.180 A 
ATOM      2  C   UNL     1      30.135  12.235  38.674  1.00  0.00     0.208 A 
ATOM      3  C   UNL     1      30.465  11.293  39.660  1.00  0.00     0.238 A 
ATOM      4  O   UNL     1      30.765  11.689  40.820  1.00  0.00    -0.285 OA
ATOM      5  C   UNL     1      30.465   9.920  39.340  1.00  0.00     0.111 A 
ATOM      6  C   UNL     1      30.790   8.907  40.275  1.00  0.00     0.134 A 
ATOM      7  C   UNL     1      30.776   7.563  39.876  1.00  0.00     0.093 A 
ATOM      8  C   UNL     1      30.446   7.212  38.562  1.00  0.00     0.123 A 
ATOM      9  C   UNL     1      30.125   8.207  37.637  1.00  0.00     0.094 A 
ATOM     10  C   UNL     1      30.131   9.552  38.016  1.00  0.00     0.146 A 
ATOM     11  O   UNL     1      29.816  10.478  37.117  1.00  0.00    -0.452 OA
ENDROOT
BRANCH   1  12
ATOM     12  C   UNL     1      29.413  12.710  36.298  1.00  0.00     0.025 A 
ATOM     13  C   UNL     1      30.383  13.435  35.584  1.00  0.00     0.016 A 
ATOM     14  C   UNL     1      30.000  14.325  34.576  1.00  0.00     0.051 A 
ATOM     15  C   UNL     1      28.647  14.513  34.275  1.00  0.00     0.157 A 
ATOM     16  C   UNL     1      28.054  12.917  36.007  1.00  0.00     0.062 A 
ATOM     17  C   UNL     1      27.668  13.808  34.995  1.00  0.00     0.158 A 
BRANCH  15  18
ATOM     18  O   UNL     1      28.296  15.406  33.263  1.00  0.00    -0.504 OA
ATOM     19  H   UNL     1      27.543  16.075  33.372  1.00  0.00     0.293 HD
ENDBRANCH  15  18
BRANCH  17  20
ATOM     20  O   UNL     1      26.318  13.996  34.706  1.00  0.00    -0.504 OA
ATOM     21  H   UNL     1      26.016  14.492  33.874  1.00  0.00     0.293 HD
ENDBRANCH  17  20
ENDBRANCH   1  12
BRANCH   2  22
ATOM     22  O   UNL     1      30.175  13.605  38.951  1.00  0.00    -0.502 OA
ATOM     23  H   UNL     1      29.944  13.980  39.864  1.00  0.00     0.293 HD
ENDBRANCH   2  22
BRANCH   6  24
ATOM     24  O   UNL     1      31.125   9.226  41.591  1.00  0.00    -0.507 OA
ATOM     25  H   UNL     1      31.374  10.170  41.865  1.00  0.00     0.293 HD
ENDBRANCH   6  24
BRANCH   8  26
ATOM     26  O   UNL     1      30.433   5.877  38.166  1.00  0.00    -0.508 OA
ATOM     27  H   UNL     1      30.242   5.130  38.824  1.00  0.00     0.293 HD
ENDBRANCH   8  26
TORSDOF 6
ENDMDL
