MODEL 1
REMARK VINA RESULT:    -5.797      0.000      0.000
REMARK INTER + INTRA:         -14.721
REMARK INTER:                 -12.575
REMARK INTRA:                  -2.146
REMARK UNBOUND:                -2.146
REMARK SMILES CCCCCCCCCCCCCCCCCCCCCC(=O)[O-]
REMARK SMILES IDX 12 1 11 2 10 3 9 4 8 5 7 6 6 7 5 8 4 9 3 10 2 11 1 12 13 13
REMARK SMILES IDX 14 14 15 15 16 16 17 17 18 18 19 19 20 20 21 21 22 22 23 23
REMARK SMILES IDX 24 24
REMARK H PARENT
REMARK Flexibility Score: inf
ROOT
ATOM      1  C   UNL     1      89.938 325.490 201.257  1.00  0.00     0.000 C 
ENDROOT
BRANCH   1   2
ATOM      2  C   UNL     1      88.782 325.990 200.372  1.00  0.00     0.000 C 
BRANCH   2   3
ATOM      3  C   UNL     1      89.279 326.698 199.101  1.00  0.00     0.000 C 
BRANCH   3   4
ATOM      4  C   UNL     1      88.331 326.500 197.903  1.00  0.00    -0.000 C 
BRANCH   4   5
ATOM      5  C   UNL     1      88.430 325.089 197.302  1.00  0.00    -0.000 C 
BRANCH   5   6
ATOM      6  C   UNL     1      88.959 325.101 195.856  1.00  0.00    -0.000 C 
BRANCH   6   7
ATOM      7  C   UNL     1      88.882 326.492 195.205  1.00  0.00    -0.000 C 
BRANCH   7   8
ATOM      8  C   UNL     1      87.917 326.597 194.007  1.00  0.00    -0.000 C 
BRANCH   8   9
ATOM      9  C   UNL     1      86.593 325.828 194.171  1.00  0.00    -0.000 C 
BRANCH   9  10
ATOM     10  C   UNL     1      86.397 324.741 193.098  1.00  0.00    -0.000 C 
BRANCH  10  11
ATOM     11  C   UNL     1      87.695 324.420 192.343  1.00  0.00    -0.003 C 
ATOM     12  C   UNL     1      88.309 323.085 192.764  1.00  0.00     0.004 C 
ENDBRANCH  10  11
ENDBRANCH   9  10
ENDBRANCH   8   9
ENDBRANCH   7   8
ENDBRANCH   6   7
ENDBRANCH   5   6
ENDBRANCH   4   5
ENDBRANCH   3   4
ENDBRANCH   2   3
ENDBRANCH   1   2
BRANCH   1  13
ATOM     13  C   UNL     1      90.352 326.515 202.326  1.00  0.00     0.000 C 
BRANCH  13  14
ATOM     14  C   UNL     1      89.215 326.841 203.311  1.00  0.00     0.000 C 
BRANCH  14  15
ATOM     15  C   UNL     1      89.745 327.279 204.695  1.00  0.00     0.000 C 
BRANCH  15  16
ATOM     16  C   UNL     1      88.861 326.819 205.870  1.00  0.00     0.000 C 
BRANCH  16  17
ATOM     17  C   UNL     1      88.512 325.318 205.871  1.00  0.00     0.000 C 
BRANCH  17  18
ATOM     18  C   UNL     1      87.008 325.000 206.000  1.00  0.00     0.000 C 
BRANCH  18  19
ATOM     19  C   UNL     1      86.477 323.922 205.032  1.00  0.00     0.000 C 
BRANCH  19  20
ATOM     20  C   UNL     1      87.253 323.793 203.710  1.00  0.00     0.006 C 
BRANCH  20  21
ATOM     21  C   UNL     1      86.335 323.768 202.481  1.00  0.00     0.053 C 
BRANCH  21  22
ATOM     22  C   UNL     1      86.631 322.573 201.632  1.00  0.00     0.041 C 
ATOM     23  O   UNL     1      87.462 322.655 200.687  1.00  0.00    -0.550 OA
ATOM     24  O   UNL     1      86.023 321.354 201.912  1.00  0.00    -0.550 OA
ENDBRANCH  21  22
ENDBRANCH  20  21
ENDBRANCH  19  20
ENDBRANCH  18  19
ENDBRANCH  17  18
ENDBRANCH  16  17
ENDBRANCH  15  16
ENDBRANCH  14  15
ENDBRANCH  13  14
ENDBRANCH   1  13
TORSDOF 20
ENDMDL
MODEL 2
REMARK VINA RESULT:    -5.788      2.115      3.724
REMARK INTER + INTRA:         -14.701
REMARK INTER:                 -12.413
REMARK INTRA:                  -2.288
REMARK UNBOUND:                -2.146
REMARK SMILES CCCCCCCCCCCCCCCCCCCCCC(=O)[O-]
REMARK SMILES IDX 12 1 11 2 10 3 9 4 8 5 7 6 6 7 5 8 4 9 3 10 2 11 1 12 13 13
REMARK SMILES IDX 14 14 15 15 16 16 17 17 18 18 19 19 20 20 21 21 22 22 23 23
REMARK SMILES IDX 24 24
REMARK H PARENT
REMARK Flexibility Score: inf
ROOT
ATOM      1  C   UNL     1      89.052 325.665 198.948  1.00  0.00     0.000 C 
ENDROOT
BRANCH   1   2
ATOM      2  C   UNL     1      88.530 326.716 197.952  1.00  0.00     0.000 C 
BRANCH   2   3
ATOM      3  C   UNL     1      88.088 326.093 196.618  1.00  0.00     0.000 C 
BRANCH   3   4
ATOM      4  C   UNL     1      89.044 326.432 195.459  1.00  0.00    -0.000 C 
BRANCH   4   5
ATOM      5  C   UNL     1      88.297 326.731 194.149  1.00  0.00    -0.000 C 
BRANCH   5   6
ATOM      6  C   UNL     1      86.845 326.221 194.169  1.00  0.00    -0.000 C 
BRANCH   6   7
ATOM      7  C   UNL     1      86.633 324.992 193.269  1.00  0.00    -0.000 C 
BRANCH   7   8
ATOM      8  C   UNL     1      87.929 324.344 192.739  1.00  0.00    -0.000 C 
BRANCH   8   9
ATOM      9  C   UNL     1      88.371 323.072 193.485  1.00  0.00    -0.000 C 
BRANCH   9  10
ATOM     10  C   UNL     1      87.386 322.657 194.593  1.00  0.00    -0.000 C 
BRANCH  10  11
ATOM     11  C   UNL     1      88.094 322.316 195.913  1.00  0.00    -0.003 C 
ATOM     12  C   UNL     1      89.539 322.811 195.952  1.00  0.00     0.004 C 
ENDBRANCH  10  11
ENDBRANCH   9  10
ENDBRANCH   8   9
ENDBRANCH   7   8
ENDBRANCH   6   7
ENDBRANCH   5   6
ENDBRANCH   4   5
ENDBRANCH   3   4
ENDBRANCH   2   3
ENDBRANCH   1   2
BRANCH   1  13
ATOM     13  C   UNL     1      89.501 326.285 200.282  1.00  0.00     0.000 C 
BRANCH  13  14
ATOM     14  C   UNL     1      88.486 326.056 201.417  1.00  0.00     0.000 C 
BRANCH  14  15
ATOM     15  C   UNL     1      88.528 324.608 201.957  1.00  0.00     0.000 C 
BRANCH  15  16
ATOM     16  C   UNL     1      87.292 324.224 202.794  1.00  0.00     0.000 C 
BRANCH  16  17
ATOM     17  C   UNL     1      87.592 323.363 204.035  1.00  0.00     0.000 C 
BRANCH  17  18
ATOM     18  C   UNL     1      86.573 323.504 205.186  1.00  0.00     0.000 C 
BRANCH  18  19
ATOM     19  C   UNL     1      86.661 324.820 205.986  1.00  0.00     0.000 C 
BRANCH  19  20
ATOM     20  C   UNL     1      88.000 325.058 206.706  1.00  0.00     0.006 C 
BRANCH  20  21
ATOM     21  C   UNL     1      88.541 326.479 206.504  1.00  0.00     0.053 C 
BRANCH  21  22
ATOM     22  C   UNL     1      89.335 326.560 205.238  1.00  0.00     0.041 C 
ATOM     23  O   UNL     1      89.229 327.566 204.485  1.00  0.00    -0.550 OA
ATOM     24  O   UNL     1      90.227 325.544 204.912  1.00  0.00    -0.550 OA
ENDBRANCH  21  22
ENDBRANCH  20  21
ENDBRANCH  19  20
ENDBRANCH  18  19
ENDBRANCH  17  18
ENDBRANCH  16  17
ENDBRANCH  15  16
ENDBRANCH  14  15
ENDBRANCH  13  14
ENDBRANCH   1  13
TORSDOF 20
ENDMDL
MODEL 3
REMARK VINA RESULT:    -5.752      1.121      2.125
REMARK INTER + INTRA:         -14.623
REMARK INTER:                 -12.704
REMARK INTRA:                  -1.919
REMARK UNBOUND:                -2.146
REMARK SMILES CCCCCCCCCCCCCCCCCCCCCC(=O)[O-]
REMARK SMILES IDX 12 1 11 2 10 3 9 4 8 5 7 6 6 7 5 8 4 9 3 10 2 11 1 12 13 13
REMARK SMILES IDX 14 14 15 15 16 16 17 17 18 18 19 19 20 20 21 21 22 22 23 23
REMARK SMILES IDX 24 24
REMARK H PARENT
REMARK Flexibility Score: inf
ROOT
ATOM      1  C   UNL     1      89.888 325.064 199.620  1.00  0.00     0.000 C 
ENDROOT
BRANCH   1   2
ATOM      2  C   UNL     1      88.644 324.458 198.944  1.00  0.00     0.000 C 
BRANCH   2   3
ATOM      3  C   UNL     1      88.696 324.568 197.411  1.00  0.00     0.000 C 
BRANCH   3   4
ATOM      4  C   UNL     1      88.168 325.920 196.896  1.00  0.00    -0.000 C 
BRANCH   4   5
ATOM      5  C   UNL     1      88.936 326.419 195.662  1.00  0.00    -0.000 C 
BRANCH   5   6
ATOM      6  C   UNL     1      88.003 326.776 194.491  1.00  0.00    -0.000 C 
BRANCH   6   7
ATOM      7  C   UNL     1      86.570 326.253 194.691  1.00  0.00    -0.000 C 
BRANCH   7   8
ATOM      8  C   UNL     1      86.138 325.150 193.705  1.00  0.00    -0.000 C 
BRANCH   8   9
ATOM      9  C   UNL     1      86.730 323.757 193.987  1.00  0.00    -0.000 C 
BRANCH   9  10
ATOM     10  C   UNL     1      87.988 323.462 193.150  1.00  0.00    -0.000 C 
BRANCH  10  11
ATOM     11  C   UNL     1      88.054 324.307 191.870  1.00  0.00    -0.003 C 
ATOM     12  C   UNL     1      88.001 323.460 190.599  1.00  0.00     0.004 C 
ENDBRANCH  10  11
ENDBRANCH   9  10
ENDBRANCH   8   9
ENDBRANCH   7   8
ENDBRANCH   6   7
ENDBRANCH   5   6
ENDBRANCH   4   5
ENDBRANCH   3   4
ENDBRANCH   2   3
ENDBRANCH   1   2
BRANCH   1  13
ATOM     13  C   UNL     1      89.605 326.431 200.263  1.00  0.00     0.000 C 
BRANCH  13  14
ATOM     14  C   UNL     1      88.684 326.332 201.493  1.00  0.00     0.000 C 
BRANCH  14  15
ATOM     15  C   UNL     1      89.479 326.237 202.815  1.00  0.00     0.000 C 
BRANCH  15  16
ATOM     16  C   UNL     1      89.246 327.429 203.764  1.00  0.00     0.000 C 
BRANCH  16  17
ATOM     17  C   UNL     1      89.202 327.066 205.261  1.00  0.00     0.000 C 
BRANCH  17  18
ATOM     18  C   UNL     1      88.849 325.595 205.563  1.00  0.00     0.000 C 
BRANCH  18  19
ATOM     19  C   UNL     1      87.429 325.358 206.118  1.00  0.00     0.000 C 
BRANCH  19  20
ATOM     20  C   UNL     1      86.609 324.287 205.377  1.00  0.00     0.006 C 
BRANCH  20  21
ATOM     21  C   UNL     1      87.488 323.287 204.614  1.00  0.00     0.053 C 
BRANCH  21  22
ATOM     22  C   UNL     1      86.818 322.865 203.345  1.00  0.00     0.041 C 
ATOM     23  O   UNL     1      86.643 321.642 203.096  1.00  0.00    -0.550 OA
ATOM     24  O   UNL     1      86.346 323.825 202.456  1.00  0.00    -0.550 OA
ENDBRANCH  21  22
ENDBRANCH  20  21
ENDBRANCH  19  20
ENDBRANCH  18  19
ENDBRANCH  17  18
ENDBRANCH  16  17
ENDBRANCH  15  16
ENDBRANCH  14  15
ENDBRANCH  13  14
ENDBRANCH   1  13
TORSDOF 20
ENDMDL
MODEL 4
REMARK VINA RESULT:    -5.739      3.816     10.337
REMARK INTER + INTRA:         -14.596
REMARK INTER:                 -13.225
REMARK INTRA:                  -1.371
REMARK UNBOUND:                -2.146
REMARK SMILES CCCCCCCCCCCCCCCCCCCCCC(=O)[O-]
REMARK SMILES IDX 12 1 11 2 10 3 9 4 8 5 7 6 6 7 5 8 4 9 3 10 2 11 1 12 13 13
REMARK SMILES IDX 14 14 15 15 16 16 17 17 18 18 19 19 20 20 21 21 22 22 23 23
REMARK SMILES IDX 24 24
REMARK H PARENT
REMARK Flexibility Score: inf
ROOT
ATOM      1  C   UNL     1      88.950 324.676 198.544  1.00  0.00     0.000 C 
ENDROOT
BRANCH   1   2
ATOM      2  C   UNL     1      88.936 326.140 199.022  1.00  0.00     0.000 C 
BRANCH   2   3
ATOM      3  C   UNL     1      89.303 326.276 200.509  1.00  0.00     0.000 C 
BRANCH   3   4
ATOM      4  C   UNL     1      90.730 325.786 200.816  1.00  0.00    -0.000 C 
BRANCH   4   5
ATOM      5  C   UNL     1      91.523 326.784 201.673  1.00  0.00    -0.000 C 
BRANCH   5   6
ATOM      6  C   UNL     1      91.394 326.500 203.180  1.00  0.00    -0.000 C 
BRANCH   6   7
ATOM      7  C   UNL     1      90.731 327.656 203.949  1.00  0.00    -0.000 C 
BRANCH   7   8
ATOM      8  C   UNL     1      89.219 327.488 204.198  1.00  0.00    -0.000 C 
BRANCH   8   9
ATOM      9  C   UNL     1      88.811 326.152 204.845  1.00  0.00    -0.000 C 
BRANCH   9  10
ATOM     10  C   UNL     1      88.710 326.237 206.378  1.00  0.00    -0.000 C 
BRANCH  10  11
ATOM     11  C   UNL     1      87.336 325.795 206.903  1.00  0.00    -0.003 C 
ATOM     12  C   UNL     1      86.650 324.785 205.983  1.00  0.00     0.004 C 
ENDBRANCH  10  11
ENDBRANCH   9  10
ENDBRANCH   8   9
ENDBRANCH   7   8
ENDBRANCH   6   7
ENDBRANCH   5   6
ENDBRANCH   4   5
ENDBRANCH   3   4
ENDBRANCH   2   3
ENDBRANCH   1   2
BRANCH   1  13
ATOM     13  C   UNL     1      88.576 324.534 197.060  1.00  0.00     0.000 C 
BRANCH  13  14
ATOM     14  C   UNL     1      87.985 325.827 196.468  1.00  0.00     0.000 C 
BRANCH  14  15
ATOM     15  C   UNL     1      88.887 326.435 195.370  1.00  0.00     0.000 C 
BRANCH  15  16
ATOM     16  C   UNL     1      88.167 326.644 194.024  1.00  0.00     0.000 C 
BRANCH  16  17
ATOM     17  C   UNL     1      86.758 326.027 193.939  1.00  0.00     0.000 C 
BRANCH  17  18
ATOM     18  C   UNL     1      86.669 324.717 193.128  1.00  0.00     0.000 C 
BRANCH  18  19
ATOM     19  C   UNL     1      87.991 324.250 192.483  1.00  0.00     0.000 C 
BRANCH  19  20
ATOM     20  C   UNL     1      87.899 323.901 190.987  1.00  0.00     0.006 C 
BRANCH  20  21
ATOM     21  C   UNL     1      88.592 322.576 190.642  1.00  0.00     0.053 C 
BRANCH  21  22
ATOM     22  C   UNL     1      87.999 321.984 189.403  1.00  0.00     0.041 C 
ATOM     23  O   UNL     1      88.736 321.406 188.560  1.00  0.00    -0.550 OA
ATOM     24  O   UNL     1      86.624 322.030 189.200  1.00  0.00    -0.550 OA
ENDBRANCH  21  22
ENDBRANCH  20  21
ENDBRANCH  19  20
ENDBRANCH  18  19
ENDBRANCH  17  18
ENDBRANCH  16  17
ENDBRANCH  15  16
ENDBRANCH  14  15
ENDBRANCH  13  14
ENDBRANCH   1  13
TORSDOF 20
ENDMDL
MODEL 5
REMARK VINA RESULT:    -5.713      1.722      2.960
REMARK INTER + INTRA:         -14.539
REMARK INTER:                 -13.315
REMARK INTRA:                  -1.225
REMARK UNBOUND:                -2.146
REMARK SMILES CCCCCCCCCCCCCCCCCCCCCC(=O)[O-]
REMARK SMILES IDX 12 1 11 2 10 3 9 4 8 5 7 6 6 7 5 8 4 9 3 10 2 11 1 12 13 13
REMARK SMILES IDX 14 14 15 15 16 16 17 17 18 18 19 19 20 20 21 21 22 22 23 23
REMARK SMILES IDX 24 24
REMARK H PARENT
REMARK Flexibility Score: inf
ROOT
ATOM      1  C   UNL     1      88.897 325.679 199.226  1.00  0.00     0.000 C 
ENDROOT
BRANCH   1   2
ATOM      2  C   UNL     1      88.503 326.538 198.011  1.00  0.00     0.000 C 
BRANCH   2   3
ATOM      3  C   UNL     1      88.386 325.711 196.720  1.00  0.00     0.000 C 
BRANCH   3   4
ATOM      4  C   UNL     1      88.992 326.427 195.500  1.00  0.00    -0.000 C 
BRANCH   4   5
ATOM      5  C   UNL     1      87.995 326.556 194.338  1.00  0.00    -0.000 C 
BRANCH   5   6
ATOM      6  C   UNL     1      86.926 325.448 194.353  1.00  0.00    -0.000 C 
BRANCH   6   7
ATOM      7  C   UNL     1      86.713 324.808 192.970  1.00  0.00    -0.000 C 
BRANCH   7   8
ATOM      8  C   UNL     1      88.003 324.562 192.162  1.00  0.00    -0.000 C 
BRANCH   8   9
ATOM      9  C   UNL     1      87.999 323.283 191.305  1.00  0.00    -0.000 C 
BRANCH   9  10
ATOM     10  C   UNL     1      88.435 323.537 189.851  1.00  0.00    -0.000 C 
BRANCH  10  11
ATOM     11  C   UNL     1      88.782 322.240 189.106  1.00  0.00    -0.003 C 
ATOM     12  C   UNL     1      90.181 321.723 189.441  1.00  0.00     0.004 C 
ENDBRANCH  10  11
ENDBRANCH   9  10
ENDBRANCH   8   9
ENDBRANCH   7   8
ENDBRANCH   6   7
ENDBRANCH   5   6
ENDBRANCH   4   5
ENDBRANCH   3   4
ENDBRANCH   2   3
ENDBRANCH   1   2
BRANCH   1  13
ATOM     13  C   UNL     1      89.585 326.498 200.332  1.00  0.00     0.000 C 
BRANCH  13  14
ATOM     14  C   UNL     1      88.931 326.303 201.711  1.00  0.00     0.000 C 
BRANCH  14  15
ATOM     15  C   UNL     1      89.798 326.871 202.857  1.00  0.00     0.000 C 
BRANCH  15  16
ATOM     16  C   UNL     1      89.013 327.123 204.160  1.00  0.00     0.000 C 
BRANCH  16  17
ATOM     17  C   UNL     1      89.866 327.106 205.443  1.00  0.00     0.000 C 
BRANCH  17  18
ATOM     18  C   UNL     1      89.169 326.500 206.679  1.00  0.00     0.000 C 
BRANCH  18  19
ATOM     19  C   UNL     1      87.685 326.128 206.483  1.00  0.00     0.000 C 
BRANCH  19  20
ATOM     20  C   UNL     1      87.398 324.619 206.385  1.00  0.00     0.006 C 
BRANCH  20  21
ATOM     21  C   UNL     1      86.449 324.267 205.232  1.00  0.00     0.053 C 
BRANCH  21  22
ATOM     22  C   UNL     1      87.220 323.736 204.065  1.00  0.00     0.041 C 
ATOM     23  O   UNL     1      86.619 323.381 203.015  1.00  0.00    -0.550 OA
ATOM     24  O   UNL     1      88.608 323.674 204.119  1.00  0.00    -0.550 OA
ENDBRANCH  21  22
ENDBRANCH  20  21
ENDBRANCH  19  20
ENDBRANCH  18  19
ENDBRANCH  17  18
ENDBRANCH  16  17
ENDBRANCH  15  16
ENDBRANCH  14  15
ENDBRANCH  13  14
ENDBRANCH   1  13
TORSDOF 20
ENDMDL
MODEL 6
REMARK VINA RESULT:    -5.698      3.024      9.748
REMARK INTER + INTRA:         -14.507
REMARK INTER:                 -13.110
REMARK INTRA:                  -1.397
REMARK UNBOUND:                -2.146
REMARK SMILES CCCCCCCCCCCCCCCCCCCCCC(=O)[O-]
REMARK SMILES IDX 12 1 11 2 10 3 9 4 8 5 7 6 6 7 5 8 4 9 3 10 2 11 1 12 13 13
REMARK SMILES IDX 14 14 15 15 16 16 17 17 18 18 19 19 20 20 21 21 22 22 23 23
REMARK SMILES IDX 24 24
REMARK H PARENT
REMARK Flexibility Score: inf
ROOT
ATOM      1  C   UNL     1      88.882 326.122 200.632  1.00  0.00     0.000 C 
ENDROOT
BRANCH   1   2
ATOM      2  C   UNL     1      90.102 326.423 201.520  1.00  0.00     0.000 C 
BRANCH   2   3
ATOM      3  C   UNL     1      89.703 326.922 202.919  1.00  0.00     0.000 C 
BRANCH   3   4
ATOM      4  C   UNL     1      90.906 327.435 203.732  1.00  0.00    -0.000 C 
BRANCH   4   5
ATOM      5  C   UNL     1      90.710 327.259 205.246  1.00  0.00    -0.000 C 
BRANCH   5   6
ATOM      6  C   UNL     1      89.228 327.312 205.659  1.00  0.00    -0.000 C 
BRANCH   6   7
ATOM      7  C   UNL     1      88.896 326.345 206.808  1.00  0.00    -0.000 C 
BRANCH   7   8
ATOM      8  C   UNL     1      87.474 325.750 206.765  1.00  0.00    -0.000 C 
BRANCH   8   9
ATOM      9  C   UNL     1      87.395 324.290 206.284  1.00  0.00    -0.000 C 
BRANCH   9  10
ATOM     10  C   UNL     1      86.282 324.063 205.245  1.00  0.00    -0.000 C 
BRANCH  10  11
ATOM     11  C   UNL     1      86.804 323.413 203.955  1.00  0.00    -0.003 C 
ATOM     12  C   UNL     1      88.272 323.740 203.682  1.00  0.00     0.004 C 
ENDBRANCH  10  11
ENDBRANCH   9  10
ENDBRANCH   8   9
ENDBRANCH   7   8
ENDBRANCH   6   7
ENDBRANCH   5   6
ENDBRANCH   4   5
ENDBRANCH   3   4
ENDBRANCH   2   3
ENDBRANCH   1   2
BRANCH   1  13
ATOM     13  C   UNL     1      89.272 325.794 199.181  1.00  0.00     0.000 C 
BRANCH  13  14
ATOM     14  C   UNL     1      88.752 326.835 198.174  1.00  0.00     0.000 C 
BRANCH  14  15
ATOM     15  C   UNL     1      88.069 326.179 196.952  1.00  0.00     0.000 C 
BRANCH  15  16
ATOM     16  C   UNL     1      88.970 326.111 195.703  1.00  0.00     0.000 C 
BRANCH  16  17
ATOM     17  C   UNL     1      88.307 326.595 194.400  1.00  0.00     0.000 C 
BRANCH  17  18
ATOM     18  C   UNL     1      86.788 326.339 194.309  1.00  0.00     0.000 C 
BRANCH  18  19
ATOM     19  C   UNL     1      86.373 325.129 193.446  1.00  0.00     0.000 C 
BRANCH  19  20
ATOM     20  C   UNL     1      87.525 324.190 193.045  1.00  0.00     0.006 C 
BRANCH  20  21
ATOM     21  C   UNL     1      87.904 324.313 191.563  1.00  0.00     0.053 C 
BRANCH  21  22
ATOM     22  C   UNL     1      88.141 322.961 190.970  1.00  0.00     0.041 C 
ATOM     23  O   UNL     1      88.963 322.817 190.025  1.00  0.00    -0.550 OA
ATOM     24  O   UNL     1      87.486 321.850 191.490  1.00  0.00    -0.550 OA
ENDBRANCH  21  22
ENDBRANCH  20  21
ENDBRANCH  19  20
ENDBRANCH  18  19
ENDBRANCH  17  18
ENDBRANCH  16  17
ENDBRANCH  15  16
ENDBRANCH  14  15
ENDBRANCH  13  14
ENDBRANCH   1  13
TORSDOF 20
ENDMDL
MODEL 7
REMARK VINA RESULT:    -5.645      1.854      9.249
REMARK INTER + INTRA:         -14.391
REMARK INTER:                 -12.400
REMARK INTRA:                  -1.991
REMARK UNBOUND:                -2.146
REMARK SMILES CCCCCCCCCCCCCCCCCCCCCC(=O)[O-]
REMARK SMILES IDX 12 1 11 2 10 3 9 4 8 5 7 6 6 7 5 8 4 9 3 10 2 11 1 12 13 13
REMARK SMILES IDX 14 14 15 15 16 16 17 17 18 18 19 19 20 20 21 21 22 22 23 23
REMARK SMILES IDX 24 24
REMARK H PARENT
REMARK Flexibility Score: inf
ROOT
ATOM      1  C   UNL     1      89.750 324.886 199.637  1.00  0.00     0.000 C 
ENDROOT
BRANCH   1   2
ATOM      2  C   UNL     1      89.601 326.232 200.368  1.00  0.00     0.000 C 
BRANCH   2   3
ATOM      3  C   UNL     1      88.603 326.160 201.536  1.00  0.00     0.000 C 
BRANCH   3   4
ATOM      4  C   UNL     1      89.293 325.925 202.892  1.00  0.00    -0.000 C 
BRANCH   4   5
ATOM      5  C   UNL     1      89.940 327.201 203.452  1.00  0.00    -0.000 C 
BRANCH   5   6
ATOM      6  C   UNL     1      89.377 327.592 204.830  1.00  0.00    -0.000 C 
BRANCH   6   7
ATOM      7  C   UNL     1      89.502 326.461 205.866  1.00  0.00    -0.000 C 
BRANCH   7   8
ATOM      8  C   UNL     1      88.457 326.499 206.999  1.00  0.00    -0.000 C 
BRANCH   8   9
ATOM      9  C   UNL     1      87.252 325.561 206.803  1.00  0.00    -0.000 C 
BRANCH   9  10
ATOM     10  C   UNL     1      87.517 324.459 205.761  1.00  0.00    -0.000 C 
BRANCH  10  11
ATOM     11  C   UNL     1      86.250 324.066 204.986  1.00  0.00    -0.003 C 
ATOM     12  C   UNL     1      86.556 323.546 203.582  1.00  0.00     0.004 C 
ENDBRANCH  10  11
ENDBRANCH   9  10
ENDBRANCH   8   9
ENDBRANCH   7   8
ENDBRANCH   6   7
ENDBRANCH   5   6
ENDBRANCH   4   5
ENDBRANCH   3   4
ENDBRANCH   2   3
ENDBRANCH   1   2
BRANCH   1  13
ATOM     13  C   UNL     1      88.831 324.773 198.410  1.00  0.00     0.000 C 
BRANCH  13  14
ATOM     14  C   UNL     1      88.395 326.144 197.864  1.00  0.00     0.000 C 
BRANCH  14  15
ATOM     15  C   UNL     1      87.874 326.059 196.411  1.00  0.00     0.000 C 
BRANCH  15  16
ATOM     16  C   UNL     1      88.919 326.468 195.355  1.00  0.00     0.000 C 
BRANCH  16  17
ATOM     17  C   UNL     1      88.358 326.675 193.935  1.00  0.00     0.000 C 
BRANCH  17  18
ATOM     18  C   UNL     1      87.326 325.620 193.483  1.00  0.00     0.000 C 
BRANCH  18  19
ATOM     19  C   UNL     1      87.850 324.573 192.479  1.00  0.00     0.000 C 
BRANCH  19  20
ATOM     20  C   UNL     1      88.240 323.217 193.094  1.00  0.00     0.006 C 
BRANCH  20  21
ATOM     21  C   UNL     1      87.425 322.877 194.349  1.00  0.00     0.053 C 
BRANCH  21  22
ATOM     22  C   UNL     1      88.323 322.377 195.435  1.00  0.00     0.041 C 
ATOM     23  O   UNL     1      87.965 321.409 196.160  1.00  0.00    -0.550 OA
ATOM     24  O   UNL     1      89.575 322.952 195.621  1.00  0.00    -0.550 OA
ENDBRANCH  21  22
ENDBRANCH  20  21
ENDBRANCH  19  20
ENDBRANCH  18  19
ENDBRANCH  17  18
ENDBRANCH  16  17
ENDBRANCH  15  16
ENDBRANCH  14  15
ENDBRANCH  13  14
ENDBRANCH   1  13
TORSDOF 20
ENDMDL
MODEL 8
REMARK VINA RESULT:    -5.566      2.272      3.515
REMARK INTER + INTRA:         -14.220
REMARK INTER:                 -11.985
REMARK INTRA:                  -2.236
REMARK UNBOUND:                -2.146
REMARK SMILES CCCCCCCCCCCCCCCCCCCCCC(=O)[O-]
REMARK SMILES IDX 12 1 11 2 10 3 9 4 8 5 7 6 6 7 5 8 4 9 3 10 2 11 1 12 13 13
REMARK SMILES IDX 14 14 15 15 16 16 17 17 18 18 19 19 20 20 21 21 22 22 23 23
REMARK SMILES IDX 24 24
REMARK H PARENT
REMARK Flexibility Score: inf
ROOT
ATOM      1  C   UNL     1      89.476 325.279 200.545  1.00  0.00     0.000 C 
ENDROOT
BRANCH   1   2
ATOM      2  C   UNL     1      89.584 326.712 199.995  1.00  0.00     0.000 C 
BRANCH   2   3
ATOM      3  C   UNL     1      88.925 326.863 198.613  1.00  0.00     0.000 C 
BRANCH   3   4
ATOM      4  C   UNL     1      88.772 325.518 197.880  1.00  0.00    -0.000 C 
BRANCH   4   5
ATOM      5  C   UNL     1      88.090 325.670 196.511  1.00  0.00    -0.000 C 
BRANCH   5   6
ATOM      6  C   UNL     1      88.971 326.417 195.493  1.00  0.00    -0.000 C 
BRANCH   6   7
ATOM      7  C   UNL     1      88.270 326.627 194.140  1.00  0.00    -0.000 C 
BRANCH   7   8
ATOM      8  C   UNL     1      86.804 326.151 194.087  1.00  0.00    -0.000 C 
BRANCH   8   9
ATOM      9  C   UNL     1      86.527 325.008 193.094  1.00  0.00    -0.000 C 
BRANCH   9  10
ATOM     10  C   UNL     1      87.815 324.344 192.575  1.00  0.00    -0.000 C 
BRANCH  10  11
ATOM     11  C   UNL     1      87.974 322.899 193.072  1.00  0.00    -0.003 C 
ATOM     12  C   UNL     1      88.849 322.798 194.321  1.00  0.00     0.004 C 
ENDBRANCH  10  11
ENDBRANCH   9  10
ENDBRANCH   8   9
ENDBRANCH   7   8
ENDBRANCH   6   7
ENDBRANCH   5   6
ENDBRANCH   4   5
ENDBRANCH   3   4
ENDBRANCH   2   3
ENDBRANCH   1   2
BRANCH   1  13
ATOM     13  C   UNL     1      88.490 325.168 201.720  1.00  0.00     0.000 C 
BRANCH  13  14
ATOM     14  C   UNL     1      87.869 323.765 201.846  1.00  0.00     0.000 C 
BRANCH  14  15
ATOM     15  C   UNL     1      86.684 323.735 202.838  1.00  0.00     0.000 C 
BRANCH  15  16
ATOM     16  C   UNL     1      87.093 323.379 204.280  1.00  0.00     0.000 C 
BRANCH  16  17
ATOM     17  C   UNL     1      86.276 324.085 205.378  1.00  0.00     0.000 C 
BRANCH  17  18
ATOM     18  C   UNL     1      87.060 325.127 206.204  1.00  0.00     0.000 C 
BRANCH  18  19
ATOM     19  C   UNL     1      88.140 325.906 205.425  1.00  0.00     0.000 C 
BRANCH  19  20
ATOM     20  C   UNL     1      89.586 325.658 205.891  1.00  0.00     0.006 C 
BRANCH  20  21
ATOM     21  C   UNL     1      90.552 325.408 204.726  1.00  0.00     0.053 C 
BRANCH  21  22
ATOM     22  C   UNL     1      91.138 326.699 204.247  1.00  0.00     0.041 C 
ATOM     23  O   UNL     1      91.491 326.828 203.044  1.00  0.00    -0.550 OA
ATOM     24  O   UNL     1      91.254 327.775 205.120  1.00  0.00    -0.550 OA
ENDBRANCH  21  22
ENDBRANCH  20  21
ENDBRANCH  19  20
ENDBRANCH  18  19
ENDBRANCH  17  18
ENDBRANCH  16  17
ENDBRANCH  15  16
ENDBRANCH  14  15
ENDBRANCH  13  14
ENDBRANCH   1  13
TORSDOF 20
ENDMDL
MODEL 9
REMARK VINA RESULT:    -5.526      3.097      9.571
REMARK INTER + INTRA:         -14.134
REMARK INTER:                 -12.141
REMARK INTRA:                  -1.993
REMARK UNBOUND:                -2.146
REMARK SMILES CCCCCCCCCCCCCCCCCCCCCC(=O)[O-]
REMARK SMILES IDX 12 1 11 2 10 3 9 4 8 5 7 6 6 7 5 8 4 9 3 10 2 11 1 12 13 13
REMARK SMILES IDX 14 14 15 15 16 16 17 17 18 18 19 19 20 20 21 21 22 22 23 23
REMARK SMILES IDX 24 24
REMARK H PARENT
REMARK Flexibility Score: inf
ROOT
ATOM      1  C   UNL     1      89.576 324.577 200.543  1.00  0.00     0.000 C 
ENDROOT
BRANCH   1   2
ATOM      2  C   UNL     1      88.756 324.155 201.775  1.00  0.00     0.000 C 
BRANCH   2   3
ATOM      3  C   UNL     1      87.408 323.519 201.397  1.00  0.00     0.000 C 
BRANCH   3   4
ATOM      4  C   UNL     1      86.407 323.511 202.566  1.00  0.00    -0.000 C 
BRANCH   4   5
ATOM      5  C   UNL     1      87.098 323.369 203.931  1.00  0.00    -0.000 C 
BRANCH   5   6
ATOM      6  C   UNL     1      86.403 324.189 205.033  1.00  0.00    -0.000 C 
BRANCH   6   7
ATOM      7  C   UNL     1      87.285 324.380 206.278  1.00  0.00    -0.000 C 
BRANCH   7   8
ATOM      8  C   UNL     1      87.428 325.840 206.755  1.00  0.00    -0.000 C 
BRANCH   8   9
ATOM      9  C   UNL     1      88.873 326.368 206.807  1.00  0.00    -0.000 C 
BRANCH   9  10
ATOM     10  C   UNL     1      89.225 327.264 205.605  1.00  0.00    -0.000 C 
BRANCH  10  11
ATOM     11  C   UNL     1      89.619 326.453 204.362  1.00  0.00    -0.003 C 
ATOM     12  C   UNL     1      90.608 325.331 204.678  1.00  0.00     0.004 C 
ENDBRANCH  10  11
ENDBRANCH   9  10
ENDBRANCH   8   9
ENDBRANCH   7   8
ENDBRANCH   6   7
ENDBRANCH   5   6
ENDBRANCH   4   5
ENDBRANCH   3   4
ENDBRANCH   2   3
ENDBRANCH   1   2
BRANCH   1  13
ATOM     13  C   UNL     1      89.306 326.031 200.121  1.00  0.00     0.000 C 
BRANCH  13  14
ATOM     14  C   UNL     1      88.872 326.154 198.650  1.00  0.00     0.000 C 
BRANCH  14  15
ATOM     15  C   UNL     1      88.831 324.785 197.933  1.00  0.00     0.000 C 
BRANCH  15  16
ATOM     16  C   UNL     1      88.864 324.890 196.396  1.00  0.00     0.000 C 
BRANCH  16  17
ATOM     17  C   UNL     1      88.954 326.326 195.846  1.00  0.00     0.000 C 
BRANCH  17  18
ATOM     18  C   UNL     1      88.284 326.539 194.472  1.00  0.00     0.000 C 
BRANCH  18  19
ATOM     19  C   UNL     1      86.824 326.053 194.369  1.00  0.00     0.000 C 
BRANCH  19  20
ATOM     20  C   UNL     1      86.539 325.088 193.204  1.00  0.00     0.006 C 
BRANCH  20  21
ATOM     21  C   UNL     1      87.806 324.698 192.431  1.00  0.00     0.053 C 
BRANCH  21  22
ATOM     22  C   UNL     1      87.525 323.552 191.511  1.00  0.00     0.041 C 
ATOM     23  O   UNL     1      88.473 322.861 191.050  1.00  0.00    -0.550 OA
ATOM     24  O   UNL     1      86.212 323.219 191.197  1.00  0.00    -0.550 OA
ENDBRANCH  21  22
ENDBRANCH  20  21
ENDBRANCH  19  20
ENDBRANCH  18  19
ENDBRANCH  17  18
ENDBRANCH  16  17
ENDBRANCH  15  16
ENDBRANCH  14  15
ENDBRANCH  13  14
ENDBRANCH   1  13
TORSDOF 20
ENDMDL
