MODEL 1
REMARK VINA RESULT:    -5.299      0.000      0.000
REMARK INTER + INTRA:         -11.777
REMARK INTER:                 -10.255
REMARK INTRA:                  -1.522
REMARK UNBOUND:                -1.522
REMARK SMILES CCCCCCCCCCCCCCCCCC(=O)[O-]
REMARK SMILES IDX 10 1 11 2 12 3 13 4 14 5 15 6 16 7 17 8 18 9 19 10 20 11
REMARK SMILES IDX 9 12 8 13 7 14 6 15 5 16 4 17 3 18 2 19 1 20
REMARK H PARENT
REMARK Flexibility Score: inf
ROOT
ATOM      1  C   UNL     1       5.324 -10.359 -17.386  1.00  0.00     0.000 C 
ENDROOT
BRANCH   1   2
ATOM      2  C   UNL     1       3.897  -9.812 -17.540  1.00  0.00     0.000 C 
BRANCH   2   3
ATOM      3  C   UNL     1       3.308  -9.288 -16.217  1.00  0.00     0.000 C 
BRANCH   3   4
ATOM      4  C   UNL     1       4.007  -9.795 -14.942  1.00  0.00     0.000 C 
BRANCH   4   5
ATOM      5  C   UNL     1       3.264 -10.967 -14.278  1.00  0.00     0.000 C 
BRANCH   5   6
ATOM      6  C   UNL     1       4.003 -12.307 -14.428  1.00  0.00     0.000 C 
BRANCH   6   7
ATOM      7  C   UNL     1       3.816 -13.020 -15.782  1.00  0.00     0.006 C 
BRANCH   7   8
ATOM      8  C   UNL     1       2.365 -13.443 -16.076  1.00  0.00     0.053 C 
BRANCH   8   9
ATOM      9  C   UNL     1       2.134 -13.726 -17.531  1.00  0.00     0.041 C 
ATOM     10  O   UNL     1       2.523 -12.908 -18.405  1.00  0.00    -0.550 OA
ATOM     11  O   UNL     1       1.450 -14.871 -17.920  1.00  0.00    -0.550 OA
ENDBRANCH   8   9
ENDBRANCH   7   8
ENDBRANCH   6   7
ENDBRANCH   5   6
ENDBRANCH   4   5
ENDBRANCH   3   4
ENDBRANCH   2   3
ENDBRANCH   1   2
BRANCH   1  12
ATOM     12  C   UNL     1       5.770 -11.093 -18.659  1.00  0.00     0.000 C 
BRANCH  12  13
ATOM     13  C   UNL     1       4.925 -10.727 -19.893  1.00  0.00    -0.000 C 
BRANCH  13  14
ATOM     14  C   UNL     1       5.717 -10.134 -21.073  1.00  0.00    -0.000 C 
BRANCH  14  15
ATOM     15  C   UNL     1       5.072  -8.860 -21.647  1.00  0.00    -0.000 C 
BRANCH  15  16
ATOM     16  C   UNL     1       6.084  -7.974 -22.393  1.00  0.00    -0.000 C 
BRANCH  16  17
ATOM     17  C   UNL     1       5.488  -6.615 -22.798  1.00  0.00    -0.000 C 
BRANCH  17  18
ATOM     18  C   UNL     1       4.124  -6.340 -22.136  1.00  0.00    -0.000 C 
BRANCH  18  19
ATOM     19  C   UNL     1       2.935  -6.260 -23.110  1.00  0.00    -0.003 C 
ATOM     20  C   UNL     1       3.350  -5.878 -24.530  1.00  0.00     0.004 C 
ENDBRANCH  18  19
ENDBRANCH  17  18
ENDBRANCH  16  17
ENDBRANCH  15  16
ENDBRANCH  14  15
ENDBRANCH  13  14
ENDBRANCH  12  13
ENDBRANCH   1  12
TORSDOF 16
ENDMDL
MODEL 2
REMARK VINA RESULT:    -5.262      1.571      2.525
REMARK INTER + INTRA:         -11.707
REMARK INTER:                 -10.253
REMARK INTRA:                  -1.454
REMARK UNBOUND:                -1.522
REMARK SMILES CCCCCCCCCCCCCCCCCC(=O)[O-]
REMARK SMILES IDX 10 1 11 2 12 3 13 4 14 5 15 6 16 7 17 8 18 9 19 10 20 11
REMARK SMILES IDX 9 12 8 13 7 14 6 15 5 16 4 17 3 18 2 19 1 20
REMARK H PARENT
REMARK Flexibility Score: inf
ROOT
ATOM      1  C   UNL     1       5.502 -10.765 -19.061  1.00  0.00     0.000 C 
ENDROOT
BRANCH   1   2
ATOM      2  C   UNL     1       4.250 -11.647 -19.171  1.00  0.00     0.000 C 
BRANCH   2   3
ATOM      3  C   UNL     1       3.061 -11.110 -18.353  1.00  0.00     0.000 C 
BRANCH   3   4
ATOM      4  C   UNL     1       3.065  -9.588 -18.114  1.00  0.00     0.000 C 
BRANCH   4   5
ATOM      5  C   UNL     1       2.955  -9.216 -16.625  1.00  0.00     0.000 C 
BRANCH   5   6
ATOM      6  C   UNL     1       4.295  -9.328 -15.879  1.00  0.00     0.000 C 
BRANCH   6   7
ATOM      7  C   UNL     1       4.320 -10.327 -14.705  1.00  0.00     0.006 C 
BRANCH   7   8
ATOM      8  C   UNL     1       3.043 -11.179 -14.577  1.00  0.00     0.053 C 
BRANCH   8   9
ATOM      9  C   UNL     1       3.222 -12.565 -15.122  1.00  0.00     0.041 C 
ATOM     10  O   UNL     1       4.331 -12.918 -15.602  1.00  0.00    -0.550 OA
ATOM     11  O   UNL     1       2.153 -13.452 -15.140  1.00  0.00    -0.550 OA
ENDBRANCH   8   9
ENDBRANCH   7   8
ENDBRANCH   6   7
ENDBRANCH   5   6
ENDBRANCH   4   5
ENDBRANCH   3   4
ENDBRANCH   2   3
ENDBRANCH   1   2
BRANCH   1  12
ATOM     12  C   UNL     1       6.038 -10.397 -20.453  1.00  0.00     0.000 C 
BRANCH  12  13
ATOM     13  C   UNL     1       7.574 -10.304 -20.501  1.00  0.00    -0.000 C 
BRANCH  13  14
ATOM     14  C   UNL     1       8.142  -9.485 -21.675  1.00  0.00    -0.000 C 
BRANCH  14  15
ATOM     15  C   UNL     1       7.523  -8.079 -21.779  1.00  0.00    -0.000 C 
BRANCH  15  16
ATOM     16  C   UNL     1       7.532  -7.539 -23.218  1.00  0.00    -0.000 C 
BRANCH  16  17
ATOM     17  C   UNL     1       6.160  -6.992 -23.648  1.00  0.00    -0.000 C 
BRANCH  17  18
ATOM     18  C   UNL     1       5.091  -7.128 -22.547  1.00  0.00    -0.000 C 
BRANCH  18  19
ATOM     19  C   UNL     1       4.056  -5.989 -22.504  1.00  0.00    -0.003 C 
ATOM     20  C   UNL     1       2.970  -6.128 -23.570  1.00  0.00     0.004 C 
ENDBRANCH  18  19
ENDBRANCH  17  18
ENDBRANCH  16  17
ENDBRANCH  15  16
ENDBRANCH  14  15
ENDBRANCH  13  14
ENDBRANCH  12  13
ENDBRANCH   1  12
TORSDOF 16
ENDMDL
MODEL 3
REMARK VINA RESULT:    -5.192      2.910      8.177
REMARK INTER + INTRA:         -11.571
REMARK INTER:                  -9.888
REMARK INTRA:                  -1.683
REMARK UNBOUND:                -1.522
REMARK SMILES CCCCCCCCCCCCCCCCCC(=O)[O-]
REMARK SMILES IDX 10 1 11 2 12 3 13 4 14 5 15 6 16 7 17 8 18 9 19 10 20 11
REMARK SMILES IDX 9 12 8 13 7 14 6 15 5 16 4 17 3 18 2 19 1 20
REMARK H PARENT
REMARK Flexibility Score: inf
ROOT
ATOM      1  C   UNL     1       5.140 -10.954 -19.839  1.00  0.00     0.000 C 
ENDROOT
BRANCH   1   2
ATOM      2  C   UNL     1       5.944 -10.250 -20.942  1.00  0.00     0.000 C 
BRANCH   2   3
ATOM      3  C   UNL     1       7.465 -10.304 -20.705  1.00  0.00     0.000 C 
BRANCH   3   4
ATOM      4  C   UNL     1       8.297  -9.343 -21.573  1.00  0.00     0.000 C 
BRANCH   4   5
ATOM      5  C   UNL     1       7.568  -8.020 -21.868  1.00  0.00     0.000 C 
BRANCH   5   6
ATOM      6  C   UNL     1       7.474  -7.709 -23.371  1.00  0.00     0.000 C 
BRANCH   6   7
ATOM      7  C   UNL     1       6.189  -6.983 -23.819  1.00  0.00     0.006 C 
BRANCH   7   8
ATOM      8  C   UNL     1       5.274  -6.550 -22.658  1.00  0.00     0.053 C 
BRANCH   8   9
ATOM      9  C   UNL     1       3.885  -6.221 -23.116  1.00  0.00     0.041 C 
ATOM     10  O   UNL     1       2.920  -6.284 -22.310  1.00  0.00    -0.550 OA
ATOM     11  O   UNL     1       3.648  -5.889 -24.445  1.00  0.00    -0.550 OA
ENDBRANCH   8   9
ENDBRANCH   7   8
ENDBRANCH   6   7
ENDBRANCH   5   6
ENDBRANCH   4   5
ENDBRANCH   3   4
ENDBRANCH   2   3
ENDBRANCH   1   2
BRANCH   1  12
ATOM     12  C   UNL     1       5.961 -11.063 -18.546  1.00  0.00     0.000 C 
BRANCH  12  13
ATOM     13  C   UNL     1       5.326 -10.307 -17.365  1.00  0.00    -0.000 C 
BRANCH  13  14
ATOM     14  C   UNL     1       3.902  -9.780 -17.619  1.00  0.00    -0.000 C 
BRANCH  14  15
ATOM     15  C   UNL     1       3.164  -9.400 -16.322  1.00  0.00    -0.000 C 
BRANCH  15  16
ATOM     16  C   UNL     1       4.076  -9.471 -15.086  1.00  0.00    -0.000 C 
BRANCH  16  17
ATOM     17  C   UNL     1       3.599 -10.518 -14.065  1.00  0.00    -0.000 C 
BRANCH  17  18
ATOM     18  C   UNL     1       4.033 -11.950 -14.430  1.00  0.00    -0.000 C 
BRANCH  18  19
ATOM     19  C   UNL     1       2.890 -12.879 -14.878  1.00  0.00    -0.003 C 
ATOM     20  C   UNL     1       2.931 -13.200 -16.372  1.00  0.00     0.004 C 
ENDBRANCH  18  19
ENDBRANCH  17  18
ENDBRANCH  16  17
ENDBRANCH  15  16
ENDBRANCH  14  15
ENDBRANCH  13  14
ENDBRANCH  12  13
ENDBRANCH   1  12
TORSDOF 16
ENDMDL
MODEL 4
REMARK VINA RESULT:    -5.150      1.510      2.724
REMARK INTER + INTRA:         -11.490
REMARK INTER:                  -9.884
REMARK INTRA:                  -1.606
REMARK UNBOUND:                -1.522
REMARK SMILES CCCCCCCCCCCCCCCCCC(=O)[O-]
REMARK SMILES IDX 10 1 11 2 12 3 13 4 14 5 15 6 16 7 17 8 18 9 19 10 20 11
REMARK SMILES IDX 9 12 8 13 7 14 6 15 5 16 4 17 3 18 2 19 1 20
REMARK H PARENT
REMARK Flexibility Score: inf
ROOT
ATOM      1  C   UNL     1       5.320 -11.198 -18.246  1.00  0.00     0.000 C 
ENDROOT
BRANCH   1   2
ATOM      2  C   UNL     1       4.009 -11.655 -18.903  1.00  0.00     0.000 C 
BRANCH   2   3
ATOM      3  C   UNL     1       2.785 -10.852 -18.426  1.00  0.00     0.000 C 
BRANCH   3   4
ATOM      4  C   UNL     1       3.065  -9.379 -18.074  1.00  0.00     0.000 C 
BRANCH   4   5
ATOM      5  C   UNL     1       2.911  -9.084 -16.571  1.00  0.00     0.000 C 
BRANCH   5   6
ATOM      6  C   UNL     1       4.125  -9.541 -15.744  1.00  0.00     0.000 C 
BRANCH   6   7
ATOM      7  C   UNL     1       3.798 -10.130 -14.357  1.00  0.00     0.006 C 
BRANCH   7   8
ATOM      8  C   UNL     1       2.949 -11.414 -14.403  1.00  0.00     0.053 C 
BRANCH   8   9
ATOM      9  C   UNL     1       3.594 -12.499 -15.213  1.00  0.00     0.041 C 
ATOM     10  O   UNL     1       2.895 -13.235 -15.958  1.00  0.00    -0.550 OA
ATOM     11  O   UNL     1       4.961 -12.728 -15.110  1.00  0.00    -0.550 OA
ENDBRANCH   8   9
ENDBRANCH   7   8
ENDBRANCH   6   7
ENDBRANCH   5   6
ENDBRANCH   4   5
ENDBRANCH   3   4
ENDBRANCH   2   3
ENDBRANCH   1   2
BRANCH   1  12
ATOM     12  C   UNL     1       6.335 -10.742 -19.305  1.00  0.00     0.000 C 
BRANCH  12  13
ATOM     13  C   UNL     1       5.741 -10.692 -20.725  1.00  0.00    -0.000 C 
BRANCH  13  14
ATOM     14  C   UNL     1       5.742  -9.300 -21.383  1.00  0.00    -0.000 C 
BRANCH  14  15
ATOM     15  C   UNL     1       4.327  -8.797 -21.721  1.00  0.00    -0.000 C 
BRANCH  15  16
ATOM     16  C   UNL     1       4.229  -7.263 -21.702  1.00  0.00    -0.000 C 
BRANCH  16  17
ATOM     17  C   UNL     1       3.875  -6.680 -23.080  1.00  0.00    -0.000 C 
BRANCH  17  18
ATOM     18  C   UNL     1       5.114  -6.438 -23.963  1.00  0.00    -0.000 C 
BRANCH  18  19
ATOM     19  C   UNL     1       6.463  -6.539 -23.229  1.00  0.00    -0.003 C 
ATOM     20  C   UNL     1       7.536  -7.257 -24.046  1.00  0.00     0.004 C 
ENDBRANCH  18  19
ENDBRANCH  17  18
ENDBRANCH  16  17
ENDBRANCH  15  16
ENDBRANCH  14  15
ENDBRANCH  13  14
ENDBRANCH  12  13
ENDBRANCH   1  12
TORSDOF 16
ENDMDL
MODEL 5
REMARK VINA RESULT:    -5.098      3.197      7.870
REMARK INTER + INTRA:         -11.388
REMARK INTER:                  -9.916
REMARK INTRA:                  -1.472
REMARK UNBOUND:                -1.522
REMARK SMILES CCCCCCCCCCCCCCCCCC(=O)[O-]
REMARK SMILES IDX 10 1 11 2 12 3 13 4 14 5 15 6 16 7 17 8 18 9 19 10 20 11
REMARK SMILES IDX 9 12 8 13 7 14 6 15 5 16 4 17 3 18 2 19 1 20
REMARK H PARENT
REMARK Flexibility Score: inf
ROOT
ATOM      1  C   UNL     1       5.594 -10.010 -16.893  1.00  0.00     0.000 C 
ENDROOT
BRANCH   1   2
ATOM      2  C   UNL     1       6.162 -11.130 -17.778  1.00  0.00     0.000 C 
BRANCH   2   3
ATOM      3  C   UNL     1       5.326 -11.378 -19.046  1.00  0.00     0.000 C 
BRANCH   3   4
ATOM      4  C   UNL     1       5.691 -10.497 -20.255  1.00  0.00     0.000 C 
BRANCH   4   5
ATOM      5  C   UNL     1       4.525  -9.609 -20.722  1.00  0.00     0.000 C 
BRANCH   5   6
ATOM      6  C   UNL     1       4.800  -8.916 -22.067  1.00  0.00     0.000 C 
BRANCH   6   7
ATOM      7  C   UNL     1       4.260  -7.478 -22.196  1.00  0.00     0.006 C 
BRANCH   7   8
ATOM      8  C   UNL     1       5.004  -6.617 -23.235  1.00  0.00     0.053 C 
BRANCH   8   9
ATOM      9  C   UNL     1       6.468  -6.933 -23.297  1.00  0.00     0.041 C 
ATOM     10  O   UNL     1       6.993  -7.294 -24.384  1.00  0.00    -0.550 OA
ATOM     11  O   UNL     1       7.245  -6.874 -22.147  1.00  0.00    -0.550 OA
ENDBRANCH   8   9
ENDBRANCH   7   8
ENDBRANCH   6   7
ENDBRANCH   5   6
ENDBRANCH   4   5
ENDBRANCH   3   4
ENDBRANCH   2   3
ENDBRANCH   1   2
BRANCH   1  12
ATOM     12  C   UNL     1       4.105  -9.777 -17.193  1.00  0.00     0.000 C 
BRANCH  12  13
ATOM     13  C   UNL     1       3.310  -9.308 -15.961  1.00  0.00    -0.000 C 
BRANCH  13  14
ATOM     14  C   UNL     1       3.775  -9.903 -14.619  1.00  0.00    -0.000 C 
BRANCH  14  15
ATOM     15  C   UNL     1       3.005 -11.178 -14.231  1.00  0.00    -0.000 C 
BRANCH  15  16
ATOM     16  C   UNL     1       3.833 -12.454 -14.453  1.00  0.00    -0.000 C 
BRANCH  16  17
ATOM     17  C   UNL     1       3.666 -13.023 -15.872  1.00  0.00    -0.000 C 
BRANCH  17  18
ATOM     18  C   UNL     1       2.307 -13.718 -16.081  1.00  0.00    -0.000 C 
BRANCH  18  19
ATOM     19  C   UNL     1       1.945 -14.009 -17.548  1.00  0.00    -0.003 C 
ATOM     20  C   UNL     1       2.404 -12.910 -18.506  1.00  0.00     0.004 C 
ENDBRANCH  18  19
ENDBRANCH  17  18
ENDBRANCH  16  17
ENDBRANCH  15  16
ENDBRANCH  14  15
ENDBRANCH  13  14
ENDBRANCH  12  13
ENDBRANCH   1  12
TORSDOF 16
ENDMDL
MODEL 6
REMARK VINA RESULT:    -4.976      1.380      2.192
REMARK INTER + INTRA:         -11.153
REMARK INTER:                  -9.815
REMARK INTRA:                  -1.338
REMARK UNBOUND:                -1.522
REMARK SMILES CCCCCCCCCCCCCCCCCC(=O)[O-]
REMARK SMILES IDX 10 1 11 2 12 3 13 4 14 5 15 6 16 7 17 8 18 9 19 10 20 11
REMARK SMILES IDX 9 12 8 13 7 14 6 15 5 16 4 17 3 18 2 19 1 20
REMARK H PARENT
REMARK Flexibility Score: inf
ROOT
ATOM      1  C   UNL     1       4.897 -10.601 -19.842  1.00  0.00     0.000 C 
ENDROOT
BRANCH   1   2
ATOM      2  C   UNL     1       3.955 -11.155 -18.762  1.00  0.00     0.000 C 
BRANCH   2   3
ATOM      3  C   UNL     1       2.816 -10.184 -18.402  1.00  0.00     0.000 C 
BRANCH   3   4
ATOM      4  C   UNL     1       3.070  -9.307 -17.162  1.00  0.00     0.000 C 
BRANCH   4   5
ATOM      5  C   UNL     1       4.219  -9.832 -16.284  1.00  0.00     0.000 C 
BRANCH   5   6
ATOM      6  C   UNL     1       3.810 -10.026 -14.814  1.00  0.00     0.000 C 
BRANCH   6   7
ATOM      7  C   UNL     1       3.889 -11.474 -14.289  1.00  0.00     0.006 C 
BRANCH   7   8
ATOM      8  C   UNL     1       4.067 -12.534 -15.392  1.00  0.00     0.053 C 
BRANCH   8   9
ATOM      9  C   UNL     1       2.773 -13.195 -15.765  1.00  0.00     0.041 C 
ATOM     10  O   UNL     1       1.922 -13.468 -14.879  1.00  0.00    -0.550 OA
ATOM     11  O   UNL     1       2.526 -13.550 -17.086  1.00  0.00    -0.550 OA
ENDBRANCH   8   9
ENDBRANCH   7   8
ENDBRANCH   6   7
ENDBRANCH   5   6
ENDBRANCH   4   5
ENDBRANCH   3   4
ENDBRANCH   2   3
ENDBRANCH   1   2
BRANCH   1  12
ATOM     12  C   UNL     1       6.366 -10.838 -19.462  1.00  0.00     0.000 C 
BRANCH  12  13
ATOM     13  C   UNL     1       7.351 -10.384 -20.555  1.00  0.00    -0.000 C 
BRANCH  13  14
ATOM     14  C   UNL     1       6.771  -9.397 -21.585  1.00  0.00    -0.000 C 
BRANCH  14  15
ATOM     15  C   UNL     1       7.826  -8.424 -22.140  1.00  0.00    -0.000 C 
BRANCH  15  16
ATOM     16  C   UNL     1       7.239  -7.038 -22.454  1.00  0.00    -0.000 C 
BRANCH  16  17
ATOM     17  C   UNL     1       6.667  -6.952 -23.879  1.00  0.00    -0.000 C 
BRANCH  17  18
ATOM     18  C   UNL     1       5.159  -6.638 -23.900  1.00  0.00    -0.000 C 
BRANCH  18  19
ATOM     19  C   UNL     1       4.456  -6.742 -22.535  1.00  0.00    -0.003 C 
ATOM     20  C   UNL     1       3.134  -5.976 -22.483  1.00  0.00     0.004 C 
ENDBRANCH  18  19
ENDBRANCH  17  18
ENDBRANCH  16  17
ENDBRANCH  15  16
ENDBRANCH  14  15
ENDBRANCH  13  14
ENDBRANCH  12  13
ENDBRANCH   1  12
TORSDOF 16
ENDMDL
MODEL 7
REMARK VINA RESULT:    -4.942      2.138      3.171
REMARK INTER + INTRA:         -11.086
REMARK INTER:                  -9.607
REMARK INTRA:                  -1.479
REMARK UNBOUND:                -1.522
REMARK SMILES CCCCCCCCCCCCCCCCCC(=O)[O-]
REMARK SMILES IDX 10 1 11 2 12 3 13 4 14 5 15 6 16 7 17 8 18 9 19 10 20 11
REMARK SMILES IDX 9 12 8 13 7 14 6 15 5 16 4 17 3 18 2 19 1 20
REMARK H PARENT
REMARK Flexibility Score: inf
ROOT
ATOM      1  C   UNL     1       5.110 -11.085 -19.508  1.00  0.00     0.000 C 
ENDROOT
BRANCH   1   2
ATOM      2  C   UNL     1       3.938 -10.218 -19.026  1.00  0.00     0.000 C 
BRANCH   2   3
ATOM      3  C   UNL     1       2.771 -11.045 -18.458  1.00  0.00     0.000 C 
BRANCH   3   4
ATOM      4  C   UNL     1       3.043 -12.555 -18.323  1.00  0.00     0.000 C 
BRANCH   4   5
ATOM      5  C   UNL     1       2.741 -13.093 -16.914  1.00  0.00     0.000 C 
BRANCH   5   6
ATOM      6  C   UNL     1       3.743 -12.601 -15.856  1.00  0.00     0.000 C 
BRANCH   6   7
ATOM      7  C   UNL     1       3.140 -11.774 -14.703  1.00  0.00     0.006 C 
BRANCH   7   8
ATOM      8  C   UNL     1       4.004 -10.575 -14.269  1.00  0.00     0.053 C 
BRANCH   8   9
ATOM      9  C   UNL     1       4.213  -9.589 -15.379  1.00  0.00     0.041 C 
ATOM     10  O   UNL     1       5.363  -9.404 -15.855  1.00  0.00    -0.550 OA
ATOM     11  O   UNL     1       3.144  -8.840 -15.858  1.00  0.00    -0.550 OA
ENDBRANCH   8   9
ENDBRANCH   7   8
ENDBRANCH   6   7
ENDBRANCH   5   6
ENDBRANCH   4   5
ENDBRANCH   3   4
ENDBRANCH   2   3
ENDBRANCH   1   2
BRANCH   1  12
ATOM     12  C   UNL     1       5.883 -10.385 -20.637  1.00  0.00     0.000 C 
BRANCH  12  13
ATOM     13  C   UNL     1       7.407 -10.389 -20.415  1.00  0.00    -0.000 C 
BRANCH  13  14
ATOM     14  C   UNL     1       8.222  -9.626 -21.475  1.00  0.00    -0.000 C 
BRANCH  14  15
ATOM     15  C   UNL     1       7.629  -8.245 -21.805  1.00  0.00    -0.000 C 
BRANCH  15  16
ATOM     16  C   UNL     1       7.673  -7.932 -23.310  1.00  0.00    -0.000 C 
BRANCH  16  17
ATOM     17  C   UNL     1       6.471  -7.088 -23.769  1.00  0.00    -0.000 C 
BRANCH  17  18
ATOM     18  C   UNL     1       5.607  -6.591 -22.595  1.00  0.00    -0.000 C 
BRANCH  18  19
ATOM     19  C   UNL     1       4.155  -7.103 -22.596  1.00  0.00    -0.003 C 
ATOM     20  C   UNL     1       3.138  -6.017 -22.944  1.00  0.00     0.004 C 
ENDBRANCH  18  19
ENDBRANCH  17  18
ENDBRANCH  16  17
ENDBRANCH  15  16
ENDBRANCH  14  15
ENDBRANCH  13  14
ENDBRANCH  12  13
ENDBRANCH   1  12
TORSDOF 16
ENDMDL
MODEL 8
REMARK VINA RESULT:    -4.895      3.216      8.041
REMARK INTER + INTRA:         -10.995
REMARK INTER:                  -9.481
REMARK INTRA:                  -1.515
REMARK UNBOUND:                -1.522
REMARK SMILES CCCCCCCCCCCCCCCCCC(=O)[O-]
REMARK SMILES IDX 10 1 11 2 12 3 13 4 14 5 15 6 16 7 17 8 18 9 19 10 20 11
REMARK SMILES IDX 9 12 8 13 7 14 6 15 5 16 4 17 3 18 2 19 1 20
REMARK H PARENT
REMARK Flexibility Score: inf
ROOT
ATOM      1  C   UNL     1       5.300 -10.767 -18.532  1.00  0.00     0.000 C 
ENDROOT
BRANCH   1   2
ATOM      2  C   UNL     1       6.258 -11.010 -19.709  1.00  0.00     0.000 C 
BRANCH   2   3
ATOM      3  C   UNL     1       5.799 -10.324 -21.009  1.00  0.00     0.000 C 
BRANCH   3   4
ATOM      4  C   UNL     1       4.671  -9.289 -20.841  1.00  0.00     0.000 C 
BRANCH   4   5
ATOM      5  C   UNL     1       4.317  -8.572 -22.155  1.00  0.00     0.000 C 
BRANCH   5   6
ATOM      6  C   UNL     1       4.051  -7.069 -21.965  1.00  0.00     0.000 C 
BRANCH   6   7
ATOM      7  C   UNL     1       5.096  -6.125 -22.593  1.00  0.00     0.006 C 
BRANCH   7   8
ATOM      8  C   UNL     1       5.792  -6.699 -23.842  1.00  0.00     0.053 C 
BRANCH   8   9
ATOM      9  C   UNL     1       7.213  -7.096 -23.574  1.00  0.00     0.041 C 
ATOM     10  O   UNL     1       8.092  -6.942 -24.462  1.00  0.00    -0.550 OA
ATOM     11  O   UNL     1       7.558  -7.678 -22.360  1.00  0.00    -0.550 OA
ENDBRANCH   8   9
ENDBRANCH   7   8
ENDBRANCH   6   7
ENDBRANCH   5   6
ENDBRANCH   4   5
ENDBRANCH   3   4
ENDBRANCH   2   3
ENDBRANCH   1   2
BRANCH   1  12
ATOM     12  C   UNL     1       4.034 -11.627 -18.669  1.00  0.00     0.000 C 
BRANCH  12  13
ATOM     13  C   UNL     1       2.751 -10.873 -18.275  1.00  0.00    -0.000 C 
BRANCH  13  14
ATOM     14  C   UNL     1       2.937  -9.371 -17.993  1.00  0.00    -0.000 C 
BRANCH  14  15
ATOM     15  C   UNL     1       2.686  -9.004 -16.519  1.00  0.00    -0.000 C 
BRANCH  15  16
ATOM     16  C   UNL     1       3.874  -9.368 -15.613  1.00  0.00    -0.000 C 
BRANCH  16  17
ATOM     17  C   UNL     1       3.492 -10.387 -14.526  1.00  0.00    -0.000 C 
BRANCH  17  18
ATOM     18  C   UNL     1       4.464 -11.580 -14.458  1.00  0.00    -0.000 C 
BRANCH  18  19
ATOM     19  C   UNL     1       4.059 -12.797 -15.310  1.00  0.00    -0.003 C 
ATOM     20  C   UNL     1       2.558 -13.084 -15.267  1.00  0.00     0.004 C 
ENDBRANCH  18  19
ENDBRANCH  17  18
ENDBRANCH  16  17
ENDBRANCH  15  16
ENDBRANCH  14  15
ENDBRANCH  13  14
ENDBRANCH  12  13
ENDBRANCH   1  12
TORSDOF 16
ENDMDL
MODEL 9
REMARK VINA RESULT:    -4.580      3.574      6.084
REMARK INTER + INTRA:         -10.386
REMARK INTER:                  -8.826
REMARK INTRA:                  -1.561
REMARK UNBOUND:                -1.522
REMARK SMILES CCCCCCCCCCCCCCCCCC(=O)[O-]
REMARK SMILES IDX 10 1 11 2 12 3 13 4 14 5 15 6 16 7 17 8 18 9 19 10 20 11
REMARK SMILES IDX 9 12 8 13 7 14 6 15 5 16 4 17 3 18 2 19 1 20
REMARK H PARENT
REMARK Flexibility Score: inf
ROOT
ATOM      1  C   UNL     1       3.117 -12.559 -14.645  1.00  0.00     0.000 C 
ENDROOT
BRANCH   1   2
ATOM      2  C   UNL     1       3.079 -13.046 -16.101  1.00  0.00     0.000 C 
BRANCH   2   3
ATOM      3  C   UNL     1       1.967 -14.079 -16.361  1.00  0.00     0.000 C 
BRANCH   3   4
ATOM      4  C   UNL     1       1.606 -14.294 -17.842  1.00  0.00     0.000 C 
BRANCH   4   5
ATOM      5  C   UNL     1       0.874 -15.624 -18.092  1.00  0.00     0.000 C 
BRANCH   5   6
ATOM      6  C   UNL     1      -0.601 -15.433 -18.482  1.00  0.00     0.000 C 
BRANCH   6   7
ATOM      7  C   UNL     1      -1.443 -16.723 -18.548  1.00  0.00     0.006 C 
BRANCH   7   8
ATOM      8  C   UNL     1      -1.077 -17.654 -19.720  1.00  0.00     0.053 C 
BRANCH   8   9
ATOM      9  C   UNL     1      -0.373 -18.897 -19.264  1.00  0.00     0.041 C 
ATOM     10  O   UNL     1      -0.051 -19.784 -20.097  1.00  0.00    -0.550 OA
ATOM     11  O   UNL     1      -0.114 -19.098 -17.914  1.00  0.00    -0.550 OA
ENDBRANCH   8   9
ENDBRANCH   7   8
ENDBRANCH   6   7
ENDBRANCH   5   6
ENDBRANCH   4   5
ENDBRANCH   3   4
ENDBRANCH   2   3
ENDBRANCH   1   2
BRANCH   1  12
ATOM     12  C   UNL     1       4.200 -11.486 -14.454  1.00  0.00     0.000 C 
BRANCH  12  13
ATOM     13  C   UNL     1       3.665 -10.053 -14.633  1.00  0.00    -0.000 C 
BRANCH  13  14
ATOM     14  C   UNL     1       3.997  -9.398 -15.985  1.00  0.00    -0.000 C 
BRANCH  14  15
ATOM     15  C   UNL     1       2.773  -9.281 -16.911  1.00  0.00    -0.000 C 
BRANCH  15  16
ATOM     16  C   UNL     1       3.112  -9.602 -18.376  1.00  0.00    -0.000 C 
BRANCH  16  17
ATOM     17  C   UNL     1       3.571 -11.057 -18.567  1.00  0.00    -0.000 C 
BRANCH  17  18
ATOM     18  C   UNL     1       4.905 -11.168 -19.330  1.00  0.00    -0.000 C 
BRANCH  18  19
ATOM     19  C   UNL     1       6.156 -10.823 -18.503  1.00  0.00    -0.003 C 
ATOM     20  C   UNL     1       6.399 -11.797 -17.351  1.00  0.00     0.004 C 
ENDBRANCH  18  19
ENDBRANCH  17  18
ENDBRANCH  16  17
ENDBRANCH  15  16
ENDBRANCH  14  15
ENDBRANCH  13  14
ENDBRANCH  12  13
ENDBRANCH   1  12
TORSDOF 16
ENDMDL
