MODEL 1
REMARK VINA RESULT:     0.040      0.000      0.000
REMARK INTER + INTRA:           0.043
REMARK INTER:                   0.043
REMARK INTRA:                   0.000
REMARK UNBOUND:                 0.000
REMARK SMILES O=c1ccc2cc(O)c(O)cc2o1
REMARK SMILES IDX 4 1 3 2 2 3 1 4 13 5 12 6 11 7 9 8 7 9 6 10 5 11 8 12 10 14
REMARK H PARENT 8 13 10 15
REMARK Flexibility Score: inf
ROOT
ATOM      1  C   UNL     1      27.367  27.057   3.659  1.00  0.00     0.019 A 
ATOM      2  C   UNL     1      27.002  25.923   2.933  1.00  0.00     0.094 A 
ATOM      3  C   UNL     1      26.836  26.028   1.549  1.00  0.00     0.336 A 
ATOM      4  O   UNL     1      26.506  25.015   0.877  1.00  0.00    -0.246 OA
ATOM      5  O   UNL     1      27.025  27.192   0.933  1.00  0.00    -0.423 OA
ATOM      6  C   UNL     1      27.375  28.298   1.586  1.00  0.00     0.142 A 
ATOM      7  C   UNL     1      27.561  29.495   0.887  1.00  0.00     0.098 A 
ATOM      8  C   UNL     1      27.929  30.663   1.571  1.00  0.00     0.161 A 
ATOM      9  C   UNL     1      28.113  30.634   2.960  1.00  0.00     0.158 A 
ATOM     10  C   UNL     1      27.928  29.436   3.668  1.00  0.00     0.062 A 
ATOM     11  C   UNL     1      27.560  28.268   2.986  1.00  0.00     0.022 A 
ENDROOT
BRANCH   9  12
ATOM     12  O   UNL     1      28.479  31.799   3.632  1.00  0.00    -0.504 OA
ATOM     13  H   UNL     1      29.440  31.978   3.898  1.00  0.00     0.293 HD
ENDBRANCH   9  12
BRANCH   8  14
ATOM     14  O   UNL     1      28.114  31.856   0.876  1.00  0.00    -0.504 OA
ATOM     15  H   UNL     1      28.391  32.708   1.349  1.00  0.00     0.293 HD
ENDBRANCH   8  14
TORSDOF 2
ENDMDL
MODEL 2
REMARK VINA RESULT:     0.859      1.269      4.539
REMARK INTER + INTRA:           0.909
REMARK INTER:                   0.909
REMARK INTRA:                   0.000
REMARK UNBOUND:                 0.000
REMARK SMILES O=c1ccc2cc(O)c(O)cc2o1
REMARK SMILES IDX 4 1 3 2 2 3 1 4 13 5 12 6 11 7 9 8 7 9 6 10 5 11 8 12 10 14
REMARK H PARENT 8 13 10 15
REMARK Flexibility Score: inf
ROOT
ATOM      1  C   UNL     1      28.969  29.911   3.147  1.00  0.00     0.019 A 
ATOM      2  C   UNL     1      28.933  31.172   2.553  1.00  0.00     0.094 A 
ATOM      3  C   UNL     1      28.129  31.368   1.425  1.00  0.00     0.336 A 
ATOM      4  O   UNL     1      28.084  32.500   0.875  1.00  0.00    -0.246 OA
ATOM      5  O   UNL     1      27.409  30.366   0.928  1.00  0.00    -0.423 OA
ATOM      6  C   UNL     1      27.413  29.147   1.464  1.00  0.00     0.142 A 
ATOM      7  C   UNL     1      26.636  28.132   0.898  1.00  0.00     0.098 A 
ATOM      8  C   UNL     1      26.638  26.846   1.459  1.00  0.00     0.161 A 
ATOM      9  C   UNL     1      27.421  26.575   2.590  1.00  0.00     0.158 A 
ATOM     10  C   UNL     1      28.203  27.590   3.162  1.00  0.00     0.062 A 
ATOM     11  C   UNL     1      28.202  28.875   2.603  1.00  0.00     0.022 A 
ENDROOT
BRANCH   9  12
ATOM     12  O   UNL     1      27.417  25.295   3.141  1.00  0.00    -0.504 OA
ATOM     13  H   UNL     1      27.946  24.537   2.727  1.00  0.00     0.293 HD
ENDBRANCH   9  12
BRANCH   8  14
ATOM     14  O   UNL     1      25.865  25.832   0.897  1.00  0.00    -0.504 OA
ATOM     15  H   UNL     1      26.170  25.328   0.073  1.00  0.00     0.293 HD
ENDBRANCH   8  14
TORSDOF 2
ENDMDL
MODEL 3
REMARK VINA RESULT:     1.927     14.009     14.743
REMARK INTER + INTRA:           2.040
REMARK INTER:                   2.040
REMARK INTRA:                   0.000
REMARK UNBOUND:                 0.000
REMARK SMILES O=c1ccc2cc(O)c(O)cc2o1
REMARK SMILES IDX 4 1 3 2 2 3 1 4 13 5 12 6 11 7 9 8 7 9 6 10 5 11 8 12 10 14
REMARK H PARENT 8 13 10 15
REMARK Flexibility Score: inf
ROOT
ATOM      1  C   UNL     1      21.025  14.877   3.746  1.00  0.00     0.019 A 
ATOM      2  C   UNL     1      19.840  14.932   3.011  1.00  0.00     0.094 A 
ATOM      3  C   UNL     1      19.910  15.040   1.619  1.00  0.00     0.336 A 
ATOM      4  O   UNL     1      18.851  15.092   0.939  1.00  0.00    -0.246 OA
ATOM      5  O   UNL     1      21.089  15.087   1.004  1.00  0.00    -0.423 OA
ATOM      6  C   UNL     1      22.243  15.035   1.666  1.00  0.00     0.142 A 
ATOM      7  C   UNL     1      23.453  15.089   0.967  1.00  0.00     0.098 A 
ATOM      8  C   UNL     1      24.672  15.036   1.660  1.00  0.00     0.161 A 
ATOM      9  C   UNL     1      24.680  14.929   3.058  1.00  0.00     0.158 A 
ATOM     10  C   UNL     1      23.469  14.875   3.765  1.00  0.00     0.062 A 
ATOM     11  C   UNL     1      22.251  14.928   3.074  1.00  0.00     0.022 A 
ENDROOT
BRANCH   9  12
ATOM     12  O   UNL     1      25.895  14.877   3.739  1.00  0.00    -0.504 OA
ATOM     13  H   UNL     1      26.757  14.630   3.267  1.00  0.00     0.293 HD
ENDBRANCH   9  12
BRANCH   8  14
ATOM     14  O   UNL     1      25.878  15.090   0.966  1.00  0.00    -0.504 OA
ATOM     15  H   UNL     1      26.768  15.129   1.450  1.00  0.00     0.293 HD
ENDBRANCH   8  14
TORSDOF 2
ENDMDL
MODEL 4
REMARK VINA RESULT:     2.382      1.407      4.897
REMARK INTER + INTRA:           2.522
REMARK INTER:                   2.522
REMARK INTRA:                   0.000
REMARK UNBOUND:                 0.000
REMARK SMILES O=c1ccc2cc(O)c(O)cc2o1
REMARK SMILES IDX 4 1 3 2 2 3 1 4 13 5 12 6 11 7 9 8 7 9 6 10 5 11 8 12 10 14
REMARK H PARENT 8 13 10 15
REMARK Flexibility Score: inf
ROOT
ATOM      1  C   UNL     1      29.411  28.948   1.259  1.00  0.00     0.019 A 
ATOM      2  C   UNL     1      29.493  30.226   1.811  1.00  0.00     0.094 A 
ATOM      3  C   UNL     1      28.481  30.659   2.673  1.00  0.00     0.336 A 
ATOM      4  O   UNL     1      28.538  31.810   3.180  1.00  0.00    -0.246 OA
ATOM      5  O   UNL     1      27.456  29.862   2.963  1.00  0.00    -0.423 OA
ATOM      6  C   UNL     1      27.339  28.635   2.460  1.00  0.00     0.142 A 
ATOM      7  C   UNL     1      26.239  27.841   2.800  1.00  0.00     0.098 A 
ATOM      8  C   UNL     1      26.112  26.548   2.272  1.00  0.00     0.161 A 
ATOM      9  C   UNL     1      27.088  26.047   1.400  1.00  0.00     0.158 A 
ATOM     10  C   UNL     1      28.193  26.839   1.054  1.00  0.00     0.062 A 
ATOM     11  C   UNL     1      28.322  28.131   1.581  1.00  0.00     0.022 A 
ENDROOT
BRANCH   9  12
ATOM     12  O   UNL     1      26.953  24.761   0.879  1.00  0.00    -0.504 OA
ATOM     13  H   UNL     1      27.275  24.530  -0.053  1.00  0.00     0.293 HD
ENDBRANCH   9  12
BRANCH   8  14
ATOM     14  O   UNL     1      25.016  25.755   2.610  1.00  0.00    -0.504 OA
ATOM     15  H   UNL     1      24.782  25.557   3.575  1.00  0.00     0.293 HD
ENDBRANCH   8  14
TORSDOF 2
ENDMDL
MODEL 5
REMARK VINA RESULT:     2.427      1.494      4.620
REMARK INTER + INTRA:           2.569
REMARK INTER:                   2.569
REMARK INTRA:                   0.000
REMARK UNBOUND:                 0.000
REMARK SMILES O=c1ccc2cc(O)c(O)cc2o1
REMARK SMILES IDX 4 1 3 2 2 3 1 4 13 5 12 6 11 7 9 8 7 9 6 10 5 11 8 12 10 14
REMARK H PARENT 8 13 10 15
REMARK Flexibility Score: inf
ROOT
ATOM      1  C   UNL     1      27.029  30.108   2.785  1.00  0.00     0.019 A 
ATOM      2  C   UNL     1      27.963  31.017   2.286  1.00  0.00     0.094 A 
ATOM      3  C   UNL     1      28.892  30.583   1.337  1.00  0.00     0.336 A 
ATOM      4  O   UNL     1      29.742  31.388   0.875  1.00  0.00    -0.246 OA
ATOM      5  O   UNL     1      28.884  29.321   0.914  1.00  0.00    -0.423 OA
ATOM      6  C   UNL     1      28.012  28.421   1.362  1.00  0.00     0.142 A 
ATOM      7  C   UNL     1      28.051  27.108   0.882  1.00  0.00     0.098 A 
ATOM      8  C   UNL     1      27.133  26.157   1.352  1.00  0.00     0.161 A 
ATOM      9  C   UNL     1      26.173  26.521   2.307  1.00  0.00     0.158 A 
ATOM     10  C   UNL     1      26.128  27.836   2.792  1.00  0.00     0.062 A 
ATOM     11  C   UNL     1      27.044  28.788   2.324  1.00  0.00     0.022 A 
ENDROOT
BRANCH   9  12
ATOM     12  O   UNL     1      25.264  25.569   2.768  1.00  0.00    -0.504 OA
ATOM     13  H   UNL     1      24.868  24.871   2.150  1.00  0.00     0.293 HD
ENDBRANCH   9  12
BRANCH   8  14
ATOM     14  O   UNL     1      27.171  24.848   0.876  1.00  0.00    -0.504 OA
ATOM     15  H   UNL     1      26.458  24.173   1.124  1.00  0.00     0.293 HD
ENDBRANCH   8  14
TORSDOF 2
ENDMDL
