MODEL 1
REMARK VINA RESULT:    -7.966      0.000      0.000
REMARK INTER + INTRA:         -11.585
REMARK INTER:                 -10.528
REMARK INTRA:                  -1.057
REMARK UNBOUND:                -1.057
REMARK SMILES CC[C@@H](C=C[C@@H](C)[C@H]1CC[C@@H]2[C@@H]3CC=C4C[C@H](O)CC[C@]4(C)[C@@H]3CC[C@@]21C)C(C)C
REMARK SMILES IDX 6 1 7 2 5 3 4 4 3 5 2 6 1 7 28 8 29 9 30 10 8 11 9 12 26 13
REMARK SMILES IDX 10 14 11 15 25 16 27 17 12 18 24 19 23 20 13 21 21 22 14 23
REMARK SMILES IDX 15 24 20 25 22 26 16 27 19 28 17 29 18 30
REMARK H PARENT 18 31
REMARK Flexibility Score: inf
ROOT
ATOM      1  C   UNL     1      17.458  26.249  43.419  1.00  0.00     0.012 C 
ATOM      2  C   UNL     1      16.635  27.114  42.445  1.00  0.00     0.012 C 
ENDROOT
BRANCH   1   3
ATOM      3  C   UNL     1      18.825  25.965  42.840  1.00  0.00    -0.028 C 
ATOM      4  C   UNL     1      19.000  25.782  41.521  1.00  0.00    -0.027 C 
BRANCH   4   5
ATOM      5  C   UNL     1      20.357  25.454  40.929  1.00  0.00     0.014 C 
BRANCH   5   6
ATOM      6  C   UNL     1      21.045  26.779  40.490  1.00  0.00     0.004 C 
ATOM      7  C   UNL     1      20.043  27.813  39.974  1.00  0.00     0.004 C 
ENDBRANCH   5   6
BRANCH   5   8
ATOM      8  C   UNL     1      20.199  24.445  39.748  1.00  0.00    -0.011 C 
ATOM      9  C   UNL     1      18.777  24.484  39.155  1.00  0.00     0.008 C 
ATOM     10  C   UNL     1      20.517  23.003  40.182  1.00  0.00     0.008 C 
ENDBRANCH   5   8
ENDBRANCH   4   5
ENDBRANCH   1   3
BRANCH   1  11
ATOM     11  C   UNL     1      16.783  24.946  43.975  1.00  0.00     0.002 C 
ATOM     12  C   UNL     1      15.690  25.210  45.005  1.00  0.00     0.005 C 
ATOM     13  C   UNL     1      16.220  23.824  43.022  1.00  0.00    -0.026 C 
ATOM     14  C   UNL     1      15.032  23.861  45.197  1.00  0.00     0.005 C 
ATOM     15  C   UNL     1      14.976  23.255  43.792  1.00  0.00    -0.001 C 
ATOM     16  C   UNL     1      17.303  22.731  42.776  1.00  0.00     0.007 C 
ATOM     17  C   UNL     1      15.747  24.354  41.652  1.00  0.00     0.012 C 
ATOM     18  C   UNL     1      14.801  21.699  43.736  1.00  0.00     0.000 C 
ATOM     19  C   UNL     1      17.380  21.717  43.923  1.00  0.00     0.005 C 
ATOM     20  C   UNL     1      16.103  20.848  43.950  1.00  0.00     0.003 C 
ATOM     21  C   UNL     1      13.603  21.229  44.573  1.00  0.00     0.031 C 
ATOM     22  C   UNL     1      16.062  19.756  45.101  1.00  0.00    -0.008 C 
ATOM     23  C   UNL     1      13.579  19.747  44.769  1.00  0.00    -0.027 C 
ATOM     24  C   UNL     1      14.686  19.089  45.162  1.00  0.00    -0.065 C 
ATOM     25  C   UNL     1      16.334  20.334  46.520  1.00  0.00     0.014 C 
ATOM     26  C   UNL     1      17.141  18.682  44.766  1.00  0.00     0.016 C 
ATOM     27  C   UNL     1      14.505  17.980  46.177  1.00  0.00     0.063 C 
ATOM     28  C   UNL     1      16.139  19.290  47.648  1.00  0.00     0.033 C 
ATOM     29  C   UNL     1      14.778  18.560  47.581  1.00  0.00     0.118 C 
BRANCH  29  30
ATOM     30  O   UNL     1      13.756  19.456  47.938  1.00  0.00    -0.393 OA
ATOM     31  H   UNL     1      13.752  19.510  48.928  1.00  0.00     0.210 HD
ENDBRANCH  29  30
ENDBRANCH   1  11
TORSDOF 6
ENDMDL
MODEL 2
REMARK VINA RESULT:    -7.697      1.888      3.273
REMARK INTER + INTRA:         -11.228
REMARK INTER:                  -9.925
REMARK INTRA:                  -1.304
REMARK UNBOUND:                -1.057
REMARK SMILES CC[C@@H](C=C[C@@H](C)[C@H]1CC[C@@H]2[C@@H]3CC=C4C[C@H](O)CC[C@]4(C)[C@@H]3CC[C@@]21C)C(C)C
REMARK SMILES IDX 6 1 7 2 5 3 4 4 3 5 2 6 1 7 28 8 29 9 30 10 8 11 9 12 26 13
REMARK SMILES IDX 10 14 11 15 25 16 27 17 12 18 24 19 23 20 13 21 21 22 14 23
REMARK SMILES IDX 15 24 20 25 22 26 16 27 19 28 17 29 18 30
REMARK H PARENT 18 31
REMARK Flexibility Score: inf
ROOT
ATOM      1  C   UNL     1      17.203  24.787  40.262  1.00  0.00     0.012 C 
ATOM      2  C   UNL     1      15.999  24.830  39.301  1.00  0.00     0.012 C 
ENDROOT
BRANCH   1   3
ATOM      3  C   UNL     1      18.480  24.545  39.491  1.00  0.00    -0.028 C 
ATOM      4  C   UNL     1      18.505  23.740  38.416  1.00  0.00    -0.027 C 
BRANCH   4   5
ATOM      5  C   UNL     1      19.786  23.453  37.657  1.00  0.00     0.014 C 
BRANCH   5   6
ATOM      6  C   UNL     1      19.610  23.925  36.184  1.00  0.00     0.004 C 
ATOM      7  C   UNL     1      18.166  24.307  35.863  1.00  0.00     0.004 C 
ENDBRANCH   5   6
BRANCH   5   8
ATOM      8  C   UNL     1      20.145  21.937  37.760  1.00  0.00    -0.011 C 
ATOM      9  C   UNL     1      18.963  21.045  37.333  1.00  0.00     0.008 C 
ATOM     10  C   UNL     1      20.573  21.547  39.185  1.00  0.00     0.008 C 
ENDBRANCH   5   8
ENDBRANCH   4   5
ENDBRANCH   1   3
BRANCH   1  11
ATOM     11  C   UNL     1      17.095  23.845  41.512  1.00  0.00     0.002 C 
ATOM     12  C   UNL     1      18.445  23.398  42.064  1.00  0.00     0.005 C 
ATOM     13  C   UNL     1      16.215  24.215  42.766  1.00  0.00    -0.026 C 
ATOM     14  C   UNL     1      18.103  22.730  43.378  1.00  0.00     0.005 C 
ATOM     15  C   UNL     1      17.000  23.606  43.981  1.00  0.00    -0.001 C 
ATOM     16  C   UNL     1      14.791  23.600  42.626  1.00  0.00     0.007 C 
ATOM     17  C   UNL     1      16.066  25.734  42.992  1.00  0.00     0.012 C 
ATOM     18  C   UNL     1      16.118  22.919  45.078  1.00  0.00     0.000 C 
ATOM     19  C   UNL     1      14.749  22.123  43.034  1.00  0.00     0.005 C 
ATOM     20  C   UNL     1      14.966  21.988  44.558  1.00  0.00     0.003 C 
ATOM     21  C   UNL     1      16.975  22.291  46.188  1.00  0.00     0.031 C 
ATOM     22  C   UNL     1      14.947  20.498  45.106  1.00  0.00    -0.008 C 
ATOM     23  C   UNL     1      16.188  21.394  47.089  1.00  0.00    -0.027 C 
ATOM     24  C   UNL     1      15.363  20.460  46.578  1.00  0.00    -0.065 C 
ATOM     25  C   UNL     1      15.916  19.543  44.350  1.00  0.00     0.014 C 
ATOM     26  C   UNL     1      13.487  19.968  44.968  1.00  0.00     0.016 C 
ATOM     27  C   UNL     1      15.340  19.111  47.263  1.00  0.00     0.063 C 
ATOM     28  C   UNL     1      16.001  18.135  44.991  1.00  0.00     0.033 C 
ATOM     29  C   UNL     1      16.301  18.168  46.508  1.00  0.00     0.118 C 
BRANCH  29  30
ATOM     30  O   UNL     1      17.631  18.578  46.707  1.00  0.00    -0.393 OA
ATOM     31  H   UNL     1      17.660  19.556  46.546  1.00  0.00     0.210 HD
ENDBRANCH  29  30
ENDBRANCH   1  11
TORSDOF 6
ENDMDL
MODEL 3
REMARK VINA RESULT:    -7.558      2.502      8.103
REMARK INTER + INTRA:         -11.045
REMARK INTER:                  -9.823
REMARK INTRA:                  -1.223
REMARK UNBOUND:                -1.057
REMARK SMILES CC[C@@H](C=C[C@@H](C)[C@H]1CC[C@@H]2[C@@H]3CC=C4C[C@H](O)CC[C@]4(C)[C@@H]3CC[C@@]21C)C(C)C
REMARK SMILES IDX 6 1 7 2 5 3 4 4 3 5 2 6 1 7 28 8 29 9 30 10 8 11 9 12 26 13
REMARK SMILES IDX 10 14 11 15 25 16 27 17 12 18 24 19 23 20 13 21 21 22 14 23
REMARK SMILES IDX 15 24 20 25 22 26 16 27 19 28 17 29 18 30
REMARK H PARENT 18 31
REMARK Flexibility Score: inf
ROOT
ATOM      1  C   UNL     1      15.941  22.440  46.614  1.00  0.00     0.012 C 
ATOM      2  C   UNL     1      17.012  22.630  47.706  1.00  0.00     0.012 C 
ENDROOT
BRANCH   1   3
ATOM      3  C   UNL     1      15.367  21.044  46.682  1.00  0.00    -0.028 C 
ATOM      4  C   UNL     1      16.141  19.983  46.962  1.00  0.00    -0.027 C 
BRANCH   4   5
ATOM      5  C   UNL     1      15.589  18.570  46.992  1.00  0.00     0.014 C 
BRANCH   5   6
ATOM      6  C   UNL     1      15.826  17.912  45.601  1.00  0.00     0.004 C 
ATOM      7  C   UNL     1      17.249  18.132  45.087  1.00  0.00     0.004 C 
ENDBRANCH   5   6
BRANCH   5   8
ATOM      8  C   UNL     1      14.081  18.591  47.392  1.00  0.00    -0.011 C 
ATOM      9  C   UNL     1      13.871  18.106  48.840  1.00  0.00     0.008 C 
ATOM     10  C   UNL     1      13.227  17.726  46.449  1.00  0.00     0.008 C 
ENDBRANCH   5   8
ENDBRANCH   4   5
ENDBRANCH   1   3
BRANCH   1  11
ATOM     11  C   UNL     1      16.328  22.836  45.146  1.00  0.00     0.002 C 
ATOM     12  C   UNL     1      15.935  21.794  44.104  1.00  0.00     0.005 C 
ATOM     13  C   UNL     1      15.946  24.234  44.528  1.00  0.00    -0.026 C 
ATOM     14  C   UNL     1      16.170  22.490  42.781  1.00  0.00     0.005 C 
ATOM     15  C   UNL     1      15.691  23.927  43.010  1.00  0.00    -0.001 C 
ATOM     16  C   UNL     1      17.110  25.249  44.729  1.00  0.00     0.007 C 
ATOM     17  C   UNL     1      14.662  24.846  45.125  1.00  0.00     0.012 C 
ATOM     18  C   UNL     1      16.247  24.991  42.003  1.00  0.00     0.000 C 
ATOM     19  C   UNL     1      18.214  25.088  43.679  1.00  0.00     0.005 C 
ATOM     20  C   UNL     1      17.695  25.526  42.291  1.00  0.00     0.003 C 
ATOM     21  C   UNL     1      16.015  24.572  40.544  1.00  0.00     0.031 C 
ATOM     22  C   UNL     1      18.751  25.402  41.112  1.00  0.00    -0.008 C 
ATOM     23  C   UNL     1      16.775  25.415  39.571  1.00  0.00    -0.027 C 
ATOM     24  C   UNL     1      18.084  25.671  39.761  1.00  0.00    -0.065 C 
ATOM     25  C   UNL     1      19.407  23.995  41.007  1.00  0.00     0.014 C 
ATOM     26  C   UNL     1      19.858  26.471  41.363  1.00  0.00     0.016 C 
ATOM     27  C   UNL     1      18.976  25.645  38.539  1.00  0.00     0.063 C 
ATOM     28  C   UNL     1      20.317  23.842  39.763  1.00  0.00     0.033 C 
ATOM     29  C   UNL     1      19.624  24.248  38.442  1.00  0.00     0.118 C 
BRANCH  29  30
ATOM     30  O   UNL     1      18.651  23.288  38.117  1.00  0.00    -0.393 OA
ATOM     31  H   UNL     1      18.239  23.572  37.260  1.00  0.00     0.210 HD
ENDBRANCH  29  30
ENDBRANCH   1  11
TORSDOF 6
ENDMDL
MODEL 4
REMARK VINA RESULT:    -7.338      2.590      7.882
REMARK INTER + INTRA:         -10.755
REMARK INTER:                  -9.753
REMARK INTRA:                  -1.002
REMARK UNBOUND:                -1.057
REMARK SMILES CC[C@@H](C=C[C@@H](C)[C@H]1CC[C@@H]2[C@@H]3CC=C4C[C@H](O)CC[C@]4(C)[C@@H]3CC[C@@]21C)C(C)C
REMARK SMILES IDX 6 1 7 2 5 3 4 4 3 5 2 6 1 7 28 8 29 9 30 10 8 11 9 12 26 13
REMARK SMILES IDX 10 14 11 15 25 16 27 17 12 18 24 19 23 20 13 21 21 22 14 23
REMARK SMILES IDX 15 24 20 25 22 26 16 27 19 28 17 29 18 30
REMARK H PARENT 18 31
REMARK Flexibility Score: inf
ROOT
ATOM      1  C   UNL     1      13.999  22.646  45.694  1.00  0.00     0.012 C 
ATOM      2  C   UNL     1      13.676  23.505  46.933  1.00  0.00     0.012 C 
ENDROOT
BRANCH   1   3
ATOM      3  C   UNL     1      14.486  21.280  46.117  1.00  0.00    -0.028 C 
ATOM      4  C   UNL     1      14.516  20.251  45.254  1.00  0.00    -0.027 C 
BRANCH   4   5
ATOM      5  C   UNL     1      14.961  18.863  45.674  1.00  0.00     0.014 C 
BRANCH   5   6
ATOM      6  C   UNL     1      14.119  18.419  46.905  1.00  0.00     0.004 C 
ATOM      7  C   UNL     1      12.801  17.759  46.502  1.00  0.00     0.004 C 
ENDBRANCH   5   6
BRANCH   5   8
ATOM      8  C   UNL     1      16.495  18.856  45.966  1.00  0.00    -0.011 C 
ATOM      9  C   UNL     1      17.246  17.891  45.028  1.00  0.00     0.008 C 
ATOM     10  C   UNL     1      16.796  18.469  47.424  1.00  0.00     0.008 C 
ENDBRANCH   5   8
ENDBRANCH   4   5
ENDBRANCH   1   3
BRANCH   1  11
ATOM     11  C   UNL     1      14.928  23.279  44.600  1.00  0.00     0.002 C 
ATOM     12  C   UNL     1      14.304  24.465  43.872  1.00  0.00     0.005 C 
ATOM     13  C   UNL     1      16.419  23.691  44.904  1.00  0.00    -0.026 C 
ATOM     14  C   UNL     1      15.448  25.049  43.072  1.00  0.00     0.005 C 
ATOM     15  C   UNL     1      16.660  24.954  44.003  1.00  0.00    -0.001 C 
ATOM     16  C   UNL     1      17.386  22.525  44.543  1.00  0.00     0.007 C 
ATOM     17  C   UNL     1      16.665  24.086  46.375  1.00  0.00     0.012 C 
ATOM     18  C   UNL     1      18.058  25.023  43.299  1.00  0.00     0.000 C 
ATOM     19  C   UNL     1      17.707  22.474  43.045  1.00  0.00     0.005 C 
ATOM     20  C   UNL     1      18.571  23.691  42.646  1.00  0.00     0.003 C 
ATOM     21  C   UNL     1      18.176  26.252  42.385  1.00  0.00     0.031 C 
ATOM     22  C   UNL     1      18.969  23.754  41.111  1.00  0.00    -0.008 C 
ATOM     23  C   UNL     1      19.373  26.197  41.492  1.00  0.00    -0.027 C 
ATOM     24  C   UNL     1      19.651  25.084  40.785  1.00  0.00    -0.065 C 
ATOM     25  C   UNL     1      17.754  23.634  40.145  1.00  0.00     0.014 C 
ATOM     26  C   UNL     1      19.964  22.584  40.837  1.00  0.00     0.016 C 
ATOM     27  C   UNL     1      20.142  25.274  39.366  1.00  0.00     0.063 C 
ATOM     28  C   UNL     1      18.137  23.850  38.660  1.00  0.00     0.033 C 
ATOM     29  C   UNL     1      18.933  25.152  38.415  1.00  0.00     0.118 C 
BRANCH  29  30
ATOM     30  O   UNL     1      18.078  26.255  38.580  1.00  0.00    -0.393 OA
ATOM     31  H   UNL     1      18.539  27.041  38.188  1.00  0.00     0.210 HD
ENDBRANCH  29  30
ENDBRANCH   1  11
TORSDOF 6
ENDMDL
MODEL 5
REMARK VINA RESULT:    -7.205      0.924      1.711
REMARK INTER + INTRA:         -10.579
REMARK INTER:                  -9.790
REMARK INTRA:                  -0.789
REMARK UNBOUND:                -1.057
REMARK SMILES CC[C@@H](C=C[C@@H](C)[C@H]1CC[C@@H]2[C@@H]3CC=C4C[C@H](O)CC[C@]4(C)[C@@H]3CC[C@@]21C)C(C)C
REMARK SMILES IDX 6 1 7 2 5 3 4 4 3 5 2 6 1 7 28 8 29 9 30 10 8 11 9 12 26 13
REMARK SMILES IDX 10 14 11 15 25 16 27 17 12 18 24 19 23 20 13 21 21 22 14 23
REMARK SMILES IDX 15 24 20 25 22 26 16 27 19 28 17 29 18 30
REMARK H PARENT 18 31
REMARK Flexibility Score: inf
ROOT
ATOM      1  C   UNL     1      17.763  25.706  43.228  1.00  0.00     0.012 C 
ATOM      2  C   UNL     1      16.848  26.826  42.695  1.00  0.00     0.012 C 
ENDROOT
BRANCH   1   3
ATOM      3  C   UNL     1      18.655  25.189  42.123  1.00  0.00    -0.028 C 
ATOM      4  C   UNL     1      18.265  25.221  40.838  1.00  0.00    -0.027 C 
BRANCH   4   5
ATOM      5  C   UNL     1      19.130  24.667  39.722  1.00  0.00     0.014 C 
BRANCH   5   6
ATOM      6  C   UNL     1      20.437  24.091  40.342  1.00  0.00     0.004 C 
ATOM      7  C   UNL     1      20.516  22.569  40.224  1.00  0.00     0.004 C 
ENDBRANCH   5   6
BRANCH   5   8
ATOM      8  C   UNL     1      19.412  25.775  38.660  1.00  0.00    -0.011 C 
ATOM      9  C   UNL     1      19.803  27.110  39.322  1.00  0.00     0.008 C 
ATOM     10  C   UNL     1      18.198  26.011  37.745  1.00  0.00     0.008 C 
ENDBRANCH   5   8
ENDBRANCH   4   5
ENDBRANCH   1   3
BRANCH   1  11
ATOM     11  C   UNL     1      17.084  24.534  44.020  1.00  0.00     0.002 C 
ATOM     12  C   UNL     1      16.471  24.962  45.349  1.00  0.00     0.005 C 
ATOM     13  C   UNL     1      16.033  23.569  43.348  1.00  0.00    -0.026 C 
ATOM     14  C   UNL     1      15.676  23.754  45.794  1.00  0.00     0.005 C 
ATOM     15  C   UNL     1      15.038  23.217  44.511  1.00  0.00    -0.001 C 
ATOM     16  C   UNL     1      16.745  22.303  42.787  1.00  0.00     0.007 C 
ATOM     17  C   UNL     1      15.235  24.224  42.202  1.00  0.00     0.012 C 
ATOM     18  C   UNL     1      14.567  21.724  44.565  1.00  0.00     0.000 C 
ATOM     19  C   UNL     1      17.013  21.254  43.872  1.00  0.00     0.005 C 
ATOM     20  C   UNL     1      15.681  20.638  44.355  1.00  0.00     0.003 C 
ATOM     21  C   UNL     1      13.655  21.457  45.773  1.00  0.00     0.031 C 
ATOM     22  C   UNL     1      15.827  19.534  45.487  1.00  0.00    -0.008 C 
ATOM     23  C   UNL     1      13.422  20.000  46.012  1.00  0.00    -0.027 C 
ATOM     24  C   UNL     1      14.453  19.134  46.029  1.00  0.00    -0.065 C 
ATOM     25  C   UNL     1      16.664  20.003  46.713  1.00  0.00     0.014 C 
ATOM     26  C   UNL     1      16.509  18.290  44.841  1.00  0.00     0.016 C 
ATOM     27  C   UNL     1      14.421  18.045  47.080  1.00  0.00     0.063 C 
ATOM     28  C   UNL     1      16.669  18.976  47.872  1.00  0.00     0.033 C 
ATOM     29  C   UNL     1      15.254  18.516  48.291  1.00  0.00     0.118 C 
BRANCH  29  30
ATOM     30  O   UNL     1      14.598  19.575  48.943  1.00  0.00    -0.393 OA
ATOM     31  H   UNL     1      15.297  20.109  49.401  1.00  0.00     0.210 HD
ENDBRANCH  29  30
ENDBRANCH   1  11
TORSDOF 6
ENDMDL
MODEL 6
REMARK VINA RESULT:    -7.005      3.973      8.322
REMARK INTER + INTRA:         -10.314
REMARK INTER:                  -9.503
REMARK INTRA:                  -0.812
REMARK UNBOUND:                -1.057
REMARK SMILES CC[C@@H](C=C[C@@H](C)[C@H]1CC[C@@H]2[C@@H]3CC=C4C[C@H](O)CC[C@]4(C)[C@@H]3CC[C@@]21C)C(C)C
REMARK SMILES IDX 6 1 7 2 5 3 4 4 3 5 2 6 1 7 28 8 29 9 30 10 8 11 9 12 26 13
REMARK SMILES IDX 10 14 11 15 25 16 27 17 12 18 24 19 23 20 13 21 21 22 14 23
REMARK SMILES IDX 15 24 20 25 22 26 16 27 19 28 17 29 18 30
REMARK H PARENT 18 31
REMARK Flexibility Score: inf
ROOT
ATOM      1  C   UNL     1      18.283  27.119  44.081  1.00  0.00     0.012 C 
ATOM      2  C   UNL     1      19.522  27.047  44.995  1.00  0.00     0.012 C 
ENDROOT
BRANCH   1   3
ATOM      3  C   UNL     1      17.066  26.592  44.806  1.00  0.00    -0.028 C 
ATOM      4  C   UNL     1      17.077  26.391  46.134  1.00  0.00    -0.027 C 
BRANCH   4   5
ATOM      5  C   UNL     1      15.879  25.822  46.871  1.00  0.00     0.014 C 
BRANCH   5   6
ATOM      6  C   UNL     1      14.956  25.105  45.843  1.00  0.00     0.004 C 
ATOM      7  C   UNL     1      15.061  23.583  45.926  1.00  0.00     0.004 C 
ENDBRANCH   5   6
BRANCH   5   8
ATOM      8  C   UNL     1      15.140  26.954  47.650  1.00  0.00    -0.011 C 
ATOM      9  C   UNL     1      15.636  27.059  49.105  1.00  0.00     0.008 C 
ATOM     10  C   UNL     1      13.616  26.741  47.658  1.00  0.00     0.008 C 
ENDBRANCH   5   8
ENDBRANCH   4   5
ENDBRANCH   1   3
BRANCH   1  11
ATOM     11  C   UNL     1      18.409  26.506  42.642  1.00  0.00     0.002 C 
ATOM     12  C   UNL     1      19.784  26.697  42.011  1.00  0.00     0.005 C 
ATOM     13  C   UNL     1      17.989  25.020  42.326  1.00  0.00    -0.026 C 
ATOM     14  C   UNL     1      19.745  25.826  40.774  1.00  0.00     0.005 C 
ATOM     15  C   UNL     1      18.998  24.564  41.213  1.00  0.00    -0.001 C 
ATOM     16  C   UNL     1      16.513  24.971  41.830  1.00  0.00     0.007 C 
ATOM     17  C   UNL     1      18.127  24.067  43.532  1.00  0.00     0.012 C 
ATOM     18  C   UNL     1      18.382  23.707  40.055  1.00  0.00     0.000 C 
ATOM     19  C   UNL     1      16.384  25.322  40.344  1.00  0.00     0.005 C 
ATOM     20  C   UNL     1      17.010  24.206  39.478  1.00  0.00     0.003 C 
ATOM     21  C   UNL     1      19.426  23.368  38.979  1.00  0.00     0.031 C 
ATOM     22  C   UNL     1      16.941  24.457  37.912  1.00  0.00    -0.008 C 
ATOM     23  C   UNL     1      18.815  22.803  37.738  1.00  0.00    -0.027 C 
ATOM     24  C   UNL     1      17.754  23.401  37.161  1.00  0.00    -0.065 C 
ATOM     25  C   UNL     1      17.507  25.840  37.476  1.00  0.00     0.014 C 
ATOM     26  C   UNL     1      15.444  24.354  37.488  1.00  0.00     0.016 C 
ATOM     27  C   UNL     1      17.741  23.471  35.649  1.00  0.00     0.063 C 
ATOM     28  C   UNL     1      17.575  26.009  35.937  1.00  0.00     0.033 C 
ATOM     29  C   UNL     1      18.301  24.845  35.224  1.00  0.00     0.118 C 
BRANCH  29  30
ATOM     30  O   UNL     1      19.676  24.913  35.510  1.00  0.00    -0.393 OA
ATOM     31  H   UNL     1      20.112  25.340  34.728  1.00  0.00     0.210 HD
ENDBRANCH  29  30
ENDBRANCH   1  11
TORSDOF 6
ENDMDL
MODEL 7
REMARK VINA RESULT:    -6.997      1.513      2.889
REMARK INTER + INTRA:         -10.303
REMARK INTER:                  -9.238
REMARK INTRA:                  -1.065
REMARK UNBOUND:                -1.057
REMARK SMILES CC[C@@H](C=C[C@@H](C)[C@H]1CC[C@@H]2[C@@H]3CC=C4C[C@H](O)CC[C@]4(C)[C@@H]3CC[C@@]21C)C(C)C
REMARK SMILES IDX 6 1 7 2 5 3 4 4 3 5 2 6 1 7 28 8 29 9 30 10 8 11 9 12 26 13
REMARK SMILES IDX 10 14 11 15 25 16 27 17 12 18 24 19 23 20 13 21 21 22 14 23
REMARK SMILES IDX 15 24 20 25 22 26 16 27 19 28 17 29 18 30
REMARK H PARENT 18 31
REMARK Flexibility Score: inf
ROOT
ATOM      1  C   UNL     1      17.092  24.878  42.521  1.00  0.00     0.012 C 
ATOM      2  C   UNL     1      16.454  26.262  42.749  1.00  0.00     0.012 C 
ENDROOT
BRANCH   1   3
ATOM      3  C   UNL     1      17.287  24.628  41.044  1.00  0.00    -0.028 C 
ATOM      4  C   UNL     1      18.513  24.612  40.493  1.00  0.00    -0.027 C 
BRANCH   4   5
ATOM      5  C   UNL     1      18.723  24.406  39.006  1.00  0.00     0.014 C 
BRANCH   5   6
ATOM      6  C   UNL     1      19.711  23.220  38.801  1.00  0.00     0.004 C 
ATOM      7  C   UNL     1      20.502  22.895  40.067  1.00  0.00     0.004 C 
ENDBRANCH   5   6
BRANCH   5   8
ATOM      8  C   UNL     1      19.230  25.726  38.346  1.00  0.00    -0.011 C 
ATOM      9  C   UNL     1      19.603  26.782  39.404  1.00  0.00     0.008 C 
ATOM     10  C   UNL     1      18.183  26.327  37.392  1.00  0.00     0.008 C 
ENDBRANCH   5   8
ENDBRANCH   4   5
ENDBRANCH   1   3
BRANCH   1  11
ATOM     11  C   UNL     1      16.424  23.649  43.233  1.00  0.00     0.002 C 
ATOM     12  C   UNL     1      15.296  23.011  42.428  1.00  0.00     0.005 C 
ATOM     13  C   UNL     1      17.274  22.455  43.813  1.00  0.00    -0.026 C 
ATOM     14  C   UNL     1      14.990  21.731  43.176  1.00  0.00     0.005 C 
ATOM     15  C   UNL     1      16.359  21.196  43.603  1.00  0.00    -0.001 C 
ATOM     16  C   UNL     1      17.592  22.700  45.318  1.00  0.00     0.007 C 
ATOM     17  C   UNL     1      18.605  22.222  43.068  1.00  0.00     0.012 C 
ATOM     18  C   UNL     1      16.343  20.170  44.787  1.00  0.00     0.000 C 
ATOM     19  C   UNL     1      16.424  22.313  46.232  1.00  0.00     0.005 C 
ATOM     20  C   UNL     1      16.235  20.779  46.230  1.00  0.00     0.003 C 
ATOM     21  C   UNL     1      15.369  19.011  44.525  1.00  0.00     0.031 C 
ATOM     22  C   UNL     1      15.047  20.251  47.142  1.00  0.00    -0.008 C 
ATOM     23  C   UNL     1      15.120  18.177  45.740  1.00  0.00    -0.027 C 
ATOM     24  C   UNL     1      14.821  18.755  46.919  1.00  0.00    -0.065 C 
ATOM     25  C   UNL     1      13.685  20.949  46.860  1.00  0.00     0.014 C 
ATOM     26  C   UNL     1      15.455  20.495  48.628  1.00  0.00     0.016 C 
ATOM     27  C   UNL     1      13.755  18.089  47.762  1.00  0.00     0.063 C 
ATOM     28  C   UNL     1      12.508  20.320  47.647  1.00  0.00     0.033 C 
ATOM     29  C   UNL     1      12.408  18.787  47.479  1.00  0.00     0.118 C 
BRANCH  29  30
ATOM     30  O   UNL     1      11.978  18.492  46.173  1.00  0.00    -0.393 OA
ATOM     31  H   UNL     1      12.183  19.286  45.615  1.00  0.00     0.210 HD
ENDBRANCH  29  30
ENDBRANCH   1  11
TORSDOF 6
ENDMDL
MODEL 8
REMARK VINA RESULT:    -6.992      1.911      3.242
REMARK INTER + INTRA:         -10.297
REMARK INTER:                  -9.415
REMARK INTRA:                  -0.882
REMARK UNBOUND:                -1.057
REMARK SMILES CC[C@@H](C=C[C@@H](C)[C@H]1CC[C@@H]2[C@@H]3CC=C4C[C@H](O)CC[C@]4(C)[C@@H]3CC[C@@]21C)C(C)C
REMARK SMILES IDX 6 1 7 2 5 3 4 4 3 5 2 6 1 7 28 8 29 9 30 10 8 11 9 12 26 13
REMARK SMILES IDX 10 14 11 15 25 16 27 17 12 18 24 19 23 20 13 21 21 22 14 23
REMARK SMILES IDX 15 24 20 25 22 26 16 27 19 28 17 29 18 30
REMARK H PARENT 18 31
REMARK Flexibility Score: inf
ROOT
ATOM      1  C   UNL     1      19.565  26.071  41.248  1.00  0.00     0.012 C 
ATOM      2  C   UNL     1      19.449  27.551  40.831  1.00  0.00     0.012 C 
ENDROOT
BRANCH   1   3
ATOM      3  C   UNL     1      19.434  25.175  40.038  1.00  0.00    -0.028 C 
ATOM      4  C   UNL     1      20.246  24.121  39.859  1.00  0.00    -0.027 C 
BRANCH   4   5
ATOM      5  C   UNL     1      20.156  23.237  38.630  1.00  0.00     0.014 C 
BRANCH   5   6
ATOM      6  C   UNL     1      18.988  23.744  37.735  1.00  0.00     0.004 C 
ATOM      7  C   UNL     1      19.459  24.158  36.341  1.00  0.00     0.004 C 
ENDBRANCH   5   6
BRANCH   5   8
ATOM      8  C   UNL     1      19.980  21.745  39.052  1.00  0.00    -0.011 C 
ATOM      9  C   UNL     1      20.895  21.379  40.236  1.00  0.00     0.008 C 
ATOM     10  C   UNL     1      20.267  20.783  37.886  1.00  0.00     0.008 C 
ENDBRANCH   5   8
ENDBRANCH   4   5
ENDBRANCH   1   3
BRANCH   1  11
ATOM     11  C   UNL     1      18.659  25.582  42.432  1.00  0.00     0.002 C 
ATOM     12  C   UNL     1      18.467  26.622  43.531  1.00  0.00     0.005 C 
ATOM     13  C   UNL     1      17.241  24.939  42.189  1.00  0.00    -0.026 C 
ATOM     14  C   UNL     1      17.384  26.033  44.409  1.00  0.00     0.005 C 
ATOM     15  C   UNL     1      16.393  25.399  43.429  1.00  0.00    -0.001 C 
ATOM     16  C   UNL     1      17.358  23.388  42.108  1.00  0.00     0.007 C 
ATOM     17  C   UNL     1      16.544  25.440  40.907  1.00  0.00     0.012 C 
ATOM     18  C   UNL     1      15.444  24.312  44.038  1.00  0.00     0.000 C 
ATOM     19  C   UNL     1      17.417  22.733  43.492  1.00  0.00     0.005 C 
ATOM     20  C   UNL     1      16.053  22.875  44.205  1.00  0.00     0.003 C 
ATOM     21  C   UNL     1      14.711  24.829  45.285  1.00  0.00     0.031 C 
ATOM     22  C   UNL     1      15.989  22.236  45.657  1.00  0.00    -0.008 C 
ATOM     23  C   UNL     1      14.024  23.741  46.046  1.00  0.00    -0.027 C 
ATOM     24  C   UNL     1      14.673  22.599  46.348  1.00  0.00    -0.065 C 
ATOM     25  C   UNL     1      17.129  22.715  46.602  1.00  0.00     0.014 C 
ATOM     26  C   UNL     1      16.073  20.688  45.490  1.00  0.00     0.016 C 
ATOM     27  C   UNL     1      14.436  22.016  47.724  1.00  0.00     0.063 C 
ATOM     28  C   UNL     1      16.966  22.204  48.056  1.00  0.00     0.033 C 
ATOM     29  C   UNL     1      15.570  22.493  48.654  1.00  0.00     0.118 C 
BRANCH  29  30
ATOM     30  O   UNL     1      15.447  23.872  48.895  1.00  0.00    -0.393 OA
ATOM     31  H   UNL     1      16.208  24.315  48.438  1.00  0.00     0.210 HD
ENDBRANCH  29  30
ENDBRANCH   1  11
TORSDOF 6
ENDMDL
MODEL 9
REMARK VINA RESULT:    -6.899      1.593      2.850
REMARK INTER + INTRA:         -10.174
REMARK INTER:                  -9.091
REMARK INTRA:                  -1.083
REMARK UNBOUND:                -1.057
REMARK SMILES CC[C@@H](C=C[C@@H](C)[C@H]1CC[C@@H]2[C@@H]3CC=C4C[C@H](O)CC[C@]4(C)[C@@H]3CC[C@@]21C)C(C)C
REMARK SMILES IDX 6 1 7 2 5 3 4 4 3 5 2 6 1 7 28 8 29 9 30 10 8 11 9 12 26 13
REMARK SMILES IDX 10 14 11 15 25 16 27 17 12 18 24 19 23 20 13 21 21 22 14 23
REMARK SMILES IDX 15 24 20 25 22 26 16 27 19 28 17 29 18 30
REMARK H PARENT 18 31
REMARK Flexibility Score: inf
ROOT
ATOM      1  C   UNL     1      15.852  24.860  41.914  1.00  0.00     0.012 C 
ATOM      2  C   UNL     1      14.838  24.467  40.822  1.00  0.00     0.012 C 
ENDROOT
BRANCH   1   3
ATOM      3  C   UNL     1      17.194  25.171  41.295  1.00  0.00    -0.028 C 
ATOM      4  C   UNL     1      17.576  24.610  40.135  1.00  0.00    -0.027 C 
BRANCH   4   5
ATOM      5  C   UNL     1      18.937  24.878  39.522  1.00  0.00     0.014 C 
BRANCH   5   6
ATOM      6  C   UNL     1      20.035  24.380  40.506  1.00  0.00     0.004 C 
ATOM      7  C   UNL     1      20.235  22.866  40.439  1.00  0.00     0.004 C 
ENDBRANCH   5   6
BRANCH   5   8
ATOM      8  C   UNL     1      19.084  26.395  39.183  1.00  0.00    -0.011 C 
ATOM      9  C   UNL     1      19.361  26.616  37.683  1.00  0.00     0.008 C 
ATOM     10  C   UNL     1      20.207  27.057  40.000  1.00  0.00     0.008 C 
ENDBRANCH   5   8
ENDBRANCH   4   5
ENDBRANCH   1   3
BRANCH   1  11
ATOM     11  C   UNL     1      15.992  23.899  43.147  1.00  0.00     0.002 C 
ATOM     12  C   UNL     1      17.170  24.234  44.057  1.00  0.00     0.005 C 
ATOM     13  C   UNL     1      14.780  23.583  44.104  1.00  0.00    -0.026 C 
ATOM     14  C   UNL     1      16.954  23.361  45.274  1.00  0.00     0.005 C 
ATOM     15  C   UNL     1      15.442  23.401  45.516  1.00  0.00    -0.001 C 
ATOM     16  C   UNL     1      14.045  22.293  43.634  1.00  0.00     0.007 C 
ATOM     17  C   UNL     1      13.746  24.725  44.193  1.00  0.00     0.012 C 
ATOM     18  C   UNL     1      14.867  22.231  46.384  1.00  0.00     0.000 C 
ATOM     19  C   UNL     1      14.748  21.015  44.105  1.00  0.00     0.005 C 
ATOM     20  C   UNL     1      14.618  20.872  45.638  1.00  0.00     0.003 C 
ATOM     21  C   UNL     1      15.622  22.084  47.714  1.00  0.00     0.031 C 
ATOM     22  C   UNL     1      15.313  19.582  46.250  1.00  0.00    -0.008 C 
ATOM     23  C   UNL     1      15.289  20.815  48.431  1.00  0.00    -0.027 C 
ATOM     24  C   UNL     1      15.297  19.636  47.779  1.00  0.00    -0.065 C 
ATOM     25  C   UNL     1      16.803  19.417  45.831  1.00  0.00     0.014 C 
ATOM     26  C   UNL     1      14.500  18.341  45.769  1.00  0.00     0.016 C 
ATOM     27  C   UNL     1      15.875  18.446  48.514  1.00  0.00     0.063 C 
ATOM     28  C   UNL     1      17.509  18.244  46.555  1.00  0.00     0.033 C 
ATOM     29  C   UNL     1      17.350  18.287  48.092  1.00  0.00     0.118 C 
BRANCH  29  30
ATOM     30  O   UNL     1      18.114  19.349  48.606  1.00  0.00    -0.393 OA
ATOM     31  H   UNL     1      17.970  19.361  49.588  1.00  0.00     0.210 HD
ENDBRANCH  29  30
ENDBRANCH   1  11
TORSDOF 6
ENDMDL
