MODEL 1
REMARK VINA RESULT:    -3.100      0.000      0.000
REMARK INTER + INTRA:          -8.009
REMARK INTER:                  -7.086
REMARK INTRA:                  -0.923
REMARK UNBOUND:                -0.923
REMARK SMILES CCCCCCCCCCCCCCCCCCCCCCCC(=O)[O-]
REMARK SMILES IDX 13 1 14 2 15 3 16 4 17 5 18 6 19 7 20 8 21 9 22 10 23 11
REMARK SMILES IDX 24 12 25 13 26 14 12 15 11 16 10 17 9 18 8 19 7 20 6 21 5 22
REMARK SMILES IDX 4 23 3 24 2 25 1 26
REMARK H PARENT
REMARK Flexibility Score: inf
ROOT
ATOM      1  C   UNL     1      30.714  -1.129  42.137  1.00  0.00     0.000 C 
ENDROOT
BRANCH   1   2
ATOM      2  C   UNL     1      29.307  -0.495  42.130  1.00  0.00     0.000 C 
BRANCH   2   3
ATOM      3  C   UNL     1      28.243  -1.260  42.940  1.00  0.00     0.000 C 
BRANCH   3   4
ATOM      4  C   UNL     1      27.682  -0.497  44.156  1.00  0.00     0.000 C 
BRANCH   4   5
ATOM      5  C   UNL     1      28.123  -1.084  45.514  1.00  0.00     0.000 C 
BRANCH   5   6
ATOM      6  C   UNL     1      29.579  -0.726  45.863  1.00  0.00     0.000 C 
BRANCH   6   7
ATOM      7  C   UNL     1      30.388  -1.939  46.347  1.00  0.00     0.000 C 
BRANCH   7   8
ATOM      8  C   UNL     1      30.675  -2.950  45.222  1.00  0.00     0.000 C 
BRANCH   8   9
ATOM      9  C   UNL     1      29.723  -4.155  45.252  1.00  0.00     0.000 C 
BRANCH   9  10
ATOM     10  C   UNL     1      28.313  -3.784  45.736  1.00  0.00     0.006 C 
BRANCH  10  11
ATOM     11  C   UNL     1      27.917  -4.615  46.961  1.00  0.00     0.053 C 
BRANCH  11  12
ATOM     12  C   UNL     1      26.871  -3.907  47.763  1.00  0.00     0.041 C 
ATOM     13  O   UNL     1      26.776  -4.111  49.002  1.00  0.00    -0.550 OA
ATOM     14  O   UNL     1      25.991  -3.030  47.140  1.00  0.00    -0.550 OA
ENDBRANCH  11  12
ENDBRANCH  10  11
ENDBRANCH   9  10
ENDBRANCH   8   9
ENDBRANCH   7   8
ENDBRANCH   6   7
ENDBRANCH   5   6
ENDBRANCH   4   5
ENDBRANCH   3   4
ENDBRANCH   2   3
ENDBRANCH   1   2
BRANCH   1  15
ATOM     15  C   UNL     1      31.883  -0.129  42.052  1.00  0.00     0.000 C 
BRANCH  15  16
ATOM     16  C   UNL     1      32.841  -0.142  43.260  1.00  0.00     0.000 C 
BRANCH  16  17
ATOM     17  C   UNL     1      34.288   0.291  42.946  1.00  0.00     0.000 C 
BRANCH  17  18
ATOM     18  C   UNL     1      35.015  -0.566  41.891  1.00  0.00    -0.000 C 
BRANCH  18  19
ATOM     19  C   UNL     1      36.551  -0.479  41.932  1.00  0.00    -0.000 C 
BRANCH  19  20
ATOM     20  C   UNL     1      37.225  -1.860  41.996  1.00  0.00    -0.000 C 
BRANCH  20  21
ATOM     21  C   UNL     1      38.362  -1.919  43.029  1.00  0.00    -0.000 C 
BRANCH  21  22
ATOM     22  C   UNL     1      38.952  -3.332  43.178  1.00  0.00    -0.000 C 
BRANCH  22  23
ATOM     23  C   UNL     1      37.880  -4.436  43.150  1.00  0.00    -0.000 C 
BRANCH  23  24
ATOM     24  C   UNL     1      36.718  -4.248  44.142  1.00  0.00    -0.000 C 
BRANCH  24  25
ATOM     25  C   UNL     1      35.370  -4.007  43.447  1.00  0.00    -0.003 C 
ATOM     26  C   UNL     1      34.210  -4.482  44.318  1.00  0.00     0.004 C 
ENDBRANCH  24  25
ENDBRANCH  23  24
ENDBRANCH  22  23
ENDBRANCH  21  22
ENDBRANCH  20  21
ENDBRANCH  19  20
ENDBRANCH  18  19
ENDBRANCH  17  18
ENDBRANCH  16  17
ENDBRANCH  15  16
ENDBRANCH   1  15
TORSDOF 22
ENDMDL
MODEL 2
REMARK VINA RESULT:    -2.592      3.592      7.935
REMARK INTER + INTRA:          -6.848
REMARK INTER:                  -4.494
REMARK INTRA:                  -2.354
REMARK UNBOUND:                -0.923
REMARK SMILES CCCCCCCCCCCCCCCCCCCCCCCC(=O)[O-]
REMARK SMILES IDX 13 1 14 2 15 3 16 4 17 5 18 6 19 7 20 8 21 9 22 10 23 11
REMARK SMILES IDX 24 12 25 13 26 14 12 15 11 16 10 17 9 18 8 19 7 20 6 21 5 22
REMARK SMILES IDX 4 23 3 24 2 25 1 26
REMARK H PARENT
REMARK Flexibility Score: inf
ROOT
ATOM      1  C   UNL     1      28.303  -1.155  42.062  1.00  0.00     0.000 C 
ENDROOT
BRANCH   1   2
ATOM      2  C   UNL     1      29.801  -1.524  42.015  1.00  0.00     0.000 C 
BRANCH   2   3
ATOM      3  C   UNL     1      30.764  -0.326  41.916  1.00  0.00     0.000 C 
BRANCH   3   4
ATOM      4  C   UNL     1      32.222  -0.632  42.310  1.00  0.00     0.000 C 
BRANCH   4   5
ATOM      5  C   UNL     1      32.961   0.569  42.937  1.00  0.00     0.000 C 
BRANCH   5   6
ATOM      6  C   UNL     1      33.607   1.479  41.877  1.00  0.00     0.000 C 
BRANCH   6   7
ATOM      7  C   UNL     1      35.134   1.565  42.019  1.00  0.00     0.000 C 
BRANCH   7   8
ATOM      8  C   UNL     1      35.821   0.192  41.896  1.00  0.00     0.000 C 
BRANCH   8   9
ATOM      9  C   UNL     1      36.176  -0.416  43.262  1.00  0.00     0.000 C 
BRANCH   9  10
ATOM     10  C   UNL     1      37.231  -1.528  43.158  1.00  0.00     0.006 C 
BRANCH  10  11
ATOM     11  C   UNL     1      36.576  -2.876  42.840  1.00  0.00     0.053 C 
BRANCH  11  12
ATOM     12  C   UNL     1      37.467  -4.006  43.249  1.00  0.00     0.041 C 
ATOM     13  O   UNL     1      37.197  -4.689  44.272  1.00  0.00    -0.550 OA
ATOM     14  O   UNL     1      38.606  -4.299  42.506  1.00  0.00    -0.550 OA
ENDBRANCH  11  12
ENDBRANCH  10  11
ENDBRANCH   9  10
ENDBRANCH   8   9
ENDBRANCH   7   8
ENDBRANCH   6   7
ENDBRANCH   5   6
ENDBRANCH   4   5
ENDBRANCH   3   4
ENDBRANCH   2   3
ENDBRANCH   1   2
BRANCH   1  15
ATOM     15  C   UNL     1      27.569  -1.558  43.355  1.00  0.00     0.000 C 
BRANCH  15  16
ATOM     16  C   UNL     1      27.503  -0.462  44.436  1.00  0.00     0.000 C 
BRANCH  16  17
ATOM     17  C   UNL     1      28.064  -0.872  45.813  1.00  0.00     0.000 C 
BRANCH  17  18
ATOM     18  C   UNL     1      29.375  -0.173  46.223  1.00  0.00    -0.000 C 
BRANCH  18  19
ATOM     19  C   UNL     1      30.660  -0.884  45.764  1.00  0.00    -0.000 C 
BRANCH  19  20
ATOM     20  C   UNL     1      30.740  -2.342  46.247  1.00  0.00    -0.000 C 
BRANCH  20  21
ATOM     21  C   UNL     1      31.096  -3.323  45.118  1.00  0.00    -0.000 C 
BRANCH  21  22
ATOM     22  C   UNL     1      30.092  -4.482  45.005  1.00  0.00    -0.000 C 
BRANCH  22  23
ATOM     23  C   UNL     1      28.648  -4.061  45.334  1.00  0.00    -0.000 C 
BRANCH  23  24
ATOM     24  C   UNL     1      28.163  -4.435  46.746  1.00  0.00    -0.000 C 
BRANCH  24  25
ATOM     25  C   UNL     1      26.940  -3.621  47.195  1.00  0.00    -0.003 C 
ATOM     26  C   UNL     1      26.724  -3.738  48.701  1.00  0.00     0.004 C 
ENDBRANCH  24  25
ENDBRANCH  23  24
ENDBRANCH  22  23
ENDBRANCH  21  22
ENDBRANCH  20  21
ENDBRANCH  19  20
ENDBRANCH  18  19
ENDBRANCH  17  18
ENDBRANCH  16  17
ENDBRANCH  15  16
ENDBRANCH   1  15
TORSDOF 22
ENDMDL
MODEL 3
REMARK VINA RESULT:    -2.175      2.915      7.937
REMARK INTER + INTRA:          -5.895
REMARK INTER:                  -5.633
REMARK INTRA:                  -0.262
REMARK UNBOUND:                -0.923
REMARK SMILES CCCCCCCCCCCCCCCCCCCCCCCC(=O)[O-]
REMARK SMILES IDX 13 1 14 2 15 3 16 4 17 5 18 6 19 7 20 8 21 9 22 10 23 11
REMARK SMILES IDX 24 12 25 13 26 14 12 15 11 16 10 17 9 18 8 19 7 20 6 21 5 22
REMARK SMILES IDX 4 23 3 24 2 25 1 26
REMARK H PARENT
REMARK Flexibility Score: inf
ROOT
ATOM      1  C   UNL     1      31.433  -0.937  42.969  1.00  0.00     0.000 C 
ENDROOT
BRANCH   1   2
ATOM      2  C   UNL     1      32.889  -0.874  42.461  1.00  0.00     0.000 C 
BRANCH   2   3
ATOM      3  C   UNL     1      33.371   0.526  42.038  1.00  0.00     0.000 C 
BRANCH   3   4
ATOM      4  C   UNL     1      34.897   0.664  41.875  1.00  0.00     0.000 C 
BRANCH   4   5
ATOM      5  C   UNL     1      35.701   0.120  43.076  1.00  0.00     0.000 C 
BRANCH   5   6
ATOM      6  C   UNL     1      36.927  -0.701  42.636  1.00  0.00     0.000 C 
BRANCH   6   7
ATOM      7  C   UNL     1      37.608  -1.425  43.808  1.00  0.00     0.000 C 
BRANCH   7   8
ATOM      8  C   UNL     1      38.905  -2.141  43.391  1.00  0.00     0.000 C 
BRANCH   8   9
ATOM      9  C   UNL     1      38.664  -3.242  42.346  1.00  0.00     0.000 C 
BRANCH   9  10
ATOM     10  C   UNL     1      38.111  -4.535  42.965  1.00  0.00     0.006 C 
BRANCH  10  11
ATOM     11  C   UNL     1      37.007  -4.228  43.981  1.00  0.00     0.053 C 
BRANCH  11  12
ATOM     12  C   UNL     1      35.683  -4.091  43.297  1.00  0.00     0.041 C 
ATOM     13  O   UNL     1      35.628  -3.943  42.047  1.00  0.00    -0.550 OA
ATOM     14  O   UNL     1      34.509  -4.115  44.041  1.00  0.00    -0.550 OA
ENDBRANCH  11  12
ENDBRANCH  10  11
ENDBRANCH   9  10
ENDBRANCH   8   9
ENDBRANCH   7   8
ENDBRANCH   6   7
ENDBRANCH   5   6
ENDBRANCH   4   5
ENDBRANCH   3   4
ENDBRANCH   2   3
ENDBRANCH   1   2
BRANCH   1  15
ATOM     15  C   UNL     1      30.358  -0.576  41.925  1.00  0.00     0.000 C 
BRANCH  15  16
ATOM     16  C   UNL     1      29.150  -1.531  41.876  1.00  0.00     0.000 C 
BRANCH  16  17
ATOM     17  C   UNL     1      27.791  -0.875  42.197  1.00  0.00     0.000 C 
BRANCH  17  18
ATOM     18  C   UNL     1      27.665  -0.286  43.616  1.00  0.00    -0.000 C 
BRANCH  18  19
ATOM     19  C   UNL     1      27.792  -1.310  44.757  1.00  0.00    -0.000 C 
BRANCH  19  20
ATOM     20  C   UNL     1      28.499  -0.737  45.998  1.00  0.00    -0.000 C 
BRANCH  20  21
ATOM     21  C   UNL     1      30.031  -0.764  45.874  1.00  0.00    -0.000 C 
BRANCH  21  22
ATOM     22  C   UNL     1      30.650  -2.032  46.487  1.00  0.00    -0.000 C 
BRANCH  22  23
ATOM     23  C   UNL     1      30.632  -3.235  45.526  1.00  0.00    -0.000 C 
BRANCH  23  24
ATOM     24  C   UNL     1      29.232  -3.707  45.094  1.00  0.00    -0.000 C 
BRANCH  24  25
ATOM     25  C   UNL     1      28.608  -4.709  46.077  1.00  0.00    -0.003 C 
ATOM     26  C   UNL     1      27.527  -4.046  46.926  1.00  0.00     0.004 C 
ENDBRANCH  24  25
ENDBRANCH  23  24
ENDBRANCH  22  23
ENDBRANCH  21  22
ENDBRANCH  20  21
ENDBRANCH  19  20
ENDBRANCH  18  19
ENDBRANCH  17  18
ENDBRANCH  16  17
ENDBRANCH  15  16
ENDBRANCH   1  15
TORSDOF 22
ENDMDL
MODEL 4
REMARK VINA RESULT:    -1.843      1.046      2.171
REMARK INTER + INTRA:          -5.137
REMARK INTER:                  -4.021
REMARK INTRA:                  -1.116
REMARK UNBOUND:                -0.923
REMARK SMILES CCCCCCCCCCCCCCCCCCCCCCCC(=O)[O-]
REMARK SMILES IDX 13 1 14 2 15 3 16 4 17 5 18 6 19 7 20 8 21 9 22 10 23 11
REMARK SMILES IDX 24 12 25 13 26 14 12 15 11 16 10 17 9 18 8 19 7 20 6 21 5 22
REMARK SMILES IDX 4 23 3 24 2 25 1 26
REMARK H PARENT
REMARK Flexibility Score: inf
ROOT
ATOM      1  C   UNL     1      32.659  -1.025  43.469  1.00  0.00     0.000 C 
ENDROOT
BRANCH   1   2
ATOM      2  C   UNL     1      31.255  -1.333  42.906  1.00  0.00     0.000 C 
BRANCH   2   3
ATOM      3  C   UNL     1      30.715  -0.299  41.901  1.00  0.00     0.000 C 
BRANCH   3   4
ATOM      4  C   UNL     1      29.181  -0.153  41.883  1.00  0.00     0.000 C 
BRANCH   4   5
ATOM      5  C   UNL     1      28.429  -1.502  41.875  1.00  0.00     0.000 C 
BRANCH   5   6
ATOM      6  C   UNL     1      27.516  -1.671  43.102  1.00  0.00     0.000 C 
BRANCH   6   7
ATOM      7  C   UNL     1      28.256  -2.248  44.319  1.00  0.00     0.000 C 
BRANCH   7   8
ATOM      8  C   UNL     1      28.661  -1.166  45.337  1.00  0.00     0.000 C 
BRANCH   8   9
ATOM      9  C   UNL     1      29.764  -1.639  46.296  1.00  0.00     0.000 C 
BRANCH   9  10
ATOM     10  C   UNL     1      29.307  -2.795  47.199  1.00  0.00     0.006 C 
BRANCH  10  11
ATOM     11  C   UNL     1      28.112  -3.531  46.585  1.00  0.00     0.053 C 
BRANCH  11  12
ATOM     12  C   UNL     1      26.954  -3.541  47.532  1.00  0.00     0.041 C 
ATOM     13  O   UNL     1      27.072  -4.061  48.673  1.00  0.00    -0.550 OA
ATOM     14  O   UNL     1      25.739  -2.985  47.150  1.00  0.00    -0.550 OA
ENDBRANCH  11  12
ENDBRANCH  10  11
ENDBRANCH   9  10
ENDBRANCH   8   9
ENDBRANCH   7   8
ENDBRANCH   6   7
ENDBRANCH   5   6
ENDBRANCH   4   5
ENDBRANCH   3   4
ENDBRANCH   2   3
ENDBRANCH   1   2
BRANCH   1  15
ATOM     15  C   UNL     1      33.448   0.056  42.705  1.00  0.00     0.000 C 
BRANCH  15  16
ATOM     16  C   UNL     1      34.637  -0.470  41.875  1.00  0.00     0.000 C 
BRANCH  16  17
ATOM     17  C   UNL     1      36.014   0.092  42.285  1.00  0.00     0.000 C 
BRANCH  17  18
ATOM     18  C   UNL     1      36.667  -0.596  43.501  1.00  0.00    -0.000 C 
BRANCH  18  19
ATOM     19  C   UNL     1      38.123  -1.046  43.286  1.00  0.00    -0.000 C 
BRANCH  19  20
ATOM     20  C   UNL     1      38.463  -2.345  44.037  1.00  0.00    -0.000 C 
BRANCH  20  21
ATOM     21  C   UNL     1      38.944  -3.464  43.099  1.00  0.00    -0.000 C 
BRANCH  21  22
ATOM     22  C   UNL     1      37.865  -4.531  42.849  1.00  0.00    -0.000 C 
BRANCH  22  23
ATOM     23  C   UNL     1      36.689  -4.010  42.003  1.00  0.00    -0.000 C 
BRANCH  23  24
ATOM     24  C   UNL     1      35.422  -3.645  42.797  1.00  0.00    -0.000 C 
BRANCH  24  25
ATOM     25  C   UNL     1      35.175  -4.578  43.993  1.00  0.00    -0.003 C 
ATOM     26  C   UNL     1      33.770  -4.389  44.557  1.00  0.00     0.004 C 
ENDBRANCH  24  25
ENDBRANCH  23  24
ENDBRANCH  22  23
ENDBRANCH  21  22
ENDBRANCH  20  21
ENDBRANCH  19  20
ENDBRANCH  18  19
ENDBRANCH  17  18
ENDBRANCH  16  17
ENDBRANCH  15  16
ENDBRANCH   1  15
TORSDOF 22
ENDMDL
MODEL 5
REMARK VINA RESULT:    -1.421      1.111      2.521
REMARK INTER + INTRA:          -4.171
REMARK INTER:                  -3.084
REMARK INTRA:                  -1.088
REMARK UNBOUND:                -0.923
REMARK SMILES CCCCCCCCCCCCCCCCCCCCCCCC(=O)[O-]
REMARK SMILES IDX 13 1 14 2 15 3 16 4 17 5 18 6 19 7 20 8 21 9 22 10 23 11
REMARK SMILES IDX 24 12 25 13 26 14 12 15 11 16 10 17 9 18 8 19 7 20 6 21 5 22
REMARK SMILES IDX 4 23 3 24 2 25 1 26
REMARK H PARENT
REMARK Flexibility Score: inf
ROOT
ATOM      1  C   UNL     1      27.882  -0.986  42.806  1.00  0.00     0.000 C 
ENDROOT
BRANCH   1   2
ATOM      2  C   UNL     1      27.896  -1.772  44.134  1.00  0.00     0.000 C 
BRANCH   2   3
ATOM      3  C   UNL     1      27.521  -0.950  45.382  1.00  0.00     0.000 C 
BRANCH   3   4
ATOM      4  C   UNL     1      28.704  -0.595  46.304  1.00  0.00     0.000 C 
BRANCH   4   5
ATOM      5  C   UNL     1      30.053  -0.471  45.563  1.00  0.00     0.000 C 
BRANCH   5   6
ATOM      6  C   UNL     1      31.211  -1.119  46.343  1.00  0.00     0.000 C 
BRANCH   6   7
ATOM      7  C   UNL     1      30.996  -2.620  46.588  1.00  0.00     0.000 C 
BRANCH   7   8
ATOM      8  C   UNL     1      30.926  -3.431  45.281  1.00  0.00     0.000 C 
BRANCH   8   9
ATOM      9  C   UNL     1      29.967  -4.628  45.378  1.00  0.00     0.000 C 
BRANCH   9  10
ATOM     10  C   UNL     1      28.506  -4.200  45.590  1.00  0.00     0.006 C 
BRANCH  10  11
ATOM     11  C   UNL     1      28.274  -3.738  47.032  1.00  0.00     0.053 C 
BRANCH  11  12
ATOM     12  C   UNL     1      26.983  -4.280  47.559  1.00  0.00     0.041 C 
ATOM     13  O   UNL     1      26.118  -3.502  48.041  1.00  0.00    -0.550 OA
ATOM     14  O   UNL     1      26.739  -5.648  47.528  1.00  0.00    -0.550 OA
ENDBRANCH  11  12
ENDBRANCH  10  11
ENDBRANCH   9  10
ENDBRANCH   8   9
ENDBRANCH   7   8
ENDBRANCH   6   7
ENDBRANCH   5   6
ENDBRANCH   4   5
ENDBRANCH   3   4
ENDBRANCH   2   3
ENDBRANCH   1   2
BRANCH   1  15
ATOM     15  C   UNL     1      29.081  -1.251  41.875  1.00  0.00     0.000 C 
BRANCH  15  16
ATOM     16  C   UNL     1      30.327  -0.389  42.155  1.00  0.00     0.000 C 
BRANCH  16  17
ATOM     17  C   UNL     1      31.592  -1.182  42.542  1.00  0.00     0.000 C 
BRANCH  17  18
ATOM     18  C   UNL     1      32.630  -0.399  43.371  1.00  0.00    -0.000 C 
BRANCH  18  19
ATOM     19  C   UNL     1      33.293   0.779  42.634  1.00  0.00    -0.000 C 
BRANCH  19  20
ATOM     20  C   UNL     1      34.566   0.367  41.876  1.00  0.00    -0.000 C 
BRANCH  20  21
ATOM     21  C   UNL     1      35.748   0.077  42.815  1.00  0.00    -0.000 C 
BRANCH  21  22
ATOM     22  C   UNL     1      36.493  -1.217  42.444  1.00  0.00    -0.000 C 
BRANCH  22  23
ATOM     23  C   UNL     1      35.581  -2.458  42.448  1.00  0.00    -0.000 C 
BRANCH  23  24
ATOM     24  C   UNL     1      36.304  -3.801  42.655  1.00  0.00    -0.000 C 
BRANCH  24  25
ATOM     25  C   UNL     1      37.382  -3.739  43.748  1.00  0.00    -0.003 C 
ATOM     26  C   UNL     1      38.596  -4.582  43.371  1.00  0.00     0.004 C 
ENDBRANCH  24  25
ENDBRANCH  23  24
ENDBRANCH  22  23
ENDBRANCH  21  22
ENDBRANCH  20  21
ENDBRANCH  19  20
ENDBRANCH  18  19
ENDBRANCH  17  18
ENDBRANCH  16  17
ENDBRANCH  15  16
ENDBRANCH   1  15
TORSDOF 22
ENDMDL
MODEL 6
REMARK VINA RESULT:    -1.180      1.035      3.753
REMARK INTER + INTRA:          -3.619
REMARK INTER:                  -2.134
REMARK INTRA:                  -1.486
REMARK UNBOUND:                -0.923
REMARK SMILES CCCCCCCCCCCCCCCCCCCCCCCC(=O)[O-]
REMARK SMILES IDX 13 1 14 2 15 3 16 4 17 5 18 6 19 7 20 8 21 9 22 10 23 11
REMARK SMILES IDX 24 12 25 13 26 14 12 15 11 16 10 17 9 18 8 19 7 20 6 21 5 22
REMARK SMILES IDX 4 23 3 24 2 25 1 26
REMARK H PARENT
REMARK Flexibility Score: inf
ROOT
ATOM      1  C   UNL     1      34.518  -0.921  42.086  1.00  0.00     0.000 C 
ENDROOT
BRANCH   1   2
ATOM      2  C   UNL     1      33.413  -0.166  42.855  1.00  0.00     0.000 C 
BRANCH   2   3
ATOM      3  C   UNL     1      32.402   0.588  41.971  1.00  0.00     0.000 C 
BRANCH   3   4
ATOM      4  C   UNL     1      31.010  -0.066  41.875  1.00  0.00     0.000 C 
BRANCH   4   5
ATOM      5  C   UNL     1      30.744  -1.121  42.970  1.00  0.00     0.000 C 
BRANCH   5   6
ATOM      6  C   UNL     1      29.421  -1.876  42.747  1.00  0.00     0.000 C 
BRANCH   6   7
ATOM      7  C   UNL     1      28.199  -0.945  42.748  1.00  0.00     0.000 C 
BRANCH   7   8
ATOM      8  C   UNL     1      27.911  -0.343  44.136  1.00  0.00     0.000 C 
BRANCH   8   9
ATOM      9  C   UNL     1      28.547  -1.154  45.275  1.00  0.00     0.000 C 
BRANCH   9  10
ATOM     10  C   UNL     1      27.587  -1.369  46.455  1.00  0.00     0.006 C 
BRANCH  10  11
ATOM     11  C   UNL     1      26.715  -2.610  46.234  1.00  0.00     0.053 C 
BRANCH  11  12
ATOM     12  C   UNL     1      26.880  -3.579  47.361  1.00  0.00     0.041 C 
ATOM     13  O   UNL     1      27.295  -4.747  47.138  1.00  0.00    -0.550 OA
ATOM     14  O   UNL     1      26.565  -3.197  48.660  1.00  0.00    -0.550 OA
ENDBRANCH  11  12
ENDBRANCH  10  11
ENDBRANCH   9  10
ENDBRANCH   8   9
ENDBRANCH   7   8
ENDBRANCH   6   7
ENDBRANCH   5   6
ENDBRANCH   4   5
ENDBRANCH   3   4
ENDBRANCH   2   3
ENDBRANCH   1   2
BRANCH   1  15
ATOM     15  C   UNL     1      35.910  -0.895  42.745  1.00  0.00     0.000 C 
BRANCH  15  16
ATOM     16  C   UNL     1      37.054  -1.453  41.875  1.00  0.00     0.000 C 
BRANCH  16  17
ATOM     17  C   UNL     1      38.469  -1.243  42.451  1.00  0.00     0.000 C 
BRANCH  17  18
ATOM     18  C   UNL     1      38.844  -2.170  43.624  1.00  0.00    -0.000 C 
BRANCH  18  19
ATOM     19  C   UNL     1      38.653  -3.673  43.350  1.00  0.00    -0.000 C 
BRANCH  19  20
ATOM     20  C   UNL     1      37.443  -4.265  44.093  1.00  0.00    -0.000 C 
BRANCH  20  21
ATOM     21  C   UNL     1      36.160  -4.248  43.245  1.00  0.00    -0.000 C 
BRANCH  21  22
ATOM     22  C   UNL     1      34.956  -4.857  43.983  1.00  0.00    -0.000 C 
BRANCH  22  23
ATOM     23  C   UNL     1      33.920  -3.802  44.413  1.00  0.00    -0.000 C 
BRANCH  23  24
ATOM     24  C   UNL     1      32.572  -4.368  44.895  1.00  0.00    -0.000 C 
BRANCH  24  25
ATOM     25  C   UNL     1      31.603  -3.278  45.378  1.00  0.00    -0.003 C 
ATOM     26  C   UNL     1      30.186  -3.825  45.519  1.00  0.00     0.004 C 
ENDBRANCH  24  25
ENDBRANCH  23  24
ENDBRANCH  22  23
ENDBRANCH  21  22
ENDBRANCH  20  21
ENDBRANCH  19  20
ENDBRANCH  18  19
ENDBRANCH  17  18
ENDBRANCH  16  17
ENDBRANCH  15  16
ENDBRANCH   1  15
TORSDOF 22
ENDMDL
MODEL 7
REMARK VINA RESULT:    -1.094      4.992      9.921
REMARK INTER + INTRA:          -3.425
REMARK INTER:                  -1.870
REMARK INTRA:                  -1.555
REMARK UNBOUND:                -0.923
REMARK SMILES CCCCCCCCCCCCCCCCCCCCCCCC(=O)[O-]
REMARK SMILES IDX 13 1 14 2 15 3 16 4 17 5 18 6 19 7 20 8 21 9 22 10 23 11
REMARK SMILES IDX 24 12 25 13 26 14 12 15 11 16 10 17 9 18 8 19 7 20 6 21 5 22
REMARK SMILES IDX 4 23 3 24 2 25 1 26
REMARK H PARENT
REMARK Flexibility Score: inf
ROOT
ATOM      1  C   UNL     1      29.301  -2.602  46.294  1.00  0.00     0.000 C 
ENDROOT
BRANCH   1   2
ATOM      2  C   UNL     1      30.373  -1.551  45.936  1.00  0.00     0.000 C 
BRANCH   2   3
ATOM      3  C   UNL     1      30.981  -1.693  44.527  1.00  0.00     0.000 C 
BRANCH   3   4
ATOM      4  C   UNL     1      32.009  -0.609  44.153  1.00  0.00     0.000 C 
BRANCH   4   5
ATOM      5  C   UNL     1      31.841  -0.063  42.718  1.00  0.00     0.000 C 
BRANCH   5   6
ATOM      6  C   UNL     1      33.174  -0.016  41.950  1.00  0.00     0.000 C 
BRANCH   6   7
ATOM      7  C   UNL     1      34.392   0.104  42.879  1.00  0.00     0.000 C 
BRANCH   7   8
ATOM      8  C   UNL     1      35.611  -0.684  42.365  1.00  0.00     0.000 C 
BRANCH   8   9
ATOM      9  C   UNL     1      35.473  -2.198  42.587  1.00  0.00     0.000 C 
BRANCH   9  10
ATOM     10  C   UNL     1      36.676  -2.987  42.046  1.00  0.00     0.006 C 
BRANCH  10  11
ATOM     11  C   UNL     1      36.899  -4.269  42.855  1.00  0.00     0.053 C 
BRANCH  11  12
ATOM     12  C   UNL     1      38.225  -4.231  43.547  1.00  0.00     0.041 C 
ATOM     13  O   UNL     1      38.829  -3.137  43.702  1.00  0.00    -0.550 OA
ATOM     14  O   UNL     1      38.802  -5.409  44.010  1.00  0.00    -0.550 OA
ENDBRANCH  11  12
ENDBRANCH  10  11
ENDBRANCH   9  10
ENDBRANCH   8   9
ENDBRANCH   7   8
ENDBRANCH   6   7
ENDBRANCH   5   6
ENDBRANCH   4   5
ENDBRANCH   3   4
ENDBRANCH   2   3
ENDBRANCH   1   2
BRANCH   1  15
ATOM     15  C   UNL     1      27.968  -2.462  45.533  1.00  0.00     0.000 C 
BRANCH  15  16
ATOM     16  C   UNL     1      27.589  -1.020  45.142  1.00  0.00     0.000 C 
BRANCH  16  17
ATOM     17  C   UNL     1      27.343  -0.800  43.635  1.00  0.00     0.000 C 
BRANCH  17  18
ATOM     18  C   UNL     1      28.281  -1.582  42.695  1.00  0.00    -0.000 C 
BRANCH  18  19
ATOM     19  C   UNL     1      27.608  -2.720  41.907  1.00  0.00    -0.000 C 
BRANCH  19  20
ATOM     20  C   UNL     1      26.074  -2.616  41.902  1.00  0.00    -0.000 C 
BRANCH  20  21
ATOM     21  C   UNL     1      25.385  -3.978  42.089  1.00  0.00    -0.000 C 
BRANCH  21  22
ATOM     22  C   UNL     1      23.863  -3.904  41.880  1.00  0.00    -0.000 C 
BRANCH  22  23
ATOM     23  C   UNL     1      23.146  -5.225  42.213  1.00  0.00    -0.000 C 
BRANCH  23  24
ATOM     24  C   UNL     1      21.610  -5.143  42.256  1.00  0.00    -0.000 C 
BRANCH  24  25
ATOM     25  C   UNL     1      21.093  -3.733  42.577  1.00  0.00    -0.003 C 
ATOM     26  C   UNL     1      19.674  -3.780  43.135  1.00  0.00     0.004 C 
ENDBRANCH  24  25
ENDBRANCH  23  24
ENDBRANCH  22  23
ENDBRANCH  21  22
ENDBRANCH  20  21
ENDBRANCH  19  20
ENDBRANCH  18  19
ENDBRANCH  17  18
ENDBRANCH  16  17
ENDBRANCH  15  16
ENDBRANCH   1  15
TORSDOF 22
ENDMDL
MODEL 8
REMARK VINA RESULT:    -0.783      3.479      8.171
REMARK INTER + INTRA:          -2.712
REMARK INTER:                  -3.873
REMARK INTRA:                   1.161
REMARK UNBOUND:                -0.923
REMARK SMILES CCCCCCCCCCCCCCCCCCCCCCCC(=O)[O-]
REMARK SMILES IDX 13 1 14 2 15 3 16 4 17 5 18 6 19 7 20 8 21 9 22 10 23 11
REMARK SMILES IDX 24 12 25 13 26 14 12 15 11 16 10 17 9 18 8 19 7 20 6 21 5 22
REMARK SMILES IDX 4 23 3 24 2 25 1 26
REMARK H PARENT
REMARK Flexibility Score: inf
ROOT
ATOM      1  C   UNL     1      29.059  -0.668  42.473  1.00  0.00     0.000 C 
ENDROOT
BRANCH   1   2
ATOM      2  C   UNL     1      30.459  -0.408  41.878  1.00  0.00     0.000 C 
BRANCH   2   3
ATOM      3  C   UNL     1      31.533  -1.443  42.262  1.00  0.00     0.000 C 
BRANCH   3   4
ATOM      4  C   UNL     1      32.915  -0.850  42.594  1.00  0.00     0.000 C 
BRANCH   4   5
ATOM      5  C   UNL     1      32.850   0.450  43.425  1.00  0.00     0.000 C 
BRANCH   5   6
ATOM      6  C   UNL     1      33.720   1.571  42.828  1.00  0.00     0.000 C 
BRANCH   6   7
ATOM      7  C   UNL     1      34.810   1.039  41.885  1.00  0.00     0.000 C 
BRANCH   7   8
ATOM      8  C   UNL     1      35.889   0.225  42.624  1.00  0.00     0.000 C 
BRANCH   8   9
ATOM      9  C   UNL     1      36.179  -1.123  41.947  1.00  0.00     0.000 C 
BRANCH   9  10
ATOM     10  C   UNL     1      37.411  -1.828  42.536  1.00  0.00     0.006 C 
BRANCH  10  11
ATOM     11  C   UNL     1      37.394  -3.325  42.209  1.00  0.00     0.053 C 
BRANCH  11  12
ATOM     12  C   UNL     1      37.472  -4.140  43.462  1.00  0.00     0.041 C 
ATOM     13  O   UNL     1      36.463  -4.257  44.206  1.00  0.00    -0.550 OA
ATOM     14  O   UNL     1      38.665  -4.761  43.815  1.00  0.00    -0.550 OA
ENDBRANCH  11  12
ENDBRANCH  10  11
ENDBRANCH   9  10
ENDBRANCH   8   9
ENDBRANCH   7   8
ENDBRANCH   6   7
ENDBRANCH   5   6
ENDBRANCH   4   5
ENDBRANCH   3   4
ENDBRANCH   2   3
ENDBRANCH   1   2
BRANCH   1  15
ATOM     15  C   UNL     1      28.325  -1.900  41.910  1.00  0.00     0.000 C 
BRANCH  15  16
ATOM     16  C   UNL     1      28.009  -2.999  42.943  1.00  0.00     0.000 C 
BRANCH  16  17
ATOM     17  C   UNL     1      28.665  -2.800  44.325  1.00  0.00     0.000 C 
BRANCH  17  18
ATOM     18  C   UNL     1      29.618  -3.929  44.767  1.00  0.00    -0.000 C 
BRANCH  18  19
ATOM     19  C   UNL     1      30.967  -3.453  45.334  1.00  0.00    -0.000 C 
BRANCH  19  20
ATOM     20  C   UNL     1      30.897  -2.037  45.932  1.00  0.00    -0.000 C 
BRANCH  20  21
ATOM     21  C   UNL     1      29.625  -1.807  46.764  1.00  0.00    -0.000 C 
BRANCH  21  22
ATOM     22  C   UNL     1      28.790  -0.622  46.249  1.00  0.00    -0.000 C 
BRANCH  22  23
ATOM     23  C   UNL     1      27.312  -0.987  46.013  1.00  0.00    -0.000 C 
BRANCH  23  24
ATOM     24  C   UNL     1      26.698  -1.939  47.055  1.00  0.00    -0.000 C 
BRANCH  24  25
ATOM     25  C   UNL     1      27.668  -3.042  47.503  1.00  0.00    -0.003 C 
ATOM     26  C   UNL     1      26.977  -4.402  47.533  1.00  0.00     0.004 C 
ENDBRANCH  24  25
ENDBRANCH  23  24
ENDBRANCH  22  23
ENDBRANCH  21  22
ENDBRANCH  20  21
ENDBRANCH  19  20
ENDBRANCH  18  19
ENDBRANCH  17  18
ENDBRANCH  16  17
ENDBRANCH  15  16
ENDBRANCH   1  15
TORSDOF 22
ENDMDL
MODEL 9
REMARK VINA RESULT:    -0.782      2.829      4.020
REMARK INTER + INTRA:          -2.711
REMARK INTER:                  -1.784
REMARK INTRA:                  -0.927
REMARK UNBOUND:                -0.923
REMARK SMILES CCCCCCCCCCCCCCCCCCCCCCCC(=O)[O-]
REMARK SMILES IDX 13 1 14 2 15 3 16 4 17 5 18 6 19 7 20 8 21 9 22 10 23 11
REMARK SMILES IDX 24 12 25 13 26 14 12 15 11 16 10 17 9 18 8 19 7 20 6 21 5 22
REMARK SMILES IDX 4 23 3 24 2 25 1 26
REMARK H PARENT
REMARK Flexibility Score: inf
ROOT
ATOM      1  C   UNL     1      30.751  -1.194  44.508  1.00  0.00     0.000 C 
ENDROOT
BRANCH   1   2
ATOM      2  C   UNL     1      30.964  -2.603  45.101  1.00  0.00     0.000 C 
BRANCH   2   3
ATOM      3  C   UNL     1      29.716  -3.506  45.101  1.00  0.00     0.000 C 
BRANCH   3   4
ATOM      4  C   UNL     1      28.392  -2.781  44.793  1.00  0.00     0.000 C 
BRANCH   4   5
ATOM      5  C   UNL     1      27.517  -2.530  46.040  1.00  0.00     0.000 C 
BRANCH   5   6
ATOM      6  C   UNL     1      27.666  -3.642  47.094  1.00  0.00     0.000 C 
BRANCH   6   7
ATOM      7  C   UNL     1      26.629  -3.533  48.223  1.00  0.00     0.000 C 
BRANCH   7   8
ATOM      8  C   UNL     1      27.242  -3.761  49.617  1.00  0.00     0.000 C 
BRANCH   8   9
ATOM      9  C   UNL     1      26.497  -2.998  50.723  1.00  0.00     0.000 C 
BRANCH   9  10
ATOM     10  C   UNL     1      26.876  -3.478  52.132  1.00  0.00     0.006 C 
BRANCH  10  11
ATOM     11  C   UNL     1      27.213  -2.294  53.043  1.00  0.00     0.053 C 
BRANCH  11  12
ATOM     12  C   UNL     1      27.151  -2.699  54.481  1.00  0.00     0.041 C 
ATOM     13  O   UNL     1      26.779  -3.860  54.798  1.00  0.00    -0.550 OA
ATOM     14  O   UNL     1      27.494  -1.791  55.476  1.00  0.00    -0.550 OA
ENDBRANCH  11  12
ENDBRANCH  10  11
ENDBRANCH   9  10
ENDBRANCH   8   9
ENDBRANCH   7   8
ENDBRANCH   6   7
ENDBRANCH   5   6
ENDBRANCH   4   5
ENDBRANCH   3   4
ENDBRANCH   2   3
ENDBRANCH   1   2
BRANCH   1  15
ATOM     15  C   UNL     1      30.325  -1.164  43.028  1.00  0.00     0.000 C 
BRANCH  15  16
ATOM     16  C   UNL     1      31.421  -0.711  42.043  1.00  0.00     0.000 C 
BRANCH  16  17
ATOM     17  C   UNL     1      32.697  -0.150  42.704  1.00  0.00     0.000 C 
BRANCH  17  18
ATOM     18  C   UNL     1      34.022  -0.721  42.162  1.00  0.00    -0.000 C 
BRANCH  18  19
ATOM     19  C   UNL     1      35.246   0.192  42.349  1.00  0.00    -0.000 C 
BRANCH  19  20
ATOM     20  C   UNL     1      36.455  -0.548  42.947  1.00  0.00    -0.000 C 
BRANCH  20  21
ATOM     21  C   UNL     1      37.212  -1.389  41.907  1.00  0.00    -0.000 C 
BRANCH  21  22
ATOM     22  C   UNL     1      38.383  -2.175  42.521  1.00  0.00    -0.000 C 
BRANCH  22  23
ATOM     23  C   UNL     1      38.342  -3.676  42.181  1.00  0.00    -0.000 C 
BRANCH  23  24
ATOM     24  C   UNL     1      37.837  -4.590  43.311  1.00  0.00    -0.000 C 
BRANCH  24  25
ATOM     25  C   UNL     1      36.666  -3.980  44.097  1.00  0.00    -0.003 C 
ATOM     26  C   UNL     1      35.357  -4.115  43.326  1.00  0.00     0.004 C 
ENDBRANCH  24  25
ENDBRANCH  23  24
ENDBRANCH  22  23
ENDBRANCH  21  22
ENDBRANCH  20  21
ENDBRANCH  19  20
ENDBRANCH  18  19
ENDBRANCH  17  18
ENDBRANCH  16  17
ENDBRANCH  15  16
ENDBRANCH   1  15
TORSDOF 22
ENDMDL
