MODEL 1
REMARK VINA RESULT:    -3.672      0.000      0.000
REMARK INTER + INTRA:          -9.502
REMARK INTER:                  -6.891
REMARK INTRA:                  -2.610
REMARK UNBOUND:                -2.610
REMARK SMILES CCCCCCCCC=CCCCCCCCC(=O)[O-]
REMARK SMILES IDX 10 1 9 2 11 3 12 4 13 5 14 6 15 7 16 8 17 9 18 10 19 11
REMARK SMILES IDX 20 12 8 13 7 14 6 15 5 16 4 17 3 18 2 19 1 20
REMARK H PARENT
REMARK Flexibility Score: inf
ROOT
ATOM      1  C   UNL     1       5.106 -59.664 -26.599  1.00  0.00    -0.031 C 
ATOM      2  C   UNL     1       5.639 -60.223 -27.696  1.00  0.00    -0.031 C 
ENDROOT
BRANCH   1   3
ATOM      3  C   UNL     1       5.910 -58.763 -25.704  1.00  0.00     0.027 C 
BRANCH   3   4
ATOM      4  C   UNL     1       5.598 -59.027 -24.226  1.00  0.00     0.004 C 
BRANCH   4   5
ATOM      5  C   UNL     1       4.747 -60.295 -24.061  1.00  0.00     0.000 C 
BRANCH   5   6
ATOM      6  C   UNL     1       3.572 -60.097 -23.092  1.00  0.00     0.000 C 
BRANCH   6   7
ATOM      7  C   UNL     1       2.265 -60.730 -23.607  1.00  0.00     0.000 C 
BRANCH   7   8
ATOM      8  C   UNL     1       1.869 -60.217 -25.000  1.00  0.00     0.006 C 
BRANCH   8   9
ATOM      9  C   UNL     1       0.348 -60.128 -25.184  1.00  0.00     0.053 C 
BRANCH   9  10
ATOM     10  C   UNL     1      -0.105 -58.701 -25.146  1.00  0.00     0.041 C 
ATOM     11  O   UNL     1      -0.526 -58.143 -26.193  1.00  0.00    -0.550 OA
ATOM     12  O   UNL     1      -0.095 -57.999 -23.947  1.00  0.00    -0.550 OA
ENDBRANCH   9  10
ENDBRANCH   8   9
ENDBRANCH   7   8
ENDBRANCH   6   7
ENDBRANCH   5   6
ENDBRANCH   4   5
ENDBRANCH   3   4
ENDBRANCH   1   3
BRANCH   2  13
ATOM     13  C   UNL     1       4.812 -61.121 -28.577  1.00  0.00     0.027 C 
BRANCH  13  14
ATOM     14  C   UNL     1       3.330 -61.063 -28.194  1.00  0.00     0.004 C 
BRANCH  14  15
ATOM     15  C   UNL     1       2.508 -60.367 -29.286  1.00  0.00     0.000 C 
BRANCH  15  16
ATOM     16  C   UNL     1       1.802 -59.120 -28.733  1.00  0.00     0.000 C 
BRANCH  16  17
ATOM     17  C   UNL     1       2.495 -57.812 -29.152  1.00  0.00    -0.000 C 
BRANCH  17  18
ATOM     18  C   UNL     1       3.354 -57.979 -30.418  1.00  0.00    -0.000 C 
BRANCH  18  19
ATOM     19  C   UNL     1       4.845 -57.720 -30.156  1.00  0.00    -0.003 C 
ATOM     20  C   UNL     1       5.097 -56.441 -29.360  1.00  0.00     0.004 C 
ENDBRANCH  18  19
ENDBRANCH  17  18
ENDBRANCH  16  17
ENDBRANCH  15  16
ENDBRANCH  14  15
ENDBRANCH  13  14
ENDBRANCH   2  13
TORSDOF 15
ENDMDL
MODEL 2
REMARK VINA RESULT:    -3.567      2.534      5.326
REMARK INTER + INTRA:          -9.305
REMARK INTER:                  -6.853
REMARK INTRA:                  -2.452
REMARK UNBOUND:                -2.610
REMARK SMILES CCCCCCCCC=CCCCCCCCC(=O)[O-]
REMARK SMILES IDX 10 1 9 2 11 3 12 4 13 5 14 6 15 7 16 8 17 9 18 10 19 11
REMARK SMILES IDX 20 12 8 13 7 14 6 15 5 16 4 17 3 18 2 19 1 20
REMARK H PARENT
REMARK Flexibility Score: inf
ROOT
ATOM      1  C   UNL     1       5.262 -59.729 -27.538  1.00  0.00    -0.031 C 
ATOM      2  C   UNL     1       4.464 -60.484 -26.768  1.00  0.00    -0.031 C 
ENDROOT
BRANCH   1   3
ATOM      3  C   UNL     1       5.212 -59.806 -29.039  1.00  0.00     0.027 C 
BRANCH   3   4
ATOM      4  C   UNL     1       4.670 -61.163 -29.507  1.00  0.00     0.004 C 
BRANCH   4   5
ATOM      5  C   UNL     1       3.333 -60.997 -30.245  1.00  0.00     0.000 C 
BRANCH   5   6
ATOM      6  C   UNL     1       2.120 -61.193 -29.323  1.00  0.00     0.000 C 
BRANCH   6   7
ATOM      7  C   UNL     1       1.167 -59.983 -29.330  1.00  0.00     0.000 C 
BRANCH   7   8
ATOM      8  C   UNL     1       1.775 -58.748 -28.648  1.00  0.00     0.006 C 
BRANCH   8   9
ATOM      9  C   UNL     1       1.617 -57.474 -29.489  1.00  0.00     0.053 C 
BRANCH   9  10
ATOM     10  C   UNL     1       2.767 -57.322 -30.436  1.00  0.00     0.041 C 
ATOM     11  O   UNL     1       2.670 -57.735 -31.621  1.00  0.00    -0.550 OA
ATOM     12  O   UNL     1       3.934 -56.692 -30.020  1.00  0.00    -0.550 OA
ENDBRANCH   9  10
ENDBRANCH   8   9
ENDBRANCH   7   8
ENDBRANCH   6   7
ENDBRANCH   5   6
ENDBRANCH   4   5
ENDBRANCH   3   4
ENDBRANCH   1   3
BRANCH   2  13
ATOM     13  C   UNL     1       4.533 -60.387 -25.268  1.00  0.00     0.027 C 
BRANCH  13  14
ATOM     14  C   UNL     1       4.059 -61.685 -24.605  1.00  0.00     0.004 C 
BRANCH  14  15
ATOM     15  C   UNL     1       2.571 -61.931 -24.880  1.00  0.00     0.000 C 
BRANCH  15  16
ATOM     16  C   UNL     1       1.718 -60.752 -24.387  1.00  0.00     0.000 C 
BRANCH  16  17
ATOM     17  C   UNL     1       0.807 -60.179 -25.486  1.00  0.00    -0.000 C 
BRANCH  17  18
ATOM     18  C   UNL     1      -0.031 -58.985 -24.995  1.00  0.00    -0.000 C 
BRANCH  18  19
ATOM     19  C   UNL     1      -0.962 -58.432 -26.084  1.00  0.00    -0.003 C 
ATOM     20  C   UNL     1      -0.660 -56.978 -26.444  1.00  0.00     0.004 C 
ENDBRANCH  18  19
ENDBRANCH  17  18
ENDBRANCH  16  17
ENDBRANCH  15  16
ENDBRANCH  14  15
ENDBRANCH  13  14
ENDBRANCH   2  13
TORSDOF 15
ENDMDL
MODEL 3
REMARK VINA RESULT:    -3.566      1.898      5.202
REMARK INTER + INTRA:          -9.304
REMARK INTER:                  -6.433
REMARK INTRA:                  -2.871
REMARK UNBOUND:                -2.610
REMARK SMILES CCCCCCCCC=CCCCCCCCC(=O)[O-]
REMARK SMILES IDX 10 1 9 2 11 3 12 4 13 5 14 6 15 7 16 8 17 9 18 10 19 11
REMARK SMILES IDX 20 12 8 13 7 14 6 15 5 16 4 17 3 18 2 19 1 20
REMARK H PARENT
REMARK Flexibility Score: inf
ROOT
ATOM      1  C   UNL     1       5.127 -59.107 -28.514  1.00  0.00    -0.031 C 
ATOM      2  C   UNL     1       5.396 -59.876 -27.449  1.00  0.00    -0.031 C 
ENDROOT
BRANCH   1   3
ATOM      3  C   UNL     1       5.064 -59.677 -29.904  1.00  0.00     0.027 C 
BRANCH   3   4
ATOM      4  C   UNL     1       4.493 -61.101 -29.894  1.00  0.00     0.004 C 
BRANCH   4   5
ATOM      5  C   UNL     1       3.471 -61.292 -31.024  1.00  0.00     0.000 C 
BRANCH   5   6
ATOM      6  C   UNL     1       2.022 -61.312 -30.515  1.00  0.00     0.000 C 
BRANCH   6   7
ATOM      7  C   UNL     1       1.932 -61.240 -28.979  1.00  0.00     0.000 C 
BRANCH   7   8
ATOM      8  C   UNL     1       0.937 -60.175 -28.494  1.00  0.00     0.006 C 
BRANCH   8   9
ATOM      9  C   UNL     1       1.628 -58.871 -28.075  1.00  0.00     0.053 C 
BRANCH   9  10
ATOM     10  C   UNL     1       1.308 -57.771 -29.040  1.00  0.00     0.041 C 
ATOM     11  O   UNL     1       0.432 -56.913 -28.755  1.00  0.00    -0.550 OA
ATOM     12  O   UNL     1       2.003 -57.673 -30.240  1.00  0.00    -0.550 OA
ENDBRANCH   9  10
ENDBRANCH   8   9
ENDBRANCH   7   8
ENDBRANCH   6   7
ENDBRANCH   5   6
ENDBRANCH   4   5
ENDBRANCH   3   4
ENDBRANCH   1   3
BRANCH   2  13
ATOM     13  C   UNL     1       5.452 -59.281 -26.068  1.00  0.00     0.027 C 
BRANCH  13  14
ATOM     14  C   UNL     1       4.582 -60.073 -25.086  1.00  0.00     0.004 C 
BRANCH  14  15
ATOM     15  C   UNL     1       3.991 -61.319 -25.757  1.00  0.00     0.000 C 
BRANCH  15  16
ATOM     16  C   UNL     1       2.528 -61.529 -25.337  1.00  0.00     0.000 C 
BRANCH  16  17
ATOM     17  C   UNL     1       1.909 -60.274 -24.700  1.00  0.00    -0.000 C 
BRANCH  17  18
ATOM     18  C   UNL     1       0.370 -60.303 -24.716  1.00  0.00    -0.000 C 
BRANCH  18  19
ATOM     19  C   UNL     1      -0.249 -59.076 -24.028  1.00  0.00    -0.003 C 
ATOM     20  C   UNL     1      -0.331 -57.857 -24.946  1.00  0.00     0.004 C 
ENDBRANCH  18  19
ENDBRANCH  17  18
ENDBRANCH  16  17
ENDBRANCH  15  16
ENDBRANCH  14  15
ENDBRANCH  13  14
ENDBRANCH   2  13
TORSDOF 15
ENDMDL
MODEL 4
REMARK VINA RESULT:    -3.551      2.149      5.304
REMARK INTER + INTRA:          -9.275
REMARK INTER:                  -6.771
REMARK INTRA:                  -2.504
REMARK UNBOUND:                -2.610
REMARK SMILES CCCCCCCCC=CCCCCCCCC(=O)[O-]
REMARK SMILES IDX 10 1 9 2 11 3 12 4 13 5 14 6 15 7 16 8 17 9 18 10 19 11
REMARK SMILES IDX 20 12 8 13 7 14 6 15 5 16 4 17 3 18 2 19 1 20
REMARK H PARENT
REMARK Flexibility Score: inf
ROOT
ATOM      1  C   UNL     1       1.372 -59.141 -28.844  1.00  0.00    -0.031 C 
ATOM      2  C   UNL     1       1.186 -60.414 -29.227  1.00  0.00    -0.031 C 
ENDROOT
BRANCH   1   3
ATOM      3  C   UNL     1       1.749 -58.068 -29.827  1.00  0.00     0.027 C 
BRANCH   3   4
ATOM      4  C   UNL     1       3.183 -57.577 -29.589  1.00  0.00     0.004 C 
BRANCH   4   5
ATOM      5  C   UNL     1       4.191 -58.409 -30.396  1.00  0.00     0.000 C 
BRANCH   5   6
ATOM      6  C   UNL     1       5.074 -59.295 -29.505  1.00  0.00     0.000 C 
BRANCH   6   7
ATOM      7  C   UNL     1       4.988 -58.913 -28.015  1.00  0.00     0.000 C 
BRANCH   7   8
ATOM      8  C   UNL     1       5.092 -60.131 -27.085  1.00  0.00     0.006 C 
BRANCH   8   9
ATOM      9  C   UNL     1       3.790 -60.401 -26.320  1.00  0.00     0.053 C 
BRANCH   9  10
ATOM     10  C   UNL     1       4.005 -60.256 -24.845  1.00  0.00     0.041 C 
ATOM     11  O   UNL     1       3.181 -60.754 -24.034  1.00  0.00    -0.550 OA
ATOM     12  O   UNL     1       5.133 -59.602 -24.367  1.00  0.00    -0.550 OA
ENDBRANCH   9  10
ENDBRANCH   8   9
ENDBRANCH   7   8
ENDBRANCH   6   7
ENDBRANCH   5   6
ENDBRANCH   4   5
ENDBRANCH   3   4
ENDBRANCH   1   3
BRANCH   2  13
ATOM     13  C   UNL     1       0.808 -61.468 -28.223  1.00  0.00     0.027 C 
BRANCH  13  14
ATOM     14  C   UNL     1      -0.345 -60.998 -27.330  1.00  0.00     0.004 C 
BRANCH  14  15
ATOM     15  C   UNL     1       0.083 -60.953 -25.858  1.00  0.00     0.000 C 
BRANCH  15  16
ATOM     16  C   UNL     1      -0.759 -59.938 -25.070  1.00  0.00     0.000 C 
BRANCH  16  17
ATOM     17  C   UNL     1       0.070 -58.744 -24.567  1.00  0.00    -0.000 C 
BRANCH  17  18
ATOM     18  C   UNL     1      -0.540 -57.390 -24.972  1.00  0.00    -0.000 C 
BRANCH  18  19
ATOM     19  C   UNL     1      -1.201 -57.433 -26.358  1.00  0.00    -0.003 C 
ATOM     20  C   UNL     1      -0.535 -56.495 -27.364  1.00  0.00     0.004 C 
ENDBRANCH  18  19
ENDBRANCH  17  18
ENDBRANCH  16  17
ENDBRANCH  15  16
ENDBRANCH  14  15
ENDBRANCH  13  14
ENDBRANCH   2  13
TORSDOF 15
ENDMDL
MODEL 5
REMARK VINA RESULT:    -3.528      1.885      3.102
REMARK INTER + INTRA:          -9.231
REMARK INTER:                  -6.766
REMARK INTRA:                  -2.465
REMARK UNBOUND:                -2.610
REMARK SMILES CCCCCCCCC=CCCCCCCCC(=O)[O-]
REMARK SMILES IDX 10 1 9 2 11 3 12 4 13 5 14 6 15 7 16 8 17 9 18 10 19 11
REMARK SMILES IDX 20 12 8 13 7 14 6 15 5 16 4 17 3 18 2 19 1 20
REMARK H PARENT
REMARK Flexibility Score: inf
ROOT
ATOM      1  C   UNL     1       3.197 -60.242 -27.125  1.00  0.00    -0.031 C 
ATOM      2  C   UNL     1       4.264 -60.725 -27.778  1.00  0.00    -0.031 C 
ENDROOT
BRANCH   1   3
ATOM      3  C   UNL     1       2.261 -61.142 -26.368  1.00  0.00     0.027 C 
BRANCH   3   4
ATOM      4  C   UNL     1       2.461 -61.004 -24.854  1.00  0.00     0.004 C 
BRANCH   4   5
ATOM      5  C   UNL     1       1.235 -61.519 -24.086  1.00  0.00     0.000 C 
BRANCH   5   6
ATOM      6  C   UNL     1       0.047 -60.547 -24.147  1.00  0.00     0.000 C 
BRANCH   6   7
ATOM      7  C   UNL     1       0.377 -59.169 -23.544  1.00  0.00     0.000 C 
BRANCH   7   8
ATOM      8  C   UNL     1      -0.100 -58.006 -24.428  1.00  0.00     0.006 C 
BRANCH   8   9
ATOM      9  C   UNL     1      -0.289 -58.420 -25.893  1.00  0.00     0.053 C 
BRANCH   9  10
ATOM     10  C   UNL     1      -0.949 -57.322 -26.670  1.00  0.00     0.041 C 
ATOM     11  O   UNL     1      -0.252 -56.499 -27.319  1.00  0.00    -0.550 OA
ATOM     12  O   UNL     1      -2.335 -57.231 -26.705  1.00  0.00    -0.550 OA
ENDBRANCH   9  10
ENDBRANCH   8   9
ENDBRANCH   7   8
ENDBRANCH   6   7
ENDBRANCH   5   6
ENDBRANCH   4   5
ENDBRANCH   3   4
ENDBRANCH   1   3
BRANCH   2  13
ATOM     13  C   UNL     1       5.187 -59.802 -28.528  1.00  0.00     0.027 C 
BRANCH  13  14
ATOM     14  C   UNL     1       4.692 -58.354 -28.469  1.00  0.00     0.004 C 
BRANCH  14  15
ATOM     15  C   UNL     1       4.867 -57.657 -29.824  1.00  0.00     0.000 C 
BRANCH  15  16
ATOM     16  C   UNL     1       3.528 -57.107 -30.338  1.00  0.00     0.000 C 
BRANCH  16  17
ATOM     17  C   UNL     1       2.334 -57.555 -29.479  1.00  0.00    -0.000 C 
BRANCH  17  18
ATOM     18  C   UNL     1       1.268 -58.307 -30.295  1.00  0.00    -0.000 C 
BRANCH  18  19
ATOM     19  C   UNL     1       1.282 -59.820 -30.031  1.00  0.00    -0.003 C 
ATOM     20  C   UNL     1       2.211 -60.581 -30.975  1.00  0.00     0.004 C 
ENDBRANCH  18  19
ENDBRANCH  17  18
ENDBRANCH  16  17
ENDBRANCH  15  16
ENDBRANCH  14  15
ENDBRANCH  13  14
ENDBRANCH   2  13
TORSDOF 15
ENDMDL
MODEL 6
REMARK VINA RESULT:    -3.501      1.466      5.071
REMARK INTER + INTRA:          -9.181
REMARK INTER:                  -6.712
REMARK INTRA:                  -2.470
REMARK UNBOUND:                -2.610
REMARK SMILES CCCCCCCCC=CCCCCCCCC(=O)[O-]
REMARK SMILES IDX 10 1 9 2 11 3 12 4 13 5 14 6 15 7 16 8 17 9 18 10 19 11
REMARK SMILES IDX 20 12 8 13 7 14 6 15 5 16 4 17 3 18 2 19 1 20
REMARK H PARENT
REMARK Flexibility Score: inf
ROOT
ATOM      1  C   UNL     1       4.747 -58.277 -28.943  1.00  0.00    -0.031 C 
ATOM      2  C   UNL     1       5.135 -59.554 -29.084  1.00  0.00    -0.031 C 
ENDROOT
BRANCH   1   3
ATOM      3  C   UNL     1       4.697 -57.334 -30.113  1.00  0.00     0.027 C 
BRANCH   3   4
ATOM      4  C   UNL     1       3.500 -57.641 -31.021  1.00  0.00     0.004 C 
BRANCH   4   5
ATOM      5  C   UNL     1       2.176 -57.496 -30.256  1.00  0.00     0.000 C 
BRANCH   5   6
ATOM      6  C   UNL     1       1.227 -58.682 -30.485  1.00  0.00     0.000 C 
BRANCH   6   7
ATOM      7  C   UNL     1       1.274 -59.709 -29.339  1.00  0.00     0.000 C 
BRANCH   7   8
ATOM      8  C   UNL     1       1.210 -59.052 -27.952  1.00  0.00     0.006 C 
BRANCH   8   9
ATOM      9  C   UNL     1       0.370 -59.860 -26.955  1.00  0.00     0.053 C 
BRANCH   9  10
ATOM     10  C   UNL     1      -0.696 -59.003 -26.346  1.00  0.00     0.041 C 
ATOM     11  O   UNL     1      -1.847 -59.473 -26.145  1.00  0.00    -0.550 OA
ATOM     12  O   UNL     1      -0.409 -57.697 -25.969  1.00  0.00    -0.550 OA
ENDBRANCH   9  10
ENDBRANCH   8   9
ENDBRANCH   7   8
ENDBRANCH   6   7
ENDBRANCH   5   6
ENDBRANCH   4   5
ENDBRANCH   3   4
ENDBRANCH   1   3
BRANCH   2  13
ATOM     13  C   UNL     1       5.176 -60.477 -27.897  1.00  0.00     0.027 C 
BRANCH  13  14
ATOM     14  C   UNL     1       4.096 -61.559 -27.997  1.00  0.00     0.004 C 
BRANCH  14  15
ATOM     15  C   UNL     1       3.444 -61.813 -26.632  1.00  0.00     0.000 C 
BRANCH  15  16
ATOM     16  C   UNL     1       3.977 -60.833 -25.576  1.00  0.00     0.000 C 
BRANCH  16  17
ATOM     17  C   UNL     1       4.320 -61.524 -24.246  1.00  0.00    -0.000 C 
BRANCH  17  18
ATOM     18  C   UNL     1       3.402 -61.075 -23.095  1.00  0.00    -0.000 C 
BRANCH  18  19
ATOM     19  C   UNL     1       2.542 -59.857 -23.468  1.00  0.00    -0.003 C 
ATOM     20  C   UNL     1       1.047 -60.101 -23.266  1.00  0.00     0.004 C 
ENDBRANCH  18  19
ENDBRANCH  17  18
ENDBRANCH  16  17
ENDBRANCH  15  16
ENDBRANCH  14  15
ENDBRANCH  13  14
ENDBRANCH   2  13
TORSDOF 15
ENDMDL
MODEL 7
REMARK VINA RESULT:    -3.491      1.347      2.629
REMARK INTER + INTRA:          -9.163
REMARK INTER:                  -6.752
REMARK INTRA:                  -2.411
REMARK UNBOUND:                -2.610
REMARK SMILES CCCCCCCCC=CCCCCCCCC(=O)[O-]
REMARK SMILES IDX 10 1 9 2 11 3 12 4 13 5 14 6 15 7 16 8 17 9 18 10 19 11
REMARK SMILES IDX 20 12 8 13 7 14 6 15 5 16 4 17 3 18 2 19 1 20
REMARK H PARENT
REMARK Flexibility Score: inf
ROOT
ATOM      1  C   UNL     1       4.459 -60.333 -25.939  1.00  0.00    -0.031 C 
ATOM      2  C   UNL     1       4.179 -61.117 -26.991  1.00  0.00    -0.031 C 
ENDROOT
BRANCH   1   3
ATOM      3  C   UNL     1       4.403 -60.855 -24.530  1.00  0.00     0.027 C 
BRANCH   3   4
ATOM      4  C   UNL     1       3.207 -61.794 -24.333  1.00  0.00     0.004 C 
BRANCH   4   5
ATOM      5  C   UNL     1       1.960 -61.014 -23.892  1.00  0.00     0.000 C 
BRANCH   5   6
ATOM      6  C   UNL     1       0.671 -61.543 -24.539  1.00  0.00     0.000 C 
BRANCH   6   7
ATOM      7  C   UNL     1       0.641 -61.329 -26.063  1.00  0.00     0.000 C 
BRANCH   7   8
ATOM      8  C   UNL     1       0.598 -59.844 -26.452  1.00  0.00     0.006 C 
BRANCH   8   9
ATOM      9  C   UNL     1      -0.722 -59.169 -26.056  1.00  0.00     0.053 C 
BRANCH   9  10
ATOM     10  C   UNL     1      -0.464 -57.958 -25.214  1.00  0.00     0.041 C 
ATOM     11  O   UNL     1      -0.154 -58.086 -24.001  1.00  0.00    -0.550 OA
ATOM     12  O   UNL     1      -0.532 -56.690 -25.779  1.00  0.00    -0.550 OA
ENDBRANCH   9  10
ENDBRANCH   8   9
ENDBRANCH   7   8
ENDBRANCH   6   7
ENDBRANCH   5   6
ENDBRANCH   4   5
ENDBRANCH   3   4
ENDBRANCH   1   3
BRANCH   2  13
ATOM     13  C   UNL     1       4.242 -60.571 -28.391  1.00  0.00     0.027 C 
BRANCH  13  14
ATOM     14  C   UNL     1       5.053 -59.272 -28.445  1.00  0.00     0.004 C 
BRANCH  14  15
ATOM     15  C   UNL     1       5.044 -58.677 -29.859  1.00  0.00     0.000 C 
BRANCH  15  16
ATOM     16  C   UNL     1       4.606 -57.205 -29.834  1.00  0.00     0.000 C 
BRANCH  16  17
ATOM     17  C   UNL     1       3.259 -56.975 -30.540  1.00  0.00    -0.000 C 
BRANCH  17  18
ATOM     18  C   UNL     1       2.523 -58.291 -30.848  1.00  0.00    -0.000 C 
BRANCH  18  19
ATOM     19  C   UNL     1       1.283 -58.493 -29.964  1.00  0.00    -0.003 C 
ATOM     20  C   UNL     1       0.975 -57.282 -29.086  1.00  0.00     0.004 C 
ENDBRANCH  18  19
ENDBRANCH  17  18
ENDBRANCH  16  17
ENDBRANCH  15  16
ENDBRANCH  14  15
ENDBRANCH  13  14
ENDBRANCH   2  13
TORSDOF 15
ENDMDL
MODEL 8
REMARK VINA RESULT:    -3.474      2.835      3.692
REMARK INTER + INTRA:          -9.131
REMARK INTER:                  -6.794
REMARK INTRA:                  -2.338
REMARK UNBOUND:                -2.610
REMARK SMILES CCCCCCCCC=CCCCCCCCC(=O)[O-]
REMARK SMILES IDX 10 1 9 2 11 3 12 4 13 5 14 6 15 7 16 8 17 9 18 10 19 11
REMARK SMILES IDX 20 12 8 13 7 14 6 15 5 16 4 17 3 18 2 19 1 20
REMARK H PARENT
REMARK Flexibility Score: inf
ROOT
ATOM      1  C   UNL     1       5.152 -60.162 -27.992  1.00  0.00    -0.031 C 
ATOM      2  C   UNL     1       4.637 -61.238 -28.605  1.00  0.00    -0.031 C 
ENDROOT
BRANCH   1   3
ATOM      3  C   UNL     1       5.083 -59.996 -26.499  1.00  0.00     0.027 C 
BRANCH   3   4
ATOM      4  C   UNL     1       3.771 -60.560 -25.939  1.00  0.00     0.004 C 
BRANCH   4   5
ATOM      5  C   UNL     1       4.041 -61.547 -24.794  1.00  0.00     0.000 C 
BRANCH   5   6
ATOM      6  C   UNL     1       4.223 -60.847 -23.439  1.00  0.00     0.000 C 
BRANCH   6   7
ATOM      7  C   UNL     1       3.377 -59.567 -23.314  1.00  0.00     0.000 C 
BRANCH   7   8
ATOM      8  C   UNL     1       4.135 -58.421 -22.625  1.00  0.00     0.006 C 
BRANCH   8   9
ATOM      9  C   UNL     1       5.434 -58.054 -23.353  1.00  0.00     0.053 C 
BRANCH   9  10
ATOM     10  C   UNL     1       6.122 -56.917 -22.663  1.00  0.00     0.041 C 
ATOM     11  O   UNL     1       6.616 -57.078 -21.516  1.00  0.00    -0.550 OA
ATOM     12  O   UNL     1       6.247 -55.688 -23.300  1.00  0.00    -0.550 OA
ENDBRANCH   9  10
ENDBRANCH   8   9
ENDBRANCH   7   8
ENDBRANCH   6   7
ENDBRANCH   5   6
ENDBRANCH   4   5
ENDBRANCH   3   4
ENDBRANCH   1   3
BRANCH   2  13
ATOM     13  C   UNL     1       4.720 -61.381 -30.101  1.00  0.00     0.027 C 
BRANCH  13  14
ATOM     14  C   UNL     1       3.332 -61.303 -30.744  1.00  0.00     0.004 C 
BRANCH  14  15
ATOM     15  C   UNL     1       2.230 -61.555 -29.708  1.00  0.00     0.000 C 
BRANCH  15  16
ATOM     16  C   UNL     1       1.183 -60.431 -29.733  1.00  0.00     0.000 C 
BRANCH  16  17
ATOM     17  C   UNL     1       1.378 -59.414 -28.597  1.00  0.00    -0.000 C 
BRANCH  17  18
ATOM     18  C   UNL     1       1.518 -57.971 -29.114  1.00  0.00    -0.000 C 
BRANCH  18  19
ATOM     19  C   UNL     1       2.974 -57.601 -29.438  1.00  0.00    -0.003 C 
ATOM     20  C   UNL     1       3.253 -57.541 -30.939  1.00  0.00     0.004 C 
ENDBRANCH  18  19
ENDBRANCH  17  18
ENDBRANCH  16  17
ENDBRANCH  15  16
ENDBRANCH  14  15
ENDBRANCH  13  14
ENDBRANCH   2  13
TORSDOF 15
ENDMDL
MODEL 9
REMARK VINA RESULT:    -3.438      1.587      2.759
REMARK INTER + INTRA:          -9.063
REMARK INTER:                  -7.049
REMARK INTRA:                  -2.013
REMARK UNBOUND:                -2.610
REMARK SMILES CCCCCCCCC=CCCCCCCCC(=O)[O-]
REMARK SMILES IDX 10 1 9 2 11 3 12 4 13 5 14 6 15 7 16 8 17 9 18 10 19 11
REMARK SMILES IDX 20 12 8 13 7 14 6 15 5 16 4 17 3 18 2 19 1 20
REMARK H PARENT
REMARK Flexibility Score: inf
ROOT
ATOM      1  C   UNL     1       3.821 -60.213 -24.786  1.00  0.00    -0.031 C 
ATOM      2  C   UNL     1       3.433 -61.487 -24.943  1.00  0.00    -0.031 C 
ENDROOT
BRANCH   1   3
ATOM      3  C   UNL     1       4.046 -59.618 -23.424  1.00  0.00     0.027 C 
BRANCH   3   4
ATOM      4  C   UNL     1       2.991 -60.109 -22.424  1.00  0.00     0.004 C 
BRANCH   4   5
ATOM      5  C   UNL     1       2.182 -58.934 -21.856  1.00  0.00     0.000 C 
BRANCH   5   6
ATOM      6  C   UNL     1       1.125 -58.412 -22.840  1.00  0.00     0.000 C 
BRANCH   6   7
ATOM      7  C   UNL     1       0.345 -59.546 -23.530  1.00  0.00     0.000 C 
BRANCH   7   8
ATOM      8  C   UNL     1      -0.307 -59.100 -24.847  1.00  0.00     0.006 C 
BRANCH   8   9
ATOM      9  C   UNL     1      -0.476 -57.578 -24.935  1.00  0.00     0.053 C 
BRANCH   9  10
ATOM     10  C   UNL     1      -1.075 -57.189 -26.252  1.00  0.00     0.041 C 
ATOM     11  O   UNL     1      -2.310 -57.330 -26.452  1.00  0.00    -0.550 OA
ATOM     12  O   UNL     1      -0.274 -56.639 -27.245  1.00  0.00    -0.550 OA
ENDBRANCH   9  10
ENDBRANCH   8   9
ENDBRANCH   7   8
ENDBRANCH   6   7
ENDBRANCH   5   6
ENDBRANCH   4   5
ENDBRANCH   3   4
ENDBRANCH   1   3
BRANCH   2  13
ATOM     13  C   UNL     1       3.215 -62.059 -26.318  1.00  0.00     0.027 C 
BRANCH  13  14
ATOM     14  C   UNL     1       3.220 -60.958 -27.384  1.00  0.00     0.004 C 
BRANCH  14  15
ATOM     15  C   UNL     1       4.378 -61.153 -28.370  1.00  0.00     0.000 C 
BRANCH  15  16
ATOM     16  C   UNL     1       5.430 -60.045 -28.211  1.00  0.00     0.000 C 
BRANCH  16  17
ATOM     17  C   UNL     1       4.811 -58.637 -28.207  1.00  0.00    -0.000 C 
BRANCH  17  18
ATOM     18  C   UNL     1       4.802 -57.992 -29.604  1.00  0.00    -0.000 C 
BRANCH  18  19
ATOM     19  C   UNL     1       3.512 -57.206 -29.881  1.00  0.00    -0.003 C 
ATOM     20  C   UNL     1       2.253 -57.954 -29.444  1.00  0.00     0.004 C 
ENDBRANCH  18  19
ENDBRANCH  17  18
ENDBRANCH  16  17
ENDBRANCH  15  16
ENDBRANCH  14  15
ENDBRANCH  13  14
ENDBRANCH   2  13
TORSDOF 15
ENDMDL
