MODEL 1
REMARK VINA RESULT:    -3.103      0.000      0.000
REMARK INTER + INTRA:         -10.781
REMARK INTER:                  -7.095
REMARK INTRA:                  -3.686
REMARK UNBOUND:                -3.686
REMARK SMILES CCCCCCCCCCCCCCCCCCCCCCCC(=O)[O-]
REMARK SMILES IDX 13 1 14 2 15 3 16 4 17 5 18 6 19 7 20 8 21 9 22 10 23 11
REMARK SMILES IDX 24 12 25 13 26 14 12 15 11 16 10 17 9 18 8 19 7 20 6 21 5 22
REMARK SMILES IDX 4 23 3 24 2 25 1 26
REMARK H PARENT
REMARK Flexibility Score: inf
ROOT
ATOM      1  C   UNL     1       8.012  21.324  19.995  1.00  0.00     0.000 C 
ENDROOT
BRANCH   1   2
ATOM      2  C   UNL     1       7.099  22.424  19.434  1.00  0.00     0.000 C 
BRANCH   2   3
ATOM      3  C   UNL     1       7.674  23.080  18.166  1.00  0.00     0.000 C 
BRANCH   3   4
ATOM      4  C   UNL     1       6.696  23.028  16.980  1.00  0.00     0.000 C 
BRANCH   4   5
ATOM      5  C   UNL     1       6.816  21.723  16.175  1.00  0.00     0.000 C 
BRANCH   5   6
ATOM      6  C   UNL     1       5.452  21.060  15.920  1.00  0.00     0.000 C 
BRANCH   6   7
ATOM      7  C   UNL     1       5.367  19.635  16.497  1.00  0.00     0.000 C 
BRANCH   7   8
ATOM      8  C   UNL     1       5.222  19.626  18.028  1.00  0.00     0.000 C 
BRANCH   8   9
ATOM      9  C   UNL     1       3.753  19.715  18.480  1.00  0.00     0.000 C 
BRANCH   9  10
ATOM     10  C   UNL     1       3.167  18.347  18.871  1.00  0.00     0.006 C 
BRANCH  10  11
ATOM     11  C   UNL     1       2.345  17.672  17.761  1.00  0.00     0.053 C 
BRANCH  11  12
ATOM     12  C   UNL     1       3.046  16.479  17.188  1.00  0.00     0.041 C 
ATOM     13  O   UNL     1       3.651  16.568  16.086  1.00  0.00    -0.550 OA
ATOM     14  O   UNL     1       3.069  15.281  17.891  1.00  0.00    -0.550 OA
ENDBRANCH  11  12
ENDBRANCH  10  11
ENDBRANCH   9  10
ENDBRANCH   8   9
ENDBRANCH   7   8
ENDBRANCH   6   7
ENDBRANCH   5   6
ENDBRANCH   4   5
ENDBRANCH   3   4
ENDBRANCH   2   3
ENDBRANCH   1   2
BRANCH   1  15
ATOM     15  C   UNL     1       9.199  21.893  20.793  1.00  0.00     0.000 C 
BRANCH  15  16
ATOM     16  C   UNL     1      10.412  20.946  20.811  1.00  0.00     0.000 C 
BRANCH  16  17
ATOM     17  C   UNL     1      11.778  21.639  20.642  1.00  0.00     0.000 C 
BRANCH  17  18
ATOM     18  C   UNL     1      11.808  22.790  19.615  1.00  0.00    -0.000 C 
BRANCH  18  19
ATOM     19  C   UNL     1      12.979  22.740  18.617  1.00  0.00    -0.000 C 
BRANCH  19  20
ATOM     20  C   UNL     1      12.602  23.059  17.158  1.00  0.00    -0.000 C 
BRANCH  20  21
ATOM     21  C   UNL     1      12.267  21.808  16.316  1.00  0.00    -0.000 C 
BRANCH  21  22
ATOM     22  C   UNL     1      10.769  21.711  15.981  1.00  0.00    -0.000 C 
BRANCH  22  23
ATOM     23  C   UNL     1      10.037  20.656  16.827  1.00  0.00    -0.000 C 
BRANCH  23  24
ATOM     24  C   UNL     1      11.001  19.643  17.469  1.00  0.00    -0.000 C 
BRANCH  24  25
ATOM     25  C   UNL     1      10.263  18.475  18.141  1.00  0.00    -0.003 C 
ATOM     26  C   UNL     1       8.927  18.153  17.470  1.00  0.00     0.004 C 
ENDBRANCH  24  25
ENDBRANCH  23  24
ENDBRANCH  22  23
ENDBRANCH  21  22
ENDBRANCH  20  21
ENDBRANCH  19  20
ENDBRANCH  18  19
ENDBRANCH  17  18
ENDBRANCH  16  17
ENDBRANCH  15  16
ENDBRANCH   1  15
TORSDOF 22
ENDMDL
MODEL 2
REMARK VINA RESULT:    -3.075      1.586      2.103
REMARK INTER + INTRA:         -10.715
REMARK INTER:                  -7.793
REMARK INTRA:                  -2.922
REMARK UNBOUND:                -3.686
REMARK SMILES CCCCCCCCCCCCCCCCCCCCCCCC(=O)[O-]
REMARK SMILES IDX 13 1 14 2 15 3 16 4 17 5 18 6 19 7 20 8 21 9 22 10 23 11
REMARK SMILES IDX 24 12 25 13 26 14 12 15 11 16 10 17 9 18 8 19 7 20 6 21 5 22
REMARK SMILES IDX 4 23 3 24 2 25 1 26
REMARK H PARENT
REMARK Flexibility Score: inf
ROOT
ATOM      1  C   UNL     1       8.449  21.845  21.908  1.00  0.00     0.000 C 
ENDROOT
BRANCH   1   2
ATOM      2  C   UNL     1       7.670  21.384  20.667  1.00  0.00     0.000 C 
BRANCH   2   3
ATOM      3  C   UNL     1       6.255  20.885  21.009  1.00  0.00     0.000 C 
BRANCH   3   4
ATOM      4  C   UNL     1       5.291  20.982  19.815  1.00  0.00     0.000 C 
BRANCH   4   5
ATOM      5  C   UNL     1       6.012  20.839  18.463  1.00  0.00     0.000 C 
BRANCH   5   6
ATOM      6  C   UNL     1       5.440  19.697  17.607  1.00  0.00     0.000 C 
BRANCH   6   7
ATOM      7  C   UNL     1       4.344  20.174  16.636  1.00  0.00     0.000 C 
BRANCH   7   8
ATOM      8  C   UNL     1       3.655  19.009  15.907  1.00  0.00     0.000 C 
BRANCH   8   9
ATOM      9  C   UNL     1       4.249  17.642  16.287  1.00  0.00     0.000 C 
BRANCH   9  10
ATOM     10  C   UNL     1       3.200  16.516  16.286  1.00  0.00     0.006 C 
BRANCH  10  11
ATOM     11  C   UNL     1       2.839  15.988  17.684  1.00  0.00     0.053 C 
BRANCH  11  12
ATOM     12  C   UNL     1       2.090  17.002  18.493  1.00  0.00     0.041 C 
ATOM     13  O   UNL     1       1.094  17.597  18.000  1.00  0.00    -0.550 OA
ATOM     14  O   UNL     1       2.466  17.261  19.805  1.00  0.00    -0.550 OA
ENDBRANCH  11  12
ENDBRANCH  10  11
ENDBRANCH   9  10
ENDBRANCH   8   9
ENDBRANCH   7   8
ENDBRANCH   6   7
ENDBRANCH   5   6
ENDBRANCH   4   5
ENDBRANCH   3   4
ENDBRANCH   2   3
ENDBRANCH   1   2
BRANCH   1  15
ATOM     15  C   UNL     1       9.954  22.009  21.632  1.00  0.00     0.000 C 
BRANCH  15  16
ATOM     16  C   UNL     1      10.536  20.850  20.802  1.00  0.00     0.000 C 
BRANCH  16  17
ATOM     17  C   UNL     1      11.777  21.211  19.964  1.00  0.00     0.000 C 
BRANCH  17  18
ATOM     18  C   UNL     1      11.814  22.661  19.436  1.00  0.00    -0.000 C 
BRANCH  18  19
ATOM     19  C   UNL     1      12.886  22.937  18.367  1.00  0.00    -0.000 C 
BRANCH  19  20
ATOM     20  C   UNL     1      12.407  22.779  16.912  1.00  0.00    -0.000 C 
BRANCH  20  21
ATOM     21  C   UNL     1      12.875  21.468  16.242  1.00  0.00    -0.000 C 
BRANCH  21  22
ATOM     22  C   UNL     1      11.748  20.425  16.144  1.00  0.00    -0.000 C 
BRANCH  22  23
ATOM     23  C   UNL     1      10.358  21.064  16.000  1.00  0.00    -0.000 C 
BRANCH  23  24
ATOM     24  C   UNL     1       9.391  20.629  17.116  1.00  0.00    -0.000 C 
BRANCH  24  25
ATOM     25  C   UNL     1       9.022  19.140  17.027  1.00  0.00    -0.003 C 
ATOM     26  C   UNL     1       9.491  18.339  18.242  1.00  0.00     0.004 C 
ENDBRANCH  24  25
ENDBRANCH  23  24
ENDBRANCH  22  23
ENDBRANCH  21  22
ENDBRANCH  20  21
ENDBRANCH  19  20
ENDBRANCH  18  19
ENDBRANCH  17  18
ENDBRANCH  16  17
ENDBRANCH  15  16
ENDBRANCH   1  15
TORSDOF 22
ENDMDL
MODEL 3
REMARK VINA RESULT:    -3.073      2.359      4.846
REMARK INTER + INTRA:         -10.711
REMARK INTER:                  -6.997
REMARK INTRA:                  -3.714
REMARK UNBOUND:                -3.686
REMARK SMILES CCCCCCCCCCCCCCCCCCCCCCCC(=O)[O-]
REMARK SMILES IDX 13 1 14 2 15 3 16 4 17 5 18 6 19 7 20 8 21 9 22 10 23 11
REMARK SMILES IDX 24 12 25 13 26 14 12 15 11 16 10 17 9 18 8 19 7 20 6 21 5 22
REMARK SMILES IDX 4 23 3 24 2 25 1 26
REMARK H PARENT
REMARK Flexibility Score: inf
ROOT
ATOM      1  C   UNL     1      11.738  22.628  19.525  1.00  0.00     0.000 C 
ENDROOT
BRANCH   1   2
ATOM      2  C   UNL     1      11.504  21.192  20.016  1.00  0.00     0.000 C 
BRANCH   2   3
ATOM      3  C   UNL     1      10.608  21.133  21.266  1.00  0.00     0.000 C 
BRANCH   3   4
ATOM      4  C   UNL     1      10.198  22.528  21.764  1.00  0.00     0.000 C 
BRANCH   4   5
ATOM      5  C   UNL     1       8.863  22.512  22.529  1.00  0.00     0.000 C 
BRANCH   5   6
ATOM      6  C   UNL     1       8.063  21.221  22.292  1.00  0.00     0.000 C 
BRANCH   6   7
ATOM      7  C   UNL     1       6.541  21.456  22.301  1.00  0.00     0.000 C 
BRANCH   7   8
ATOM      8  C   UNL     1       5.844  20.760  23.481  1.00  0.00     0.000 C 
BRANCH   8   9
ATOM      9  C   UNL     1       4.311  20.882  23.415  1.00  0.00     0.000 C 
BRANCH   9  10
ATOM     10  C   UNL     1       3.765  20.747  21.982  1.00  0.00     0.006 C 
BRANCH  10  11
ATOM     11  C   UNL     1       3.061  19.411  21.697  1.00  0.00     0.053 C 
BRANCH  11  12
ATOM     12  C   UNL     1       2.529  19.342  20.299  1.00  0.00     0.041 C 
ATOM     13  O   UNL     1       2.695  18.301  19.608  1.00  0.00    -0.550 OA
ATOM     14  O   UNL     1       1.814  20.410  19.773  1.00  0.00    -0.550 OA
ENDBRANCH  11  12
ENDBRANCH  10  11
ENDBRANCH   9  10
ENDBRANCH   8   9
ENDBRANCH   7   8
ENDBRANCH   6   7
ENDBRANCH   5   6
ENDBRANCH   4   5
ENDBRANCH   3   4
ENDBRANCH   2   3
ENDBRANCH   1   2
BRANCH   1  15
ATOM     15  C   UNL     1      12.896  22.726  18.517  1.00  0.00     0.000 C 
BRANCH  15  16
ATOM     16  C   UNL     1      12.409  22.902  17.067  1.00  0.00     0.000 C 
BRANCH  16  17
ATOM     17  C   UNL     1      12.814  21.768  16.104  1.00  0.00     0.000 C 
BRANCH  17  18
ATOM     18  C   UNL     1      12.002  20.463  16.250  1.00  0.00    -0.000 C 
BRANCH  18  19
ATOM     19  C   UNL     1      10.514  20.578  15.875  1.00  0.00    -0.000 C 
BRANCH  19  20
ATOM     20  C   UNL     1       9.534  20.423  17.054  1.00  0.00    -0.000 C 
BRANCH  20  21
ATOM     21  C   UNL     1       8.805  21.731  17.432  1.00  0.00    -0.000 C 
BRANCH  21  22
ATOM     22  C   UNL     1       7.880  21.555  18.649  1.00  0.00    -0.000 C 
BRANCH  22  23
ATOM     23  C   UNL     1       7.454  20.094  18.866  1.00  0.00    -0.000 C 
BRANCH  23  24
ATOM     24  C   UNL     1       5.926  19.931  18.944  1.00  0.00    -0.000 C 
BRANCH  24  25
ATOM     25  C   UNL     1       5.215  20.445  17.683  1.00  0.00    -0.003 C 
ATOM     26  C   UNL     1       5.494  19.583  16.451  1.00  0.00     0.004 C 
ENDBRANCH  24  25
ENDBRANCH  23  24
ENDBRANCH  22  23
ENDBRANCH  21  22
ENDBRANCH  20  21
ENDBRANCH  19  20
ENDBRANCH  18  19
ENDBRANCH  17  18
ENDBRANCH  16  17
ENDBRANCH  15  16
ENDBRANCH   1  15
TORSDOF 22
ENDMDL
MODEL 4
REMARK VINA RESULT:    -3.022     19.112     21.340
REMARK INTER + INTRA:         -10.594
REMARK INTER:                  -6.658
REMARK INTRA:                  -3.937
REMARK UNBOUND:                -3.686
REMARK SMILES CCCCCCCCCCCCCCCCCCCCCCCC(=O)[O-]
REMARK SMILES IDX 13 1 14 2 15 3 16 4 17 5 18 6 19 7 20 8 21 9 22 10 23 11
REMARK SMILES IDX 24 12 25 13 26 14 12 15 11 16 10 17 9 18 8 19 7 20 6 21 5 22
REMARK SMILES IDX 4 23 3 24 2 25 1 26
REMARK H PARENT
REMARK Flexibility Score: inf
ROOT
ATOM      1  C   UNL     1       7.557   4.374  29.649  1.00  0.00     0.000 C 
ENDROOT
BRANCH   1   2
ATOM      2  C   UNL     1       6.294   3.503  29.711  1.00  0.00     0.000 C 
BRANCH   2   3
ATOM      3  C   UNL     1       5.229   3.932  28.686  1.00  0.00     0.000 C 
BRANCH   3   4
ATOM      4  C   UNL     1       5.582   5.255  27.988  1.00  0.00     0.000 C 
BRANCH   4   5
ATOM      5  C   UNL     1       4.357   6.167  27.800  1.00  0.00     0.000 C 
BRANCH   5   6
ATOM      6  C   UNL     1       3.119   5.655  28.554  1.00  0.00     0.000 C 
BRANCH   6   7
ATOM      7  C   UNL     1       2.765   6.525  29.774  1.00  0.00     0.000 C 
BRANCH   7   8
ATOM      8  C   UNL     1       2.268   5.692  30.967  1.00  0.00     0.000 C 
BRANCH   8   9
ATOM      9  C   UNL     1       3.411   4.960  31.692  1.00  0.00     0.000 C 
BRANCH   9  10
ATOM     10  C   UNL     1       4.375   5.922  32.408  1.00  0.00     0.006 C 
BRANCH  10  11
ATOM     11  C   UNL     1       3.857   6.448  33.757  1.00  0.00     0.053 C 
BRANCH  11  12
ATOM     12  C   UNL     1       4.694   5.973  34.904  1.00  0.00     0.041 C 
ATOM     13  O   UNL     1       5.485   6.765  35.484  1.00  0.00    -0.550 OA
ATOM     14  O   UNL     1       4.571   4.667  35.362  1.00  0.00    -0.550 OA
ENDBRANCH  11  12
ENDBRANCH  10  11
ENDBRANCH   9  10
ENDBRANCH   8   9
ENDBRANCH   7   8
ENDBRANCH   6   7
ENDBRANCH   5   6
ENDBRANCH   4   5
ENDBRANCH   3   4
ENDBRANCH   2   3
ENDBRANCH   1   2
BRANCH   1  15
ATOM     15  C   UNL     1       8.817   3.563  29.299  1.00  0.00     0.000 C 
BRANCH  15  16
ATOM     16  C   UNL     1       9.827   3.504  30.459  1.00  0.00     0.000 C 
BRANCH  16  17
ATOM     17  C   UNL     1      10.650   4.790  30.669  1.00  0.00     0.000 C 
BRANCH  17  18
ATOM     18  C   UNL     1      11.394   4.880  32.018  1.00  0.00    -0.000 C 
BRANCH  18  19
ATOM     19  C   UNL     1      11.403   3.581  32.843  1.00  0.00    -0.000 C 
BRANCH  19  20
ATOM     20  C   UNL     1      12.039   3.705  34.241  1.00  0.00    -0.000 C 
BRANCH  20  21
ATOM     21  C   UNL     1      11.009   3.840  35.383  1.00  0.00    -0.000 C 
BRANCH  21  22
ATOM     22  C   UNL     1      10.633   5.305  35.663  1.00  0.00    -0.000 C 
BRANCH  22  23
ATOM     23  C   UNL     1       9.142   5.593  35.423  1.00  0.00    -0.000 C 
BRANCH  23  24
ATOM     24  C   UNL     1       8.901   6.432  34.156  1.00  0.00    -0.000 C 
BRANCH  24  25
ATOM     25  C   UNL     1       7.975   5.728  33.153  1.00  0.00    -0.003 C 
ATOM     26  C   UNL     1       7.757   4.251  33.483  1.00  0.00     0.004 C 
ENDBRANCH  24  25
ENDBRANCH  23  24
ENDBRANCH  22  23
ENDBRANCH  21  22
ENDBRANCH  20  21
ENDBRANCH  19  20
ENDBRANCH  18  19
ENDBRANCH  17  18
ENDBRANCH  16  17
ENDBRANCH  15  16
ENDBRANCH   1  15
TORSDOF 22
ENDMDL
MODEL 5
REMARK VINA RESULT:    -2.996      3.222      4.544
REMARK INTER + INTRA:         -10.535
REMARK INTER:                  -8.316
REMARK INTRA:                  -2.218
REMARK UNBOUND:                -3.686
REMARK SMILES CCCCCCCCCCCCCCCCCCCCCCCC(=O)[O-]
REMARK SMILES IDX 13 1 14 2 15 3 16 4 17 5 18 6 19 7 20 8 21 9 22 10 23 11
REMARK SMILES IDX 24 12 25 13 26 14 12 15 11 16 10 17 9 18 8 19 7 20 6 21 5 22
REMARK SMILES IDX 4 23 3 24 2 25 1 26
REMARK H PARENT
REMARK Flexibility Score: inf
ROOT
ATOM      1  C   UNL     1      10.641  20.946  20.676  1.00  0.00     0.000 C 
ENDROOT
BRANCH   1   2
ATOM      2  C   UNL     1       9.344  21.592  21.187  1.00  0.00     0.000 C 
BRANCH   2   3
ATOM      3  C   UNL     1       8.236  21.618  20.119  1.00  0.00     0.000 C 
BRANCH   3   4
ATOM      4  C   UNL     1       6.879  21.144  20.666  1.00  0.00     0.000 C 
BRANCH   4   5
ATOM      5  C   UNL     1       6.857  21.071  22.203  1.00  0.00     0.000 C 
BRANCH   5   6
ATOM      6  C   UNL     1       5.432  21.136  22.776  1.00  0.00     0.000 C 
BRANCH   6   7
ATOM      7  C   UNL     1       5.135  19.991  23.761  1.00  0.00     0.000 C 
BRANCH   7   8
ATOM      8  C   UNL     1       3.643  19.889  24.115  1.00  0.00     0.000 C 
BRANCH   8   9
ATOM      9  C   UNL     1       2.885  18.912  23.198  1.00  0.00     0.000 C 
BRANCH   9  10
ATOM     10  C   UNL     1       2.566  17.574  23.889  1.00  0.00     0.006 C 
BRANCH  10  11
ATOM     11  C   UNL     1       2.282  16.414  22.921  1.00  0.00     0.053 C 
BRANCH  11  12
ATOM     12  C   UNL     1       2.086  15.116  23.640  1.00  0.00     0.041 C 
ATOM     13  O   UNL     1       1.601  14.122  23.035  1.00  0.00    -0.550 OA
ATOM     14  O   UNL     1       2.479  14.989  24.967  1.00  0.00    -0.550 OA
ENDBRANCH  11  12
ENDBRANCH  10  11
ENDBRANCH   9  10
ENDBRANCH   8   9
ENDBRANCH   7   8
ENDBRANCH   6   7
ENDBRANCH   5   6
ENDBRANCH   4   5
ENDBRANCH   3   4
ENDBRANCH   2   3
ENDBRANCH   1   2
BRANCH   1  15
ATOM     15  C   UNL     1      11.900  21.628  21.239  1.00  0.00     0.000 C 
BRANCH  15  16
ATOM     16  C   UNL     1      12.484  22.683  20.282  1.00  0.00     0.000 C 
BRANCH  16  17
ATOM     17  C   UNL     1      11.915  22.646  18.850  1.00  0.00     0.000 C 
BRANCH  17  18
ATOM     18  C   UNL     1      12.962  22.460  17.732  1.00  0.00    -0.000 C 
BRANCH  18  19
ATOM     19  C   UNL     1      12.401  21.948  16.394  1.00  0.00    -0.000 C 
BRANCH  19  20
ATOM     20  C   UNL     1      10.863  21.897  16.313  1.00  0.00    -0.000 C 
BRANCH  20  21
ATOM     21  C   UNL     1      10.302  20.484  16.042  1.00  0.00    -0.000 C 
BRANCH  21  22
ATOM     22  C   UNL     1      10.280  19.609  17.307  1.00  0.00    -0.000 C 
BRANCH  22  23
ATOM     23  C   UNL     1       8.913  18.948  17.550  1.00  0.00    -0.000 C 
BRANCH  23  24
ATOM     24  C   UNL     1       8.239  18.492  16.244  1.00  0.00    -0.000 C 
BRANCH  24  25
ATOM     25  C   UNL     1       6.830  19.079  16.075  1.00  0.00    -0.003 C 
ATOM     26  C   UNL     1       6.575  20.283  16.981  1.00  0.00     0.004 C 
ENDBRANCH  24  25
ENDBRANCH  23  24
ENDBRANCH  22  23
ENDBRANCH  21  22
ENDBRANCH  20  21
ENDBRANCH  19  20
ENDBRANCH  18  19
ENDBRANCH  17  18
ENDBRANCH  16  17
ENDBRANCH  15  16
ENDBRANCH   1  15
TORSDOF 22
ENDMDL
MODEL 6
REMARK VINA RESULT:    -2.989      2.857      4.533
REMARK INTER + INTRA:         -10.519
REMARK INTER:                  -7.107
REMARK INTRA:                  -3.412
REMARK UNBOUND:                -3.686
REMARK SMILES CCCCCCCCCCCCCCCCCCCCCCCC(=O)[O-]
REMARK SMILES IDX 13 1 14 2 15 3 16 4 17 5 18 6 19 7 20 8 21 9 22 10 23 11
REMARK SMILES IDX 24 12 25 13 26 14 12 15 11 16 10 17 9 18 8 19 7 20 6 21 5 22
REMARK SMILES IDX 4 23 3 24 2 25 1 26
REMARK H PARENT
REMARK Flexibility Score: inf
ROOT
ATOM      1  C   UNL     1       8.979  18.512  17.909  1.00  0.00     0.000 C 
ENDROOT
BRANCH   1   2
ATOM      2  C   UNL     1       8.538  18.345  16.447  1.00  0.00     0.000 C 
BRANCH   2   3
ATOM      3  C   UNL     1       7.149  18.949  16.176  1.00  0.00     0.000 C 
BRANCH   3   4
ATOM      4  C   UNL     1       7.006  20.373  16.738  1.00  0.00     0.000 C 
BRANCH   4   5
ATOM      5  C   UNL     1       5.567  20.688  17.186  1.00  0.00     0.000 C 
BRANCH   5   6
ATOM      6  C   UNL     1       5.204  20.017  18.520  1.00  0.00     0.000 C 
BRANCH   6   7
ATOM      7  C   UNL     1       4.097  18.958  18.371  1.00  0.00     0.000 C 
BRANCH   7   8
ATOM      8  C   UNL     1       2.941  19.169  19.363  1.00  0.00     0.000 C 
BRANCH   8   9
ATOM      9  C   UNL     1       3.353  20.027  20.572  1.00  0.00     0.000 C 
BRANCH   9  10
ATOM     10  C   UNL     1       2.439  19.813  21.792  1.00  0.00     0.006 C 
BRANCH  10  11
ATOM     11  C   UNL     1       2.918  18.716  22.756  1.00  0.00     0.053 C 
BRANCH  11  12
ATOM     12  C   UNL     1       3.601  19.285  23.962  1.00  0.00     0.041 C 
ATOM     13  O   UNL     1       4.804  18.999  24.204  1.00  0.00    -0.550 OA
ATOM     14  O   UNL     1       2.921  20.164  24.796  1.00  0.00    -0.550 OA
ENDBRANCH  11  12
ENDBRANCH  10  11
ENDBRANCH   9  10
ENDBRANCH   8   9
ENDBRANCH   7   8
ENDBRANCH   6   7
ENDBRANCH   5   6
ENDBRANCH   4   5
ENDBRANCH   3   4
ENDBRANCH   2   3
ENDBRANCH   1   2
BRANCH   1  15
ATOM     15  C   UNL     1      10.289  19.309  18.043  1.00  0.00     0.000 C 
BRANCH  15  16
ATOM     16  C   UNL     1      10.774  19.885  16.700  1.00  0.00     0.000 C 
BRANCH  16  17
ATOM     17  C   UNL     1      10.561  21.402  16.530  1.00  0.00     0.000 C 
BRANCH  17  18
ATOM     18  C   UNL     1      11.849  22.226  16.323  1.00  0.00    -0.000 C 
BRANCH  18  19
ATOM     19  C   UNL     1      12.752  22.344  17.564  1.00  0.00    -0.000 C 
BRANCH  19  20
ATOM     20  C   UNL     1      12.059  22.909  18.819  1.00  0.00    -0.000 C 
BRANCH  20  21
ATOM     21  C   UNL     1      12.081  21.947  20.027  1.00  0.00    -0.000 C 
BRANCH  21  22
ATOM     22  C   UNL     1      10.707  21.830  20.708  1.00  0.00    -0.000 C 
BRANCH  22  23
ATOM     23  C   UNL     1       9.576  22.460  19.879  1.00  0.00    -0.000 C 
BRANCH  23  24
ATOM     24  C   UNL     1       8.246  21.699  20.021  1.00  0.00    -0.000 C 
BRANCH  24  25
ATOM     25  C   UNL     1       7.413  22.192  21.214  1.00  0.00    -0.003 C 
ATOM     26  C   UNL     1       6.577  21.082  21.853  1.00  0.00     0.004 C 
ENDBRANCH  24  25
ENDBRANCH  23  24
ENDBRANCH  22  23
ENDBRANCH  21  22
ENDBRANCH  20  21
ENDBRANCH  19  20
ENDBRANCH  18  19
ENDBRANCH  17  18
ENDBRANCH  16  17
ENDBRANCH  15  16
ENDBRANCH   1  15
TORSDOF 22
ENDMDL
MODEL 7
REMARK VINA RESULT:    -2.930      2.625      3.485
REMARK INTER + INTRA:         -10.386
REMARK INTER:                  -6.966
REMARK INTRA:                  -3.419
REMARK UNBOUND:                -3.686
REMARK SMILES CCCCCCCCCCCCCCCCCCCCCCCC(=O)[O-]
REMARK SMILES IDX 13 1 14 2 15 3 16 4 17 5 18 6 19 7 20 8 21 9 22 10 23 11
REMARK SMILES IDX 24 12 25 13 26 14 12 15 11 16 10 17 9 18 8 19 7 20 6 21 5 22
REMARK SMILES IDX 4 23 3 24 2 25 1 26
REMARK H PARENT
REMARK Flexibility Score: inf
ROOT
ATOM      1  C   UNL     1       8.477  21.999  22.287  1.00  0.00     0.000 C 
ENDROOT
BRANCH   1   2
ATOM      2  C   UNL     1       7.509  21.294  21.324  1.00  0.00     0.000 C 
BRANCH   2   3
ATOM      3  C   UNL     1       6.186  20.895  22.003  1.00  0.00     0.000 C 
BRANCH   3   4
ATOM      4  C   UNL     1       4.954  21.313  21.184  1.00  0.00     0.000 C 
BRANCH   4   5
ATOM      5  C   UNL     1       5.247  21.391  19.676  1.00  0.00     0.000 C 
BRANCH   5   6
ATOM      6  C   UNL     1       4.803  20.127  18.922  1.00  0.00     0.000 C 
BRANCH   6   7
ATOM      7  C   UNL     1       3.449  20.304  18.211  1.00  0.00     0.000 C 
BRANCH   7   8
ATOM      8  C   UNL     1       2.314  19.531  18.903  1.00  0.00     0.000 C 
BRANCH   8   9
ATOM      9  C   UNL     1       2.839  18.439  19.852  1.00  0.00     0.000 C 
BRANCH   9  10
ATOM     10  C   UNL     1       1.946  18.250  21.091  1.00  0.00     0.006 C 
BRANCH  10  11
ATOM     11  C   UNL     1       2.244  19.226  22.241  1.00  0.00     0.053 C 
BRANCH  11  12
ATOM     12  C   UNL     1       2.801  18.527  23.443  1.00  0.00     0.041 C 
ATOM     13  O   UNL     1       3.969  18.784  23.841  1.00  0.00    -0.550 OA
ATOM     14  O   UNL     1       2.016  17.624  24.149  1.00  0.00    -0.550 OA
ENDBRANCH  11  12
ENDBRANCH  10  11
ENDBRANCH   9  10
ENDBRANCH   8   9
ENDBRANCH   7   8
ENDBRANCH   6   7
ENDBRANCH   5   6
ENDBRANCH   4   5
ENDBRANCH   3   4
ENDBRANCH   2   3
ENDBRANCH   1   2
BRANCH   1  15
ATOM     15  C   UNL     1       9.881  22.177  21.685  1.00  0.00     0.000 C 
BRANCH  15  16
ATOM     16  C   UNL     1      10.443  20.874  21.089  1.00  0.00     0.000 C 
BRANCH  16  17
ATOM     17  C   UNL     1      11.492  21.069  19.977  1.00  0.00     0.000 C 
BRANCH  17  18
ATOM     18  C   UNL     1      11.995  22.516  19.796  1.00  0.00    -0.000 C 
BRANCH  18  19
ATOM     19  C   UNL     1      12.907  22.739  18.575  1.00  0.00    -0.000 C 
BRANCH  19  20
ATOM     20  C   UNL     1      12.170  22.842  17.226  1.00  0.00    -0.000 C 
BRANCH  20  21
ATOM     21  C   UNL     1      12.649  21.815  16.177  1.00  0.00    -0.000 C 
BRANCH  21  22
ATOM     22  C   UNL     1      11.848  20.502  16.233  1.00  0.00    -0.000 C 
BRANCH  22  23
ATOM     23  C   UNL     1      10.331  20.726  16.129  1.00  0.00    -0.000 C 
BRANCH  23  24
ATOM     24  C   UNL     1       9.529  19.746  17.003  1.00  0.00    -0.000 C 
BRANCH  24  25
ATOM     25  C   UNL     1       8.492  20.459  17.884  1.00  0.00    -0.003 C 
ATOM     26  C   UNL     1       8.576  21.983  17.786  1.00  0.00     0.004 C 
ENDBRANCH  24  25
ENDBRANCH  23  24
ENDBRANCH  22  23
ENDBRANCH  21  22
ENDBRANCH  20  21
ENDBRANCH  19  20
ENDBRANCH  18  19
ENDBRANCH  17  18
ENDBRANCH  16  17
ENDBRANCH  15  16
ENDBRANCH   1  15
TORSDOF 22
ENDMDL
MODEL 8
REMARK VINA RESULT:    -2.927      1.543      2.703
REMARK INTER + INTRA:         -10.378
REMARK INTER:                  -7.175
REMARK INTRA:                  -3.203
REMARK UNBOUND:                -3.686
REMARK SMILES CCCCCCCCCCCCCCCCCCCCCCCC(=O)[O-]
REMARK SMILES IDX 13 1 14 2 15 3 16 4 17 5 18 6 19 7 20 8 21 9 22 10 23 11
REMARK SMILES IDX 24 12 25 13 26 14 12 15 11 16 10 17 9 18 8 19 7 20 6 21 5 22
REMARK SMILES IDX 4 23 3 24 2 25 1 26
REMARK H PARENT
REMARK Flexibility Score: inf
ROOT
ATOM      1  C   UNL     1       9.096  21.641  22.075  1.00  0.00     0.000 C 
ENDROOT
BRANCH   1   2
ATOM      2  C   UNL     1       7.613  21.851  21.733  1.00  0.00     0.000 C 
BRANCH   2   3
ATOM      3  C   UNL     1       6.690  20.871  22.479  1.00  0.00     0.000 C 
BRANCH   3   4
ATOM      4  C   UNL     1       5.246  20.904  21.951  1.00  0.00     0.000 C 
BRANCH   4   5
ATOM      5  C   UNL     1       5.127  21.641  20.606  1.00  0.00     0.000 C 
BRANCH   5   6
ATOM      6  C   UNL     1       3.954  21.129  19.754  1.00  0.00     0.000 C 
BRANCH   6   7
ATOM      7  C   UNL     1       4.197  19.714  19.199  1.00  0.00     0.000 C 
BRANCH   7   8
ATOM      8  C   UNL     1       3.581  19.514  17.804  1.00  0.00     0.000 C 
BRANCH   8   9
ATOM      9  C   UNL     1       4.632  19.138  16.745  1.00  0.00     0.000 C 
BRANCH   9  10
ATOM     10  C   UNL     1       4.280  17.844  15.990  1.00  0.00     0.006 C 
BRANCH  10  11
ATOM     11  C   UNL     1       2.819  17.394  16.155  1.00  0.00     0.053 C 
BRANCH  11  12
ATOM     12  C   UNL     1       2.717  16.013  16.726  1.00  0.00     0.041 C 
ATOM     13  O   UNL     1       2.992  15.806  17.938  1.00  0.00    -0.550 OA
ATOM     14  O   UNL     1       2.277  14.962  15.930  1.00  0.00    -0.550 OA
ENDBRANCH  11  12
ENDBRANCH  10  11
ENDBRANCH   9  10
ENDBRANCH   8   9
ENDBRANCH   7   8
ENDBRANCH   6   7
ENDBRANCH   5   6
ENDBRANCH   4   5
ENDBRANCH   3   4
ENDBRANCH   2   3
ENDBRANCH   1   2
BRANCH   1  15
ATOM     15  C   UNL     1       9.935  21.252  20.846  1.00  0.00     0.000 C 
BRANCH  15  16
ATOM     16  C   UNL     1      11.448  21.265  21.130  1.00  0.00     0.000 C 
BRANCH  16  17
ATOM     17  C   UNL     1      12.264  22.239  20.258  1.00  0.00     0.000 C 
BRANCH  17  18
ATOM     18  C   UNL     1      11.643  22.566  18.883  1.00  0.00    -0.000 C 
BRANCH  18  19
ATOM     19  C   UNL     1      12.646  22.635  17.717  1.00  0.00    -0.000 C 
BRANCH  19  20
ATOM     20  C   UNL     1      12.392  21.623  16.583  1.00  0.00    -0.000 C 
BRANCH  20  21
ATOM     21  C   UNL     1      11.011  20.936  16.662  1.00  0.00    -0.000 C 
BRANCH  21  22
ATOM     22  C   UNL     1      11.120  19.436  16.986  1.00  0.00    -0.000 C 
BRANCH  22  23
ATOM     23  C   UNL     1      10.151  18.995  18.094  1.00  0.00    -0.000 C 
BRANCH  23  24
ATOM     24  C   UNL     1       8.691  18.940  17.613  1.00  0.00    -0.000 C 
BRANCH  24  25
ATOM     25  C   UNL     1       7.751  19.779  18.493  1.00  0.00    -0.003 C 
ATOM     26  C   UNL     1       7.538  21.194  17.954  1.00  0.00     0.004 C 
ENDBRANCH  24  25
ENDBRANCH  23  24
ENDBRANCH  22  23
ENDBRANCH  21  22
ENDBRANCH  20  21
ENDBRANCH  19  20
ENDBRANCH  18  19
ENDBRANCH  17  18
ENDBRANCH  16  17
ENDBRANCH  15  16
ENDBRANCH   1  15
TORSDOF 22
ENDMDL
MODEL 9
REMARK VINA RESULT:    -2.906      2.808      4.299
REMARK INTER + INTRA:         -10.330
REMARK INTER:                  -6.441
REMARK INTRA:                  -3.889
REMARK UNBOUND:                -3.686
REMARK SMILES CCCCCCCCCCCCCCCCCCCCCCCC(=O)[O-]
REMARK SMILES IDX 13 1 14 2 15 3 16 4 17 5 18 6 19 7 20 8 21 9 22 10 23 11
REMARK SMILES IDX 24 12 25 13 26 14 12 15 11 16 10 17 9 18 8 19 7 20 6 21 5 22
REMARK SMILES IDX 4 23 3 24 2 25 1 26
REMARK H PARENT
REMARK Flexibility Score: inf
ROOT
ATOM      1  C   UNL     1       6.786  20.879  22.242  1.00  0.00     0.000 C 
ENDROOT
BRANCH   1   2
ATOM      2  C   UNL     1       5.891  20.422  23.403  1.00  0.00     0.000 C 
BRANCH   2   3
ATOM      3  C   UNL     1       4.997  21.553  23.941  1.00  0.00     0.000 C 
BRANCH   3   4
ATOM      4  C   UNL     1       3.616  21.049  24.392  1.00  0.00     0.000 C 
BRANCH   4   5
ATOM      5  C   UNL     1       3.263  19.678  23.789  1.00  0.00     0.000 C 
BRANCH   5   6
ATOM      6  C   UNL     1       2.271  19.785  22.620  1.00  0.00     0.000 C 
BRANCH   6   7
ATOM      7  C   UNL     1       2.967  19.764  21.247  1.00  0.00     0.000 C 
BRANCH   7   8
ATOM      8  C   UNL     1       3.245  21.175  20.704  1.00  0.00     0.000 C 
BRANCH   8   9
ATOM      9  C   UNL     1       3.985  21.152  19.355  1.00  0.00     0.000 C 
BRANCH   9  10
ATOM     10  C   UNL     1       4.752  19.839  19.120  1.00  0.00     0.006 C 
BRANCH  10  11
ATOM     11  C   UNL     1       6.107  20.015  18.416  1.00  0.00     0.053 C 
BRANCH  11  12
ATOM     12  C   UNL     1       5.964  20.086  16.927  1.00  0.00     0.041 C 
ATOM     13  O   UNL     1       5.356  19.175  16.305  1.00  0.00    -0.550 OA
ATOM     14  O   UNL     1       6.465  21.179  16.232  1.00  0.00    -0.550 OA
ENDBRANCH  11  12
ENDBRANCH  10  11
ENDBRANCH   9  10
ENDBRANCH   8   9
ENDBRANCH   7   8
ENDBRANCH   6   7
ENDBRANCH   5   6
ENDBRANCH   4   5
ENDBRANCH   3   4
ENDBRANCH   2   3
ENDBRANCH   1   2
BRANCH   1  15
ATOM     15  C   UNL     1       6.585  22.364  21.891  1.00  0.00     0.000 C 
BRANCH  15  16
ATOM     16  C   UNL     1       7.396  22.799  20.657  1.00  0.00     0.000 C 
BRANCH  16  17
ATOM     17  C   UNL     1       8.608  21.905  20.329  1.00  0.00     0.000 C 
BRANCH  17  18
ATOM     18  C   UNL     1       9.854  22.654  19.811  1.00  0.00    -0.000 C 
BRANCH  18  19
ATOM     19  C   UNL     1      11.187  21.910  20.008  1.00  0.00    -0.000 C 
BRANCH  19  20
ATOM     20  C   UNL     1      12.310  22.325  19.038  1.00  0.00    -0.000 C 
BRANCH  20  21
ATOM     21  C   UNL     1      11.843  22.471  17.573  1.00  0.00    -0.000 C 
BRANCH  21  22
ATOM     22  C   UNL     1      12.376  21.343  16.673  1.00  0.00    -0.000 C 
BRANCH  22  23
ATOM     23  C   UNL     1      11.253  20.559  15.975  1.00  0.00    -0.000 C 
BRANCH  23  24
ATOM     24  C   UNL     1       9.943  20.560  16.783  1.00  0.00    -0.000 C 
BRANCH  24  25
ATOM     25  C   UNL     1       9.541  19.154  17.252  1.00  0.00    -0.003 C 
ATOM     26  C   UNL     1      10.298  18.708  18.504  1.00  0.00     0.004 C 
ENDBRANCH  24  25
ENDBRANCH  23  24
ENDBRANCH  22  23
ENDBRANCH  21  22
ENDBRANCH  20  21
ENDBRANCH  19  20
ENDBRANCH  18  19
ENDBRANCH  17  18
ENDBRANCH  16  17
ENDBRANCH  15  16
ENDBRANCH   1  15
TORSDOF 22
ENDMDL
