MODEL 1
REMARK VINA RESULT:    -6.250      0.000      0.000
REMARK INTER + INTRA:          -7.817
REMARK INTER:                  -7.529
REMARK INTRA:                  -0.288
REMARK UNBOUND:                -0.288
REMARK SMILES O=c1c(O)c(-c2ccc(O)c(O)c2)oc2cc(O)cc(O)c12
REMARK SMILES IDX 5 1 3 2 2 3 1 4 22 5 20 6 19 7 17 8 16 9 15 10 14 11 6 12
REMARK SMILES IDX 7 13 8 14 9 15 13 16 11 17 10 18 12 20 4 22 21 24 18 26
REMARK H PARENT 10 19 12 21 4 23 21 25 18 27
REMARK Flexibility Score: inf
ROOT
ATOM      1  C   UNL     1     -12.422  -0.461   0.357  1.00  0.00     0.180 A 
ATOM      2  C   UNL     1     -12.852  -1.414  -0.582  1.00  0.00     0.208 A 
ATOM      3  C   UNL     1     -12.044  -2.533  -0.836  1.00  0.00     0.238 A 
ATOM      4  O   UNL     1     -12.409  -3.355  -1.717  1.00  0.00    -0.285 OA
ATOM      5  C   UNL     1     -10.823  -2.693  -0.138  1.00  0.00     0.111 A 
ATOM      6  C   UNL     1      -9.945  -3.809  -0.287  1.00  0.00     0.134 A 
ATOM      7  C   UNL     1      -8.702  -3.799   0.357  1.00  0.00     0.093 A 
ATOM      8  C   UNL     1      -8.334  -2.744   1.196  1.00  0.00     0.123 A 
ATOM      9  C   UNL     1      -9.209  -1.680   1.395  1.00  0.00     0.094 A 
ATOM     10  C   UNL     1     -10.441  -1.644   0.738  1.00  0.00     0.146 A 
ATOM     11  O   UNL     1     -11.241  -0.606   0.947  1.00  0.00    -0.452 OA
ENDROOT
BRANCH   1  12
ATOM     12  C   UNL     1     -13.232   0.732   0.696  1.00  0.00     0.025 A 
ATOM     13  C   UNL     1     -13.207   1.848  -0.155  1.00  0.00     0.016 A 
ATOM     14  C   UNL     1     -13.947   2.993   0.157  1.00  0.00     0.051 A 
ATOM     15  C   UNL     1     -14.709   3.042   1.331  1.00  0.00     0.157 A 
ATOM     16  C   UNL     1     -13.981   0.794   1.884  1.00  0.00     0.062 A 
ATOM     17  C   UNL     1     -14.722   1.943   2.198  1.00  0.00     0.158 A 
BRANCH  15  18
ATOM     18  O   UNL     1     -15.449   4.180   1.644  1.00  0.00    -0.504 OA
ATOM     19  H   UNL     1     -16.276   4.437   1.117  1.00  0.00     0.293 HD
ENDBRANCH  15  18
BRANCH  17  20
ATOM     20  O   UNL     1     -15.471   2.000   3.373  1.00  0.00    -0.504 OA
ATOM     21  H   UNL     1     -15.277   1.387   4.156  1.00  0.00     0.293 HD
ENDBRANCH  17  20
ENDBRANCH   1  12
BRANCH   2  22
ATOM     22  O   UNL     1     -14.051  -1.225  -1.277  1.00  0.00    -0.502 OA
ATOM     23  H   UNL     1     -14.096  -1.210  -2.289  1.00  0.00     0.293 HD
ENDBRANCH   2  22
BRANCH   6  24
ATOM     24  O   UNL     1     -10.255  -4.953  -1.027  1.00  0.00    -0.507 OA
ATOM     25  H   UNL     1      -9.760  -5.829  -0.966  1.00  0.00     0.293 HD
ENDBRANCH   6  24
BRANCH   8  26
ATOM     26  O   UNL     1      -7.101  -2.750   1.846  1.00  0.00    -0.508 OA
ATOM     27  H   UNL     1      -6.240  -2.950   1.349  1.00  0.00     0.293 HD
ENDBRANCH   8  26
TORSDOF 6
ENDMDL
MODEL 2
REMARK VINA RESULT:    -6.237      3.430      5.350
REMARK INTER + INTRA:          -7.801
REMARK INTER:                  -7.472
REMARK INTRA:                  -0.329
REMARK UNBOUND:                -0.288
REMARK SMILES O=c1c(O)c(-c2ccc(O)c(O)c2)oc2cc(O)cc(O)c12
REMARK SMILES IDX 5 1 3 2 2 3 1 4 22 5 20 6 19 7 17 8 16 9 15 10 14 11 6 12
REMARK SMILES IDX 7 13 8 14 9 15 13 16 11 17 10 18 12 20 4 22 21 24 18 26
REMARK H PARENT 10 19 12 21 4 23 21 25 18 27
REMARK Flexibility Score: inf
ROOT
ATOM      1  C   UNL     1     -12.169  -1.885  -2.785  1.00  0.00     0.180 A 
ATOM      2  C   UNL     1     -12.754  -1.697  -1.521  1.00  0.00     0.208 A 
ATOM      3  C   UNL     1     -12.002  -1.987  -0.372  1.00  0.00     0.238 A 
ATOM      4  O   UNL     1     -12.550  -1.868   0.755  1.00  0.00    -0.285 OA
ATOM      5  C   UNL     1     -10.669  -2.447  -0.500  1.00  0.00     0.111 A 
ATOM      6  C   UNL     1      -9.801  -2.732   0.597  1.00  0.00     0.134 A 
ATOM      7  C   UNL     1      -8.547  -3.306   0.353  1.00  0.00     0.093 A 
ATOM      8  C   UNL     1      -8.104  -3.542  -0.950  1.00  0.00     0.123 A 
ATOM      9  C   UNL     1      -8.920  -3.211  -2.029  1.00  0.00     0.094 A 
ATOM     10  C   UNL     1     -10.190  -2.671  -1.817  1.00  0.00     0.146 A 
ATOM     11  O   UNL     1     -10.940  -2.380  -2.873  1.00  0.00    -0.452 OA
ENDROOT
BRANCH   1  12
ATOM     12  C   UNL     1     -12.891  -1.577  -4.041  1.00  0.00     0.025 A 
ATOM     13  C   UNL     1     -13.523  -2.614  -4.745  1.00  0.00     0.016 A 
ATOM     14  C   UNL     1     -14.192  -2.350  -5.945  1.00  0.00     0.051 A 
ATOM     15  C   UNL     1     -14.225  -1.049  -6.461  1.00  0.00     0.157 A 
ATOM     16  C   UNL     1     -12.909  -0.277  -4.575  1.00  0.00     0.062 A 
ATOM     17  C   UNL     1     -13.578  -0.012  -5.779  1.00  0.00     0.158 A 
BRANCH  15  18
ATOM     18  O   UNL     1     -14.893  -0.781  -7.655  1.00  0.00    -0.504 OA
ATOM     19  H   UNL     1     -14.417  -0.366  -8.447  1.00  0.00     0.293 HD
ENDBRANCH  15  18
BRANCH  17  20
ATOM     20  O   UNL     1     -13.601   1.280  -6.303  1.00  0.00    -0.504 OA
ATOM     21  H   UNL     1     -12.747   1.796  -6.479  1.00  0.00     0.293 HD
ENDBRANCH  17  20
ENDBRANCH   1  12
BRANCH   2  22
ATOM     22  O   UNL     1     -14.079  -1.264  -1.417  1.00  0.00    -0.502 OA
ATOM     23  H   UNL     1     -14.341  -0.434  -0.897  1.00  0.00     0.293 HD
ENDBRANCH   2  22
BRANCH   6  24
ATOM     24  O   UNL     1     -10.110  -2.449   1.930  1.00  0.00    -0.507 OA
ATOM     25  H   UNL     1      -9.457  -2.509   2.697  1.00  0.00     0.293 HD
ENDBRANCH   6  24
BRANCH   8  26
ATOM     26  O   UNL     1      -6.848  -4.098  -1.184  1.00  0.00    -0.508 OA
ATOM     27  H   UNL     1      -6.023  -3.518  -1.294  1.00  0.00     0.293 HD
ENDBRANCH   8  26
TORSDOF 6
ENDMDL
MODEL 3
REMARK VINA RESULT:    -6.011      1.261      1.617
REMARK INTER + INTRA:          -7.528
REMARK INTER:                  -7.208
REMARK INTRA:                  -0.320
REMARK UNBOUND:                -0.288
REMARK SMILES O=c1c(O)c(-c2ccc(O)c(O)c2)oc2cc(O)cc(O)c12
REMARK SMILES IDX 5 1 3 2 2 3 1 4 22 5 20 6 19 7 17 8 16 9 15 10 14 11 6 12
REMARK SMILES IDX 7 13 8 14 9 15 13 16 11 17 10 18 12 20 4 22 21 24 18 26
REMARK H PARENT 10 19 12 21 4 23 21 25 18 27
REMARK Flexibility Score: inf
ROOT
ATOM      1  C   UNL     1     -12.943   0.572  -0.279  1.00  0.00     0.180 A 
ATOM      2  C   UNL     1     -13.457  -0.083  -1.412  1.00  0.00     0.208 A 
ATOM      3  C   UNL     1     -12.953  -1.347  -1.755  1.00  0.00     0.238 A 
ATOM      4  O   UNL     1     -13.379  -1.904  -2.800  1.00  0.00    -0.285 OA
ATOM      5  C   UNL     1     -11.953  -1.949  -0.953  1.00  0.00     0.111 A 
ATOM      6  C   UNL     1     -11.400  -3.244  -1.184  1.00  0.00     0.134 A 
ATOM      7  C   UNL     1     -10.324  -3.684  -0.403  1.00  0.00     0.093 A 
ATOM      8  C   UNL     1      -9.826  -2.903   0.642  1.00  0.00     0.123 A 
ATOM      9  C   UNL     1     -10.398  -1.662   0.913  1.00  0.00     0.094 A 
ATOM     10  C   UNL     1     -11.449  -1.181   0.129  1.00  0.00     0.146 A 
ATOM     11  O   UNL     1     -11.959   0.010   0.415  1.00  0.00    -0.452 OA
ENDROOT
BRANCH   1  12
ATOM     12  C   UNL     1     -13.441   1.896   0.160  1.00  0.00     0.025 A 
ATOM     13  C   UNL     1     -12.865   3.060  -0.370  1.00  0.00     0.016 A 
ATOM     14  C   UNL     1     -13.305   4.321   0.046  1.00  0.00     0.051 A 
ATOM     15  C   UNL     1     -14.317   4.432   1.007  1.00  0.00     0.157 A 
ATOM     16  C   UNL     1     -14.442   2.012   1.141  1.00  0.00     0.062 A 
ATOM     17  C   UNL     1     -14.883   3.276   1.559  1.00  0.00     0.158 A 
BRANCH  15  18
ATOM     18  O   UNL     1     -14.760   5.686   1.423  1.00  0.00    -0.504 OA
ATOM     19  H   UNL     1     -15.619   5.798   1.950  1.00  0.00     0.293 HD
ENDBRANCH  15  18
BRANCH  17  20
ATOM     20  O   UNL     1     -15.880   3.391   2.526  1.00  0.00    -0.504 OA
ATOM     21  H   UNL     1     -15.669   3.679   3.474  1.00  0.00     0.293 HD
ENDBRANCH  17  20
ENDBRANCH   1  12
BRANCH   2  22
ATOM     22  O   UNL     1     -14.428   0.539  -2.202  1.00  0.00    -0.502 OA
ATOM     23  H   UNL     1     -14.765   0.134  -3.068  1.00  0.00     0.293 HD
ENDBRANCH   2  22
BRANCH   6  24
ATOM     24  O   UNL     1     -11.885  -4.140  -2.140  1.00  0.00    -0.507 OA
ATOM     25  H   UNL     1     -11.704  -4.077  -3.131  1.00  0.00     0.293 HD
ENDBRANCH   6  24
BRANCH   8  26
ATOM     26  O   UNL     1      -8.765  -3.355   1.424  1.00  0.00    -0.508 OA
ATOM     27  H   UNL     1      -8.018  -2.734   1.714  1.00  0.00     0.293 HD
ENDBRANCH   8  26
TORSDOF 6
ENDMDL
MODEL 4
REMARK VINA RESULT:    -5.944      2.933      7.241
REMARK INTER + INTRA:          -7.448
REMARK INTER:                  -7.623
REMARK INTRA:                   0.175
REMARK UNBOUND:                -0.288
REMARK SMILES O=c1c(O)c(-c2ccc(O)c(O)c2)oc2cc(O)cc(O)c12
REMARK SMILES IDX 5 1 3 2 2 3 1 4 22 5 20 6 19 7 17 8 16 9 15 10 14 11 6 12
REMARK SMILES IDX 7 13 8 14 9 15 13 16 11 17 10 18 12 20 4 22 21 24 18 26
REMARK H PARENT 10 19 12 21 4 23 21 25 18 27
REMARK Flexibility Score: inf
ROOT
ATOM      1  C   UNL     1     -11.876  -0.270  -1.490  1.00  0.00     0.180 A 
ATOM      2  C   UNL     1     -12.275   0.675  -0.529  1.00  0.00     0.208 A 
ATOM      3  C   UNL     1     -12.838   1.887  -0.958  1.00  0.00     0.238 A 
ATOM      4  O   UNL     1     -13.143   2.750  -0.094  1.00  0.00    -0.285 OA
ATOM      5  C   UNL     1     -13.008   2.134  -2.342  1.00  0.00     0.111 A 
ATOM      6  C   UNL     1     -13.604   3.311  -2.887  1.00  0.00     0.134 A 
ATOM      7  C   UNL     1     -13.602   3.506  -4.273  1.00  0.00     0.093 A 
ATOM      8  C   UNL     1     -13.085   2.537  -5.136  1.00  0.00     0.123 A 
ATOM      9  C   UNL     1     -12.556   1.358  -4.616  1.00  0.00     0.094 A 
ATOM     10  C   UNL     1     -12.511   1.151  -3.236  1.00  0.00     0.146 A 
ATOM     11  O   UNL     1     -11.989   0.018  -2.781  1.00  0.00    -0.452 OA
ENDROOT
BRANCH   1  12
ATOM     12  C   UNL     1     -11.299  -1.581  -1.114  1.00  0.00     0.025 A 
ATOM     13  C   UNL     1     -11.692  -2.734  -1.812  1.00  0.00     0.016 A 
ATOM     14  C   UNL     1     -11.177  -3.985  -1.460  1.00  0.00     0.051 A 
ATOM     15  C   UNL     1     -10.273  -4.101  -0.397  1.00  0.00     0.157 A 
ATOM     16  C   UNL     1     -10.407  -1.706  -0.034  1.00  0.00     0.062 A 
ATOM     17  C   UNL     1      -9.891  -2.961   0.320  1.00  0.00     0.158 A 
BRANCH  15  18
ATOM     18  O   UNL     1      -9.754  -5.346  -0.044  1.00  0.00    -0.504 OA
ATOM     19  H   UNL     1      -9.551  -6.052  -0.742  1.00  0.00     0.293 HD
ENDBRANCH  15  18
BRANCH  17  20
ATOM     20  O   UNL     1      -9.002  -3.082   1.387  1.00  0.00    -0.504 OA
ATOM     21  H   UNL     1      -8.308  -3.820   1.419  1.00  0.00     0.293 HD
ENDBRANCH  17  20
ENDBRANCH   1  12
BRANCH   2  22
ATOM     22  O   UNL     1     -12.078   0.420   0.831  1.00  0.00    -0.502 OA
ATOM     23  H   UNL     1     -11.560  -0.386   1.164  1.00  0.00     0.293 HD
ENDBRANCH   2  22
BRANCH   6  24
ATOM     24  O   UNL     1     -14.229   4.297  -2.119  1.00  0.00    -0.507 OA
ATOM     25  H   UNL     1     -14.736   5.084  -2.495  1.00  0.00     0.293 HD
ENDBRANCH   6  24
BRANCH   8  26
ATOM     26  O   UNL     1     -13.102   2.732  -6.516  1.00  0.00    -0.508 OA
ATOM     27  H   UNL     1     -13.438   3.596  -6.926  1.00  0.00     0.293 HD
ENDBRANCH   8  26
TORSDOF 6
ENDMDL
MODEL 5
REMARK VINA RESULT:    -5.931      2.398      3.502
REMARK INTER + INTRA:          -7.433
REMARK INTER:                  -7.384
REMARK INTRA:                  -0.049
REMARK UNBOUND:                -0.288
REMARK SMILES O=c1c(O)c(-c2ccc(O)c(O)c2)oc2cc(O)cc(O)c12
REMARK SMILES IDX 5 1 3 2 2 3 1 4 22 5 20 6 19 7 17 8 16 9 15 10 14 11 6 12
REMARK SMILES IDX 7 13 8 14 9 15 13 16 11 17 10 18 12 20 4 22 21 24 18 26
REMARK H PARENT 10 19 12 21 4 23 21 25 18 27
REMARK Flexibility Score: inf
ROOT
ATOM      1  C   UNL     1     -12.592  -2.009  -1.399  1.00  0.00     0.180 A 
ATOM      2  C   UNL     1     -13.228  -2.076  -2.650  1.00  0.00     0.208 A 
ATOM      3  C   UNL     1     -12.788  -3.024  -3.587  1.00  0.00     0.238 A 
ATOM      4  O   UNL     1     -13.326  -3.043  -4.725  1.00  0.00    -0.285 OA
ATOM      5  C   UNL     1     -11.728  -3.902  -3.257  1.00  0.00     0.111 A 
ATOM      6  C   UNL     1     -11.228  -4.928  -4.114  1.00  0.00     0.134 A 
ATOM      7  C   UNL     1     -10.091  -5.651  -3.735  1.00  0.00     0.093 A 
ATOM      8  C   UNL     1      -9.476  -5.431  -2.500  1.00  0.00     0.123 A 
ATOM      9  C   UNL     1      -9.993  -4.473  -1.631  1.00  0.00     0.094 A 
ATOM     10  C   UNL     1     -11.104  -3.711  -1.996  1.00  0.00     0.146 A 
ATOM     11  O   UNL     1     -11.558  -2.802  -1.143  1.00  0.00    -0.452 OA
ENDROOT
BRANCH   1  12
ATOM     12  C   UNL     1     -13.017  -1.053  -0.350  1.00  0.00     0.025 A 
ATOM     13  C   UNL     1     -13.422  -1.539   0.903  1.00  0.00     0.016 A 
ATOM     14  C   UNL     1     -13.848  -0.657   1.901  1.00  0.00     0.051 A 
ATOM     15  C   UNL     1     -13.887   0.721   1.654  1.00  0.00     0.157 A 
ATOM     16  C   UNL     1     -13.078   0.329  -0.600  1.00  0.00     0.062 A 
ATOM     17  C   UNL     1     -13.506   1.215   0.400  1.00  0.00     0.158 A 
BRANCH  15  18
ATOM     18  O   UNL     1     -14.308   1.604   2.647  1.00  0.00    -0.504 OA
ATOM     19  H   UNL     1     -14.517   1.286   3.586  1.00  0.00     0.293 HD
ENDBRANCH  15  18
BRANCH  17  20
ATOM     20  O   UNL     1     -13.559   2.585   0.153  1.00  0.00    -0.504 OA
ATOM     21  H   UNL     1     -13.219   3.260   0.828  1.00  0.00     0.293 HD
ENDBRANCH  17  20
ENDBRANCH   1  12
BRANCH   2  22
ATOM     22  O   UNL     1     -14.258  -1.185  -2.964  1.00  0.00    -0.502 OA
ATOM     23  H   UNL     1     -14.157  -0.181  -2.869  1.00  0.00     0.293 HD
ENDBRANCH   2  22
BRANCH   6  24
ATOM     24  O   UNL     1     -11.823  -5.291  -5.326  1.00  0.00    -0.507 OA
ATOM     25  H   UNL     1     -11.415  -5.137  -6.236  1.00  0.00     0.293 HD
ENDBRANCH   6  24
BRANCH   8  26
ATOM     26  O   UNL     1      -8.354  -6.166  -2.123  1.00  0.00    -0.508 OA
ATOM     27  H   UNL     1      -8.404  -7.167  -1.966  1.00  0.00     0.293 HD
ENDBRANCH   8  26
TORSDOF 6
ENDMDL
MODEL 6
REMARK VINA RESULT:    -5.923      3.045      7.342
REMARK INTER + INTRA:          -7.423
REMARK INTER:                  -7.133
REMARK INTRA:                  -0.290
REMARK UNBOUND:                -0.288
REMARK SMILES O=c1c(O)c(-c2ccc(O)c(O)c2)oc2cc(O)cc(O)c12
REMARK SMILES IDX 5 1 3 2 2 3 1 4 22 5 20 6 19 7 17 8 16 9 15 10 14 11 6 12
REMARK SMILES IDX 7 13 8 14 9 15 13 16 11 17 10 18 12 20 4 22 21 24 18 26
REMARK H PARENT 10 19 12 21 4 23 21 25 18 27
REMARK Flexibility Score: inf
ROOT
ATOM      1  C   UNL     1     -12.711  -0.807  -2.857  1.00  0.00     0.180 A 
ATOM      2  C   UNL     1     -12.862   0.351  -3.638  1.00  0.00     0.208 A 
ATOM      3  C   UNL     1     -13.234   1.551  -3.012  1.00  0.00     0.238 A 
ATOM      4  O   UNL     1     -13.420   2.572  -3.725  1.00  0.00    -0.285 OA
ATOM      5  C   UNL     1     -13.433   1.582  -1.611  1.00  0.00     0.111 A 
ATOM      6  C   UNL     1     -13.771   2.753  -0.866  1.00  0.00     0.134 A 
ATOM      7  C   UNL     1     -14.073   2.640   0.496  1.00  0.00     0.093 A 
ATOM      8  C   UNL     1     -13.984   1.411   1.155  1.00  0.00     0.123 A 
ATOM      9  C   UNL     1     -13.596   0.274   0.450  1.00  0.00     0.094 A 
ATOM     10  C   UNL     1     -13.324   0.348  -0.919  1.00  0.00     0.146 A 
ATOM     11  O   UNL     1     -12.969  -0.761  -1.555  1.00  0.00    -0.452 OA
ENDROOT
BRANCH   1  12
ATOM     12  C   UNL     1     -12.297  -2.104  -3.442  1.00  0.00     0.025 A 
ATOM     13  C   UNL     1     -13.252  -2.907  -4.084  1.00  0.00     0.016 A 
ATOM     14  C   UNL     1     -12.889  -4.144  -4.625  1.00  0.00     0.051 A 
ATOM     15  C   UNL     1     -11.569  -4.600  -4.517  1.00  0.00     0.157 A 
ATOM     16  C   UNL     1     -10.978  -2.575  -3.318  1.00  0.00     0.062 A 
ATOM     17  C   UNL     1     -10.613  -3.817  -3.859  1.00  0.00     0.158 A 
BRANCH  15  18
ATOM     18  O   UNL     1     -11.202  -5.831  -5.057  1.00  0.00    -0.504 OA
ATOM     19  H   UNL     1     -10.350  -6.301  -4.774  1.00  0.00     0.293 HD
ENDBRANCH  15  18
BRANCH  17  20
ATOM     20  O   UNL     1      -9.304  -4.280  -3.741  1.00  0.00    -0.504 OA
ATOM     21  H   UNL     1      -8.510  -3.691  -3.967  1.00  0.00     0.293 HD
ENDBRANCH  17  20
ENDBRANCH   1  12
BRANCH   2  22
ATOM     22  O   UNL     1     -12.682   0.293  -5.023  1.00  0.00    -0.502 OA
ATOM     23  H   UNL     1     -11.819  -0.028  -5.446  1.00  0.00     0.293 HD
ENDBRANCH   2  22
BRANCH   6  24
ATOM     24  O   UNL     1     -13.798   4.041  -1.407  1.00  0.00    -0.507 OA
ATOM     25  H   UNL     1     -12.994   4.642  -1.501  1.00  0.00     0.293 HD
ENDBRANCH   6  24
BRANCH   8  26
ATOM     26  O   UNL     1     -14.270   1.311   2.515  1.00  0.00    -0.508 OA
ATOM     27  H   UNL     1     -15.213   1.421   2.868  1.00  0.00     0.293 HD
ENDBRANCH   8  26
TORSDOF 6
ENDMDL
MODEL 7
REMARK VINA RESULT:    -5.899      1.672      3.394
REMARK INTER + INTRA:          -7.394
REMARK INTER:                  -7.456
REMARK INTRA:                   0.062
REMARK UNBOUND:                -0.288
REMARK SMILES O=c1c(O)c(-c2ccc(O)c(O)c2)oc2cc(O)cc(O)c12
REMARK SMILES IDX 5 1 3 2 2 3 1 4 22 5 20 6 19 7 17 8 16 9 15 10 14 11 6 12
REMARK SMILES IDX 7 13 8 14 9 15 13 16 11 17 10 18 12 20 4 22 21 24 18 26
REMARK H PARENT 10 19 12 21 4 23 21 25 18 27
REMARK Flexibility Score: inf
ROOT
ATOM      1  C   UNL     1     -12.699  -0.682  -0.358  1.00  0.00     0.180 A 
ATOM      2  C   UNL     1     -11.753  -1.392   0.402  1.00  0.00     0.208 A 
ATOM      3  C   UNL     1     -11.179  -2.553  -0.138  1.00  0.00     0.238 A 
ATOM      4  O   UNL     1     -10.373  -3.214   0.569  1.00  0.00    -0.285 OA
ATOM      5  C   UNL     1     -11.544  -2.982  -1.437  1.00  0.00     0.111 A 
ATOM      6  C   UNL     1     -10.994  -4.121  -2.099  1.00  0.00     0.134 A 
ATOM      7  C   UNL     1     -11.525  -4.526  -3.330  1.00  0.00     0.093 A 
ATOM      8  C   UNL     1     -12.539  -3.795  -3.953  1.00  0.00     0.123 A 
ATOM      9  C   UNL     1     -13.040  -2.647  -3.343  1.00  0.00     0.094 A 
ATOM     10  C   UNL     1     -12.556  -2.238  -2.098  1.00  0.00     0.146 A 
ATOM     11  O   UNL     1     -13.069  -1.145  -1.546  1.00  0.00    -0.452 OA
ENDROOT
BRANCH   1  12
ATOM     12  C   UNL     1     -13.329   0.565   0.134  1.00  0.00     0.025 A 
ATOM     13  C   UNL     1     -13.348   1.700  -0.691  1.00  0.00     0.016 A 
ATOM     14  C   UNL     1     -13.918   2.895  -0.240  1.00  0.00     0.051 A 
ATOM     15  C   UNL     1     -14.464   2.972   1.047  1.00  0.00     0.157 A 
ATOM     16  C   UNL     1     -13.860   0.654   1.433  1.00  0.00     0.062 A 
ATOM     17  C   UNL     1     -14.431   1.852   1.887  1.00  0.00     0.158 A 
BRANCH  15  18
ATOM     18  O   UNL     1     -15.036   4.160   1.500  1.00  0.00    -0.504 OA
ATOM     19  H   UNL     1     -14.723   4.607   2.354  1.00  0.00     0.293 HD
ENDBRANCH  15  18
BRANCH  17  20
ATOM     20  O   UNL     1     -14.962   1.937   3.172  1.00  0.00    -0.504 OA
ATOM     21  H   UNL     1     -14.367   1.975   3.991  1.00  0.00     0.293 HD
ENDBRANCH  17  20
ENDBRANCH   1  12
BRANCH   2  22
ATOM     22  O   UNL     1     -11.424  -0.964   1.691  1.00  0.00    -0.502 OA
ATOM     23  H   UNL     1     -12.112  -0.883   2.430  1.00  0.00     0.293 HD
ENDBRANCH   2  22
BRANCH   6  24
ATOM     24  O   UNL     1      -9.919  -4.865  -1.607  1.00  0.00    -0.507 OA
ATOM     25  H   UNL     1      -9.021  -4.947  -2.060  1.00  0.00     0.293 HD
ENDBRANCH   6  24
BRANCH   8  26
ATOM     26  O   UNL     1     -13.050  -4.196  -5.186  1.00  0.00    -0.508 OA
ATOM     27  H   UNL     1     -13.069  -3.568  -5.981  1.00  0.00     0.293 HD
ENDBRANCH   8  26
TORSDOF 6
ENDMDL
MODEL 8
REMARK VINA RESULT:    -5.853      1.979      6.932
REMARK INTER + INTRA:          -7.338
REMARK INTER:                  -7.081
REMARK INTRA:                  -0.257
REMARK UNBOUND:                -0.288
REMARK SMILES O=c1c(O)c(-c2ccc(O)c(O)c2)oc2cc(O)cc(O)c12
REMARK SMILES IDX 5 1 3 2 2 3 1 4 22 5 20 6 19 7 17 8 16 9 15 10 14 11 6 12
REMARK SMILES IDX 7 13 8 14 9 15 13 16 11 17 10 18 12 20 4 22 21 24 18 26
REMARK H PARENT 10 19 12 21 4 23 21 25 18 27
REMARK Flexibility Score: inf
ROOT
ATOM      1  C   UNL     1     -12.125  -0.787  -0.522  1.00  0.00     0.180 A 
ATOM      2  C   UNL     1     -12.996  -0.567   0.559  1.00  0.00     0.208 A 
ATOM      3  C   UNL     1     -13.494   0.727   0.780  1.00  0.00     0.238 A 
ATOM      4  O   UNL     1     -14.230   0.928   1.781  1.00  0.00    -0.285 OA
ATOM      5  C   UNL     1     -13.127   1.782  -0.090  1.00  0.00     0.111 A 
ATOM      6  C   UNL     1     -13.603   3.123   0.016  1.00  0.00     0.134 A 
ATOM      7  C   UNL     1     -13.072   4.112  -0.821  1.00  0.00     0.093 A 
ATOM      8  C   UNL     1     -12.131   3.795  -1.803  1.00  0.00     0.123 A 
ATOM      9  C   UNL     1     -11.704   2.478  -1.954  1.00  0.00     0.094 A 
ATOM     10  C   UNL     1     -12.189   1.475  -1.110  1.00  0.00     0.146 A 
ATOM     11  O   UNL     1     -11.748   0.235  -1.281  1.00  0.00    -0.452 OA
ENDROOT
BRANCH   1  12
ATOM     12  C   UNL     1     -11.579  -2.128  -0.833  1.00  0.00     0.025 A 
ATOM     13  C   UNL     1     -12.123  -2.863  -1.898  1.00  0.00     0.016 A 
ATOM     14  C   UNL     1     -11.639  -4.140  -2.197  1.00  0.00     0.051 A 
ATOM     15  C   UNL     1     -10.615  -4.704  -1.426  1.00  0.00     0.157 A 
ATOM     16  C   UNL     1     -10.566  -2.707  -0.049  1.00  0.00     0.062 A 
ATOM     17  C   UNL     1     -10.081  -3.988  -0.348  1.00  0.00     0.158 A 
BRANCH  15  18
ATOM     18  O   UNL     1     -10.127  -5.976  -1.722  1.00  0.00    -0.504 OA
ATOM     19  H   UNL     1      -9.478  -6.451  -1.107  1.00  0.00     0.293 HD
ENDBRANCH  15  18
BRANCH  17  20
ATOM     20  O   UNL     1      -9.071  -4.558   0.427  1.00  0.00    -0.504 OA
ATOM     21  H   UNL     1      -8.566  -5.380   0.118  1.00  0.00     0.293 HD
ENDBRANCH  17  20
ENDBRANCH   1  12
BRANCH   2  22
ATOM     22  O   UNL     1     -13.328  -1.617   1.420  1.00  0.00    -0.502 OA
ATOM     23  H   UNL     1     -12.870  -1.753   2.314  1.00  0.00     0.293 HD
ENDBRANCH   2  22
BRANCH   6  24
ATOM     24  O   UNL     1     -14.608   3.526   0.900  1.00  0.00    -0.507 OA
ATOM     25  H   UNL     1     -15.585   3.608   0.662  1.00  0.00     0.293 HD
ENDBRANCH   6  24
BRANCH   8  26
ATOM     26  O   UNL     1     -11.619   4.783  -2.643  1.00  0.00    -0.508 OA
ATOM     27  H   UNL     1     -10.742   5.248  -2.440  1.00  0.00     0.293 HD
ENDBRANCH   8  26
TORSDOF 6
ENDMDL
MODEL 9
REMARK VINA RESULT:    -5.814      3.570      7.452
REMARK INTER + INTRA:          -7.291
REMARK INTER:                  -6.964
REMARK INTRA:                  -0.327
REMARK UNBOUND:                -0.288
REMARK SMILES O=c1c(O)c(-c2ccc(O)c(O)c2)oc2cc(O)cc(O)c12
REMARK SMILES IDX 5 1 3 2 2 3 1 4 22 5 20 6 19 7 17 8 16 9 15 10 14 11 6 12
REMARK SMILES IDX 7 13 8 14 9 15 13 16 11 17 10 18 12 20 4 22 21 24 18 26
REMARK H PARENT 10 19 12 21 4 23 21 25 18 27
REMARK Flexibility Score: inf
ROOT
ATOM      1  C   UNL     1     -12.369  -0.907  -2.701  1.00  0.00     0.180 A 
ATOM      2  C   UNL     1     -13.703  -0.567  -2.417  1.00  0.00     0.208 A 
ATOM      3  C   UNL     1     -14.085   0.783  -2.461  1.00  0.00     0.238 A 
ATOM      4  O   UNL     1     -15.268   1.086  -2.153  1.00  0.00    -0.285 OA
ATOM      5  C   UNL     1     -13.134   1.775  -2.803  1.00  0.00     0.111 A 
ATOM      6  C   UNL     1     -13.422   3.168  -2.917  1.00  0.00     0.134 A 
ATOM      7  C   UNL     1     -12.375   4.073  -3.133  1.00  0.00     0.093 A 
ATOM      8  C   UNL     1     -11.062   3.628  -3.305  1.00  0.00     0.123 A 
ATOM      9  C   UNL     1     -10.781   2.265  -3.255  1.00  0.00     0.094 A 
ATOM     10  C   UNL     1     -11.798   1.340  -3.005  1.00  0.00     0.146 A 
ATOM     11  O   UNL     1     -11.486   0.052  -2.955  1.00  0.00    -0.452 OA
ENDROOT
BRANCH   1  12
ATOM     12  C   UNL     1     -11.896  -2.311  -2.700  1.00  0.00     0.025 A 
ATOM     13  C   UNL     1     -11.238  -2.816  -1.568  1.00  0.00     0.016 A 
ATOM     14  C   UNL     1     -10.765  -4.132  -1.553  1.00  0.00     0.051 A 
ATOM     15  C   UNL     1     -10.931  -4.953  -2.674  1.00  0.00     0.157 A 
ATOM     16  C   UNL     1     -12.042  -3.133  -3.831  1.00  0.00     0.062 A 
ATOM     17  C   UNL     1     -11.566  -4.452  -3.817  1.00  0.00     0.158 A 
BRANCH  15  18
ATOM     18  O   UNL     1     -10.463  -6.266  -2.662  1.00  0.00    -0.504 OA
ATOM     19  H   UNL     1      -9.711  -6.567  -3.273  1.00  0.00     0.293 HD
ENDBRANCH  15  18
BRANCH  17  20
ATOM     20  O   UNL     1     -11.717  -5.269  -4.937  1.00  0.00    -0.504 OA
ATOM     21  H   UNL     1     -12.419  -5.999  -4.970  1.00  0.00     0.293 HD
ENDBRANCH  17  20
ENDBRANCH   1  12
BRANCH   2  22
ATOM     22  O   UNL     1     -14.620  -1.559  -2.060  1.00  0.00    -0.502 OA
ATOM     23  H   UNL     1     -14.501  -2.530  -2.323  1.00  0.00     0.293 HD
ENDBRANCH   2  22
BRANCH   6  24
ATOM     24  O   UNL     1     -14.710   3.707  -2.853  1.00  0.00    -0.507 OA
ATOM     25  H   UNL     1     -14.934   4.618  -2.483  1.00  0.00     0.293 HD
ENDBRANCH   6  24
BRANCH   8  26
ATOM     26  O   UNL     1     -10.029   4.534  -3.535  1.00  0.00    -0.508 OA
ATOM     27  H   UNL     1     -10.195   5.422  -3.994  1.00  0.00     0.293 HD
ENDBRANCH   8  26
TORSDOF 6
ENDMDL
