MODEL 1
REMARK VINA RESULT:    -4.488      0.000      0.000
REMARK INTER + INTRA:         -13.483
REMARK INTER:                 -11.310
REMARK INTRA:                  -2.173
REMARK UNBOUND:                -2.173
REMARK SMILES CCCCCCCCCCCCCCCCCCCCCCCCCCCC(=O)[O-]
REMARK SMILES IDX 15 1 16 2 17 3 18 4 19 5 20 6 21 7 22 8 23 9 24 10 25 11
REMARK SMILES IDX 26 12 27 13 28 14 29 15 30 16 14 17 13 18 12 19 11 20 10 21
REMARK SMILES IDX 9 22 8 23 7 24 6 25 5 26 4 27 3 28 2 29 1 30
REMARK H PARENT
REMARK Flexibility Score: inf
ROOT
ATOM      1  C   UNL     1       5.858  10.241   6.132  1.00  0.00     0.000 C 
ENDROOT
BRANCH   1   2
ATOM      2  C   UNL     1       6.422   9.654   7.435  1.00  0.00     0.000 C 
BRANCH   2   3
ATOM      3  C   UNL     1       5.437   9.856   8.597  1.00  0.00     0.000 C 
BRANCH   3   4
ATOM      4  C   UNL     1       3.969   9.864   8.141  1.00  0.00     0.000 C 
BRANCH   4   5
ATOM      5  C   UNL     1       3.166  11.031   8.744  1.00  0.00     0.000 C 
BRANCH   5   6
ATOM      6  C   UNL     1       2.443  10.639  10.043  1.00  0.00     0.000 C 
BRANCH   6   7
ATOM      7  C   UNL     1       0.920  10.513   9.857  1.00  0.00     0.000 C 
BRANCH   7   8
ATOM      8  C   UNL     1       0.499   9.112   9.388  1.00  0.00     0.000 C 
BRANCH   8   9
ATOM      9  C   UNL     1       0.655   8.047  10.487  1.00  0.00     0.000 C 
BRANCH   9  10
ATOM     10  C   UNL     1       1.066   6.675   9.913  1.00  0.00     0.000 C 
BRANCH  10  11
ATOM     11  C   UNL     1       2.465   6.666   9.272  1.00  0.00     0.000 C 
BRANCH  11  12
ATOM     12  C   UNL     1       3.597   6.794  10.304  1.00  0.00     0.006 C 
BRANCH  12  13
ATOM     13  C   UNL     1       4.070   5.428  10.819  1.00  0.00     0.053 C 
BRANCH  13  14
ATOM     14  C   UNL     1       4.109   4.404   9.727  1.00  0.00     0.041 C 
ATOM     15  O   UNL     1       5.058   4.399   8.898  1.00  0.00    -0.550 OA
ATOM     16  O   UNL     1       3.114   3.439   9.640  1.00  0.00    -0.550 OA
ENDBRANCH  13  14
ENDBRANCH  12  13
ENDBRANCH  11  12
ENDBRANCH  10  11
ENDBRANCH   9  10
ENDBRANCH   8   9
ENDBRANCH   7   8
ENDBRANCH   6   7
ENDBRANCH   5   6
ENDBRANCH   4   5
ENDBRANCH   3   4
ENDBRANCH   2   3
ENDBRANCH   1   2
BRANCH   1  17
ATOM     17  C   UNL     1       6.429   9.559   4.876  1.00  0.00     0.000 C 
BRANCH  17  18
ATOM     18  C   UNL     1       7.806   8.921   5.128  1.00  0.00     0.000 C 
BRANCH  18  19
ATOM     19  C   UNL     1       8.421   8.316   3.855  1.00  0.00     0.000 C 
BRANCH  19  20
ATOM     20  C   UNL     1       7.517   8.478   2.623  1.00  0.00     0.000 C 
BRANCH  20  21
ATOM     21  C   UNL     1       8.209   7.946   1.362  1.00  0.00     0.000 C 
BRANCH  21  22
ATOM     22  C   UNL     1       7.587   6.616   0.910  1.00  0.00    -0.000 C 
BRANCH  22  23
ATOM     23  C   UNL     1       7.947   5.449   1.844  1.00  0.00    -0.000 C 
BRANCH  23  24
ATOM     24  C   UNL     1       8.381   4.189   1.074  1.00  0.00    -0.000 C 
BRANCH  24  25
ATOM     25  C   UNL     1       7.369   3.779  -0.009  1.00  0.00    -0.000 C 
BRANCH  25  26
ATOM     26  C   UNL     1       6.415   2.669   0.466  1.00  0.00    -0.000 C 
BRANCH  26  27
ATOM     27  C   UNL     1       6.190   1.586  -0.603  1.00  0.00    -0.000 C 
BRANCH  27  28
ATOM     28  C   UNL     1       7.149   1.725  -1.798  1.00  0.00    -0.000 C 
BRANCH  28  29
ATOM     29  C   UNL     1       6.983   0.590  -2.820  1.00  0.00    -0.003 C 
ATOM     30  C   UNL     1       8.074   0.596  -3.891  1.00  0.00     0.004 C 
ENDBRANCH  28  29
ENDBRANCH  27  28
ENDBRANCH  26  27
ENDBRANCH  25  26
ENDBRANCH  24  25
ENDBRANCH  23  24
ENDBRANCH  22  23
ENDBRANCH  21  22
ENDBRANCH  20  21
ENDBRANCH  19  20
ENDBRANCH  18  19
ENDBRANCH  17  18
ENDBRANCH   1  17
TORSDOF 26
ENDMDL
MODEL 2
REMARK VINA RESULT:    -4.404      1.370      3.882
REMARK INTER + INTRA:         -13.271
REMARK INTER:                  -9.790
REMARK INTRA:                  -3.481
REMARK UNBOUND:                -2.173
REMARK SMILES CCCCCCCCCCCCCCCCCCCCCCCCCCCC(=O)[O-]
REMARK SMILES IDX 15 1 16 2 17 3 18 4 19 5 20 6 21 7 22 8 23 9 24 10 25 11
REMARK SMILES IDX 26 12 27 13 28 14 29 15 30 16 14 17 13 18 12 19 11 20 10 21
REMARK SMILES IDX 9 22 8 23 7 24 6 25 5 26 4 27 3 28 2 29 1 30
REMARK H PARENT
REMARK Flexibility Score: inf
ROOT
ATOM      1  C   UNL     1       2.887   8.729   8.249  1.00  0.00     0.000 C 
ENDROOT
BRANCH   1   2
ATOM      2  C   UNL     1       1.520   8.047   8.410  1.00  0.00     0.000 C 
BRANCH   2   3
ATOM      3  C   UNL     1       1.643   6.767   9.251  1.00  0.00     0.000 C 
BRANCH   3   4
ATOM      4  C   UNL     1       1.042   6.917  10.658  1.00  0.00     0.000 C 
BRANCH   4   5
ATOM      5  C   UNL     1       0.298   8.251  10.847  1.00  0.00     0.000 C 
BRANCH   5   6
ATOM      6  C   UNL     1       0.838   9.063  12.035  1.00  0.00     0.000 C 
BRANCH   6   7
ATOM      7  C   UNL     1       1.396  10.433  11.610  1.00  0.00     0.000 C 
BRANCH   7   8
ATOM      8  C   UNL     1       2.900  10.569  11.889  1.00  0.00     0.000 C 
BRANCH   8   9
ATOM      9  C   UNL     1       3.611   9.207  11.977  1.00  0.00     0.000 C 
BRANCH   9  10
ATOM     10  C   UNL     1       5.008   9.237  11.321  1.00  0.00     0.000 C 
BRANCH  10  11
ATOM     11  C   UNL     1       5.321   7.990  10.475  1.00  0.00     0.000 C 
BRANCH  11  12
ATOM     12  C   UNL     1       4.852   6.685  11.138  1.00  0.00     0.006 C 
BRANCH  12  13
ATOM     13  C   UNL     1       5.410   5.442  10.431  1.00  0.00     0.053 C 
BRANCH  13  14
ATOM     14  C   UNL     1       4.319   4.518   9.984  1.00  0.00     0.041 C 
ATOM     15  O   UNL     1       4.126   4.313   8.756  1.00  0.00    -0.550 OA
ATOM     16  O   UNL     1       3.534   3.862  10.924  1.00  0.00    -0.550 OA
ENDBRANCH  13  14
ENDBRANCH  12  13
ENDBRANCH  11  12
ENDBRANCH  10  11
ENDBRANCH   9  10
ENDBRANCH   8   9
ENDBRANCH   7   8
ENDBRANCH   6   7
ENDBRANCH   5   6
ENDBRANCH   4   5
ENDBRANCH   3   4
ENDBRANCH   2   3
ENDBRANCH   1   2
BRANCH   1  17
ATOM     17  C   UNL     1       2.791  10.265   8.265  1.00  0.00     0.000 C 
BRANCH  17  18
ATOM     18  C   UNL     1       4.131  10.942   7.931  1.00  0.00     0.000 C 
BRANCH  18  19
ATOM     19  C   UNL     1       5.174   9.955   7.381  1.00  0.00     0.000 C 
BRANCH  19  20
ATOM     20  C   UNL     1       5.863  10.467   6.106  1.00  0.00     0.000 C 
BRANCH  20  21
ATOM     21  C   UNL     1       6.554   9.320   5.359  1.00  0.00     0.000 C 
BRANCH  21  22
ATOM     22  C   UNL     1       6.354   9.450   3.841  1.00  0.00    -0.000 C 
BRANCH  22  23
ATOM     23  C   UNL     1       7.648   9.198   3.051  1.00  0.00    -0.000 C 
BRANCH  23  24
ATOM     24  C   UNL     1       7.732   7.765   2.496  1.00  0.00    -0.000 C 
BRANCH  24  25
ATOM     25  C   UNL     1       7.571   7.711   0.968  1.00  0.00    -0.000 C 
BRANCH  25  26
ATOM     26  C   UNL     1       7.317   6.284   0.452  1.00  0.00    -0.000 C 
BRANCH  26  27
ATOM     27  C   UNL     1       8.033   5.216   1.296  1.00  0.00    -0.000 C 
BRANCH  27  28
ATOM     28  C   UNL     1       7.989   3.821   0.648  1.00  0.00    -0.000 C 
BRANCH  28  29
ATOM     29  C   UNL     1       6.558   3.368   0.321  1.00  0.00    -0.003 C 
ATOM     30  C   UNL     1       6.513   2.288  -0.759  1.00  0.00     0.004 C 
ENDBRANCH  28  29
ENDBRANCH  27  28
ENDBRANCH  26  27
ENDBRANCH  25  26
ENDBRANCH  24  25
ENDBRANCH  23  24
ENDBRANCH  22  23
ENDBRANCH  21  22
ENDBRANCH  20  21
ENDBRANCH  19  20
ENDBRANCH  18  19
ENDBRANCH  17  18
ENDBRANCH   1  17
TORSDOF 26
ENDMDL
MODEL 3
REMARK VINA RESULT:    -4.353      3.514     10.707
REMARK INTER + INTRA:         -13.141
REMARK INTER:                 -11.537
REMARK INTRA:                  -1.605
REMARK UNBOUND:                -2.173
REMARK SMILES CCCCCCCCCCCCCCCCCCCCCCCCCCCC(=O)[O-]
REMARK SMILES IDX 15 1 16 2 17 3 18 4 19 5 20 6 21 7 22 8 23 9 24 10 25 11
REMARK SMILES IDX 26 12 27 13 28 14 29 15 30 16 14 17 13 18 12 19 11 20 10 21
REMARK SMILES IDX 9 22 8 23 7 24 6 25 5 26 4 27 3 28 2 29 1 30
REMARK H PARENT
REMARK Flexibility Score: inf
ROOT
ATOM      1  C   UNL     1       6.529  10.077   5.559  1.00  0.00     0.000 C 
ENDROOT
BRANCH   1   2
ATOM      2  C   UNL     1       6.215   9.642   4.119  1.00  0.00     0.000 C 
BRANCH   2   3
ATOM      3  C   UNL     1       7.501   9.258   3.371  1.00  0.00     0.000 C 
BRANCH   3   4
ATOM      4  C   UNL     1       7.980  10.354   2.405  1.00  0.00     0.000 C 
BRANCH   4   5
ATOM      5  C   UNL     1       8.891   9.807   1.290  1.00  0.00     0.000 C 
BRANCH   5   6
ATOM      6  C   UNL     1       8.893   8.271   1.232  1.00  0.00     0.000 C 
BRANCH   6   7
ATOM      7  C   UNL     1       8.106   7.724   0.028  1.00  0.00     0.000 C 
BRANCH   7   8
ATOM      8  C   UNL     1       7.193   6.547   0.407  1.00  0.00     0.000 C 
BRANCH   8   9
ATOM      9  C   UNL     1       7.838   5.606   1.439  1.00  0.00     0.000 C 
BRANCH   9  10
ATOM     10  C   UNL     1       8.084   4.195   0.865  1.00  0.00     0.000 C 
BRANCH  10  11
ATOM     11  C   UNL     1       6.804   3.491   0.383  1.00  0.00     0.000 C 
BRANCH  11  12
ATOM     12  C   UNL     1       7.084   2.139  -0.293  1.00  0.00     0.006 C 
BRANCH  12  13
ATOM     13  C   UNL     1       6.569   2.095  -1.738  1.00  0.00     0.053 C 
BRANCH  13  14
ATOM     14  C   UNL     1       7.078   0.895  -2.475  1.00  0.00     0.041 C 
ATOM     15  O   UNL     1       6.927   0.807  -3.723  1.00  0.00    -0.550 OA
ATOM     16  O   UNL     1       7.745  -0.113  -1.789  1.00  0.00    -0.550 OA
ENDBRANCH  13  14
ENDBRANCH  12  13
ENDBRANCH  11  12
ENDBRANCH  10  11
ENDBRANCH   9  10
ENDBRANCH   8   9
ENDBRANCH   7   8
ENDBRANCH   6   7
ENDBRANCH   5   6
ENDBRANCH   4   5
ENDBRANCH   3   4
ENDBRANCH   2   3
ENDBRANCH   1   2
BRANCH   1  17
ATOM     17  C   UNL     1       5.354  10.811   6.227  1.00  0.00     0.000 C 
BRANCH  17  18
ATOM     18  C   UNL     1       5.528  10.936   7.750  1.00  0.00     0.000 C 
BRANCH  18  19
ATOM     19  C   UNL     1       5.806   9.584   8.428  1.00  0.00     0.000 C 
BRANCH  19  20
ATOM     20  C   UNL     1       4.549   8.967   9.063  1.00  0.00     0.000 C 
BRANCH  20  21
ATOM     21  C   UNL     1       3.284   9.692   8.590  1.00  0.00     0.000 C 
BRANCH  21  22
ATOM     22  C   UNL     1       2.431  10.149   9.783  1.00  0.00    -0.000 C 
BRANCH  22  23
ATOM     23  C   UNL     1       0.969   9.688   9.675  1.00  0.00    -0.000 C 
BRANCH  23  24
ATOM     24  C   UNL     1       0.837   8.284   9.055  1.00  0.00    -0.000 C 
BRANCH  24  25
ATOM     25  C   UNL     1       0.891   7.165  10.108  1.00  0.00    -0.000 C 
BRANCH  25  26
ATOM     26  C   UNL     1       1.847   6.027   9.708  1.00  0.00    -0.000 C 
BRANCH  26  27
ATOM     27  C   UNL     1       1.894   4.901  10.756  1.00  0.00    -0.000 C 
BRANCH  27  28
ATOM     28  C   UNL     1       2.976   3.851  10.449  1.00  0.00    -0.000 C 
BRANCH  28  29
ATOM     29  C   UNL     1       2.551   2.432  10.855  1.00  0.00    -0.003 C 
ATOM     30  C   UNL     1       1.192   2.036  10.276  1.00  0.00     0.004 C 
ENDBRANCH  28  29
ENDBRANCH  27  28
ENDBRANCH  26  27
ENDBRANCH  25  26
ENDBRANCH  24  25
ENDBRANCH  23  24
ENDBRANCH  22  23
ENDBRANCH  21  22
ENDBRANCH  20  21
ENDBRANCH  19  20
ENDBRANCH  18  19
ENDBRANCH  17  18
ENDBRANCH   1  17
TORSDOF 26
ENDMDL
MODEL 4
REMARK VINA RESULT:    -4.189      6.518      8.972
REMARK INTER + INTRA:         -12.730
REMARK INTER:                  -8.294
REMARK INTRA:                  -4.436
REMARK UNBOUND:                -2.173
REMARK SMILES CCCCCCCCCCCCCCCCCCCCCCCCCCCC(=O)[O-]
REMARK SMILES IDX 15 1 16 2 17 3 18 4 19 5 20 6 21 7 22 8 23 9 24 10 25 11
REMARK SMILES IDX 26 12 27 13 28 14 29 15 30 16 14 17 13 18 12 19 11 20 10 21
REMARK SMILES IDX 9 22 8 23 7 24 6 25 5 26 4 27 3 28 2 29 1 30
REMARK H PARENT
REMARK Flexibility Score: inf
ROOT
ATOM      1  C   UNL     1       3.069   6.640   9.304  1.00  0.00     0.000 C 
ENDROOT
BRANCH   1   2
ATOM      2  C   UNL     1       1.602   6.990   9.011  1.00  0.00     0.000 C 
BRANCH   2   3
ATOM      3  C   UNL     1       1.505   8.239   8.122  1.00  0.00     0.000 C 
BRANCH   3   4
ATOM      4  C   UNL     1       1.384   9.540   8.931  1.00  0.00     0.000 C 
BRANCH   4   5
ATOM      5  C   UNL     1       0.126   9.574   9.818  1.00  0.00     0.000 C 
BRANCH   5   6
ATOM      6  C   UNL     1       0.462   9.721  11.311  1.00  0.00     0.000 C 
BRANCH   6   7
ATOM      7  C   UNL     1       0.388   8.382  12.067  1.00  0.00     0.000 C 
BRANCH   7   8
ATOM      8  C   UNL     1       1.723   8.004  12.727  1.00  0.00     0.000 C 
BRANCH   8   9
ATOM      9  C   UNL     1       2.850   8.998  12.395  1.00  0.00     0.000 C 
BRANCH   9  10
ATOM     10  C   UNL     1       4.193   8.286  12.131  1.00  0.00     0.000 C 
BRANCH  10  11
ATOM     11  C   UNL     1       5.082   9.003  11.099  1.00  0.00     0.000 C 
BRANCH  11  12
ATOM     12  C   UNL     1       4.343  10.123  10.348  1.00  0.00     0.006 C 
BRANCH  12  13
ATOM     13  C   UNL     1       5.204  10.746   9.242  1.00  0.00     0.053 C 
BRANCH  13  14
ATOM     14  C   UNL     1       4.845  10.213   7.889  1.00  0.00     0.041 C 
ATOM     15  O   UNL     1       5.340   9.128   7.484  1.00  0.00    -0.550 OA
ATOM     16  O   UNL     1       3.943  10.900   7.087  1.00  0.00    -0.550 OA
ENDBRANCH  13  14
ENDBRANCH  12  13
ENDBRANCH  11  12
ENDBRANCH  10  11
ENDBRANCH   9  10
ENDBRANCH   8   9
ENDBRANCH   7   8
ENDBRANCH   6   7
ENDBRANCH   5   6
ENDBRANCH   4   5
ENDBRANCH   3   4
ENDBRANCH   2   3
ENDBRANCH   1   2
BRANCH   1  17
ATOM     17  C   UNL     1       3.255   5.178   9.748  1.00  0.00     0.000 C 
BRANCH  17  18
ATOM     18  C   UNL     1       2.387   4.818  10.965  1.00  0.00     0.000 C 
BRANCH  18  19
ATOM     19  C   UNL     1       1.114   4.048  10.579  1.00  0.00     0.000 C 
BRANCH  19  20
ATOM     20  C   UNL     1       1.061   2.639  11.192  1.00  0.00     0.000 C 
BRANCH  20  21
ATOM     21  C   UNL     1       2.045   1.698  10.487  1.00  0.00     0.000 C 
BRANCH  21  22
ATOM     22  C   UNL     1       2.858   0.884  11.506  1.00  0.00    -0.000 C 
BRANCH  22  23
ATOM     23  C   UNL     1       3.289   1.722  12.720  1.00  0.00    -0.000 C 
BRANCH  23  24
ATOM     24  C   UNL     1       4.813   1.704  12.939  1.00  0.00    -0.000 C 
BRANCH  24  25
ATOM     25  C   UNL     1       5.448   3.097  12.798  1.00  0.00    -0.000 C 
BRANCH  25  26
ATOM     26  C   UNL     1       6.914   3.031  12.336  1.00  0.00    -0.000 C 
BRANCH  26  27
ATOM     27  C   UNL     1       7.438   4.390  11.842  1.00  0.00    -0.000 C 
BRANCH  27  28
ATOM     28  C   UNL     1       6.554   5.003  10.742  1.00  0.00    -0.000 C 
BRANCH  28  29
ATOM     29  C   UNL     1       7.360   5.408   9.498  1.00  0.00    -0.003 C 
ATOM     30  C   UNL     1       7.411   6.923   9.296  1.00  0.00     0.004 C 
ENDBRANCH  28  29
ENDBRANCH  27  28
ENDBRANCH  26  27
ENDBRANCH  25  26
ENDBRANCH  24  25
ENDBRANCH  23  24
ENDBRANCH  22  23
ENDBRANCH  21  22
ENDBRANCH  20  21
ENDBRANCH  19  20
ENDBRANCH  18  19
ENDBRANCH  17  18
ENDBRANCH   1  17
TORSDOF 26
ENDMDL
MODEL 5
REMARK VINA RESULT:    -4.090      6.108     10.507
REMARK INTER + INTRA:         -12.479
REMARK INTER:                  -7.851
REMARK INTRA:                  -4.628
REMARK UNBOUND:                -2.173
REMARK SMILES CCCCCCCCCCCCCCCCCCCCCCCCCCCC(=O)[O-]
REMARK SMILES IDX 15 1 16 2 17 3 18 4 19 5 20 6 21 7 22 8 23 9 24 10 25 11
REMARK SMILES IDX 26 12 27 13 28 14 29 15 30 16 14 17 13 18 12 19 11 20 10 21
REMARK SMILES IDX 9 22 8 23 7 24 6 25 5 26 4 27 3 28 2 29 1 30
REMARK H PARENT
REMARK Flexibility Score: inf
ROOT
ATOM      1  C   UNL     1       2.321   1.616  11.419  1.00  0.00     0.000 C 
ENDROOT
BRANCH   1   2
ATOM      2  C   UNL     1       3.623   1.196  12.118  1.00  0.00     0.000 C 
BRANCH   2   3
ATOM      3  C   UNL     1       4.083   2.275  13.111  1.00  0.00     0.000 C 
BRANCH   3   4
ATOM      4  C   UNL     1       5.523   2.749  12.853  1.00  0.00     0.000 C 
BRANCH   4   5
ATOM      5  C   UNL     1       5.587   4.192  12.321  1.00  0.00     0.000 C 
BRANCH   5   6
ATOM      6  C   UNL     1       6.013   4.257  10.845  1.00  0.00     0.000 C 
BRANCH   6   7
ATOM      7  C   UNL     1       5.644   5.596  10.181  1.00  0.00     0.000 C 
BRANCH   7   8
ATOM      8  C   UNL     1       5.927   6.801  11.091  1.00  0.00     0.000 C 
BRANCH   8   9
ATOM      9  C   UNL     1       7.064   7.691  10.558  1.00  0.00     0.000 C 
BRANCH   9  10
ATOM     10  C   UNL     1       7.614   7.185   9.208  1.00  0.00     0.000 C 
BRANCH  10  11
ATOM     11  C   UNL     1       8.184   8.300   8.315  1.00  0.00     0.000 C 
BRANCH  11  12
ATOM     12  C   UNL     1       7.206   9.470   8.121  1.00  0.00     0.006 C 
BRANCH  12  13
ATOM     13  C   UNL     1       7.235  10.019   6.688  1.00  0.00     0.053 C 
BRANCH  13  14
ATOM     14  C   UNL     1       5.869  10.055   6.077  1.00  0.00     0.041 C 
ATOM     15  O   UNL     1       5.032  10.921   6.447  1.00  0.00    -0.550 OA
ATOM     16  O   UNL     1       5.527   9.151   5.080  1.00  0.00    -0.550 OA
ENDBRANCH  13  14
ENDBRANCH  12  13
ENDBRANCH  11  12
ENDBRANCH  10  11
ENDBRANCH   9  10
ENDBRANCH   8   9
ENDBRANCH   7   8
ENDBRANCH   6   7
ENDBRANCH   5   6
ENDBRANCH   4   5
ENDBRANCH   3   4
ENDBRANCH   2   3
ENDBRANCH   1   2
BRANCH   1  17
ATOM     17  C   UNL     1       2.526   2.768  10.420  1.00  0.00     0.000 C 
BRANCH  17  18
ATOM     18  C   UNL     1       1.557   3.937  10.662  1.00  0.00     0.000 C 
BRANCH  18  19
ATOM     19  C   UNL     1       1.988   4.832  11.836  1.00  0.00     0.000 C 
BRANCH  19  20
ATOM     20  C   UNL     1       2.191   6.298  11.423  1.00  0.00     0.000 C 
BRANCH  20  21
ATOM     21  C   UNL     1       0.942   6.848  10.723  1.00  0.00     0.000 C 
BRANCH  21  22
ATOM     22  C   UNL     1       1.230   7.163   9.247  1.00  0.00    -0.000 C 
BRANCH  22  23
ATOM     23  C   UNL     1       2.732   7.300   8.954  1.00  0.00    -0.000 C 
BRANCH  23  24
ATOM     24  C   UNL     1       3.114   8.712   8.476  1.00  0.00    -0.000 C 
BRANCH  24  25
ATOM     25  C   UNL     1       4.036   9.444   9.466  1.00  0.00    -0.000 C 
BRANCH  25  26
ATOM     26  C   UNL     1       3.319  10.587  10.204  1.00  0.00    -0.000 C 
BRANCH  26  27
ATOM     27  C   UNL     1       1.876  10.792   9.713  1.00  0.00    -0.000 C 
BRANCH  27  28
ATOM     28  C   UNL     1       0.870  10.931  10.870  1.00  0.00    -0.000 C 
BRANCH  28  29
ATOM     29  C   UNL     1      -0.492  10.300  10.544  1.00  0.00    -0.003 C 
ATOM     30  C   UNL     1      -1.162   9.679  11.769  1.00  0.00     0.004 C 
ENDBRANCH  28  29
ENDBRANCH  27  28
ENDBRANCH  26  27
ENDBRANCH  25  26
ENDBRANCH  24  25
ENDBRANCH  23  24
ENDBRANCH  22  23
ENDBRANCH  21  22
ENDBRANCH  20  21
ENDBRANCH  19  20
ENDBRANCH  18  19
ENDBRANCH  17  18
ENDBRANCH   1  17
TORSDOF 26
ENDMDL
MODEL 6
REMARK VINA RESULT:    -4.059      4.428      6.450
REMARK INTER + INTRA:         -12.401
REMARK INTER:                  -7.432
REMARK INTRA:                  -4.969
REMARK UNBOUND:                -2.173
REMARK SMILES CCCCCCCCCCCCCCCCCCCCCCCCCCCC(=O)[O-]
REMARK SMILES IDX 15 1 16 2 17 3 18 4 19 5 20 6 21 7 22 8 23 9 24 10 25 11
REMARK SMILES IDX 26 12 27 13 28 14 29 15 30 16 14 17 13 18 12 19 11 20 10 21
REMARK SMILES IDX 9 22 8 23 7 24 6 25 5 26 4 27 3 28 2 29 1 30
REMARK H PARENT
REMARK Flexibility Score: inf
ROOT
ATOM      1  C   UNL     1       1.965   9.234   8.416  1.00  0.00     0.000 C 
ENDROOT
BRANCH   1   2
ATOM      2  C   UNL     1       0.626   8.788   9.025  1.00  0.00     0.000 C 
BRANCH   2   3
ATOM      3  C   UNL     1       0.271   9.644  10.250  1.00  0.00     0.000 C 
BRANCH   3   4
ATOM      4  C   UNL     1      -0.149   8.802  11.466  1.00  0.00     0.000 C 
BRANCH   4   5
ATOM      5  C   UNL     1       0.698   9.101  12.716  1.00  0.00     0.000 C 
BRANCH   5   6
ATOM      6  C   UNL     1       1.551  10.371  12.561  1.00  0.00     0.000 C 
BRANCH   6   7
ATOM      7  C   UNL     1       3.061  10.076  12.591  1.00  0.00     0.000 C 
BRANCH   7   8
ATOM      8  C   UNL     1       3.369   8.571  12.544  1.00  0.00     0.000 C 
BRANCH   8   9
ATOM      9  C   UNL     1       4.280   8.190  11.365  1.00  0.00     0.000 C 
BRANCH   9  10
ATOM     10  C   UNL     1       3.718   7.001  10.557  1.00  0.00     0.000 C 
BRANCH  10  11
ATOM     11  C   UNL     1       2.665   6.177  11.319  1.00  0.00     0.000 C 
BRANCH  11  12
ATOM     12  C   UNL     1       1.580   5.596  10.399  1.00  0.00     0.006 C 
BRANCH  12  13
ATOM     13  C   UNL     1       1.390   4.088  10.606  1.00  0.00     0.053 C 
BRANCH  13  14
ATOM     14  C   UNL     1       2.667   3.332  10.399  1.00  0.00     0.041 C 
ATOM     15  O   UNL     1       3.341   3.502   9.349  1.00  0.00    -0.550 OA
ATOM     16  O   UNL     1       3.126   2.461  11.379  1.00  0.00    -0.550 OA
ENDBRANCH  13  14
ENDBRANCH  12  13
ENDBRANCH  11  12
ENDBRANCH  10  11
ENDBRANCH   9  10
ENDBRANCH   8   9
ENDBRANCH   7   8
ENDBRANCH   6   7
ENDBRANCH   5   6
ENDBRANCH   4   5
ENDBRANCH   3   4
ENDBRANCH   2   3
ENDBRANCH   1   2
BRANCH   1  17
ATOM     17  C   UNL     1       2.468  10.566   8.997  1.00  0.00     0.000 C 
BRANCH  17  18
ATOM     18  C   UNL     1       3.827  10.987   8.413  1.00  0.00     0.000 C 
BRANCH  18  19
ATOM     19  C   UNL     1       4.648   9.793   7.900  1.00  0.00     0.000 C 
BRANCH  19  20
ATOM     20  C   UNL     1       6.163  10.049   7.944  1.00  0.00     0.000 C 
BRANCH  20  21
ATOM     21  C   UNL     1       6.676  10.057   9.389  1.00  0.00     0.000 C 
BRANCH  21  22
ATOM     22  C   UNL     1       7.883   9.120   9.552  1.00  0.00    -0.000 C 
BRANCH  22  23
ATOM     23  C   UNL     1       7.486   7.636   9.517  1.00  0.00    -0.000 C 
BRANCH  23  24
ATOM     24  C   UNL     1       8.250   6.845   8.439  1.00  0.00    -0.000 C 
BRANCH  24  25
ATOM     25  C   UNL     1       9.076   7.753   7.512  1.00  0.00    -0.000 C 
BRANCH  25  26
ATOM     26  C   UNL     1       8.734   7.545   6.027  1.00  0.00    -0.000 C 
BRANCH  26  27
ATOM     27  C   UNL     1       8.535   8.872   5.276  1.00  0.00    -0.000 C 
BRANCH  27  28
ATOM     28  C   UNL     1       7.664   8.716   4.016  1.00  0.00    -0.000 C 
BRANCH  28  29
ATOM     29  C   UNL     1       6.518   9.739   3.963  1.00  0.00    -0.003 C 
ATOM     30  C   UNL     1       6.985  11.124   3.517  1.00  0.00     0.004 C 
ENDBRANCH  28  29
ENDBRANCH  27  28
ENDBRANCH  26  27
ENDBRANCH  25  26
ENDBRANCH  24  25
ENDBRANCH  23  24
ENDBRANCH  22  23
ENDBRANCH  21  22
ENDBRANCH  20  21
ENDBRANCH  19  20
ENDBRANCH  18  19
ENDBRANCH  17  18
ENDBRANCH   1  17
TORSDOF 26
ENDMDL
MODEL 7
REMARK VINA RESULT:    -4.019      1.903      4.695
REMARK INTER + INTRA:         -12.302
REMARK INTER:                  -9.665
REMARK INTRA:                  -2.638
REMARK UNBOUND:                -2.173
REMARK SMILES CCCCCCCCCCCCCCCCCCCCCCCCCCCC(=O)[O-]
REMARK SMILES IDX 15 1 16 2 17 3 18 4 19 5 20 6 21 7 22 8 23 9 24 10 25 11
REMARK SMILES IDX 26 12 27 13 28 14 29 15 30 16 14 17 13 18 12 19 11 20 10 21
REMARK SMILES IDX 9 22 8 23 7 24 6 25 5 26 4 27 3 28 2 29 1 30
REMARK H PARENT
REMARK Flexibility Score: inf
ROOT
ATOM      1  C   UNL     1       2.654   8.662   8.344  1.00  0.00     0.000 C 
ENDROOT
BRANCH   1   2
ATOM      2  C   UNL     1       1.258   8.126   8.700  1.00  0.00     0.000 C 
BRANCH   2   3
ATOM      3  C   UNL     1       1.351   7.029   9.772  1.00  0.00     0.000 C 
BRANCH   3   4
ATOM      4  C   UNL     1       0.511   7.342  11.021  1.00  0.00     0.000 C 
BRANCH   4   5
ATOM      5  C   UNL     1       0.750   8.765  11.557  1.00  0.00     0.000 C 
BRANCH   5   6
ATOM      6  C   UNL     1       1.877   8.819  12.602  1.00  0.00     0.000 C 
BRANCH   6   7
ATOM      7  C   UNL     1       3.206   9.323  12.013  1.00  0.00     0.000 C 
BRANCH   7   8
ATOM      8  C   UNL     1       4.336   8.290  12.141  1.00  0.00     0.000 C 
BRANCH   8   9
ATOM      9  C   UNL     1       3.869   6.980  12.800  1.00  0.00     0.000 C 
BRANCH   9  10
ATOM     10  C   UNL     1       4.528   5.740  12.160  1.00  0.00     0.000 C 
BRANCH  10  11
ATOM     11  C   UNL     1       3.839   4.414  12.526  1.00  0.00     0.000 C 
BRANCH  11  12
ATOM     12  C   UNL     1       2.390   4.334  12.020  1.00  0.00     0.006 C 
BRANCH  12  13
ATOM     13  C   UNL     1       1.824   2.910  12.103  1.00  0.00     0.053 C 
BRANCH  13  14
ATOM     14  C   UNL     1       2.351   2.036  11.007  1.00  0.00     0.041 C 
ATOM     15  O   UNL     1       2.785   0.883  11.270  1.00  0.00    -0.550 OA
ATOM     16  O   UNL     1       2.337   2.483   9.692  1.00  0.00    -0.550 OA
ENDBRANCH  13  14
ENDBRANCH  12  13
ENDBRANCH  11  12
ENDBRANCH  10  11
ENDBRANCH   9  10
ENDBRANCH   8   9
ENDBRANCH   7   8
ENDBRANCH   6   7
ENDBRANCH   5   6
ENDBRANCH   4   5
ENDBRANCH   3   4
ENDBRANCH   2   3
ENDBRANCH   1   2
BRANCH   1  17
ATOM     17  C   UNL     1       2.794  10.172   8.605  1.00  0.00     0.000 C 
BRANCH  17  18
ATOM     18  C   UNL     1       3.796  10.843   7.650  1.00  0.00     0.000 C 
BRANCH  18  19
ATOM     19  C   UNL     1       5.114  10.061   7.527  1.00  0.00     0.000 C 
BRANCH  19  20
ATOM     20  C   UNL     1       6.038  10.619   6.433  1.00  0.00     0.000 C 
BRANCH  20  21
ATOM     21  C   UNL     1       6.103   9.667   5.233  1.00  0.00     0.000 C 
BRANCH  21  22
ATOM     22  C   UNL     1       6.019  10.442   3.908  1.00  0.00    -0.000 C 
BRANCH  22  23
ATOM     23  C   UNL     1       7.389  10.607   3.233  1.00  0.00    -0.000 C 
BRANCH  23  24
ATOM     24  C   UNL     1       7.979   9.266   2.758  1.00  0.00    -0.000 C 
BRANCH  24  25
ATOM     25  C   UNL     1       8.585   9.352   1.347  1.00  0.00    -0.000 C 
BRANCH  25  26
ATOM     26  C   UNL     1       8.366   8.066   0.533  1.00  0.00    -0.000 C 
BRANCH  26  27
ATOM     27  C   UNL     1       7.555   7.011   1.304  1.00  0.00    -0.000 C 
BRANCH  27  28
ATOM     28  C   UNL     1       7.135   5.823   0.420  1.00  0.00    -0.000 C 
BRANCH  28  29
ATOM     29  C   UNL     1       7.566   4.470   1.008  1.00  0.00    -0.003 C 
ATOM     30  C   UNL     1       7.215   3.293   0.099  1.00  0.00     0.004 C 
ENDBRANCH  28  29
ENDBRANCH  27  28
ENDBRANCH  26  27
ENDBRANCH  25  26
ENDBRANCH  24  25
ENDBRANCH  23  24
ENDBRANCH  22  23
ENDBRANCH  21  22
ENDBRANCH  20  21
ENDBRANCH  19  20
ENDBRANCH  18  19
ENDBRANCH  17  18
ENDBRANCH   1  17
TORSDOF 26
ENDMDL
MODEL 8
REMARK VINA RESULT:    -4.005      6.326      8.017
REMARK INTER + INTRA:         -12.267
REMARK INTER:                  -6.303
REMARK INTRA:                  -5.964
REMARK UNBOUND:                -2.173
REMARK SMILES CCCCCCCCCCCCCCCCCCCCCCCCCCCC(=O)[O-]
REMARK SMILES IDX 15 1 16 2 17 3 18 4 19 5 20 6 21 7 22 8 23 9 24 10 25 11
REMARK SMILES IDX 26 12 27 13 28 14 29 15 30 16 14 17 13 18 12 19 11 20 10 21
REMARK SMILES IDX 9 22 8 23 7 24 6 25 5 26 4 27 3 28 2 29 1 30
REMARK H PARENT
REMARK Flexibility Score: inf
ROOT
ATOM      1  C   UNL     1       2.161   8.959   8.314  1.00  0.00     0.000 C 
ENDROOT
BRANCH   1   2
ATOM      2  C   UNL     1       0.876   8.464   8.996  1.00  0.00     0.000 C 
BRANCH   2   3
ATOM      3  C   UNL     1       0.365   9.496  10.013  1.00  0.00     0.000 C 
BRANCH   3   4
ATOM      4  C   UNL     1      -0.009   8.866  11.365  1.00  0.00     0.000 C 
BRANCH   4   5
ATOM      5  C   UNL     1       0.778   9.472  12.541  1.00  0.00     0.000 C 
BRANCH   5   6
ATOM      6  C   UNL     1       2.005  10.274  12.078  1.00  0.00     0.000 C 
BRANCH   6   7
ATOM      7  C   UNL     1       3.313   9.776  12.719  1.00  0.00     0.000 C 
BRANCH   7   8
ATOM      8  C   UNL     1       3.413   8.243  12.736  1.00  0.00     0.000 C 
BRANCH   8   9
ATOM      9  C   UNL     1       3.670   7.650  11.340  1.00  0.00     0.000 C 
BRANCH   9  10
ATOM     10  C   UNL     1       2.856   6.361  11.097  1.00  0.00     0.000 C 
BRANCH  10  11
ATOM     11  C   UNL     1       2.236   5.771  12.375  1.00  0.00     0.000 C 
BRANCH  11  12
ATOM     12  C   UNL     1       2.157   4.236  12.348  1.00  0.00     0.006 C 
BRANCH  12  13
ATOM     13  C   UNL     1       2.163   3.680  10.918  1.00  0.00     0.053 C 
BRANCH  13  14
ATOM     14  C   UNL     1       1.204   2.541  10.758  1.00  0.00     0.041 C 
ATOM     15  O   UNL     1       1.332   1.735   9.798  1.00  0.00    -0.550 OA
ATOM     16  O   UNL     1       0.187   2.352  11.685  1.00  0.00    -0.550 OA
ENDBRANCH  13  14
ENDBRANCH  12  13
ENDBRANCH  11  12
ENDBRANCH  10  11
ENDBRANCH   9  10
ENDBRANCH   8   9
ENDBRANCH   7   8
ENDBRANCH   6   7
ENDBRANCH   5   6
ENDBRANCH   4   5
ENDBRANCH   3   4
ENDBRANCH   2   3
ENDBRANCH   1   2
BRANCH   1  17
ATOM     17  C   UNL     1       2.431  10.452   8.566  1.00  0.00     0.000 C 
BRANCH  17  18
ATOM     18  C   UNL     1       3.921  10.749   8.804  1.00  0.00     0.000 C 
BRANCH  18  19
ATOM     19  C   UNL     1       4.823   9.543   8.496  1.00  0.00     0.000 C 
BRANCH  19  20
ATOM     20  C   UNL     1       6.237   9.692   9.080  1.00  0.00     0.000 C 
BRANCH  20  21
ATOM     21  C   UNL     1       6.197  10.405  10.437  1.00  0.00     0.000 C 
BRANCH  21  22
ATOM     22  C   UNL     1       7.171   9.754  11.431  1.00  0.00    -0.000 C 
BRANCH  22  23
ATOM     23  C   UNL     1       6.945   8.241  11.575  1.00  0.00    -0.000 C 
BRANCH  23  24
ATOM     24  C   UNL     1       7.383   7.706  12.950  1.00  0.00    -0.000 C 
BRANCH  24  25
ATOM     25  C   UNL     1       7.474   6.171  12.987  1.00  0.00    -0.000 C 
BRANCH  25  26
ATOM     26  C   UNL     1       6.093   5.503  13.103  1.00  0.00    -0.000 C 
BRANCH  26  27
ATOM     27  C   UNL     1       5.851   4.455  12.004  1.00  0.00    -0.000 C 
BRANCH  27  28
ATOM     28  C   UNL     1       7.003   4.385  10.987  1.00  0.00    -0.000 C 
BRANCH  28  29
ATOM     29  C   UNL     1       6.629   5.002   9.630  1.00  0.00    -0.003 C 
ATOM     30  C   UNL     1       7.769   5.814   9.016  1.00  0.00     0.004 C 
ENDBRANCH  28  29
ENDBRANCH  27  28
ENDBRANCH  26  27
ENDBRANCH  25  26
ENDBRANCH  24  25
ENDBRANCH  23  24
ENDBRANCH  22  23
ENDBRANCH  21  22
ENDBRANCH  20  21
ENDBRANCH  19  20
ENDBRANCH  18  19
ENDBRANCH  17  18
ENDBRANCH   1  17
TORSDOF 26
ENDMDL
MODEL 9
REMARK VINA RESULT:    -3.994      6.071      8.833
REMARK INTER + INTRA:         -12.239
REMARK INTER:                  -7.252
REMARK INTRA:                  -4.986
REMARK UNBOUND:                -2.173
REMARK SMILES CCCCCCCCCCCCCCCCCCCCCCCCCCCC(=O)[O-]
REMARK SMILES IDX 15 1 16 2 17 3 18 4 19 5 20 6 21 7 22 8 23 9 24 10 25 11
REMARK SMILES IDX 26 12 27 13 28 14 29 15 30 16 14 17 13 18 12 19 11 20 10 21
REMARK SMILES IDX 9 22 8 23 7 24 6 25 5 26 4 27 3 28 2 29 1 30
REMARK H PARENT
REMARK Flexibility Score: inf
ROOT
ATOM      1  C   UNL     1       1.307   8.777   8.754  1.00  0.00     0.000 C 
ENDROOT
BRANCH   1   2
ATOM      2  C   UNL     1       2.278   9.966   8.683  1.00  0.00     0.000 C 
BRANCH   2   3
ATOM      3  C   UNL     1       1.944  11.010   9.760  1.00  0.00     0.000 C 
BRANCH   3   4
ATOM      4  C   UNL     1       0.656  10.680  10.533  1.00  0.00     0.000 C 
BRANCH   4   5
ATOM      5  C   UNL     1       0.905  10.453  12.035  1.00  0.00     0.000 C 
BRANCH   5   6
ATOM      6  C   UNL     1       1.151   8.974  12.374  1.00  0.00     0.000 C 
BRANCH   6   7
ATOM      7  C   UNL     1       2.511   8.742  13.055  1.00  0.00     0.000 C 
BRANCH   7   8
ATOM      8  C   UNL     1       3.692   9.190  12.180  1.00  0.00     0.000 C 
BRANCH   8   9
ATOM      9  C   UNL     1       4.933   8.297  12.356  1.00  0.00     0.000 C 
BRANCH   9  10
ATOM     10  C   UNL     1       6.070   8.685  11.388  1.00  0.00     0.000 C 
BRANCH  10  11
ATOM     11  C   UNL     1       5.631   9.649  10.272  1.00  0.00     0.000 C 
BRANCH  11  12
ATOM     12  C   UNL     1       5.994   9.142   8.867  1.00  0.00     0.006 C 
BRANCH  12  13
ATOM     13  C   UNL     1       5.676  10.174   7.777  1.00  0.00     0.053 C 
BRANCH  13  14
ATOM     14  C   UNL     1       6.107   9.704   6.422  1.00  0.00     0.041 C 
ATOM     15  O   UNL     1       7.025   8.850   6.310  1.00  0.00    -0.550 OA
ATOM     16  O   UNL     1       5.476  10.190   5.283  1.00  0.00    -0.550 OA
ENDBRANCH  13  14
ENDBRANCH  12  13
ENDBRANCH  11  12
ENDBRANCH  10  11
ENDBRANCH   9  10
ENDBRANCH   8   9
ENDBRANCH   7   8
ENDBRANCH   6   7
ENDBRANCH   5   6
ENDBRANCH   4   5
ENDBRANCH   3   4
ENDBRANCH   2   3
ENDBRANCH   1   2
BRANCH   1  17
ATOM     17  C   UNL     1       1.973   7.443   8.375  1.00  0.00     0.000 C 
BRANCH  17  18
ATOM     18  C   UNL     1       3.074   7.032   9.367  1.00  0.00     0.000 C 
BRANCH  18  19
ATOM     19  C   UNL     1       2.562   6.082  10.462  1.00  0.00     0.000 C 
BRANCH  19  20
ATOM     20  C   UNL     1       1.246   5.386  10.078  1.00  0.00     0.000 C 
BRANCH  20  21
ATOM     21  C   UNL     1       1.293   3.894  10.427  1.00  0.00     0.000 C 
BRANCH  21  22
ATOM     22  C   UNL     1       1.617   3.684  11.914  1.00  0.00    -0.000 C 
BRANCH  22  23
ATOM     23  C   UNL     1       1.891   2.211  12.256  1.00  0.00    -0.000 C 
BRANCH  23  24
ATOM     24  C   UNL     1       3.391   1.914  12.433  1.00  0.00    -0.000 C 
BRANCH  24  25
ATOM     25  C   UNL     1       4.250   3.189  12.437  1.00  0.00    -0.000 C 
BRANCH  25  26
ATOM     26  C   UNL     1       5.735   2.897  12.716  1.00  0.00    -0.000 C 
BRANCH  26  27
ATOM     27  C   UNL     1       6.676   3.714  11.816  1.00  0.00    -0.000 C 
BRANCH  27  28
ATOM     28  C   UNL     1       6.001   4.969  11.236  1.00  0.00    -0.000 C 
BRANCH  28  29
ATOM     29  C   UNL     1       6.295   5.158   9.739  1.00  0.00    -0.003 C 
ATOM     30  C   UNL     1       7.661   5.796   9.483  1.00  0.00     0.004 C 
ENDBRANCH  28  29
ENDBRANCH  27  28
ENDBRANCH  26  27
ENDBRANCH  25  26
ENDBRANCH  24  25
ENDBRANCH  23  24
ENDBRANCH  22  23
ENDBRANCH  21  22
ENDBRANCH  20  21
ENDBRANCH  19  20
ENDBRANCH  18  19
ENDBRANCH  17  18
ENDBRANCH   1  17
TORSDOF 26
ENDMDL
