MODEL 1
REMARK VINA RESULT:    -7.235      0.000      0.000
REMARK INTER + INTRA:          -8.783
REMARK INTER:                  -8.504
REMARK INTRA:                  -0.279
REMARK UNBOUND:                -0.279
REMARK SMILES O=c1cc(-c2ccc(O)c(O)c2)oc2cc(O)cc(O)c12
REMARK SMILES IDX 4 1 3 2 2 3 1 4 21 5 19 6 18 7 16 8 15 9 14 10 13 11 5 12
REMARK SMILES IDX 6 13 7 14 8 15 12 16 10 17 9 18 11 20 20 22 17 24
REMARK H PARENT 9 19 11 21 20 23 17 25
REMARK Flexibility Score: inf
ROOT
ATOM      1  C   UNL     1     -18.626  12.679 -35.289  1.00  0.00     0.138 A 
ATOM      2  C   UNL     1     -18.732  13.636 -36.307  1.00  0.00     0.100 A 
ATOM      3  C   UNL     1     -19.510  13.364 -37.433  1.00  0.00     0.197 A 
ATOM      4  O   UNL     1     -19.631  14.265 -38.302  1.00  0.00    -0.289 OA
ATOM      5  C   UNL     1     -20.156  12.110 -37.556  1.00  0.00     0.107 A 
ATOM      6  C   UNL     1     -20.948  11.707 -38.674  1.00  0.00     0.134 A 
ATOM      7  C   UNL     1     -21.619  10.478 -38.637  1.00  0.00     0.093 A 
ATOM      8  C   UNL     1     -21.480   9.613 -37.549  1.00  0.00     0.123 A 
ATOM      9  C   UNL     1     -20.671   9.975 -36.475  1.00  0.00     0.094 A 
ATOM     10  C   UNL     1     -20.016  11.209 -36.466  1.00  0.00     0.146 A 
ATOM     11  O   UNL     1     -19.268  11.521 -35.413  1.00  0.00    -0.456 OA
ENDROOT
BRANCH   1  12
ATOM     12  C   UNL     1     -17.810  12.915 -34.071  1.00  0.00     0.021 A 
ATOM     13  C   UNL     1     -18.081  13.980 -33.192  1.00  0.00     0.016 A 
ATOM     14  C   UNL     1     -17.302  14.172 -32.049  1.00  0.00     0.051 A 
ATOM     15  C   UNL     1     -16.245  13.300 -31.758  1.00  0.00     0.157 A 
ATOM     16  C   UNL     1     -16.756  12.036 -33.765  1.00  0.00     0.062 A 
ATOM     17  C   UNL     1     -15.973  12.225 -32.621  1.00  0.00     0.158 A 
BRANCH  15  18
ATOM     18  O   UNL     1     -15.469  13.495 -30.616  1.00  0.00    -0.504 OA
ATOM     19  H   UNL     1     -15.763  14.121 -29.876  1.00  0.00     0.293 HD
ENDBRANCH  15  18
BRANCH  17  20
ATOM     20  O   UNL     1     -14.930  11.337 -32.358  1.00  0.00    -0.504 OA
ATOM     21  H   UNL     1     -14.272  11.053 -33.074  1.00  0.00     0.293 HD
ENDBRANCH  17  20
ENDBRANCH   1  12
BRANCH   6  22
ATOM     22  O   UNL     1     -21.089  12.458 -39.845  1.00  0.00    -0.507 OA
ATOM     23  H   UNL     1     -20.654  12.241 -40.728  1.00  0.00     0.293 HD
ENDBRANCH   6  22
BRANCH   8  24
ATOM     24  O   UNL     1     -22.140   8.386 -37.529  1.00  0.00    -0.508 OA
ATOM     25  H   UNL     1     -23.143   8.324 -37.395  1.00  0.00     0.293 HD
ENDBRANCH   8  24
TORSDOF 5
ENDMDL
MODEL 2
REMARK VINA RESULT:    -7.204      1.691      2.308
REMARK INTER + INTRA:          -8.746
REMARK INTER:                  -8.457
REMARK INTRA:                  -0.289
REMARK UNBOUND:                -0.279
REMARK SMILES O=c1cc(-c2ccc(O)c(O)c2)oc2cc(O)cc(O)c12
REMARK SMILES IDX 4 1 3 2 2 3 1 4 21 5 19 6 18 7 16 8 15 9 14 10 13 11 5 12
REMARK SMILES IDX 6 13 7 14 8 15 12 16 10 17 9 18 11 20 20 22 17 24
REMARK H PARENT 9 19 11 21 20 23 17 25
REMARK Flexibility Score: inf
ROOT
ATOM      1  C   UNL     1     -19.446  12.607 -34.316  1.00  0.00     0.138 A 
ATOM      2  C   UNL     1     -20.796  12.634 -33.941  1.00  0.00     0.100 A 
ATOM      3  C   UNL     1     -21.783  12.363 -34.890  1.00  0.00     0.197 A 
ATOM      4  O   UNL     1     -22.981  12.340 -34.509  1.00  0.00    -0.289 OA
ATOM      5  C   UNL     1     -21.415  12.100 -36.231  1.00  0.00     0.107 A 
ATOM      6  C   UNL     1     -22.335  11.844 -37.292  1.00  0.00     0.134 A 
ATOM      7  C   UNL     1     -21.848  11.499 -38.560  1.00  0.00     0.093 A 
ATOM      8  C   UNL     1     -20.476  11.457 -38.818  1.00  0.00     0.123 A 
ATOM      9  C   UNL     1     -19.571  11.754 -37.803  1.00  0.00     0.094 A 
ATOM     10  C   UNL     1     -20.024  12.067 -36.519  1.00  0.00     0.146 A 
ATOM     11  O   UNL     1     -19.125  12.327 -35.575  1.00  0.00    -0.456 OA
ENDROOT
BRANCH   1  12
ATOM     12  C   UNL     1     -18.356  12.890 -33.349  1.00  0.00     0.021 A 
ATOM     13  C   UNL     1     -18.389  14.015 -32.503  1.00  0.00     0.016 A 
ATOM     14  C   UNL     1     -17.354  14.251 -31.595  1.00  0.00     0.051 A 
ATOM     15  C   UNL     1     -16.272  13.364 -31.509  1.00  0.00     0.157 A 
ATOM     16  C   UNL     1     -17.273  11.999 -33.246  1.00  0.00     0.062 A 
ATOM     17  C   UNL     1     -16.234  12.232 -32.339  1.00  0.00     0.158 A 
BRANCH  15  18
ATOM     18  O   UNL     1     -15.240  13.604 -30.603  1.00  0.00    -0.504 OA
ATOM     19  H   UNL     1     -15.128  13.041 -29.767  1.00  0.00     0.293 HD
ENDBRANCH  15  18
BRANCH  17  20
ATOM     20  O   UNL     1     -15.174  11.329 -32.276  1.00  0.00    -0.504 OA
ATOM     21  H   UNL     1     -15.190  10.522 -31.662  1.00  0.00     0.293 HD
ENDBRANCH  17  20
ENDBRANCH   1  12
BRANCH   6  22
ATOM     22  O   UNL     1     -23.724  11.937 -37.165  1.00  0.00    -0.507 OA
ATOM     23  H   UNL     1     -24.363  11.158 -37.203  1.00  0.00     0.293 HD
ENDBRANCH   6  22
BRANCH   8  24
ATOM     24  O   UNL     1     -20.002  11.127 -40.087  1.00  0.00    -0.508 OA
ATOM     25  H   UNL     1     -20.524  10.519 -40.707  1.00  0.00     0.293 HD
ENDBRANCH   8  24
TORSDOF 5
ENDMDL
MODEL 3
REMARK VINA RESULT:    -7.123      1.987      7.220
REMARK INTER + INTRA:          -8.652
REMARK INTER:                  -8.364
REMARK INTRA:                  -0.288
REMARK UNBOUND:                -0.279
REMARK SMILES O=c1cc(-c2ccc(O)c(O)c2)oc2cc(O)cc(O)c12
REMARK SMILES IDX 4 1 3 2 2 3 1 4 21 5 19 6 18 7 16 8 15 9 14 10 13 11 5 12
REMARK SMILES IDX 6 13 7 14 8 15 12 16 10 17 9 18 11 20 20 22 17 24
REMARK H PARENT 9 19 11 21 20 23 17 25
REMARK Flexibility Score: inf
ROOT
ATOM      1  C   UNL     1     -18.996  11.633 -34.633  1.00  0.00     0.138 A 
ATOM      2  C   UNL     1     -19.567  12.461 -33.657  1.00  0.00     0.100 A 
ATOM      3  C   UNL     1     -18.743  13.118 -32.741  1.00  0.00     0.197 A 
ATOM      4  O   UNL     1     -19.280  13.898 -31.913  1.00  0.00    -0.289 OA
ATOM      5  C   UNL     1     -17.343  12.915 -32.783  1.00  0.00     0.107 A 
ATOM      6  C   UNL     1     -16.407  13.505 -31.880  1.00  0.00     0.134 A 
ATOM      7  C   UNL     1     -15.034  13.307 -32.082  1.00  0.00     0.093 A 
ATOM      8  C   UNL     1     -14.568  12.495 -33.118  1.00  0.00     0.123 A 
ATOM      9  C   UNL     1     -15.474  11.875 -33.974  1.00  0.00     0.094 A 
ATOM     10  C   UNL     1     -16.847  12.080 -33.820  1.00  0.00     0.146 A 
ATOM     11  O   UNL     1     -17.677  11.483 -34.671  1.00  0.00    -0.456 OA
ENDROOT
BRANCH   1  12
ATOM     12  C   UNL     1     -19.826  10.908 -35.629  1.00  0.00     0.021 A 
ATOM     13  C   UNL     1     -19.394   9.703 -36.216  1.00  0.00     0.016 A 
ATOM     14  C   UNL     1     -20.200   9.038 -37.143  1.00  0.00     0.051 A 
ATOM     15  C   UNL     1     -21.453   9.558 -37.494  1.00  0.00     0.157 A 
ATOM     16  C   UNL     1     -21.090  11.416 -35.977  1.00  0.00     0.062 A 
ATOM     17  C   UNL     1     -21.899  10.753 -36.906  1.00  0.00     0.158 A 
BRANCH  15  18
ATOM     18  O   UNL     1     -22.254   8.892 -38.421  1.00  0.00    -0.504 OA
ATOM     19  H   UNL     1     -22.857   9.397 -39.060  1.00  0.00     0.293 HD
ENDBRANCH  15  18
BRANCH  17  20
ATOM     20  O   UNL     1     -23.142  11.295 -37.231  1.00  0.00    -0.504 OA
ATOM     21  H   UNL     1     -23.722  11.763 -36.543  1.00  0.00     0.293 HD
ENDBRANCH  17  20
ENDBRANCH   1  12
BRANCH   6  22
ATOM     22  O   UNL     1     -16.767  14.266 -30.764  1.00  0.00    -0.507 OA
ATOM     23  H   UNL     1     -17.264  13.917 -29.960  1.00  0.00     0.293 HD
ENDBRANCH   6  22
BRANCH   8  24
ATOM     24  O   UNL     1     -13.201  12.293 -33.301  1.00  0.00    -0.508 OA
ATOM     25  H   UNL     1     -12.821  11.373 -33.492  1.00  0.00     0.293 HD
ENDBRANCH   8  24
TORSDOF 5
ENDMDL
MODEL 4
REMARK VINA RESULT:    -7.071      1.591      6.815
REMARK INTER + INTRA:          -8.590
REMARK INTER:                  -8.289
REMARK INTRA:                  -0.300
REMARK UNBOUND:                -0.279
REMARK SMILES O=c1cc(-c2ccc(O)c(O)c2)oc2cc(O)cc(O)c12
REMARK SMILES IDX 4 1 3 2 2 3 1 4 21 5 19 6 18 7 16 8 15 9 14 10 13 11 5 12
REMARK SMILES IDX 6 13 7 14 8 15 12 16 10 17 9 18 11 20 20 22 17 24
REMARK H PARENT 9 19 11 21 20 23 17 25
REMARK Flexibility Score: inf
ROOT
ATOM      1  C   UNL     1     -19.108  12.242 -36.866  1.00  0.00     0.138 A 
ATOM      2  C   UNL     1     -18.977  13.628 -37.025  1.00  0.00     0.100 A 
ATOM      3  C   UNL     1     -18.087  14.335 -36.215  1.00  0.00     0.197 A 
ATOM      4  O   UNL     1     -17.950  15.569 -36.420  1.00  0.00    -0.289 OA
ATOM      5  C   UNL     1     -17.350  13.653 -35.217  1.00  0.00     0.107 A 
ATOM      6  C   UNL     1     -16.438  14.274 -34.310  1.00  0.00     0.134 A 
ATOM      7  C   UNL     1     -15.692  13.480 -33.429  1.00  0.00     0.093 A 
ATOM      8  C   UNL     1     -15.868  12.095 -33.383  1.00  0.00     0.123 A 
ATOM      9  C   UNL     1     -16.791  11.485 -34.229  1.00  0.00     0.094 A 
ATOM     10  C   UNL     1     -17.524  12.245 -35.142  1.00  0.00     0.146 A 
ATOM     11  O   UNL     1     -18.382  11.620 -35.943  1.00  0.00    -0.456 OA
ENDROOT
BRANCH   1  12
ATOM     12  C   UNL     1     -20.042  11.442 -37.698  1.00  0.00     0.021 A 
ATOM     13  C   UNL     1     -20.237  11.715 -39.065  1.00  0.00     0.016 A 
ATOM     14  C   UNL     1     -21.115  10.939 -39.825  1.00  0.00     0.051 A 
ATOM     15  C   UNL     1     -21.807   9.872 -39.237  1.00  0.00     0.157 A 
ATOM     16  C   UNL     1     -20.729  10.360 -37.119  1.00  0.00     0.062 A 
ATOM     17  C   UNL     1     -21.610   9.581 -37.877  1.00  0.00     0.158 A 
BRANCH  15  18
ATOM     18  O   UNL     1     -22.683   9.100 -39.999  1.00  0.00    -0.504 OA
ATOM     19  H   UNL     1     -22.767   8.099 -39.859  1.00  0.00     0.293 HD
ENDBRANCH  15  18
BRANCH  17  20
ATOM     20  O   UNL     1     -22.281   8.524 -37.263  1.00  0.00    -0.504 OA
ATOM     21  H   UNL     1     -22.294   7.592 -37.661  1.00  0.00     0.293 HD
ENDBRANCH  17  20
ENDBRANCH   1  12
BRANCH   6  22
ATOM     22  O   UNL     1     -16.245  15.656 -34.216  1.00  0.00    -0.507 OA
ATOM     23  H   UNL     1     -16.837  16.354 -34.640  1.00  0.00     0.293 HD
ENDBRANCH   6  22
BRANCH   8  24
ATOM     24  O   UNL     1     -15.132  11.316 -32.493  1.00  0.00    -0.508 OA
ATOM     25  H   UNL     1     -15.520  11.009 -31.608  1.00  0.00     0.293 HD
ENDBRANCH   8  24
TORSDOF 5
ENDMDL
MODEL 5
REMARK VINA RESULT:    -6.929      1.823      3.212
REMARK INTER + INTRA:          -8.423
REMARK INTER:                  -8.106
REMARK INTRA:                  -0.317
REMARK UNBOUND:                -0.279
REMARK SMILES O=c1cc(-c2ccc(O)c(O)c2)oc2cc(O)cc(O)c12
REMARK SMILES IDX 4 1 3 2 2 3 1 4 21 5 19 6 18 7 16 8 15 9 14 10 13 11 5 12
REMARK SMILES IDX 6 13 7 14 8 15 12 16 10 17 9 18 11 20 20 22 17 24
REMARK H PARENT 9 19 11 21 20 23 17 25
REMARK Flexibility Score: inf
ROOT
ATOM      1  C   UNL     1     -17.726  12.506 -35.404  1.00  0.00     0.138 A 
ATOM      2  C   UNL     1     -17.768  11.218 -35.955  1.00  0.00     0.100 A 
ATOM      3  C   UNL     1     -18.447  11.002 -37.155  1.00  0.00     0.197 A 
ATOM      4  O   UNL     1     -18.418   9.847 -37.653  1.00  0.00    -0.289 OA
ATOM      5  C   UNL     1     -19.118  12.076 -37.787  1.00  0.00     0.107 A 
ATOM      6  C   UNL     1     -19.872  11.968 -38.995  1.00  0.00     0.134 A 
ATOM      7  C   UNL     1     -20.410  13.123 -39.578  1.00  0.00     0.093 A 
ATOM      8  C   UNL     1     -20.272  14.371 -38.966  1.00  0.00     0.123 A 
ATOM      9  C   UNL     1     -19.582  14.479 -37.762  1.00  0.00     0.094 A 
ATOM     10  C   UNL     1     -19.003  13.353 -37.173  1.00  0.00     0.146 A 
ATOM     11  O   UNL     1     -18.338  13.504 -36.032  1.00  0.00    -0.456 OA
ENDROOT
BRANCH   1  12
ATOM     12  C   UNL     1     -17.021  12.792 -34.128  1.00  0.00     0.021 A 
ATOM     13  C   UNL     1     -16.169  11.847 -33.525  1.00  0.00     0.016 A 
ATOM     14  C   UNL     1     -15.511  12.148 -32.330  1.00  0.00     0.051 A 
ATOM     15  C   UNL     1     -15.685  13.397 -31.721  1.00  0.00     0.157 A 
ATOM     16  C   UNL     1     -17.179  14.048 -33.518  1.00  0.00     0.062 A 
ATOM     17  C   UNL     1     -16.522  14.352 -32.320  1.00  0.00     0.158 A 
BRANCH  15  18
ATOM     18  O   UNL     1     -15.027  13.693 -30.527  1.00  0.00    -0.504 OA
ATOM     19  H   UNL     1     -15.381  14.394 -29.887  1.00  0.00     0.293 HD
ENDBRANCH  15  18
BRANCH  17  20
ATOM     20  O   UNL     1     -16.714  15.606 -31.741  1.00  0.00    -0.504 OA
ATOM     21  H   UNL     1     -17.364  15.753 -30.978  1.00  0.00     0.293 HD
ENDBRANCH  17  20
ENDBRANCH   1  12
BRANCH   6  22
ATOM     22  O   UNL     1     -20.139  10.761 -39.646  1.00  0.00    -0.507 OA
ATOM     23  H   UNL     1     -21.008  10.252 -39.590  1.00  0.00     0.293 HD
ENDBRANCH   6  22
BRANCH   8  24
ATOM     24  O   UNL     1     -20.825  15.511 -39.547  1.00  0.00    -0.508 OA
ATOM     25  H   UNL     1     -21.756  15.831 -39.307  1.00  0.00     0.293 HD
ENDBRANCH   8  24
TORSDOF 5
ENDMDL
MODEL 6
REMARK VINA RESULT:    -6.893      1.333      2.603
REMARK INTER + INTRA:          -8.381
REMARK INTER:                  -8.098
REMARK INTRA:                  -0.283
REMARK UNBOUND:                -0.279
REMARK SMILES O=c1cc(-c2ccc(O)c(O)c2)oc2cc(O)cc(O)c12
REMARK SMILES IDX 4 1 3 2 2 3 1 4 21 5 19 6 18 7 16 8 15 9 14 10 13 11 5 12
REMARK SMILES IDX 6 13 7 14 8 15 12 16 10 17 9 18 11 20 20 22 17 24
REMARK H PARENT 9 19 11 21 20 23 17 25
REMARK Flexibility Score: inf
ROOT
ATOM      1  C   UNL     1     -19.131  11.817 -35.190  1.00  0.00     0.138 A 
ATOM      2  C   UNL     1     -19.196  10.470 -35.571  1.00  0.00     0.100 A 
ATOM      3  C   UNL     1     -20.011  10.093 -36.639  1.00  0.00     0.197 A 
ATOM      4  O   UNL     1     -20.004   8.886 -36.993  1.00  0.00    -0.289 OA
ATOM      5  C   UNL     1     -20.794  11.067 -37.305  1.00  0.00     0.107 A 
ATOM      6  C   UNL     1     -21.687  10.794 -38.385  1.00  0.00     0.134 A 
ATOM      7  C   UNL     1     -22.335  11.857 -39.030  1.00  0.00     0.093 A 
ATOM      8  C   UNL     1     -22.166  13.174 -38.596  1.00  0.00     0.123 A 
ATOM      9  C   UNL     1     -21.335  13.445 -37.512  1.00  0.00     0.094 A 
ATOM     10  C   UNL     1     -20.648  12.411 -36.871  1.00  0.00     0.146 A 
ATOM     11  O   UNL     1     -19.852  12.717 -35.851  1.00  0.00    -0.456 OA
ENDROOT
BRANCH   1  12
ATOM     12  C   UNL     1     -18.283  12.273 -34.059  1.00  0.00     0.021 A 
ATOM     13  C   UNL     1     -18.672  13.336 -33.223  1.00  0.00     0.016 A 
ATOM     14  C   UNL     1     -17.858  13.737 -32.160  1.00  0.00     0.051 A 
ATOM     15  C   UNL     1     -16.647  13.079 -31.909  1.00  0.00     0.157 A 
ATOM     16  C   UNL     1     -17.073  11.609 -33.792  1.00  0.00     0.062 A 
ATOM     17  C   UNL     1     -16.255  12.009 -32.729  1.00  0.00     0.158 A 
BRANCH  15  18
ATOM     18  O   UNL     1     -15.837  13.483 -30.849  1.00  0.00    -0.504 OA
ATOM     19  H   UNL     1     -16.148  14.177 -30.178  1.00  0.00     0.293 HD
ENDBRANCH  15  18
BRANCH  17  20
ATOM     20  O   UNL     1     -15.057  11.331 -32.504  1.00  0.00    -0.504 OA
ATOM     21  H   UNL     1     -14.214  11.811 -32.210  1.00  0.00     0.293 HD
ENDBRANCH  17  20
ENDBRANCH   1  12
BRANCH   6  22
ATOM     22  O   UNL     1     -21.991   9.510 -38.846  1.00  0.00    -0.507 OA
ATOM     23  H   UNL     1     -22.880   9.227 -39.229  1.00  0.00     0.293 HD
ENDBRANCH   6  22
BRANCH   8  24
ATOM     24  O   UNL     1     -22.826  14.221 -39.235  1.00  0.00    -0.508 OA
ATOM     25  H   UNL     1     -23.121  15.049 -38.731  1.00  0.00     0.293 HD
ENDBRANCH   8  24
TORSDOF 5
ENDMDL
MODEL 7
REMARK VINA RESULT:    -6.871      8.056      9.869
REMARK INTER + INTRA:          -8.355
REMARK INTER:                  -8.070
REMARK INTRA:                  -0.285
REMARK UNBOUND:                -0.279
REMARK SMILES O=c1cc(-c2ccc(O)c(O)c2)oc2cc(O)cc(O)c12
REMARK SMILES IDX 4 1 3 2 2 3 1 4 21 5 19 6 18 7 16 8 15 9 14 10 13 11 5 12
REMARK SMILES IDX 6 13 7 14 8 15 12 16 10 17 9 18 11 20 20 22 17 24
REMARK H PARENT 9 19 11 21 20 23 17 25
REMARK Flexibility Score: inf
ROOT
ATOM      1  C   UNL     1     -24.831  17.429 -39.522  1.00  0.00     0.138 A 
ATOM      2  C   UNL     1     -25.771  17.552 -38.490  1.00  0.00     0.100 A 
ATOM      3  C   UNL     1     -26.318  16.405 -37.913  1.00  0.00     0.197 A 
ATOM      4  O   UNL     1     -27.116  16.547 -36.951  1.00  0.00    -0.289 OA
ATOM      5  C   UNL     1     -25.946  15.128 -38.398  1.00  0.00     0.107 A 
ATOM      6  C   UNL     1     -26.462  13.889 -37.911  1.00  0.00     0.134 A 
ATOM      7  C   UNL     1     -25.945  12.683 -38.403  1.00  0.00     0.093 A 
ATOM      8  C   UNL     1     -24.972  12.673 -39.406  1.00  0.00     0.123 A 
ATOM      9  C   UNL     1     -24.498  13.876 -39.923  1.00  0.00     0.094 A 
ATOM     10  C   UNL     1     -24.968  15.094 -39.429  1.00  0.00     0.146 A 
ATOM     11  O   UNL     1     -24.475  16.218 -39.939  1.00  0.00    -0.456 OA
ENDROOT
BRANCH   1  12
ATOM     12  C   UNL     1     -24.221  18.616 -40.174  1.00  0.00     0.021 A 
ATOM     13  C   UNL     1     -23.818  18.596 -41.523  1.00  0.00     0.016 A 
ATOM     14  C   UNL     1     -23.256  19.731 -42.112  1.00  0.00     0.051 A 
ATOM     15  C   UNL     1     -23.093  20.907 -41.368  1.00  0.00     0.157 A 
ATOM     16  C   UNL     1     -24.067  19.805 -39.439  1.00  0.00     0.062 A 
ATOM     17  C   UNL     1     -23.503  20.943 -40.025  1.00  0.00     0.158 A 
BRANCH  15  18
ATOM     18  O   UNL     1     -22.531  22.037 -41.959  1.00  0.00    -0.504 OA
ATOM     19  H   UNL     1     -22.435  22.118 -42.965  1.00  0.00     0.293 HD
ENDBRANCH  15  18
BRANCH  17  20
ATOM     20  O   UNL     1     -23.359  22.099 -39.260  1.00  0.00    -0.504 OA
ATOM     21  H   UNL     1     -24.097  22.440 -38.655  1.00  0.00     0.293 HD
ENDBRANCH  17  20
ENDBRANCH   1  12
BRANCH   6  22
ATOM     22  O   UNL     1     -27.491  13.785 -36.969  1.00  0.00    -0.507 OA
ATOM     23  H   UNL     1     -27.584  14.360 -36.147  1.00  0.00     0.293 HD
ENDBRANCH   6  22
BRANCH   8  24
ATOM     24  O   UNL     1     -24.475  11.469 -39.899  1.00  0.00    -0.508 OA
ATOM     25  H   UNL     1     -23.479  11.293 -39.966  1.00  0.00     0.293 HD
ENDBRANCH   8  24
TORSDOF 5
ENDMDL
MODEL 8
REMARK VINA RESULT:    -6.853      8.345     10.088
REMARK INTER + INTRA:          -8.333
REMARK INTER:                  -8.017
REMARK INTRA:                  -0.317
REMARK UNBOUND:                -0.279
REMARK SMILES O=c1cc(-c2ccc(O)c(O)c2)oc2cc(O)cc(O)c12
REMARK SMILES IDX 4 1 3 2 2 3 1 4 21 5 19 6 18 7 16 8 15 9 14 10 13 11 5 12
REMARK SMILES IDX 6 13 7 14 8 15 12 16 10 17 9 18 11 20 20 22 17 24
REMARK H PARENT 9 19 11 21 20 23 17 25
REMARK Flexibility Score: inf
ROOT
ATOM      1  C   UNL     1     -24.598  17.938 -36.881  1.00  0.00     0.138 A 
ATOM      2  C   UNL     1     -23.651  18.725 -36.211  1.00  0.00     0.100 A 
ATOM      3  C   UNL     1     -23.067  19.811 -36.865  1.00  0.00     0.197 A 
ATOM      4  O   UNL     1     -22.263  20.530 -36.218  1.00  0.00    -0.289 OA
ATOM      5  C   UNL     1     -23.409  20.088 -38.211  1.00  0.00     0.107 A 
ATOM      6  C   UNL     1     -22.853  21.147 -38.990  1.00  0.00     0.134 A 
ATOM      7  C   UNL     1     -23.343  21.384 -40.282  1.00  0.00     0.093 A 
ATOM      8  C   UNL     1     -24.325  20.563 -40.842  1.00  0.00     0.123 A 
ATOM      9  C   UNL     1     -24.838  19.497 -40.108  1.00  0.00     0.094 A 
ATOM     10  C   UNL     1     -24.396  19.256 -38.805  1.00  0.00     0.146 A 
ATOM     11  O   UNL     1     -24.925  18.238 -38.134  1.00  0.00    -0.456 OA
ENDROOT
BRANCH   1  12
ATOM     12  C   UNL     1     -25.247  16.770 -36.234  1.00  0.00     0.021 A 
ATOM     13  C   UNL     1     -25.120  16.522 -34.854  1.00  0.00     0.016 A 
ATOM     14  C   UNL     1     -25.750  15.419 -34.271  1.00  0.00     0.051 A 
ATOM     15  C   UNL     1     -26.525  14.552 -35.052  1.00  0.00     0.157 A 
ATOM     16  C   UNL     1     -26.037  15.902 -37.008  1.00  0.00     0.062 A 
ATOM     17  C   UNL     1     -26.669  14.797 -36.428  1.00  0.00     0.158 A 
BRANCH  15  18
ATOM     18  O   UNL     1     -27.151  13.453 -34.467  1.00  0.00    -0.504 OA
ATOM     19  H   UNL     1     -26.764  12.519 -34.543  1.00  0.00     0.293 HD
ENDBRANCH  15  18
BRANCH  17  20
ATOM     20  O   UNL     1     -27.436  13.955 -37.232  1.00  0.00    -0.504 OA
ATOM     21  H   UNL     1     -27.209  12.974 -37.355  1.00  0.00     0.293 HD
ENDBRANCH  17  20
ENDBRANCH   1  12
BRANCH   6  22
ATOM     22  O   UNL     1     -21.813  21.976 -38.559  1.00  0.00    -0.507 OA
ATOM     23  H   UNL     1     -21.019  22.247 -39.118  1.00  0.00     0.293 HD
ENDBRANCH   6  22
BRANCH   8  24
ATOM     24  O   UNL     1     -24.795  20.797 -42.133  1.00  0.00    -0.508 OA
ATOM     25  H   UNL     1     -24.539  20.196 -42.908  1.00  0.00     0.293 HD
ENDBRANCH   8  24
TORSDOF 5
ENDMDL
MODEL 9
REMARK VINA RESULT:    -6.735      1.995      3.008
REMARK INTER + INTRA:          -8.195
REMARK INTER:                  -7.877
REMARK INTRA:                  -0.318
REMARK UNBOUND:                -0.279
REMARK SMILES O=c1cc(-c2ccc(O)c(O)c2)oc2cc(O)cc(O)c12
REMARK SMILES IDX 4 1 3 2 2 3 1 4 21 5 19 6 18 7 16 8 15 9 14 10 13 11 5 12
REMARK SMILES IDX 6 13 7 14 8 15 12 16 10 17 9 18 11 20 20 22 17 24
REMARK H PARENT 9 19 11 21 20 23 17 25
REMARK Flexibility Score: inf
ROOT
ATOM      1  C   UNL     1     -18.691  11.857 -34.287  1.00  0.00     0.138 A 
ATOM      2  C   UNL     1     -18.470  10.753 -35.121  1.00  0.00     0.100 A 
ATOM      3  C   UNL     1     -19.473  10.338 -35.998  1.00  0.00     0.197 A 
ATOM      4  O   UNL     1     -19.223   9.379 -36.773  1.00  0.00    -0.289 OA
ATOM      5  C   UNL     1     -20.717  11.012 -36.014  1.00  0.00     0.107 A 
ATOM      6  C   UNL     1     -21.825  10.658 -36.841  1.00  0.00     0.134 A 
ATOM      7  C   UNL     1     -22.973  11.462 -36.840  1.00  0.00     0.093 A 
ATOM      8  C   UNL     1     -23.074  12.573 -35.998  1.00  0.00     0.123 A 
ATOM      9  C   UNL     1     -22.018  12.898 -35.151  1.00  0.00     0.094 A 
ATOM     10  C   UNL     1     -20.846  12.137 -35.155  1.00  0.00     0.146 A 
ATOM     11  O   UNL     1     -19.856  12.493 -34.342  1.00  0.00    -0.456 OA
ENDROOT
BRANCH   1  12
ATOM     12  C   UNL     1     -17.660  12.339 -33.332  1.00  0.00     0.021 A 
ATOM     13  C   UNL     1     -16.442  11.656 -33.150  1.00  0.00     0.016 A 
ATOM     14  C   UNL     1     -15.487  12.139 -32.251  1.00  0.00     0.051 A 
ATOM     15  C   UNL     1     -15.726  13.314 -31.527  1.00  0.00     0.157 A 
ATOM     16  C   UNL     1     -17.886  13.525 -32.612  1.00  0.00     0.062 A 
ATOM     17  C   UNL     1     -16.932  14.011 -31.711  1.00  0.00     0.158 A 
BRANCH  15  18
ATOM     18  O   UNL     1     -14.771  13.792 -30.632  1.00  0.00    -0.504 OA
ATOM     19  H   UNL     1     -14.998  14.498 -29.940  1.00  0.00     0.293 HD
ENDBRANCH  15  18
BRANCH  17  20
ATOM     20  O   UNL     1     -17.199  15.185 -31.009  1.00  0.00    -0.504 OA
ATOM     21  H   UNL     1     -17.243  15.208 -29.996  1.00  0.00     0.293 HD
ENDBRANCH  17  20
ENDBRANCH   1  12
BRANCH   6  22
ATOM     22  O   UNL     1     -21.862   9.525 -37.659  1.00  0.00    -0.507 OA
ATOM     23  H   UNL     1     -21.968   8.577 -37.332  1.00  0.00     0.293 HD
ENDBRANCH   6  22
BRANCH   8  24
ATOM     24  O   UNL     1     -24.225  13.357 -35.994  1.00  0.00    -0.508 OA
ATOM     25  H   UNL     1     -24.716  13.585 -36.851  1.00  0.00     0.293 HD
ENDBRANCH   8  24
TORSDOF 5
ENDMDL
