MODEL 1
REMARK VINA RESULT:    -3.703      0.000      0.000
REMARK INTER + INTRA:          -7.236
REMARK INTER:                  -5.868
REMARK INTRA:                  -1.368
REMARK UNBOUND:                -1.368
REMARK SMILES CCCCCCCCCCCC(=O)[O-]
REMARK SMILES IDX 7 1 8 2 9 3 10 4 11 5 12 6 13 7 14 8 6 9 5 10 4 11 3 12 2 13
REMARK SMILES IDX 1 14
REMARK H PARENT
REMARK Flexibility Score: inf
ROOT
ATOM      1  C   UNL     1     -21.016 121.243  -1.009  1.00  0.00     0.000 C 
ENDROOT
BRANCH   1   2
ATOM      2  C   UNL     1     -20.249 120.634  -2.200  1.00  0.00     0.000 C 
BRANCH   2   3
ATOM      3  C   UNL     1     -21.115 119.847  -3.204  1.00  0.00     0.000 C 
BRANCH   3   4
ATOM      4  C   UNL     1     -21.022 118.313  -3.081  1.00  0.00     0.006 C 
BRANCH   4   5
ATOM      5  C   UNL     1     -19.950 117.819  -2.096  1.00  0.00     0.053 C 
BRANCH   5   6
ATOM      6  C   UNL     1     -19.307 116.549  -2.560  1.00  0.00     0.041 C 
ATOM      7  O   UNL     1     -18.672 115.826  -1.748  1.00  0.00    -0.550 OA
ATOM      8  O   UNL     1     -19.381 116.179  -3.897  1.00  0.00    -0.550 OA
ENDBRANCH   5   6
ENDBRANCH   4   5
ENDBRANCH   3   4
ENDBRANCH   2   3
ENDBRANCH   1   2
BRANCH   1   9
ATOM      9  C   UNL     1     -22.524 120.939  -0.986  1.00  0.00     0.000 C 
BRANCH   9  10
ATOM     10  C   UNL     1     -22.868 119.700  -0.139  1.00  0.00    -0.000 C 
BRANCH  10  11
ATOM     11  C   UNL     1     -21.724 119.295   0.802  1.00  0.00    -0.000 C 
BRANCH  11  12
ATOM     12  C   UNL     1     -21.751 117.795   1.149  1.00  0.00    -0.000 C 
BRANCH  12  13
ATOM     13  C   UNL     1     -22.742 117.009   0.278  1.00  0.00    -0.003 C 
ATOM     14  C   UNL     1     -22.237 115.609  -0.074  1.00  0.00     0.004 C 
ENDBRANCH  12  13
ENDBRANCH  11  12
ENDBRANCH  10  11
ENDBRANCH   9  10
ENDBRANCH   1   9
TORSDOF 10
ENDMDL
MODEL 2
REMARK VINA RESULT:    -3.701      1.615      4.088
REMARK INTER + INTRA:          -7.232
REMARK INTER:                  -6.003
REMARK INTRA:                  -1.229
REMARK UNBOUND:                -1.368
REMARK SMILES CCCCCCCCCCCC(=O)[O-]
REMARK SMILES IDX 7 1 8 2 9 3 10 4 11 5 12 6 13 7 14 8 6 9 5 10 4 11 3 12 2 13
REMARK SMILES IDX 1 14
REMARK H PARENT
REMARK Flexibility Score: inf
ROOT
ATOM      1  C   UNL     1     -21.899 117.525  -0.469  1.00  0.00     0.000 C 
ENDROOT
BRANCH   1   2
ATOM      2  C   UNL     1     -21.478 116.173   0.140  1.00  0.00     0.000 C 
BRANCH   2   3
ATOM      3  C   UNL     1     -21.467 114.986  -0.844  1.00  0.00     0.000 C 
BRANCH   3   4
ATOM      4  C   UNL     1     -20.114 114.256  -0.969  1.00  0.00     0.006 C 
BRANCH   4   5
ATOM      5  C   UNL     1     -19.084 114.976  -1.853  1.00  0.00     0.053 C 
BRANCH   5   6
ATOM      6  C   UNL     1     -17.799 115.226  -1.125  1.00  0.00     0.041 C 
ATOM      7  O   UNL     1     -17.348 114.366  -0.323  1.00  0.00    -0.550 OA
ATOM      8  O   UNL     1     -17.118 116.422  -1.308  1.00  0.00    -0.550 OA
ENDBRANCH   5   6
ENDBRANCH   4   5
ENDBRANCH   3   4
ENDBRANCH   2   3
ENDBRANCH   1   2
BRANCH   1   9
ATOM      9  C   UNL     1     -22.007 117.539  -2.004  1.00  0.00     0.000 C 
BRANCH   9  10
ATOM     10  C   UNL     1     -20.781 118.178  -2.680  1.00  0.00    -0.000 C 
BRANCH  10  11
ATOM     11  C   UNL     1     -19.858 118.887  -1.677  1.00  0.00    -0.000 C 
BRANCH  11  12
ATOM     12  C   UNL     1     -19.915 120.419  -1.806  1.00  0.00    -0.000 C 
BRANCH  12  13
ATOM     13  C   UNL     1     -20.729 121.073  -0.679  1.00  0.00    -0.003 C 
ATOM     14  C   UNL     1     -22.215 121.193  -1.016  1.00  0.00     0.004 C 
ENDBRANCH  12  13
ENDBRANCH  11  12
ENDBRANCH  10  11
ENDBRANCH   9  10
ENDBRANCH   1   9
TORSDOF 10
ENDMDL
MODEL 3
REMARK VINA RESULT:    -3.695      1.158      3.648
REMARK INTER + INTRA:          -7.223
REMARK INTER:                  -5.680
REMARK INTRA:                  -1.543
REMARK UNBOUND:                -1.368
REMARK SMILES CCCCCCCCCCCC(=O)[O-]
REMARK SMILES IDX 7 1 8 2 9 3 10 4 11 5 12 6 13 7 14 8 6 9 5 10 4 11 3 12 2 13
REMARK SMILES IDX 1 14
REMARK H PARENT
REMARK Flexibility Score: inf
ROOT
ATOM      1  C   UNL     1     -23.065 116.189   0.129  1.00  0.00     0.000 C 
ENDROOT
BRANCH   1   2
ATOM      2  C   UNL     1     -21.690 115.609  -0.260  1.00  0.00     0.000 C 
BRANCH   2   3
ATOM      3  C   UNL     1     -21.455 115.437  -1.774  1.00  0.00     0.000 C 
BRANCH   3   4
ATOM      4  C   UNL     1     -20.721 116.609  -2.456  1.00  0.00     0.006 C 
BRANCH   4   5
ATOM      5  C   UNL     1     -19.387 116.992  -1.796  1.00  0.00     0.053 C 
BRANCH   5   6
ATOM      6  C   UNL     1     -18.343 115.935  -1.990  1.00  0.00     0.041 C 
ATOM      7  O   UNL     1     -17.963 115.626  -3.150  1.00  0.00    -0.550 OA
ATOM      8  O   UNL     1     -17.815 115.269  -0.892  1.00  0.00    -0.550 OA
ENDBRANCH   5   6
ENDBRANCH   4   5
ENDBRANCH   3   4
ENDBRANCH   2   3
ENDBRANCH   1   2
BRANCH   1   9
ATOM      9  C   UNL     1     -23.127 117.726   0.186  1.00  0.00     0.000 C 
BRANCH   9  10
ATOM     10  C   UNL     1     -21.872 118.347   0.825  1.00  0.00    -0.000 C 
BRANCH  10  11
ATOM     11  C   UNL     1     -21.399 119.610   0.088  1.00  0.00    -0.000 C 
BRANCH  11  12
ATOM     12  C   UNL     1     -22.164 119.844  -1.227  1.00  0.00    -0.000 C 
BRANCH  12  13
ATOM     13  C   UNL     1     -21.248 120.324  -2.362  1.00  0.00    -0.003 C 
ATOM     14  C   UNL     1     -19.852 120.708  -1.873  1.00  0.00     0.004 C 
ENDBRANCH  12  13
ENDBRANCH  11  12
ENDBRANCH  10  11
ENDBRANCH   9  10
ENDBRANCH   1   9
TORSDOF 10
ENDMDL
MODEL 4
REMARK VINA RESULT:    -3.690      3.002      4.882
REMARK INTER + INTRA:          -7.216
REMARK INTER:                  -6.166
REMARK INTRA:                  -1.049
REMARK UNBOUND:                -1.368
REMARK SMILES CCCCCCCCCCCC(=O)[O-]
REMARK SMILES IDX 7 1 8 2 9 3 10 4 11 5 12 6 13 7 14 8 6 9 5 10 4 11 3 12 2 13
REMARK SMILES IDX 1 14
REMARK H PARENT
REMARK Flexibility Score: inf
ROOT
ATOM      1  C   UNL     1     -21.384 117.490  -0.464  1.00  0.00     0.000 C 
ENDROOT
BRANCH   1   2
ATOM      2  C   UNL     1     -20.602 117.987  -1.697  1.00  0.00     0.000 C 
BRANCH   2   3
ATOM      3  C   UNL     1     -19.698 119.211  -1.450  1.00  0.00     0.000 C 
BRANCH   3   4
ATOM      4  C   UNL     1     -20.223 120.537  -2.037  1.00  0.00     0.006 C 
BRANCH   4   5
ATOM      5  C   UNL     1     -21.151 121.323  -1.098  1.00  0.00     0.053 C 
BRANCH   5   6
ATOM      6  C   UNL     1     -22.588 120.947  -1.287  1.00  0.00     0.041 C 
ATOM      7  O   UNL     1     -23.285 120.592  -0.300  1.00  0.00    -0.550 OA
ATOM      8  O   UNL     1     -23.148 120.955  -2.558  1.00  0.00    -0.550 OA
ENDBRANCH   5   6
ENDBRANCH   4   5
ENDBRANCH   3   4
ENDBRANCH   2   3
ENDBRANCH   1   2
BRANCH   1   9
ATOM      9  C   UNL     1     -21.132 116.020  -0.087  1.00  0.00     0.000 C 
BRANCH   9  10
ATOM     10  C   UNL     1     -21.146 115.082  -1.307  1.00  0.00    -0.000 C 
BRANCH  10  11
ATOM     11  C   UNL     1     -19.930 114.143  -1.342  1.00  0.00    -0.000 C 
BRANCH  11  12
ATOM     12  C   UNL     1     -18.869 114.515  -0.291  1.00  0.00    -0.000 C 
BRANCH  12  13
ATOM     13  C   UNL     1     -17.488 114.767  -0.915  1.00  0.00    -0.003 C 
ATOM     14  C   UNL     1     -17.389 116.128  -1.603  1.00  0.00     0.004 C 
ENDBRANCH  12  13
ENDBRANCH  11  12
ENDBRANCH  10  11
ENDBRANCH   9  10
ENDBRANCH   1   9
TORSDOF 10
ENDMDL
MODEL 5
REMARK VINA RESULT:    -3.654      2.573      4.331
REMARK INTER + INTRA:          -7.158
REMARK INTER:                  -5.899
REMARK INTRA:                  -1.259
REMARK UNBOUND:                -1.368
REMARK SMILES CCCCCCCCCCCC(=O)[O-]
REMARK SMILES IDX 7 1 8 2 9 3 10 4 11 5 12 6 13 7 14 8 6 9 5 10 4 11 3 12 2 13
REMARK SMILES IDX 1 14
REMARK H PARENT
REMARK Flexibility Score: inf
ROOT
ATOM      1  C   UNL     1     -19.381 116.629  -2.312  1.00  0.00     0.000 C 
ENDROOT
BRANCH   1   2
ATOM      2  C   UNL     1     -20.185 117.938  -2.453  1.00  0.00     0.000 C 
BRANCH   2   3
ATOM      3  C   UNL     1     -19.932 118.985  -1.350  1.00  0.00     0.000 C 
BRANCH   3   4
ATOM      4  C   UNL     1     -20.059 120.453  -1.805  1.00  0.00     0.006 C 
BRANCH   4   5
ATOM      5  C   UNL     1     -21.089 121.275  -1.015  1.00  0.00     0.053 C 
BRANCH   5   6
ATOM      6  C   UNL     1     -22.493 120.958  -1.428  1.00  0.00     0.041 C 
ATOM      7  O   UNL     1     -23.424 120.978  -0.580  1.00  0.00    -0.550 OA
ATOM      8  O   UNL     1     -22.769 120.608  -2.744  1.00  0.00    -0.550 OA
ENDBRANCH   5   6
ENDBRANCH   4   5
ENDBRANCH   3   4
ENDBRANCH   2   3
ENDBRANCH   1   2
BRANCH   1   9
ATOM      9  C   UNL     1     -19.783 115.749  -1.116  1.00  0.00     0.000 C 
BRANCH   9  10
ATOM     10  C   UNL     1     -21.214 115.194  -1.240  1.00  0.00    -0.000 C 
BRANCH  10  11
ATOM     11  C   UNL     1     -22.021 115.351   0.058  1.00  0.00    -0.000 C 
BRANCH  11  12
ATOM     12  C   UNL     1     -23.237 116.279  -0.115  1.00  0.00    -0.000 C 
BRANCH  12  13
ATOM     13  C   UNL     1     -22.960 117.707   0.380  1.00  0.00    -0.003 C 
ATOM     14  C   UNL     1     -21.910 117.755   1.489  1.00  0.00     0.004 C 
ENDBRANCH  12  13
ENDBRANCH  11  12
ENDBRANCH  10  11
ENDBRANCH   9  10
ENDBRANCH   1   9
TORSDOF 10
ENDMDL
MODEL 6
REMARK VINA RESULT:    -3.619      3.060      4.498
REMARK INTER + INTRA:          -7.103
REMARK INTER:                  -5.757
REMARK INTRA:                  -1.346
REMARK UNBOUND:                -1.368
REMARK SMILES CCCCCCCCCCCC(=O)[O-]
REMARK SMILES IDX 7 1 8 2 9 3 10 4 11 5 12 6 13 7 14 8 6 9 5 10 4 11 3 12 2 13
REMARK SMILES IDX 1 14
REMARK H PARENT
REMARK Flexibility Score: inf
ROOT
ATOM      1  C   UNL     1     -19.634 118.387  -1.669  1.00  0.00     0.000 C 
ENDROOT
BRANCH   1   2
ATOM      2  C   UNL     1     -19.893 119.904  -1.778  1.00  0.00     0.000 C 
BRANCH   2   3
ATOM      3  C   UNL     1     -20.563 120.544  -0.547  1.00  0.00     0.000 C 
BRANCH   3   4
ATOM      4  C   UNL     1     -21.844 121.348  -0.847  1.00  0.00     0.006 C 
BRANCH   4   5
ATOM      5  C   UNL     1     -23.150 120.591  -0.556  1.00  0.00     0.053 C 
BRANCH   5   6
ATOM      6  C   UNL     1     -24.229 120.942  -1.534  1.00  0.00     0.041 C 
ATOM      7  O   UNL     1     -23.962 121.051  -2.760  1.00  0.00    -0.550 OA
ATOM      8  O   UNL     1     -25.522 121.181  -1.087  1.00  0.00    -0.550 OA
ENDBRANCH   5   6
ENDBRANCH   4   5
ENDBRANCH   3   4
ENDBRANCH   2   3
ENDBRANCH   1   2
BRANCH   1   9
ATOM      9  C   UNL     1     -20.501 117.514  -2.592  1.00  0.00     0.000 C 
BRANCH   9  10
ATOM     10  C   UNL     1     -22.007 117.660  -2.307  1.00  0.00    -0.000 C 
BRANCH  10  11
ATOM     11  C   UNL     1     -22.589 116.439  -1.578  1.00  0.00    -0.000 C 
BRANCH  11  12
ATOM     12  C   UNL     1     -22.925 116.737  -0.106  1.00  0.00    -0.000 C 
BRANCH  12  13
ATOM     13  C   UNL     1     -21.668 116.868   0.768  1.00  0.00    -0.003 C 
ATOM     14  C   UNL     1     -21.815 117.928   1.859  1.00  0.00     0.004 C 
ENDBRANCH  12  13
ENDBRANCH  11  12
ENDBRANCH  10  11
ENDBRANCH   9  10
ENDBRANCH   1   9
TORSDOF 10
ENDMDL
MODEL 7
REMARK VINA RESULT:    -3.602      1.152      3.733
REMARK INTER + INTRA:          -7.076
REMARK INTER:                  -5.962
REMARK INTRA:                  -1.114
REMARK UNBOUND:                -1.368
REMARK SMILES CCCCCCCCCCCC(=O)[O-]
REMARK SMILES IDX 7 1 8 2 9 3 10 4 11 5 12 6 13 7 14 8 6 9 5 10 4 11 3 12 2 13
REMARK SMILES IDX 1 14
REMARK H PARENT
REMARK Flexibility Score: inf
ROOT
ATOM      1  C   UNL     1     -21.740 117.035   0.735  1.00  0.00     0.000 C 
ENDROOT
BRANCH   1   2
ATOM      2  C   UNL     1     -22.444 115.818   0.101  1.00  0.00     0.000 C 
BRANCH   2   3
ATOM      3  C   UNL     1     -21.579 114.994  -0.872  1.00  0.00     0.000 C 
BRANCH   3   4
ATOM      4  C   UNL     1     -21.837 115.272  -2.367  1.00  0.00     0.006 C 
BRANCH   4   5
ATOM      5  C   UNL     1     -21.290 116.619  -2.865  1.00  0.00     0.053 C 
BRANCH   5   6
ATOM      6  C   UNL     1     -19.797 116.683  -2.778  1.00  0.00     0.041 C 
ATOM      7  O   UNL     1     -19.085 116.118  -3.650  1.00  0.00    -0.550 OA
ATOM      8  O   UNL     1     -19.190 117.339  -1.714  1.00  0.00    -0.550 OA
ENDBRANCH   5   6
ENDBRANCH   4   5
ENDBRANCH   3   4
ENDBRANCH   2   3
ENDBRANCH   1   2
BRANCH   1   9
ATOM      9  C   UNL     1     -22.605 118.303   0.839  1.00  0.00     0.000 C 
BRANCH   9  10
ATOM     10  C   UNL     1     -23.173 118.748  -0.521  1.00  0.00    -0.000 C 
BRANCH  10  11
ATOM     11  C   UNL     1     -23.439 120.260  -0.582  1.00  0.00    -0.000 C 
BRANCH  11  12
ATOM     12  C   UNL     1     -22.177 121.066  -0.938  1.00  0.00    -0.000 C 
BRANCH  12  13
ATOM     13  C   UNL     1     -21.312 120.364  -1.996  1.00  0.00    -0.003 C 
ATOM     14  C   UNL     1     -19.840 120.768  -1.917  1.00  0.00     0.004 C 
ENDBRANCH  12  13
ENDBRANCH  11  12
ENDBRANCH  10  11
ENDBRANCH   9  10
ENDBRANCH   1   9
TORSDOF 10
ENDMDL
MODEL 8
REMARK VINA RESULT:    -3.568      1.481      3.901
REMARK INTER + INTRA:          -7.022
REMARK INTER:                  -5.901
REMARK INTRA:                  -1.121
REMARK UNBOUND:                -1.368
REMARK SMILES CCCCCCCCCCCC(=O)[O-]
REMARK SMILES IDX 7 1 8 2 9 3 10 4 11 5 12 6 13 7 14 8 6 9 5 10 4 11 3 12 2 13
REMARK SMILES IDX 1 14
REMARK H PARENT
REMARK Flexibility Score: inf
ROOT
ATOM      1  C   UNL     1     -21.551 117.202  -2.019  1.00  0.00     0.000 C 
ENDROOT
BRANCH   1   2
ATOM      2  C   UNL     1     -21.349 116.567  -0.628  1.00  0.00     0.000 C 
BRANCH   2   3
ATOM      3  C   UNL     1     -21.099 115.046  -0.633  1.00  0.00     0.000 C 
BRANCH   3   4
ATOM      4  C   UNL     1     -19.617 114.630  -0.721  1.00  0.00     0.006 C 
BRANCH   4   5
ATOM      5  C   UNL     1     -19.190 114.094  -2.096  1.00  0.00     0.053 C 
BRANCH   5   6
ATOM      6  C   UNL     1     -18.349 115.081  -2.845  1.00  0.00     0.041 C 
ATOM      7  O   UNL     1     -17.444 115.724  -2.249  1.00  0.00    -0.550 OA
ATOM      8  O   UNL     1     -18.586 115.317  -4.193  1.00  0.00    -0.550 OA
ENDBRANCH   5   6
ENDBRANCH   4   5
ENDBRANCH   3   4
ENDBRANCH   2   3
ENDBRANCH   1   2
BRANCH   1   9
ATOM      9  C   UNL     1     -20.379 118.070  -2.511  1.00  0.00     0.000 C 
BRANCH   9  10
ATOM     10  C   UNL     1     -19.873 119.050  -1.437  1.00  0.00    -0.000 C 
BRANCH  10  11
ATOM     11  C   UNL     1     -19.967 120.516  -1.888  1.00  0.00    -0.000 C 
BRANCH  11  12
ATOM     12  C   UNL     1     -20.882 121.354  -0.978  1.00  0.00    -0.000 C 
BRANCH  12  13
ATOM     13  C   UNL     1     -22.282 120.739  -0.825  1.00  0.00    -0.003 C 
ATOM     14  C   UNL     1     -23.115 120.844  -2.102  1.00  0.00     0.004 C 
ENDBRANCH  12  13
ENDBRANCH  11  12
ENDBRANCH  10  11
ENDBRANCH   9  10
ENDBRANCH   1   9
TORSDOF 10
ENDMDL
MODEL 9
REMARK VINA RESULT:    -3.565      2.802      5.141
REMARK INTER + INTRA:          -7.017
REMARK INTER:                  -5.457
REMARK INTRA:                  -1.560
REMARK UNBOUND:                -1.368
REMARK SMILES CCCCCCCCCCCC(=O)[O-]
REMARK SMILES IDX 7 1 8 2 9 3 10 4 11 5 12 6 13 7 14 8 6 9 5 10 4 11 3 12 2 13
REMARK SMILES IDX 1 14
REMARK H PARENT
REMARK Flexibility Score: inf
ROOT
ATOM      1  C   UNL     1     -21.168 116.358  -0.410  1.00  0.00     0.000 C 
ENDROOT
BRANCH   1   2
ATOM      2  C   UNL     1     -21.877 116.996  -1.622  1.00  0.00     0.000 C 
BRANCH   2   3
ATOM      3  C   UNL     1     -21.039 118.026  -2.404  1.00  0.00     0.000 C 
BRANCH   3   4
ATOM      4  C   UNL     1     -19.833 118.603  -1.635  1.00  0.00     0.006 C 
BRANCH   4   5
ATOM      5  C   UNL     1     -19.903 120.118  -1.389  1.00  0.00     0.053 C 
BRANCH   5   6
ATOM      6  C   UNL     1     -21.079 120.492  -0.540  1.00  0.00     0.041 C 
ATOM      7  O   UNL     1     -21.862 121.406  -0.909  1.00  0.00    -0.550 OA
ATOM      8  O   UNL     1     -21.290 119.854   0.676  1.00  0.00    -0.550 OA
ENDBRANCH   5   6
ENDBRANCH   4   5
ENDBRANCH   3   4
ENDBRANCH   2   3
ENDBRANCH   1   2
BRANCH   1   9
ATOM      9  C   UNL     1     -20.736 114.895  -0.609  1.00  0.00     0.000 C 
BRANCH   9  10
ATOM     10  C   UNL     1     -19.206 114.721  -0.609  1.00  0.00    -0.000 C 
BRANCH  10  11
ATOM     11  C   UNL     1     -18.663 114.284  -1.978  1.00  0.00    -0.000 C 
BRANCH  11  12
ATOM     12  C   UNL     1     -18.204 115.477  -2.836  1.00  0.00    -0.000 C 
BRANCH  12  13
ATOM     13  C   UNL     1     -18.946 115.554  -4.179  1.00  0.00    -0.003 C 
ATOM     14  C   UNL     1     -20.152 114.617  -4.243  1.00  0.00     0.004 C 
ENDBRANCH  12  13
ENDBRANCH  11  12
ENDBRANCH  10  11
ENDBRANCH   9  10
ENDBRANCH   1   9
TORSDOF 10
ENDMDL
