MODEL 1
REMARK VINA RESULT:    -3.819      0.000      0.000
REMARK INTER + INTRA:          -3.819
REMARK INTER:                  -3.819
REMARK INTRA:                   0.000
REMARK UNBOUND:                 0.000
REMARK SMILES CC1(C)O[C@]2(C)CC[C@H]1CC2
REMARK SMILES IDX 1 1 2 2 9 3 8 4 7 5 5 6 4 7 11 8 10 9 6 10 3 11
REMARK H PARENT
REMARK Flexibility Score: inf
ROOT
ATOM      1  C   UNL     1     165.761 167.221 170.014  1.00  0.00     0.042 C 
ATOM      2  C   UNL     1     166.445 168.141 168.979  1.00  0.00     0.066 C 
ATOM      3  C   UNL     1     166.936 169.477 169.660  1.00  0.00     0.021 C 
ATOM      4  C   UNL     1     167.657 170.334 168.592  1.00  0.00     0.009 C 
ATOM      5  C   UNL     1     168.732 169.471 167.888  1.00  0.00     0.035 C 
ATOM      6  C   UNL     1     168.793 168.063 168.548  1.00  0.00     0.066 C 
ATOM      7  O   UNL     1     167.531 167.414 168.386  1.00  0.00    -0.369 OA
ATOM      8  C   UNL     1     169.091 168.229 170.067  1.00  0.00     0.035 C 
ATOM      9  C   UNL     1     168.008 169.122 170.719  1.00  0.00     0.009 C 
ATOM     10  C   UNL     1     169.877 167.209 167.883  1.00  0.00     0.042 C 
ATOM     11  C   UNL     1     165.408 168.440 167.875  1.00  0.00     0.042 C 
ENDROOT
TORSDOF 0
ENDMDL
MODEL 2
REMARK VINA RESULT:    -3.776      1.488      2.887
REMARK INTER + INTRA:          -3.776
REMARK INTER:                  -3.776
REMARK INTRA:                   0.000
REMARK UNBOUND:                 0.000
REMARK SMILES CC1(C)O[C@]2(C)CC[C@H]1CC2
REMARK SMILES IDX 1 1 2 2 9 3 8 4 7 5 5 6 4 7 11 8 10 9 6 10 3 11
REMARK H PARENT
REMARK Flexibility Score: inf
ROOT
ATOM      1  C   UNL     1     168.358 165.939 169.936  1.00  0.00     0.042 C 
ATOM      2  C   UNL     1     167.256 166.448 168.979  1.00  0.00     0.066 C 
ATOM      3  C   UNL     1     165.903 166.675 169.758  1.00  0.00     0.021 C 
ATOM      4  C   UNL     1     164.855 167.232 168.765  1.00  0.00     0.009 C 
ATOM      5  C   UNL     1     165.452 168.455 168.028  1.00  0.00     0.035 C 
ATOM      6  C   UNL     1     166.866 168.772 168.593  1.00  0.00     0.066 C 
ATOM      7  O   UNL     1     167.725 167.655 168.362  1.00  0.00    -0.369 OA
ATOM      8  C   UNL     1     166.754 169.022 170.126  1.00  0.00     0.035 C 
ATOM      9  C   UNL     1     166.125 167.785 170.813  1.00  0.00     0.009 C 
ATOM     10  C   UNL     1     167.456 170.003 167.896  1.00  0.00     0.042 C 
ATOM     11  C   UNL     1     167.079 165.382 167.876  1.00  0.00     0.042 C 
ENDROOT
TORSDOF 0
ENDMDL
MODEL 3
REMARK VINA RESULT:    -3.775      1.738      3.775
REMARK INTER + INTRA:          -3.775
REMARK INTER:                  -3.775
REMARK INTRA:                   0.000
REMARK UNBOUND:                 0.000
REMARK SMILES CC1(C)O[C@]2(C)CC[C@H]1CC2
REMARK SMILES IDX 1 1 2 2 9 3 8 4 7 5 5 6 4 7 11 8 10 9 6 10 3 11
REMARK H PARENT
REMARK Flexibility Score: inf
ROOT
ATOM      1  C   UNL     1     169.599 168.194 170.020  1.00  0.00     0.042 C 
ATOM      2  C   UNL     1     169.033 167.175 169.006  1.00  0.00     0.066 C 
ATOM      3  C   UNL     1     168.699 165.807 169.719  1.00  0.00     0.021 C 
ATOM      4  C   UNL     1     168.089 164.846 168.670  1.00  0.00     0.009 C 
ATOM      5  C   UNL     1     166.924 165.559 167.943  1.00  0.00     0.035 C 
ATOM      6  C   UNL     1     166.695 166.965 168.568  1.00  0.00     0.066 C 
ATOM      7  O   UNL     1     167.872 167.754 168.393  1.00  0.00    -0.369 OA
ATOM      8  C   UNL     1     166.410 166.802 170.089  1.00  0.00     0.035 C 
ATOM      9  C   UNL     1     167.588 166.059 170.766  1.00  0.00     0.009 C 
ATOM     10  C   UNL     1     165.521 167.669 167.880  1.00  0.00     0.042 C 
ATOM     11  C   UNL     1     170.104 166.972 167.912  1.00  0.00     0.042 C 
ENDROOT
TORSDOF 0
ENDMDL
MODEL 4
REMARK VINA RESULT:    -3.765      1.377      2.437
REMARK INTER + INTRA:          -3.765
REMARK INTER:                  -3.765
REMARK INTRA:                   0.000
REMARK UNBOUND:                 0.000
REMARK SMILES CC1(C)O[C@]2(C)CC[C@H]1CC2
REMARK SMILES IDX 1 1 2 2 9 3 8 4 7 5 5 6 4 7 11 8 10 9 6 10 3 11
REMARK H PARENT
REMARK Flexibility Score: inf
ROOT
ATOM      1  C   UNL     1     167.022 169.256 169.856  1.00  0.00     0.042 C 
ATOM      2  C   UNL     1     168.240 168.871 168.988  1.00  0.00     0.066 C 
ATOM      3  C   UNL     1     169.546 168.778 169.868  1.00  0.00     0.021 C 
ATOM      4  C   UNL     1     170.719 168.340 168.959  1.00  0.00     0.009 C 
ATOM      5  C   UNL     1     170.310 167.068 168.178  1.00  0.00     0.035 C 
ATOM      6  C   UNL     1     168.897 166.603 168.632  1.00  0.00     0.066 C 
ATOM      7  O   UNL     1     167.947 167.627 168.335  1.00  0.00    -0.369 OA
ATOM      8  C   UNL     1     168.916 166.353 170.168  1.00  0.00     0.035 C 
ATOM      9  C   UNL     1     169.358 167.642 170.903  1.00  0.00     0.009 C 
ATOM     10  C   UNL     1     168.492 165.324 167.890  1.00  0.00     0.042 C 
ATOM     11  C   UNL     1     168.391 169.959 167.902  1.00  0.00     0.042 C 
ENDROOT
TORSDOF 0
ENDMDL
MODEL 5
REMARK VINA RESULT:    -3.746      1.574      3.419
REMARK INTER + INTRA:          -3.746
REMARK INTER:                  -3.746
REMARK INTRA:                   0.000
REMARK UNBOUND:                 0.000
REMARK SMILES CC1(C)O[C@]2(C)CC[C@H]1CC2
REMARK SMILES IDX 1 1 2 2 9 3 8 4 7 5 5 6 4 7 11 8 10 9 6 10 3 11
REMARK H PARENT
REMARK Flexibility Score: inf
ROOT
ATOM      1  C   UNL     1     170.849 168.774 170.274  1.00  0.00     0.042 C 
ATOM      2  C   UNL     1     169.869 168.504 169.111  1.00  0.00     0.066 C 
ATOM      3  C   UNL     1     168.795 167.426 169.527  1.00  0.00     0.021 C 
ATOM      4  C   UNL     1     167.812 167.234 168.346  1.00  0.00     0.009 C 
ATOM      5  C   UNL     1     167.279 168.617 167.899  1.00  0.00     0.035 C 
ATOM      6  C   UNL     1     167.835 169.725 168.839  1.00  0.00     0.066 C 
ATOM      7  O   UNL     1     169.260 169.750 168.744  1.00  0.00    -0.369 OA
ATOM      8  C   UNL     1     167.426 169.397 170.304  1.00  0.00     0.035 C 
ATOM      9  C   UNL     1     167.955 167.996 170.695  1.00  0.00     0.009 C 
ATOM     10  C   UNL     1     167.288 171.096 168.428  1.00  0.00     0.042 C 
ATOM     11  C   UNL     1     170.706 168.007 167.912  1.00  0.00     0.042 C 
ENDROOT
TORSDOF 0
ENDMDL
MODEL 6
REMARK VINA RESULT:    -3.702      1.359      3.072
REMARK INTER + INTRA:          -3.702
REMARK INTER:                  -3.702
REMARK INTRA:                   0.000
REMARK UNBOUND:                 0.000
REMARK SMILES CC1(C)O[C@]2(C)CC[C@H]1CC2
REMARK SMILES IDX 1 1 2 2 9 3 8 4 7 5 5 6 4 7 11 8 10 9 6 10 3 11
REMARK H PARENT
REMARK Flexibility Score: inf
ROOT
ATOM      1  C   UNL     1     166.499 170.940 170.132  1.00  0.00     0.042 C 
ATOM      2  C   UNL     1     166.878 169.878 169.077  1.00  0.00     0.066 C 
ATOM      3  C   UNL     1     167.902 168.838 169.675  1.00  0.00     0.021 C 
ATOM      4  C   UNL     1     168.204 167.771 168.596  1.00  0.00     0.009 C 
ATOM      5  C   UNL     1     166.870 167.205 168.053  1.00  0.00     0.035 C 
ATOM      6  C   UNL     1     165.677 167.828 168.834  1.00  0.00     0.066 C 
ATOM      7  O   UNL     1     165.671 169.241 168.633  1.00  0.00    -0.369 OA
ATOM      8  C   UNL     1     165.854 167.528 170.351  1.00  0.00     0.035 C 
ATOM      9  C   UNL     1     167.213 168.086 170.840  1.00  0.00     0.009 C 
ATOM     10  C   UNL     1     164.350 167.250 168.329  1.00  0.00     0.042 C 
ATOM     11  C   UNL     1     167.497 170.624 167.875  1.00  0.00     0.042 C 
ENDROOT
TORSDOF 0
ENDMDL
MODEL 7
REMARK VINA RESULT:    -3.701      1.054      3.158
REMARK INTER + INTRA:          -3.701
REMARK INTER:                  -3.701
REMARK INTRA:                   0.000
REMARK UNBOUND:                 0.000
REMARK SMILES CC1(C)O[C@]2(C)CC[C@H]1CC2
REMARK SMILES IDX 1 1 2 2 9 3 8 4 7 5 5 6 4 7 11 8 10 9 6 10 3 11
REMARK H PARENT
REMARK Flexibility Score: inf
ROOT
ATOM      1  C   UNL     1     169.728 166.483 167.876  1.00  0.00     0.042 C 
ATOM      2  C   UNL     1     168.769 166.955 168.992  1.00  0.00     0.066 C 
ATOM      3  C   UNL     1     169.371 168.199 169.754  1.00  0.00     0.021 C 
ATOM      4  C   UNL     1     168.349 168.659 170.821  1.00  0.00     0.009 C 
ATOM      5  C   UNL     1     166.966 168.851 170.153  1.00  0.00     0.035 C 
ATOM      6  C   UNL     1     167.084 168.606 168.621  1.00  0.00     0.066 C 
ATOM      7  O   UNL     1     167.503 167.260 168.391  1.00  0.00    -0.369 OA
ATOM      8  C   UNL     1     168.147 169.579 168.033  1.00  0.00     0.035 C 
ATOM      9  C   UNL     1     169.502 169.371 168.752  1.00  0.00     0.009 C 
ATOM     10  C   UNL     1     165.728 168.825 167.940  1.00  0.00     0.042 C 
ATOM     11  C   UNL     1     168.569 165.767 169.958  1.00  0.00     0.042 C 
ENDROOT
TORSDOF 0
ENDMDL
MODEL 8
REMARK VINA RESULT:    -3.687      1.225      3.258
REMARK INTER + INTRA:          -3.687
REMARK INTER:                  -3.687
REMARK INTRA:                   0.000
REMARK UNBOUND:                 0.000
REMARK SMILES CC1(C)O[C@]2(C)CC[C@H]1CC2
REMARK SMILES IDX 1 1 2 2 9 3 8 4 7 5 5 6 4 7 11 8 10 9 6 10 3 11
REMARK H PARENT
REMARK Flexibility Score: inf
ROOT
ATOM      1  C   UNL     1     168.616 169.664 168.029  1.00  0.00     0.042 C 
ATOM      2  C   UNL     1     168.149 168.650 169.097  1.00  0.00     0.066 C 
ATOM      3  C   UNL     1     166.773 169.095 169.726  1.00  0.00     0.021 C 
ATOM      4  C   UNL     1     166.331 168.020 170.747  1.00  0.00     0.009 C 
ATOM      5  C   UNL     1     166.372 166.628 170.070  1.00  0.00     0.035 C 
ATOM      6  C   UNL     1     166.755 166.784 168.570  1.00  0.00     0.066 C 
ATOM      7  O   UNL     1     168.059 167.360 168.475  1.00  0.00    -0.369 OA
ATOM      8  C   UNL     1     165.728 167.728 167.881  1.00  0.00     0.035 C 
ATOM      9  C   UNL     1     165.700 169.093 168.609  1.00  0.00     0.009 C 
ATOM     10  C   UNL     1     166.768 165.416 167.878  1.00  0.00     0.042 C 
ATOM     11  C   UNL     1     169.249 168.585 170.179  1.00  0.00     0.042 C 
ENDROOT
TORSDOF 0
ENDMDL
MODEL 9
REMARK VINA RESULT:    -3.687      1.419      2.873
REMARK INTER + INTRA:          -3.687
REMARK INTER:                  -3.687
REMARK INTRA:                   0.000
REMARK UNBOUND:                 0.000
REMARK SMILES CC1(C)O[C@]2(C)CC[C@H]1CC2
REMARK SMILES IDX 1 1 2 2 9 3 8 4 7 5 5 6 4 7 11 8 10 9 6 10 3 11
REMARK H PARENT
REMARK Flexibility Score: inf
ROOT
ATOM      1  C   UNL     1     165.768 168.748 167.884  1.00  0.00     0.042 C 
ATOM      2  C   UNL     1     166.732 168.261 168.988  1.00  0.00     0.066 C 
ATOM      3  C   UNL     1     166.181 166.949 169.670  1.00  0.00     0.021 C 
ATOM      4  C   UNL     1     167.209 166.479 170.727  1.00  0.00     0.009 C 
ATOM      5  C   UNL     1     168.608 166.391 170.072  1.00  0.00     0.035 C 
ATOM      6  C   UNL     1     168.501 166.716 168.555  1.00  0.00     0.066 C 
ATOM      7  O   UNL     1     168.020 168.051 168.393  1.00  0.00    -0.369 OA
ATOM      8  C   UNL     1     167.495 165.727 167.897  1.00  0.00     0.035 C 
ATOM      9  C   UNL     1     166.121 165.830 168.603  1.00  0.00     0.009 C 
ATOM     10  C   UNL     1     169.875 166.600 167.886  1.00  0.00     0.042 C 
ATOM     11  C   UNL     1     166.860 169.401 170.022  1.00  0.00     0.042 C 
ENDROOT
TORSDOF 0
ENDMDL
