MODEL 1
REMARK VINA RESULT:    -6.894      0.000      0.000
REMARK INTER + INTRA:          -8.491
REMARK INTER:                  -8.305
REMARK INTRA:                  -0.186
REMARK UNBOUND:                -0.186
REMARK SMILES O=c1c(O)c(-c2ccc(O)c(O)c2)oc2cc(O)cc(O)c12
REMARK SMILES IDX 5 1 3 2 2 3 1 4 22 5 20 6 19 7 17 8 16 9 15 10 14 11 6 12
REMARK SMILES IDX 7 13 8 14 9 15 13 16 11 17 10 18 12 20 4 22 21 24 18 26
REMARK H PARENT 10 19 12 21 4 23 21 25 18 27
REMARK Flexibility Score: inf
ROOT
ATOM      1  C   UNL     1      17.343  42.262  25.341  1.00  0.00     0.180 A 
ATOM      2  C   UNL     1      17.283  41.611  26.585  1.00  0.00     0.208 A 
ATOM      3  C   UNL     1      18.477  41.187  27.190  1.00  0.00     0.238 A 
ATOM      4  O   UNL     1      18.421  40.653  28.328  1.00  0.00    -0.285 OA
ATOM      5  C   UNL     1      19.713  41.403  26.536  1.00  0.00     0.111 A 
ATOM      6  C   UNL     1      20.980  40.980  27.038  1.00  0.00     0.134 A 
ATOM      7  C   UNL     1      22.151  41.364  26.370  1.00  0.00     0.093 A 
ATOM      8  C   UNL     1      22.095  42.100  25.184  1.00  0.00     0.123 A 
ATOM      9  C   UNL     1      20.860  42.467  24.656  1.00  0.00     0.094 A 
ATOM     10  C   UNL     1      19.678  42.131  25.317  1.00  0.00     0.146 A 
ATOM     11  O   UNL     1      18.523  42.509  24.784  1.00  0.00    -0.452 OA
ENDROOT
BRANCH   1  12
ATOM     12  C   UNL     1      16.125  42.717  24.630  1.00  0.00     0.025 A 
ATOM     13  C   UNL     1      15.838  44.085  24.473  1.00  0.00     0.016 A 
ATOM     14  C   UNL     1      14.671  44.491  23.820  1.00  0.00     0.051 A 
ATOM     15  C   UNL     1      13.771  43.539  23.327  1.00  0.00     0.157 A 
ATOM     16  C   UNL     1      15.207  41.767  24.153  1.00  0.00     0.062 A 
ATOM     17  C   UNL     1      14.037  42.175  23.497  1.00  0.00     0.158 A 
BRANCH  15  18
ATOM     18  O   UNL     1      12.606  43.940  22.674  1.00  0.00    -0.504 OA
ATOM     19  H   UNL     1      11.749  43.405  22.743  1.00  0.00     0.293 HD
ENDBRANCH  15  18
BRANCH  17  20
ATOM     20  O   UNL     1      13.134  41.229  23.012  1.00  0.00    -0.504 OA
ATOM     21  H   UNL     1      13.371  40.616  22.241  1.00  0.00     0.293 HD
ENDBRANCH  17  20
ENDBRANCH   1  12
BRANCH   2  22
ATOM     22  O   UNL     1      16.054  41.427  27.223  1.00  0.00    -0.502 OA
ATOM     23  H   UNL     1      15.199  41.230  26.715  1.00  0.00     0.293 HD
ENDBRANCH   2  22
BRANCH   6  24
ATOM     24  O   UNL     1      21.142  40.165  28.161  1.00  0.00    -0.507 OA
ATOM     25  H   UNL     1      20.656  40.289  29.036  1.00  0.00     0.293 HD
ENDBRANCH   6  24
BRANCH   8  26
ATOM     26  O   UNL     1      23.264  42.463  24.519  1.00  0.00    -0.508 OA
ATOM     27  H   UNL     1      23.688  41.860  23.823  1.00  0.00     0.293 HD
ENDBRANCH   8  26
TORSDOF 6
ENDMDL
MODEL 2
REMARK VINA RESULT:    -6.680      1.272      3.026
REMARK INTER + INTRA:          -8.233
REMARK INTER:                  -7.944
REMARK INTRA:                  -0.289
REMARK UNBOUND:                -0.186
REMARK SMILES O=c1c(O)c(-c2ccc(O)c(O)c2)oc2cc(O)cc(O)c12
REMARK SMILES IDX 5 1 3 2 2 3 1 4 22 5 20 6 19 7 17 8 16 9 15 10 14 11 6 12
REMARK SMILES IDX 7 13 8 14 9 15 13 16 11 17 10 18 12 20 4 22 21 24 18 26
REMARK H PARENT 10 19 12 21 4 23 21 25 18 27
REMARK Flexibility Score: inf
ROOT
ATOM      1  C   UNL     1      17.945  43.182  24.289  1.00  0.00     0.180 A 
ATOM      2  C   UNL     1      18.960  43.502  23.370  1.00  0.00     0.208 A 
ATOM      3  C   UNL     1      20.279  43.110  23.648  1.00  0.00     0.238 A 
ATOM      4  O   UNL     1      21.174  43.352  22.797  1.00  0.00    -0.285 OA
ATOM      5  C   UNL     1      20.570  42.419  24.849  1.00  0.00     0.111 A 
ATOM      6  C   UNL     1      21.876  42.009  25.252  1.00  0.00     0.134 A 
ATOM      7  C   UNL     1      22.029  41.217  26.397  1.00  0.00     0.093 A 
ATOM      8  C   UNL     1      20.930  40.874  27.188  1.00  0.00     0.123 A 
ATOM      9  C   UNL     1      19.658  41.319  26.834  1.00  0.00     0.094 A 
ATOM     10  C   UNL     1      19.469  42.080  25.679  1.00  0.00     0.146 A 
ATOM     11  O   UNL     1      18.240  42.475  25.374  1.00  0.00    -0.452 OA
ENDROOT
BRANCH   1  12
ATOM     12  C   UNL     1      16.535  43.582  24.076  1.00  0.00     0.025 A 
ATOM     13  C   UNL     1      16.109  44.905  24.294  1.00  0.00     0.016 A 
ATOM     14  C   UNL     1      14.768  45.254  24.111  1.00  0.00     0.051 A 
ATOM     15  C   UNL     1      13.834  44.286  23.722  1.00  0.00     0.157 A 
ATOM     16  C   UNL     1      15.589  42.611  23.708  1.00  0.00     0.062 A 
ATOM     17  C   UNL     1      14.243  42.962  23.524  1.00  0.00     0.158 A 
BRANCH  15  18
ATOM     18  O   UNL     1      12.495  44.630  23.538  1.00  0.00    -0.504 OA
ATOM     19  H   UNL     1      12.221  45.363  22.894  1.00  0.00     0.293 HD
ENDBRANCH  15  18
BRANCH  17  20
ATOM     20  O   UNL     1      13.309  41.999  23.144  1.00  0.00    -0.504 OA
ATOM     21  H   UNL     1      12.613  41.651  23.793  1.00  0.00     0.293 HD
ENDBRANCH  17  20
ENDBRANCH   1  12
BRANCH   2  22
ATOM     22  O   UNL     1      18.647  44.165  22.180  1.00  0.00    -0.502 OA
ATOM     23  H   UNL     1      17.815  44.734  22.076  1.00  0.00     0.293 HD
ENDBRANCH   2  22
BRANCH   6  24
ATOM     24  O   UNL     1      23.049  42.375  24.585  1.00  0.00    -0.507 OA
ATOM     25  H   UNL     1      23.454  43.298  24.599  1.00  0.00     0.293 HD
ENDBRANCH   6  24
BRANCH   8  26
ATOM     26  O   UNL     1      21.094  40.099  28.334  1.00  0.00    -0.508 OA
ATOM     27  H   UNL     1      20.396  39.423  28.621  1.00  0.00     0.293 HD
ENDBRANCH   8  26
TORSDOF 6
ENDMDL
MODEL 3
REMARK VINA RESULT:    -6.456      5.410      7.565
REMARK INTER + INTRA:          -7.963
REMARK INTER:                  -7.767
REMARK INTRA:                  -0.196
REMARK UNBOUND:                -0.186
REMARK SMILES O=c1c(O)c(-c2ccc(O)c(O)c2)oc2cc(O)cc(O)c12
REMARK SMILES IDX 5 1 3 2 2 3 1 4 22 5 20 6 19 7 17 8 16 9 15 10 14 11 6 12
REMARK SMILES IDX 7 13 8 14 9 15 13 16 11 17 10 18 12 20 4 22 21 24 18 26
REMARK H PARENT 10 19 12 21 4 23 21 25 18 27
REMARK Flexibility Score: inf
ROOT
ATOM      1  C   UNL     1      21.025  38.845  22.643  1.00  0.00     0.180 A 
ATOM      2  C   UNL     1      21.038  39.730  21.551  1.00  0.00     0.208 A 
ATOM      3  C   UNL     1      21.800  39.403  20.418  1.00  0.00     0.238 A 
ATOM      4  O   UNL     1      21.765  40.173  19.423  1.00  0.00    -0.285 OA
ATOM      5  C   UNL     1      22.553  38.205  20.397  1.00  0.00     0.111 A 
ATOM      6  C   UNL     1      23.391  37.793  19.319  1.00  0.00     0.134 A 
ATOM      7  C   UNL     1      23.986  36.525  19.352  1.00  0.00     0.093 A 
ATOM      8  C   UNL     1      23.825  35.682  20.453  1.00  0.00     0.123 A 
ATOM      9  C   UNL     1      23.056  36.100  21.537  1.00  0.00     0.094 A 
ATOM     10  C   UNL     1      22.421  37.343  21.518  1.00  0.00     0.146 A 
ATOM     11  O   UNL     1      21.689  37.698  22.567  1.00  0.00    -0.452 OA
ENDROOT
BRANCH   1  12
ATOM     12  C   UNL     1      20.265  39.132  23.881  1.00  0.00     0.025 A 
ATOM     13  C   UNL     1      19.121  38.390  24.226  1.00  0.00     0.016 A 
ATOM     14  C   UNL     1      18.405  38.694  25.387  1.00  0.00     0.051 A 
ATOM     15  C   UNL     1      18.813  39.750  26.211  1.00  0.00     0.157 A 
ATOM     16  C   UNL     1      20.656  40.204  24.701  1.00  0.00     0.062 A 
ATOM     17  C   UNL     1      19.938  40.508  25.866  1.00  0.00     0.158 A 
BRANCH  15  18
ATOM     18  O   UNL     1      18.102  40.055  27.371  1.00  0.00    -0.504 OA
ATOM     19  H   UNL     1      18.327  39.625  28.259  1.00  0.00     0.293 HD
ENDBRANCH  15  18
BRANCH  17  20
ATOM     20  O   UNL     1      20.338  41.563  26.685  1.00  0.00    -0.504 OA
ATOM     21  H   UNL     1      21.191  41.519  27.230  1.00  0.00     0.293 HD
ENDBRANCH  17  20
ENDBRANCH   1  12
BRANCH   2  22
ATOM     22  O   UNL     1      20.270  40.897  21.583  1.00  0.00    -0.502 OA
ATOM     23  H   UNL     1      20.491  41.678  22.191  1.00  0.00     0.293 HD
ENDBRANCH   2  22
BRANCH   6  24
ATOM     24  O   UNL     1      23.693  38.595  18.215  1.00  0.00    -0.507 OA
ATOM     25  H   UNL     1      24.508  38.486  17.631  1.00  0.00     0.293 HD
ENDBRANCH   6  24
BRANCH   8  26
ATOM     26  O   UNL     1      24.434  34.430  20.484  1.00  0.00    -0.508 OA
ATOM     27  H   UNL     1      24.009  33.621  20.044  1.00  0.00     0.293 HD
ENDBRANCH   8  26
TORSDOF 6
ENDMDL
MODEL 4
REMARK VINA RESULT:    -6.361      0.854      1.011
REMARK INTER + INTRA:          -7.849
REMARK INTER:                  -7.536
REMARK INTRA:                  -0.313
REMARK UNBOUND:                -0.186
REMARK SMILES O=c1c(O)c(-c2ccc(O)c(O)c2)oc2cc(O)cc(O)c12
REMARK SMILES IDX 5 1 3 2 2 3 1 4 22 5 20 6 19 7 17 8 16 9 15 10 14 11 6 12
REMARK SMILES IDX 7 13 8 14 9 15 13 16 11 17 10 18 12 20 4 22 21 24 18 26
REMARK H PARENT 10 19 12 21 4 23 21 25 18 27
REMARK Flexibility Score: inf
ROOT
ATOM      1  C   UNL     1      17.462  43.092  25.616  1.00  0.00     0.180 A 
ATOM      2  C   UNL     1      17.383  42.408  26.841  1.00  0.00     0.208 A 
ATOM      3  C   UNL     1      18.529  41.766  27.337  1.00  0.00     0.238 A 
ATOM      4  O   UNL     1      18.468  41.200  28.459  1.00  0.00    -0.285 OA
ATOM      5  C   UNL     1      19.734  41.801  26.594  1.00  0.00     0.111 A 
ATOM      6  C   UNL     1      20.944  41.153  26.981  1.00  0.00     0.134 A 
ATOM      7  C   UNL     1      22.111  41.365  26.235  1.00  0.00     0.093 A 
ATOM      8  C   UNL     1      22.094  42.150  25.080  1.00  0.00     0.123 A 
ATOM      9  C   UNL     1      20.904  42.740  24.662  1.00  0.00     0.094 A 
ATOM     10  C   UNL     1      19.733  42.576  25.404  1.00  0.00     0.146 A 
ATOM     11  O   UNL     1      18.623  43.164  24.976  1.00  0.00    -0.452 OA
ENDROOT
BRANCH   1  12
ATOM     12  C   UNL     1      16.290  43.773  25.018  1.00  0.00     0.025 A 
ATOM     13  C   UNL     1      16.053  45.144  25.231  1.00  0.00     0.016 A 
ATOM     14  C   UNL     1      14.928  45.760  24.676  1.00  0.00     0.051 A 
ATOM     15  C   UNL     1      14.019  45.015  23.914  1.00  0.00     0.157 A 
ATOM     16  C   UNL     1      15.363  43.028  24.271  1.00  0.00     0.062 A 
ATOM     17  C   UNL     1      14.235  43.646  23.714  1.00  0.00     0.158 A 
BRANCH  15  18
ATOM     18  O   UNL     1      12.896  45.627  23.358  1.00  0.00    -0.504 OA
ATOM     19  H   UNL     1      12.605  45.435  22.408  1.00  0.00     0.293 HD
ENDBRANCH  15  18
BRANCH  17  20
ATOM     20  O   UNL     1      13.324  42.906  22.961  1.00  0.00    -0.504 OA
ATOM     21  H   UNL     1      12.457  43.312  22.628  1.00  0.00     0.293 HD
ENDBRANCH  17  20
ENDBRANCH   1  12
BRANCH   2  22
ATOM     22  O   UNL     1      16.191  42.403  27.569  1.00  0.00    -0.502 OA
ATOM     23  H   UNL     1      16.147  42.668  28.546  1.00  0.00     0.293 HD
ENDBRANCH   2  22
BRANCH   6  24
ATOM     24  O   UNL     1      21.047  40.274  28.064  1.00  0.00    -0.507 OA
ATOM     25  H   UNL     1      21.117  40.558  29.029  1.00  0.00     0.293 HD
ENDBRANCH   6  24
BRANCH   8  26
ATOM     26  O   UNL     1      23.256  42.342  24.336  1.00  0.00    -0.508 OA
ATOM     27  H   UNL     1      23.880  43.120  24.517  1.00  0.00     0.293 HD
ENDBRANCH   8  26
TORSDOF 6
ENDMDL
MODEL 5
REMARK VINA RESULT:    -6.289      5.312      7.981
REMARK INTER + INTRA:          -7.761
REMARK INTER:                  -7.459
REMARK INTRA:                  -0.302
REMARK UNBOUND:                -0.186
REMARK SMILES O=c1c(O)c(-c2ccc(O)c(O)c2)oc2cc(O)cc(O)c12
REMARK SMILES IDX 5 1 3 2 2 3 1 4 22 5 20 6 19 7 17 8 16 9 15 10 14 11 6 12
REMARK SMILES IDX 7 13 8 14 9 15 13 16 11 17 10 18 12 20 4 22 21 24 18 26
REMARK H PARENT 10 19 12 21 4 23 21 25 18 27
REMARK Flexibility Score: inf
ROOT
ATOM      1  C   UNL     1      20.757  38.570  21.803  1.00  0.00     0.180 A 
ATOM      2  C   UNL     1      19.395  38.398  21.506  1.00  0.00     0.208 A 
ATOM      3  C   UNL     1      18.434  38.867  22.416  1.00  0.00     0.238 A 
ATOM      4  O   UNL     1      17.216  38.758  22.120  1.00  0.00    -0.285 OA
ATOM      5  C   UNL     1      18.848  39.488  23.619  1.00  0.00     0.111 A 
ATOM      6  C   UNL     1      17.962  39.965  24.631  1.00  0.00     0.134 A 
ATOM      7  C   UNL     1      18.479  40.680  25.720  1.00  0.00     0.093 A 
ATOM      8  C   UNL     1      19.854  40.878  25.865  1.00  0.00     0.123 A 
ATOM      9  C   UNL     1      20.730  40.365  24.912  1.00  0.00     0.094 A 
ATOM     10  C   UNL     1      20.244  39.679  23.798  1.00  0.00     0.146 A 
ATOM     11  O   UNL     1      21.113  39.215  22.908  1.00  0.00    -0.452 OA
ENDROOT
BRANCH   1  12
ATOM     12  C   UNL     1      21.828  38.081  20.905  1.00  0.00     0.025 A 
ATOM     13  C   UNL     1      22.505  36.875  21.163  1.00  0.00     0.016 A 
ATOM     14  C   UNL     1      23.530  36.445  20.315  1.00  0.00     0.051 A 
ATOM     15  C   UNL     1      23.900  37.218  19.207  1.00  0.00     0.157 A 
ATOM     16  C   UNL     1      22.220  38.862  19.805  1.00  0.00     0.062 A 
ATOM     17  C   UNL     1      23.247  38.430  18.954  1.00  0.00     0.158 A 
BRANCH  15  18
ATOM     18  O   UNL     1      24.920  36.792  18.358  1.00  0.00    -0.504 OA
ATOM     19  H   UNL     1      24.727  36.233  17.536  1.00  0.00     0.293 HD
ENDBRANCH  15  18
BRANCH  17  20
ATOM     20  O   UNL     1      23.623  39.201  17.855  1.00  0.00    -0.504 OA
ATOM     21  H   UNL     1      24.239  40.001  17.954  1.00  0.00     0.293 HD
ENDBRANCH  17  20
ENDBRANCH   1  12
BRANCH   2  22
ATOM     22  O   UNL     1      19.007  37.802  20.303  1.00  0.00    -0.502 OA
ATOM     23  H   UNL     1      18.118  37.998  19.859  1.00  0.00     0.293 HD
ENDBRANCH   2  22
BRANCH   6  24
ATOM     24  O   UNL     1      16.583  39.740  24.630  1.00  0.00    -0.507 OA
ATOM     25  H   UNL     1      16.013  39.671  23.801  1.00  0.00     0.293 HD
ENDBRANCH   6  24
BRANCH   8  26
ATOM     26  O   UNL     1      20.359  41.576  26.959  1.00  0.00    -0.508 OA
ATOM     27  H   UNL     1      21.032  42.326  26.846  1.00  0.00     0.293 HD
ENDBRANCH   8  26
TORSDOF 6
ENDMDL
MODEL 6
REMARK VINA RESULT:    -6.245      2.961      6.426
REMARK INTER + INTRA:          -7.708
REMARK INTER:                  -7.427
REMARK INTRA:                  -0.282
REMARK UNBOUND:                -0.186
REMARK SMILES O=c1c(O)c(-c2ccc(O)c(O)c2)oc2cc(O)cc(O)c12
REMARK SMILES IDX 5 1 3 2 2 3 1 4 22 5 20 6 19 7 17 8 16 9 15 10 14 11 6 12
REMARK SMILES IDX 7 13 8 14 9 15 13 16 11 17 10 18 12 20 4 22 21 24 18 26
REMARK H PARENT 10 19 12 21 4 23 21 25 18 27
REMARK Flexibility Score: inf
ROOT
ATOM      1  C   UNL     1      20.304  40.993  23.799  1.00  0.00     0.180 A 
ATOM      2  C   UNL     1      20.726  40.701  25.107  1.00  0.00     0.208 A 
ATOM      3  C   UNL     1      19.787  40.737  26.150  1.00  0.00     0.238 A 
ATOM      4  O   UNL     1      20.159  40.422  27.310  1.00  0.00    -0.285 OA
ATOM      5  C   UNL     1      18.442  41.082  25.875  1.00  0.00     0.111 A 
ATOM      6  C   UNL     1      17.415  41.188  26.860  1.00  0.00     0.134 A 
ATOM      7  C   UNL     1      16.091  41.407  26.457  1.00  0.00     0.093 A 
ATOM      8  C   UNL     1      15.769  41.588  25.110  1.00  0.00     0.123 A 
ATOM      9  C   UNL     1      16.774  41.544  24.147  1.00  0.00     0.094 A 
ATOM     10  C   UNL     1      18.097  41.292  24.514  1.00  0.00     0.146 A 
ATOM     11  O   UNL     1      19.022  41.248  23.563  1.00  0.00    -0.452 OA
ENDROOT
BRANCH   1  12
ATOM     12  C   UNL     1      21.240  40.999  22.651  1.00  0.00     0.025 A 
ATOM     13  C   UNL     1      22.147  42.056  22.452  1.00  0.00     0.016 A 
ATOM     14  C   UNL     1      23.005  42.052  21.349  1.00  0.00     0.051 A 
ATOM     15  C   UNL     1      22.959  41.002  20.423  1.00  0.00     0.157 A 
ATOM     16  C   UNL     1      21.184  39.960  21.708  1.00  0.00     0.062 A 
ATOM     17  C   UNL     1      22.045  39.956  20.601  1.00  0.00     0.158 A 
BRANCH  15  18
ATOM     18  O   UNL     1      23.813  40.995  19.322  1.00  0.00    -0.504 OA
ATOM     19  H   UNL     1      24.350  40.173  19.073  1.00  0.00     0.293 HD
ENDBRANCH  15  18
BRANCH  17  20
ATOM     20  O   UNL     1      21.997  38.917  19.673  1.00  0.00    -0.504 OA
ATOM     21  H   UNL     1      22.776  38.720  19.055  1.00  0.00     0.293 HD
ENDBRANCH  17  20
ENDBRANCH   1  12
BRANCH   2  22
ATOM     22  O   UNL     1      22.054  40.342  25.354  1.00  0.00    -0.502 OA
ATOM     23  H   UNL     1      22.677  40.022  24.622  1.00  0.00     0.293 HD
ENDBRANCH   2  22
BRANCH   6  24
ATOM     24  O   UNL     1      17.643  41.116  28.237  1.00  0.00    -0.507 OA
ATOM     25  H   UNL     1      17.273  40.401  28.844  1.00  0.00     0.293 HD
ENDBRANCH   6  24
BRANCH   8  26
ATOM     26  O   UNL     1      14.452  41.822  24.720  1.00  0.00    -0.508 OA
ATOM     27  H   UNL     1      14.208  42.594  24.110  1.00  0.00     0.293 HD
ENDBRANCH   8  26
TORSDOF 6
ENDMDL
MODEL 7
REMARK VINA RESULT:    -6.226      7.692     10.704
REMARK INTER + INTRA:          -7.686
REMARK INTER:                  -7.376
REMARK INTRA:                  -0.310
REMARK UNBOUND:                -0.186
REMARK SMILES O=c1c(O)c(-c2ccc(O)c(O)c2)oc2cc(O)cc(O)c12
REMARK SMILES IDX 5 1 3 2 2 3 1 4 22 5 20 6 19 7 17 8 16 9 15 10 14 11 6 12
REMARK SMILES IDX 7 13 8 14 9 15 13 16 11 17 10 18 12 20 4 22 21 24 18 26
REMARK H PARENT 10 19 12 21 4 23 21 25 18 27
REMARK Flexibility Score: inf
ROOT
ATOM      1  C   UNL     1      13.631  38.733  17.112  1.00  0.00     0.180 A 
ATOM      2  C   UNL     1      14.072  39.863  17.821  1.00  0.00     0.208 A 
ATOM      3  C   UNL     1      13.974  39.869  19.222  1.00  0.00     0.238 A 
ATOM      4  O   UNL     1      14.420  40.861  19.855  1.00  0.00    -0.285 OA
ATOM      5  C   UNL     1      13.419  38.753  19.894  1.00  0.00     0.111 A 
ATOM      6  C   UNL     1      13.234  38.668  21.306  1.00  0.00     0.134 A 
ATOM      7  C   UNL     1      12.798  37.463  21.873  1.00  0.00     0.093 A 
ATOM      8  C   UNL     1      12.478  36.364  21.073  1.00  0.00     0.123 A 
ATOM      9  C   UNL     1      12.600  36.458  19.689  1.00  0.00     0.094 A 
ATOM     10  C   UNL     1      13.066  37.633  19.097  1.00  0.00     0.146 A 
ATOM     11  O   UNL     1      13.177  37.676  17.774  1.00  0.00    -0.452 OA
ENDROOT
BRANCH   1  12
ATOM     12  C   UNL     1      13.680  38.662  15.633  1.00  0.00     0.025 A 
ATOM     13  C   UNL     1      14.765  38.064  14.965  1.00  0.00     0.016 A 
ATOM     14  C   UNL     1      14.803  38.030  13.569  1.00  0.00     0.051 A 
ATOM     15  C   UNL     1      13.767  38.603  12.821  1.00  0.00     0.157 A 
ATOM     16  C   UNL     1      12.656  39.255  14.877  1.00  0.00     0.062 A 
ATOM     17  C   UNL     1      12.694  39.220  13.475  1.00  0.00     0.158 A 
BRANCH  15  18
ATOM     18  O   UNL     1      13.800  38.570  11.427  1.00  0.00    -0.504 OA
ATOM     19  H   UNL     1      14.083  39.378  10.885  1.00  0.00     0.293 HD
ENDBRANCH  15  18
BRANCH  17  20
ATOM     20  O   UNL     1      11.668  39.797  12.728  1.00  0.00    -0.504 OA
ATOM     21  H   UNL     1      10.990  40.422  13.150  1.00  0.00     0.293 HD
ENDBRANCH  17  20
ENDBRANCH   1  12
BRANCH   2  22
ATOM     22  O   UNL     1      14.636  40.945  17.140  1.00  0.00    -0.502 OA
ATOM     23  H   UNL     1      14.691  40.984  16.129  1.00  0.00     0.293 HD
ENDBRANCH   2  22
BRANCH   6  24
ATOM     24  O   UNL     1      13.435  39.735  22.185  1.00  0.00    -0.507 OA
ATOM     25  H   UNL     1      14.336  40.120  22.426  1.00  0.00     0.293 HD
ENDBRANCH   6  24
BRANCH   8  26
ATOM     26  O   UNL     1      12.029  35.176  21.645  1.00  0.00    -0.508 OA
ATOM     27  H   UNL     1      12.673  34.441  21.918  1.00  0.00     0.293 HD
ENDBRANCH   8  26
TORSDOF 6
ENDMDL
MODEL 8
REMARK VINA RESULT:    -6.094     10.583     12.787
REMARK INTER + INTRA:          -7.527
REMARK INTER:                  -7.337
REMARK INTRA:                  -0.189
REMARK UNBOUND:                -0.186
REMARK SMILES O=c1c(O)c(-c2ccc(O)c(O)c2)oc2cc(O)cc(O)c12
REMARK SMILES IDX 5 1 3 2 2 3 1 4 22 5 20 6 19 7 17 8 16 9 15 10 14 11 6 12
REMARK SMILES IDX 7 13 8 14 9 15 13 16 11 17 10 18 12 20 4 22 21 24 18 26
REMARK H PARENT 10 19 12 21 4 23 21 25 18 27
REMARK Flexibility Score: inf
ROOT
ATOM      1  C   UNL     1      12.889  38.561  13.922  1.00  0.00     0.180 A 
ATOM      2  C   UNL     1      12.806  39.277  15.127  1.00  0.00     0.208 A 
ATOM      3  C   UNL     1      13.858  39.178  16.052  1.00  0.00     0.238 A 
ATOM      4  O   UNL     1      13.804  39.864  17.106  1.00  0.00    -0.285 OA
ATOM      5  C   UNL     1      14.970  38.350  15.767  1.00  0.00     0.111 A 
ATOM      6  C   UNL     1      16.074  38.143  16.648  1.00  0.00     0.134 A 
ATOM      7  C   UNL     1      17.181  37.407  16.207  1.00  0.00     0.093 A 
ATOM      8  C   UNL     1      17.196  36.816  14.942  1.00  0.00     0.123 A 
ATOM      9  C   UNL     1      16.098  36.964  14.097  1.00  0.00     0.094 A 
ATOM     10  C   UNL     1      14.995  37.722  14.494  1.00  0.00     0.146 A 
ATOM     11  O   UNL     1      13.975  37.845  13.654  1.00  0.00    -0.452 OA
ENDROOT
BRANCH   1  12
ATOM     12  C   UNL     1      11.809  38.597  12.908  1.00  0.00     0.025 A 
ATOM     13  C   UNL     1      11.993  39.229  11.664  1.00  0.00     0.016 A 
ATOM     14  C   UNL     1      10.953  39.272  10.733  1.00  0.00     0.051 A 
ATOM     15  C   UNL     1       9.711  38.697  11.035  1.00  0.00     0.157 A 
ATOM     16  C   UNL     1      10.555  38.043  13.213  1.00  0.00     0.062 A 
ATOM     17  C   UNL     1       9.511  38.085  12.277  1.00  0.00     0.158 A 
BRANCH  15  18
ATOM     18  O   UNL     1       8.671  38.738  10.108  1.00  0.00    -0.504 OA
ATOM     19  H   UNL     1       8.415  37.923   9.564  1.00  0.00     0.293 HD
ENDBRANCH  15  18
BRANCH  17  20
ATOM     20  O   UNL     1       8.272  37.521  12.578  1.00  0.00    -0.504 OA
ATOM     21  H   UNL     1       7.674  37.138  11.855  1.00  0.00     0.293 HD
ENDBRANCH  17  20
ENDBRANCH   1  12
BRANCH   2  22
ATOM     22  O   UNL     1      11.710  40.106  15.380  1.00  0.00    -0.502 OA
ATOM     23  H   UNL     1      11.055  39.930  16.133  1.00  0.00     0.293 HD
ENDBRANCH   2  22
BRANCH   6  24
ATOM     24  O   UNL     1      16.119  38.610  17.965  1.00  0.00    -0.507 OA
ATOM     25  H   UNL     1      15.375  39.114  18.421  1.00  0.00     0.293 HD
ENDBRANCH   6  24
BRANCH   8  26
ATOM     26  O   UNL     1      18.294  36.072  14.518  1.00  0.00    -0.508 OA
ATOM     27  H   UNL     1      18.255  35.061  14.445  1.00  0.00     0.293 HD
ENDBRANCH   8  26
TORSDOF 6
ENDMDL
MODEL 9
REMARK VINA RESULT:    -6.059     10.472     14.292
REMARK INTER + INTRA:          -7.484
REMARK INTER:                  -7.195
REMARK INTRA:                  -0.290
REMARK UNBOUND:                -0.186
REMARK SMILES O=c1c(O)c(-c2ccc(O)c(O)c2)oc2cc(O)cc(O)c12
REMARK SMILES IDX 5 1 3 2 2 3 1 4 22 5 20 6 19 7 17 8 16 9 15 10 14 11 6 12
REMARK SMILES IDX 7 13 8 14 9 15 13 16 11 17 10 18 12 20 4 22 21 24 18 26
REMARK H PARENT 10 19 12 21 4 23 21 25 18 27
REMARK Flexibility Score: inf
ROOT
ATOM      1  C   UNL     1      12.562  38.043  14.904  1.00  0.00     0.180 A 
ATOM      2  C   UNL     1      13.750  38.374  14.231  1.00  0.00     0.208 A 
ATOM      3  C   UNL     1      13.699  38.661  12.858  1.00  0.00     0.238 A 
ATOM      4  O   UNL     1      14.756  39.009  12.272  1.00  0.00    -0.285 OA
ATOM      5  C   UNL     1      12.462  38.594  12.171  1.00  0.00     0.111 A 
ATOM      6  C   UNL     1      12.300  38.825  10.772  1.00  0.00     0.134 A 
ATOM      7  C   UNL     1      11.011  38.862  10.223  1.00  0.00     0.093 A 
ATOM      8  C   UNL     1       9.885  38.612  11.012  1.00  0.00     0.123 A 
ATOM      9  C   UNL     1      10.039  38.328  12.366  1.00  0.00     0.094 A 
ATOM     10  C   UNL     1      11.307  38.320  12.949  1.00  0.00     0.146 A 
ATOM     11  O   UNL     1      11.408  38.054  14.246  1.00  0.00    -0.452 OA
ENDROOT
BRANCH   1  12
ATOM     12  C   UNL     1      12.540  37.706  16.346  1.00  0.00     0.025 A 
ATOM     13  C   UNL     1      12.173  38.659  17.315  1.00  0.00     0.016 A 
ATOM     14  C   UNL     1      12.184  38.326  18.672  1.00  0.00     0.051 A 
ATOM     15  C   UNL     1      12.571  37.044  19.081  1.00  0.00     0.157 A 
ATOM     16  C   UNL     1      12.949  36.430  16.765  1.00  0.00     0.062 A 
ATOM     17  C   UNL     1      12.958  36.095  18.127  1.00  0.00     0.158 A 
BRANCH  15  18
ATOM     18  O   UNL     1      12.582  36.708  20.434  1.00  0.00    -0.504 OA
ATOM     19  H   UNL     1      11.753  36.359  20.899  1.00  0.00     0.293 HD
ENDBRANCH  15  18
BRANCH  17  20
ATOM     20  O   UNL     1      13.352  34.823  18.538  1.00  0.00    -0.504 OA
ATOM     21  H   UNL     1      14.187  34.381  18.172  1.00  0.00     0.293 HD
ENDBRANCH  17  20
ENDBRANCH   1  12
BRANCH   2  22
ATOM     22  O   UNL     1      14.956  38.455  14.933  1.00  0.00    -0.502 OA
ATOM     23  H   UNL     1      15.777  37.924  14.669  1.00  0.00     0.293 HD
ENDBRANCH   2  22
BRANCH   6  24
ATOM     24  O   UNL     1      13.362  38.993   9.880  1.00  0.00    -0.507 OA
ATOM     25  H   UNL     1      14.323  38.765  10.082  1.00  0.00     0.293 HD
ENDBRANCH   6  24
BRANCH   8  26
ATOM     26  O   UNL     1       8.609  38.635  10.454  1.00  0.00    -0.508 OA
ATOM     27  H   UNL     1       7.843  38.108  10.859  1.00  0.00     0.293 HD
ENDBRANCH   8  26
TORSDOF 6
ENDMDL
