MODEL 1
REMARK VINA RESULT:    27.060      0.000      0.000
REMARK INTER + INTRA:          32.275
REMARK INTER:                  32.597
REMARK INTRA:                  -0.322
REMARK UNBOUND:                -0.322
REMARK SMILES O=c1c(O)c(-c2ccc(O)c(O)c2)oc2cc(O)cc(O)c12
REMARK SMILES IDX 5 1 3 2 2 3 1 4 22 5 20 6 19 7 17 8 16 9 15 10 14 11 6 12
REMARK SMILES IDX 7 13 8 14 9 15 13 16 11 17 10 18 12 20 4 22 21 24 18 26
REMARK H PARENT 10 19 12 21 4 23 21 25 18 27
REMARK Flexibility Score: inf
ROOT
ATOM      1  C   UNL     1      17.729  95.641   8.640  1.00  0.00     0.180 A 
ATOM      2  C   UNL     1      16.378  95.608   9.028  1.00  0.00     0.208 A 
ATOM      3  C   UNL     1      15.728  96.814   9.333  1.00  0.00     0.238 A 
ATOM      4  O   UNL     1      14.541  96.770   9.751  1.00  0.00    -0.285 OA
ATOM      5  C   UNL     1      16.417  98.044   9.191  1.00  0.00     0.111 A 
ATOM      6  C   UNL     1      15.844  99.329   9.430  1.00  0.00     0.134 A 
ATOM      7  C   UNL     1      16.653 100.470   9.361  1.00  0.00     0.093 A 
ATOM      8  C   UNL     1      17.999 100.378   9.001  1.00  0.00     0.123 A 
ATOM      9  C   UNL     1      18.554  99.134   8.713  1.00  0.00     0.094 A 
ATOM     10  C   UNL     1      17.782  97.973   8.810  1.00  0.00     0.146 A 
ATOM     11  O   UNL     1      18.359  96.806   8.548  1.00  0.00    -0.452 OA
ENDROOT
BRANCH   1  12
ATOM     12  C   UNL     1      18.487  94.411   8.317  1.00  0.00     0.025 A 
ATOM     13  C   UNL     1      18.534  93.902   7.008  1.00  0.00     0.016 A 
ATOM     14  C   UNL     1      19.235  92.726   6.731  1.00  0.00     0.051 A 
ATOM     15  C   UNL     1      19.887  92.034   7.760  1.00  0.00     0.157 A 
ATOM     16  C   UNL     1      19.123  93.700   9.348  1.00  0.00     0.062 A 
ATOM     17  C   UNL     1      19.827  92.523   9.075  1.00  0.00     0.158 A 
BRANCH  15  18
ATOM     18  O   UNL     1      20.587  90.861   7.480  1.00  0.00    -0.504 OA
ATOM     19  H   UNL     1      21.600  90.838   7.468  1.00  0.00     0.293 HD
ENDBRANCH  15  18
BRANCH  17  20
ATOM     20  O   UNL     1      20.458  91.852  10.123  1.00  0.00    -0.504 OA
ATOM     21  H   UNL     1      21.243  91.231   9.969  1.00  0.00     0.293 HD
ENDBRANCH  17  20
ENDBRANCH   1  12
BRANCH   2  22
ATOM     22  O   UNL     1      15.693  94.391   9.087  1.00  0.00    -0.502 OA
ATOM     23  H   UNL     1      15.995  93.626   9.678  1.00  0.00     0.293 HD
ENDBRANCH   2  22
BRANCH   6  24
ATOM     24  O   UNL     1      14.490  99.543   9.709  1.00  0.00    -0.507 OA
ATOM     25  H   UNL     1      13.764  99.634   9.015  1.00  0.00     0.293 HD
ENDBRANCH   6  24
BRANCH   8  26
ATOM     26  O   UNL     1      18.793 101.520   8.919  1.00  0.00    -0.508 OA
ATOM     27  H   UNL     1      19.720 101.552   9.325  1.00  0.00     0.293 HD
ENDBRANCH   8  26
TORSDOF 6
ENDMDL
