MODEL 1
REMARK VINA RESULT:    -6.411      0.000      0.000
REMARK INTER + INTRA:          -7.896
REMARK INTER:                  -7.723
REMARK INTRA:                  -0.173
REMARK UNBOUND:                -0.173
REMARK SMILES O=c1c(O)c(-c2ccc(O)c(O)c2)oc2cc(O)cc(O)c12
REMARK SMILES IDX 5 1 3 2 2 3 1 4 22 5 20 6 19 7 17 8 16 9 15 10 14 11 6 12
REMARK SMILES IDX 7 13 8 14 9 15 13 16 11 17 10 18 12 20 4 22 21 24 18 26
REMARK H PARENT 10 19 12 21 4 23 21 25 18 27
REMARK Flexibility Score: inf
ROOT
ATOM      1  C   UNL     1      -5.919  -6.343 148.689  1.00  0.00     0.180 A 
ATOM      2  C   UNL     1      -6.839  -5.299 148.493  1.00  0.00     0.208 A 
ATOM      3  C   UNL     1      -6.492  -4.000 148.895  1.00  0.00     0.238 A 
ATOM      4  O   UNL     1      -7.297  -3.060 148.668  1.00  0.00    -0.285 OA
ATOM      5  C   UNL     1      -5.235  -3.764 149.505  1.00  0.00     0.111 A 
ATOM      6  C   UNL     1      -4.794  -2.495 149.988  1.00  0.00     0.134 A 
ATOM      7  C   UNL     1      -3.481  -2.351 150.453  1.00  0.00     0.093 A 
ATOM      8  C   UNL     1      -2.615  -3.445 150.513  1.00  0.00     0.123 A 
ATOM      9  C   UNL     1      -3.055  -4.700 150.099  1.00  0.00     0.094 A 
ATOM     10  C   UNL     1      -4.347  -4.867 149.596  1.00  0.00     0.146 A 
ATOM     11  O   UNL     1      -4.722  -6.078 149.203  1.00  0.00    -0.452 OA
ENDROOT
BRANCH   1  12
ATOM     12  C   UNL     1      -6.223  -7.743 148.313  1.00  0.00     0.025 A 
ATOM     13  C   UNL     1      -6.399  -8.116 146.969  1.00  0.00     0.016 A 
ATOM     14  C   UNL     1      -6.710  -9.439 146.640  1.00  0.00     0.051 A 
ATOM     15  C   UNL     1      -6.862 -10.402 147.645  1.00  0.00     0.157 A 
ATOM     16  C   UNL     1      -6.397  -8.707 149.319  1.00  0.00     0.062 A 
ATOM     17  C   UNL     1      -6.707 -10.033 148.992  1.00  0.00     0.158 A 
BRANCH  15  18
ATOM     18  O   UNL     1      -7.169 -11.721 147.312  1.00  0.00    -0.504 OA
ATOM     19  H   UNL     1      -7.492 -11.972 146.386  1.00  0.00     0.293 HD
ENDBRANCH  15  18
BRANCH  17  20
ATOM     20  O   UNL     1      -6.858 -10.966 150.017  1.00  0.00    -0.504 OA
ATOM     21  H   UNL     1      -7.767 -11.314 150.299  1.00  0.00     0.293 HD
ENDBRANCH  17  20
ENDBRANCH   1  12
BRANCH   2  22
ATOM     22  O   UNL     1      -8.065  -5.550 147.870  1.00  0.00    -0.502 OA
ATOM     23  H   UNL     1      -8.239  -6.391 147.332  1.00  0.00     0.293 HD
ENDBRANCH   2  22
BRANCH   6  24
ATOM     24  O   UNL     1      -5.608  -1.361 150.058  1.00  0.00    -0.507 OA
ATOM     25  H   UNL     1      -6.608  -1.378 150.196  1.00  0.00     0.293 HD
ENDBRANCH   6  24
BRANCH   8  26
ATOM     26  O   UNL     1      -1.315  -3.297 150.992  1.00  0.00    -0.508 OA
ATOM     27  H   UNL     1      -1.038  -2.483 151.530  1.00  0.00     0.293 HD
ENDBRANCH   8  26
TORSDOF 6
ENDMDL
MODEL 2
REMARK VINA RESULT:    -6.320     10.666     13.175
REMARK INTER + INTRA:          -7.786
REMARK INTER:                  -7.545
REMARK INTRA:                  -0.241
REMARK UNBOUND:                -0.173
REMARK SMILES O=c1c(O)c(-c2ccc(O)c(O)c2)oc2cc(O)cc(O)c12
REMARK SMILES IDX 5 1 3 2 2 3 1 4 22 5 20 6 19 7 17 8 16 9 15 10 14 11 6 12
REMARK SMILES IDX 7 13 8 14 9 15 13 16 11 17 10 18 12 20 4 22 21 24 18 26
REMARK H PARENT 10 19 12 21 4 23 21 25 18 27
REMARK Flexibility Score: inf
ROOT
ATOM      1  C   UNL     1     -17.785  -7.241 147.629  1.00  0.00     0.180 A 
ATOM      2  C   UNL     1     -18.307  -8.515 147.913  1.00  0.00     0.208 A 
ATOM      3  C   UNL     1     -17.424  -9.595 148.067  1.00  0.00     0.238 A 
ATOM      4  O   UNL     1     -17.893 -10.722 148.374  1.00  0.00    -0.285 OA
ATOM      5  C   UNL     1     -16.030  -9.391 147.919  1.00  0.00     0.111 A 
ATOM      6  C   UNL     1     -15.046 -10.421 148.014  1.00  0.00     0.134 A 
ATOM      7  C   UNL     1     -13.688 -10.084 147.981  1.00  0.00     0.093 A 
ATOM      8  C   UNL     1     -13.279  -8.762 147.790  1.00  0.00     0.123 A 
ATOM      9  C   UNL     1     -14.232  -7.758 147.637  1.00  0.00     0.094 A 
ATOM     10  C   UNL     1     -15.595  -8.059 147.702  1.00  0.00     0.146 A 
ATOM     11  O   UNL     1     -16.469  -7.070 147.562  1.00  0.00    -0.452 OA
ENDROOT
BRANCH   1  12
ATOM     12  C   UNL     1     -18.654  -6.059 147.430  1.00  0.00     0.025 A 
ATOM     13  C   UNL     1     -18.831  -5.489 146.157  1.00  0.00     0.016 A 
ATOM     14  C   UNL     1     -19.637  -4.358 145.997  1.00  0.00     0.051 A 
ATOM     15  C   UNL     1     -20.266  -3.775 147.103  1.00  0.00     0.157 A 
ATOM     16  C   UNL     1     -19.270  -5.458 148.539  1.00  0.00     0.062 A 
ATOM     17  C   UNL     1     -20.078  -4.326 148.382  1.00  0.00     0.158 A 
BRANCH  15  18
ATOM     18  O   UNL     1     -21.072  -2.648 146.939  1.00  0.00    -0.504 OA
ATOM     19  H   UNL     1     -20.957  -1.825 147.519  1.00  0.00     0.293 HD
ENDBRANCH  15  18
BRANCH  17  20
ATOM     20  O   UNL     1     -20.685  -3.765 149.506  1.00  0.00    -0.504 OA
ATOM     21  H   UNL     1     -21.609  -4.043 149.814  1.00  0.00     0.293 HD
ENDBRANCH  17  20
ENDBRANCH   1  12
BRANCH   2  22
ATOM     22  O   UNL     1     -19.685  -8.689 148.077  1.00  0.00    -0.502 OA
ATOM     23  H   UNL     1     -20.131  -9.595 147.998  1.00  0.00     0.293 HD
ENDBRANCH   2  22
BRANCH   6  24
ATOM     24  O   UNL     1     -15.349 -11.782 148.113  1.00  0.00    -0.507 OA
ATOM     25  H   UNL     1     -14.987 -12.498 147.501  1.00  0.00     0.293 HD
ENDBRANCH   6  24
BRANCH   8  26
ATOM     26  O   UNL     1     -11.925  -8.436 147.742  1.00  0.00    -0.508 OA
ATOM     27  H   UNL     1     -11.539  -7.691 148.311  1.00  0.00     0.293 HD
ENDBRANCH   8  26
TORSDOF 6
ENDMDL
MODEL 3
REMARK VINA RESULT:    -6.048     14.704     15.968
REMARK INTER + INTRA:          -7.458
REMARK INTER:                  -7.354
REMARK INTRA:                  -0.104
REMARK UNBOUND:                -0.173
REMARK SMILES O=c1c(O)c(-c2ccc(O)c(O)c2)oc2cc(O)cc(O)c12
REMARK SMILES IDX 5 1 3 2 2 3 1 4 22 5 20 6 19 7 17 8 16 9 15 10 14 11 6 12
REMARK SMILES IDX 7 13 8 14 9 15 13 16 11 17 10 18 12 20 4 22 21 24 18 26
REMARK H PARENT 10 19 12 21 4 23 21 25 18 27
REMARK Flexibility Score: inf
ROOT
ATOM      1  C   UNL     1      -5.946 -11.041 163.533  1.00  0.00     0.180 A 
ATOM      2  C   UNL     1      -5.283  -9.804 163.463  1.00  0.00     0.208 A 
ATOM      3  C   UNL     1      -3.882  -9.786 163.376  1.00  0.00     0.238 A 
ATOM      4  O   UNL     1      -3.297  -8.678 163.259  1.00  0.00    -0.285 OA
ATOM      5  C   UNL     1      -3.161 -11.005 163.379  1.00  0.00     0.111 A 
ATOM      6  C   UNL     1      -1.737 -11.105 163.337  1.00  0.00     0.134 A 
ATOM      7  C   UNL     1      -1.137 -12.363 163.211  1.00  0.00     0.093 A 
ATOM      8  C   UNL     1      -1.905 -13.530 163.193  1.00  0.00     0.123 A 
ATOM      9  C   UNL     1      -3.291 -13.446 163.294  1.00  0.00     0.094 A 
ATOM     10  C   UNL     1      -3.922 -12.203 163.383  1.00  0.00     0.146 A 
ATOM     11  O   UNL     1      -5.246 -12.168 163.467  1.00  0.00    -0.452 OA
ENDROOT
BRANCH   1  12
ATOM     12  C   UNL     1      -7.419 -11.140 163.650  1.00  0.00     0.025 A 
ATOM     13  C   UNL     1      -8.024 -11.790 164.740  1.00  0.00     0.016 A 
ATOM     14  C   UNL     1      -9.416 -11.892 164.817  1.00  0.00     0.051 A 
ATOM     15  C   UNL     1     -10.221 -11.361 163.802  1.00  0.00     0.157 A 
ATOM     16  C   UNL     1      -8.231 -10.628 162.625  1.00  0.00     0.062 A 
ATOM     17  C   UNL     1      -9.625 -10.728 162.699  1.00  0.00     0.158 A 
BRANCH  15  18
ATOM     18  O   UNL     1     -11.610 -11.463 163.883  1.00  0.00    -0.504 OA
ATOM     19  H   UNL     1     -12.142 -12.005 163.212  1.00  0.00     0.293 HD
ENDBRANCH  15  18
BRANCH  17  20
ATOM     20  O   UNL     1     -10.398 -10.194 161.668  1.00  0.00    -0.504 OA
ATOM     21  H   UNL     1     -11.157  -9.546 161.845  1.00  0.00     0.293 HD
ENDBRANCH  17  20
ENDBRANCH   1  12
BRANCH   2  22
ATOM     22  O   UNL     1      -6.015  -8.614 163.439  1.00  0.00    -0.502 OA
ATOM     23  H   UNL     1      -5.748  -7.822 162.866  1.00  0.00     0.293 HD
ENDBRANCH   2  22
BRANCH   6  24
ATOM     24  O   UNL     1      -0.875 -10.009 163.440  1.00  0.00    -0.507 OA
ATOM     25  H   UNL     1      -1.059  -9.183 163.990  1.00  0.00     0.293 HD
ENDBRANCH   6  24
BRANCH   8  26
ATOM     26  O   UNL     1      -1.298 -14.779 163.085  1.00  0.00    -0.508 OA
ATOM     27  H   UNL     1      -0.927 -15.260 163.896  1.00  0.00     0.293 HD
ENDBRANCH   8  26
TORSDOF 6
ENDMDL
MODEL 4
REMARK VINA RESULT:    -5.986     14.204     15.244
REMARK INTER + INTRA:          -7.384
REMARK INTER:                  -7.061
REMARK INTRA:                  -0.323
REMARK UNBOUND:                -0.173
REMARK SMILES O=c1c(O)c(-c2ccc(O)c(O)c2)oc2cc(O)cc(O)c12
REMARK SMILES IDX 5 1 3 2 2 3 1 4 22 5 20 6 19 7 17 8 16 9 15 10 14 11 6 12
REMARK SMILES IDX 7 13 8 14 9 15 13 16 11 17 10 18 12 20 4 22 21 24 18 26
REMARK H PARENT 10 19 12 21 4 23 21 25 18 27
REMARK Flexibility Score: inf
ROOT
ATOM      1  C   UNL     1      -3.944  -9.797 163.656  1.00  0.00     0.180 A 
ATOM      2  C   UNL     1      -5.264  -9.718 164.135  1.00  0.00     0.208 A 
ATOM      3  C   UNL     1      -5.849  -8.455 164.316  1.00  0.00     0.238 A 
ATOM      4  O   UNL     1      -7.048  -8.391 164.693  1.00  0.00    -0.285 OA
ATOM      5  C   UNL     1      -5.101  -7.285 164.031  1.00  0.00     0.111 A 
ATOM      6  C   UNL     1      -5.580  -5.953 164.216  1.00  0.00     0.134 A 
ATOM      7  C   UNL     1      -4.803  -4.874 163.778  1.00  0.00     0.093 A 
ATOM      8  C   UNL     1      -3.537  -5.076 163.223  1.00  0.00     0.123 A 
ATOM      9  C   UNL     1      -3.037  -6.369 163.093  1.00  0.00     0.094 A 
ATOM     10  C   UNL     1      -3.804  -7.468 163.487  1.00  0.00     0.146 A 
ATOM     11  O   UNL     1      -3.293  -8.684 163.336  1.00  0.00    -0.452 OA
ENDROOT
BRANCH   1  12
ATOM     12  C   UNL     1      -3.252 -11.091 163.463  1.00  0.00     0.025 A 
ATOM     13  C   UNL     1      -2.623 -11.750 164.534  1.00  0.00     0.016 A 
ATOM     14  C   UNL     1      -1.954 -12.960 164.323  1.00  0.00     0.051 A 
ATOM     15  C   UNL     1      -1.893 -13.520 163.042  1.00  0.00     0.157 A 
ATOM     16  C   UNL     1      -3.170 -11.647 162.176  1.00  0.00     0.062 A 
ATOM     17  C   UNL     1      -2.502 -12.858 161.962  1.00  0.00     0.158 A 
BRANCH  15  18
ATOM     18  O   UNL     1      -1.227 -14.728 162.835  1.00  0.00    -0.504 OA
ATOM     19  H   UNL     1      -0.256 -14.850 163.097  1.00  0.00     0.293 HD
ENDBRANCH  15  18
BRANCH  17  20
ATOM     20  O   UNL     1      -2.454 -13.386 160.672  1.00  0.00    -0.504 OA
ATOM     21  H   UNL     1      -1.776 -13.073 159.987  1.00  0.00     0.293 HD
ENDBRANCH  17  20
ENDBRANCH   1  12
BRANCH   2  22
ATOM     22  O   UNL     1      -5.991 -10.884 164.388  1.00  0.00    -0.502 OA
ATOM     23  H   UNL     1      -5.799 -11.483 165.183  1.00  0.00     0.293 HD
ENDBRANCH   2  22
BRANCH   6  24
ATOM     24  O   UNL     1      -6.789  -5.638 164.843  1.00  0.00    -0.507 OA
ATOM     25  H   UNL     1      -7.008  -4.742 165.251  1.00  0.00     0.293 HD
ENDBRANCH   6  24
BRANCH   8  26
ATOM     26  O   UNL     1      -2.764  -3.995 162.805  1.00  0.00    -0.508 OA
ATOM     27  H   UNL     1      -2.264  -4.010 161.922  1.00  0.00     0.293 HD
ENDBRANCH   8  26
TORSDOF 6
ENDMDL
MODEL 5
REMARK VINA RESULT:    -5.973      7.631      8.447
REMARK INTER + INTRA:          -7.367
REMARK INTER:                  -7.036
REMARK INTRA:                  -0.332
REMARK UNBOUND:                -0.173
REMARK SMILES O=c1c(O)c(-c2ccc(O)c(O)c2)oc2cc(O)cc(O)c12
REMARK SMILES IDX 5 1 3 2 2 3 1 4 22 5 20 6 19 7 17 8 16 9 15 10 14 11 6 12
REMARK SMILES IDX 7 13 8 14 9 15 13 16 11 17 10 18 12 20 4 22 21 24 18 26
REMARK H PARENT 10 19 12 21 4 23 21 25 18 27
REMARK Flexibility Score: inf
ROOT
ATOM      1  C   UNL     1     -13.805  -6.217 148.174  1.00  0.00     0.180 A 
ATOM      2  C   UNL     1     -13.012  -5.796 147.093  1.00  0.00     0.208 A 
ATOM      3  C   UNL     1     -12.515  -4.483 147.083  1.00  0.00     0.238 A 
ATOM      4  O   UNL     1     -11.761  -4.128 146.140  1.00  0.00    -0.285 OA
ATOM      5  C   UNL     1     -12.833  -3.602 148.146  1.00  0.00     0.111 A 
ATOM      6  C   UNL     1     -12.418  -2.238 148.219  1.00  0.00     0.134 A 
ATOM      7  C   UNL     1     -12.679  -1.498 149.379  1.00  0.00     0.093 A 
ATOM      8  C   UNL     1     -13.398  -2.053 150.441  1.00  0.00     0.123 A 
ATOM      9  C   UNL     1     -13.859  -3.365 150.353  1.00  0.00     0.094 A 
ATOM     10  C   UNL     1     -13.582  -4.139 149.225  1.00  0.00     0.146 A 
ATOM     11  O   UNL     1     -14.030  -5.388 149.187  1.00  0.00    -0.452 OA
ENDROOT
BRANCH   1  12
ATOM     12  C   UNL     1     -14.384  -7.578 148.243  1.00  0.00     0.025 A 
ATOM     13  C   UNL     1     -15.619  -7.879 147.641  1.00  0.00     0.016 A 
ATOM     14  C   UNL     1     -16.157  -9.165 147.741  1.00  0.00     0.051 A 
ATOM     15  C   UNL     1     -15.479 -10.163 148.452  1.00  0.00     0.157 A 
ATOM     16  C   UNL     1     -13.718  -8.577 148.973  1.00  0.00     0.062 A 
ATOM     17  C   UNL     1     -14.255  -9.866 149.073  1.00  0.00     0.158 A 
BRANCH  15  18
ATOM     18  O   UNL     1     -16.018 -11.446 148.547  1.00  0.00    -0.504 OA
ATOM     19  H   UNL     1     -16.539 -11.860 147.783  1.00  0.00     0.293 HD
ENDBRANCH  15  18
BRANCH  17  20
ATOM     20  O   UNL     1     -13.557 -10.835 149.794  1.00  0.00    -0.504 OA
ATOM     21  H   UNL     1     -14.018 -11.644 150.193  1.00  0.00     0.293 HD
ENDBRANCH  17  20
ENDBRANCH   1  12
BRANCH   2  22
ATOM     22  O   UNL     1     -12.692  -6.688 146.066  1.00  0.00    -0.502 OA
ATOM     23  H   UNL     1     -12.604  -7.686 146.220  1.00  0.00     0.293 HD
ENDBRANCH   2  22
BRANCH   6  24
ATOM     24  O   UNL     1     -11.776  -1.561 147.179  1.00  0.00    -0.507 OA
ATOM     25  H   UNL     1     -10.868  -1.802 146.810  1.00  0.00     0.293 HD
ENDBRANCH   6  24
BRANCH   8  26
ATOM     26  O   UNL     1     -13.668  -1.305 151.584  1.00  0.00    -0.508 OA
ATOM     27  H   UNL     1     -13.075  -1.358 152.405  1.00  0.00     0.293 HD
ENDBRANCH   8  26
TORSDOF 6
ENDMDL
MODEL 6
REMARK VINA RESULT:    -5.929      8.060     11.545
REMARK INTER + INTRA:          -7.315
REMARK INTER:                  -7.007
REMARK INTRA:                  -0.308
REMARK UNBOUND:                -0.173
REMARK SMILES O=c1c(O)c(-c2ccc(O)c(O)c2)oc2cc(O)cc(O)c12
REMARK SMILES IDX 5 1 3 2 2 3 1 4 22 5 20 6 19 7 17 8 16 9 15 10 14 11 6 12
REMARK SMILES IDX 7 13 8 14 9 15 13 16 11 17 10 18 12 20 4 22 21 24 18 26
REMARK H PARENT 10 19 12 21 4 23 21 25 18 27
REMARK Flexibility Score: inf
ROOT
ATOM      1  C   UNL     1     -14.293  -6.094 148.498  1.00  0.00     0.180 A 
ATOM      2  C   UNL     1     -13.317  -7.076 148.256  1.00  0.00     0.208 A 
ATOM      3  C   UNL     1     -13.717  -8.413 148.108  1.00  0.00     0.238 A 
ATOM      4  O   UNL     1     -12.846  -9.280 147.838  1.00  0.00    -0.285 OA
ATOM      5  C   UNL     1     -15.087  -8.755 148.222  1.00  0.00     0.111 A 
ATOM      6  C   UNL     1     -15.602 -10.083 148.130  1.00  0.00     0.134 A 
ATOM      7  C   UNL     1     -16.987 -10.288 148.126  1.00  0.00     0.093 A 
ATOM      8  C   UNL     1     -17.874  -9.219 148.277  1.00  0.00     0.123 A 
ATOM      9  C   UNL     1     -17.379  -7.926 148.427  1.00  0.00     0.094 A 
ATOM     10  C   UNL     1     -16.004  -7.685 148.397  1.00  0.00     0.146 A 
ATOM     11  O   UNL     1     -15.576  -6.436 148.533  1.00  0.00    -0.452 OA
ENDROOT
BRANCH   1  12
ATOM     12  C   UNL     1     -13.945  -4.667 148.688  1.00  0.00     0.025 A 
ATOM     13  C   UNL     1     -13.736  -3.813 147.590  1.00  0.00     0.016 A 
ATOM     14  C   UNL     1     -13.384  -2.476 147.794  1.00  0.00     0.051 A 
ATOM     15  C   UNL     1     -13.223  -1.977 149.092  1.00  0.00     0.157 A 
ATOM     16  C   UNL     1     -13.761  -4.167 149.987  1.00  0.00     0.062 A 
ATOM     17  C   UNL     1     -13.409  -2.828 150.194  1.00  0.00     0.158 A 
BRANCH  15  18
ATOM     18  O   UNL     1     -12.875  -0.641 149.292  1.00  0.00    -0.504 OA
ATOM     19  H   UNL     1     -13.332   0.108 148.786  1.00  0.00     0.293 HD
ENDBRANCH  15  18
BRANCH  17  20
ATOM     20  O   UNL     1     -13.250  -2.364 151.500  1.00  0.00    -0.504 OA
ATOM     21  H   UNL     1     -13.972  -2.475 152.202  1.00  0.00     0.293 HD
ENDBRANCH  17  20
ENDBRANCH   1  12
BRANCH   2  22
ATOM     22  O   UNL     1     -11.973  -6.715 148.125  1.00  0.00    -0.502 OA
ATOM     23  H   UNL     1     -11.564  -5.946 148.643  1.00  0.00     0.293 HD
ENDBRANCH   2  22
BRANCH   6  24
ATOM     24  O   UNL     1     -14.801 -11.227 148.069  1.00  0.00    -0.507 OA
ATOM     25  H   UNL     1     -14.929 -11.984 147.414  1.00  0.00     0.293 HD
ENDBRANCH   6  24
BRANCH   8  26
ATOM     26  O   UNL     1     -19.250  -9.434 148.288  1.00  0.00    -0.508 OA
ATOM     27  H   UNL     1     -19.660 -10.221 148.779  1.00  0.00     0.293 HD
ENDBRANCH   8  26
TORSDOF 6
ENDMDL
MODEL 7
REMARK VINA RESULT:    -5.886     14.009     16.402
REMARK INTER + INTRA:          -7.264
REMARK INTER:                  -6.941
REMARK INTRA:                  -0.323
REMARK UNBOUND:                -0.173
REMARK SMILES O=c1c(O)c(-c2ccc(O)c(O)c2)oc2cc(O)cc(O)c12
REMARK SMILES IDX 5 1 3 2 2 3 1 4 22 5 20 6 19 7 17 8 16 9 15 10 14 11 6 12
REMARK SMILES IDX 7 13 8 14 9 15 13 16 11 17 10 18 12 20 4 22 21 24 18 26
REMARK H PARENT 10 19 12 21 4 23 21 25 18 27
REMARK Flexibility Score: inf
ROOT
ATOM      1  C   UNL     1      -3.929  -7.937 163.695  1.00  0.00     0.180 A 
ATOM      2  C   UNL     1      -3.014  -9.002 163.628  1.00  0.00     0.208 A 
ATOM      3  C   UNL     1      -3.495 -10.300 163.392  1.00  0.00     0.238 A 
ATOM      4  O   UNL     1      -2.668 -11.241 163.279  1.00  0.00    -0.285 OA
ATOM      5  C   UNL     1      -4.887 -10.518 163.241  1.00  0.00     0.111 A 
ATOM      6  C   UNL     1      -5.489 -11.796 163.038  1.00  0.00     0.134 A 
ATOM      7  C   UNL     1      -6.861 -11.878 162.771  1.00  0.00     0.093 A 
ATOM      8  C   UNL     1      -7.664 -10.735 162.765  1.00  0.00     0.123 A 
ATOM      9  C   UNL     1      -7.095  -9.490 163.021  1.00  0.00     0.094 A 
ATOM     10  C   UNL     1      -5.723  -9.372 163.255  1.00  0.00     0.146 A 
ATOM     11  O   UNL     1      -5.221  -8.165 163.483  1.00  0.00    -0.452 OA
ENDROOT
BRANCH   1  12
ATOM     12  C   UNL     1      -3.500  -6.546 163.965  1.00  0.00     0.025 A 
ATOM     13  C   UNL     1      -3.505  -6.019 165.268  1.00  0.00     0.016 A 
ATOM     14  C   UNL     1      -3.119  -4.695 165.496  1.00  0.00     0.051 A 
ATOM     15  C   UNL     1      -2.736  -3.876 164.427  1.00  0.00     0.157 A 
ATOM     16  C   UNL     1      -3.136  -5.714 162.893  1.00  0.00     0.062 A 
ATOM     17  C   UNL     1      -2.748  -4.388 163.118  1.00  0.00     0.158 A 
BRANCH  15  18
ATOM     18  O   UNL     1      -2.349  -2.556 164.658  1.00  0.00    -0.504 OA
ATOM     19  H   UNL     1      -1.619  -2.326 165.321  1.00  0.00     0.293 HD
ENDBRANCH  15  18
BRANCH  17  20
ATOM     20  O   UNL     1      -2.379  -3.596 162.030  1.00  0.00    -0.504 OA
ATOM     21  H   UNL     1      -1.724  -2.829 162.121  1.00  0.00     0.293 HD
ENDBRANCH  17  20
ENDBRANCH   1  12
BRANCH   2  22
ATOM     22  O   UNL     1      -1.644  -8.761 163.757  1.00  0.00    -0.502 OA
ATOM     23  H   UNL     1      -0.943  -9.405 163.409  1.00  0.00     0.293 HD
ENDBRANCH   2  22
BRANCH   6  24
ATOM     24  O   UNL     1      -4.795 -13.007 163.115  1.00  0.00    -0.507 OA
ATOM     25  H   UNL     1      -4.976 -13.732 163.793  1.00  0.00     0.293 HD
ENDBRANCH   6  24
BRANCH   8  26
ATOM     26  O   UNL     1      -9.031 -10.828 162.515  1.00  0.00    -0.508 OA
ATOM     27  H   UNL     1      -9.462 -11.704 162.241  1.00  0.00     0.293 HD
ENDBRANCH   8  26
TORSDOF 6
ENDMDL
MODEL 8
REMARK VINA RESULT:    -5.842     14.981     15.757
REMARK INTER + INTRA:          -7.210
REMARK INTER:                  -6.876
REMARK INTRA:                  -0.335
REMARK UNBOUND:                -0.173
REMARK SMILES O=c1c(O)c(-c2ccc(O)c(O)c2)oc2cc(O)cc(O)c12
REMARK SMILES IDX 5 1 3 2 2 3 1 4 22 5 20 6 19 7 17 8 16 9 15 10 14 11 6 12
REMARK SMILES IDX 7 13 8 14 9 15 13 16 11 17 10 18 12 20 4 22 21 24 18 26
REMARK H PARENT 10 19 12 21 4 23 21 25 18 27
REMARK Flexibility Score: inf
ROOT
ATOM      1  C   UNL     1      -5.569 -11.329 163.403  1.00  0.00     0.180 A 
ATOM      2  C   UNL     1      -6.827 -11.662 162.871  1.00  0.00     0.208 A 
ATOM      3  C   UNL     1      -7.881 -10.743 162.991  1.00  0.00     0.238 A 
ATOM      4  O   UNL     1      -8.990 -11.023 162.465  1.00  0.00    -0.285 OA
ATOM      5  C   UNL     1      -7.670  -9.511 163.656  1.00  0.00     0.111 A 
ATOM      6  C   UNL     1      -8.678  -8.523 163.871  1.00  0.00     0.134 A 
ATOM      7  C   UNL     1      -8.325  -7.286 164.423  1.00  0.00     0.093 A 
ATOM      8  C   UNL     1      -7.014  -7.026 164.830  1.00  0.00     0.123 A 
ATOM      9  C   UNL     1      -6.036  -8.006 164.679  1.00  0.00     0.094 A 
ATOM     10  C   UNL     1      -6.350  -9.236 164.097  1.00  0.00     0.146 A 
ATOM     11  O   UNL     1      -5.385 -10.138 163.962  1.00  0.00    -0.452 OA
ENDROOT
BRANCH   1  12
ATOM     12  C   UNL     1      -4.415 -12.255 163.337  1.00  0.00     0.025 A 
ATOM     13  C   UNL     1      -4.189 -13.214 164.340  1.00  0.00     0.016 A 
ATOM     14  C   UNL     1      -3.079 -14.061 164.269  1.00  0.00     0.051 A 
ATOM     15  C   UNL     1      -2.175 -13.955 163.206  1.00  0.00     0.157 A 
ATOM     16  C   UNL     1      -3.493 -12.138 162.284  1.00  0.00     0.062 A 
ATOM     17  C   UNL     1      -2.382 -12.985 162.210  1.00  0.00     0.158 A 
BRANCH  15  18
ATOM     18  O   UNL     1      -1.070 -14.803 163.137  1.00  0.00    -0.504 OA
ATOM     19  H   UNL     1      -0.927 -15.543 163.814  1.00  0.00     0.293 HD
ENDBRANCH  15  18
BRANCH  17  20
ATOM     20  O   UNL     1      -1.496 -12.849 161.141  1.00  0.00    -0.504 OA
ATOM     21  H   UNL     1      -1.255 -13.627 160.539  1.00  0.00     0.293 HD
ENDBRANCH  17  20
ENDBRANCH   1  12
BRANCH   2  22
ATOM     22  O   UNL     1      -7.007 -12.874 162.200  1.00  0.00    -0.502 OA
ATOM     23  H   UNL     1      -7.141 -13.752 162.688  1.00  0.00     0.293 HD
ENDBRANCH   2  22
BRANCH   6  24
ATOM     24  O   UNL     1     -10.032  -8.715 163.585  1.00  0.00    -0.507 OA
ATOM     25  H   UNL     1     -10.387  -9.152 162.748  1.00  0.00     0.293 HD
ENDBRANCH   6  24
BRANCH   8  26
ATOM     26  O   UNL     1      -6.675  -5.799 165.395  1.00  0.00    -0.508 OA
ATOM     27  H   UNL     1      -7.374  -5.198 165.818  1.00  0.00     0.293 HD
ENDBRANCH   8  26
TORSDOF 6
ENDMDL
MODEL 9
REMARK VINA RESULT:    -5.720     16.039     16.922
REMARK INTER + INTRA:          -7.063
REMARK INTER:                  -6.850
REMARK INTRA:                  -0.213
REMARK UNBOUND:                -0.173
REMARK SMILES O=c1c(O)c(-c2ccc(O)c(O)c2)oc2cc(O)cc(O)c12
REMARK SMILES IDX 5 1 3 2 2 3 1 4 22 5 20 6 19 7 17 8 16 9 15 10 14 11 6 12
REMARK SMILES IDX 7 13 8 14 9 15 13 16 11 17 10 18 12 20 4 22 21 24 18 26
REMARK H PARENT 10 19 12 21 4 23 21 25 18 27
REMARK Flexibility Score: inf
ROOT
ATOM      1  C   UNL     1     -16.593  -9.112 161.870  1.00  0.00     0.180 A 
ATOM      2  C   UNL     1     -17.436  -7.992 161.757  1.00  0.00     0.208 A 
ATOM      3  C   UNL     1     -16.905  -6.714 161.989  1.00  0.00     0.238 A 
ATOM      4  O   UNL     1     -17.650  -5.712 161.833  1.00  0.00    -0.285 OA
ATOM      5  C   UNL     1     -15.542  -6.572 162.347  1.00  0.00     0.111 A 
ATOM      6  C   UNL     1     -14.908  -5.328 162.644  1.00  0.00     0.134 A 
ATOM      7  C   UNL     1     -13.525  -5.292 162.858  1.00  0.00     0.093 A 
ATOM      8  C   UNL     1     -12.764  -6.464 162.850  1.00  0.00     0.123 A 
ATOM      9  C   UNL     1     -13.384  -7.689 162.620  1.00  0.00     0.094 A 
ATOM     10  C   UNL     1     -14.756  -7.753 162.367  1.00  0.00     0.146 A 
ATOM     11  O   UNL     1     -15.305  -8.941 162.142  1.00  0.00    -0.452 OA
ENDROOT
BRANCH   1  12
ATOM     12  C   UNL     1     -17.086 -10.493 161.664  1.00  0.00     0.025 A 
ATOM     13  C   UNL     1     -18.005 -11.081 162.551  1.00  0.00     0.016 A 
ATOM     14  C   UNL     1     -18.437 -12.395 162.350  1.00  0.00     0.051 A 
ATOM     15  C   UNL     1     -17.950 -13.144 161.272  1.00  0.00     0.157 A 
ATOM     16  C   UNL     1     -16.584 -11.255 160.596  1.00  0.00     0.062 A 
ATOM     17  C   UNL     1     -17.016 -12.571 160.393  1.00  0.00     0.158 A 
BRANCH  15  18
ATOM     18  O   UNL     1     -18.386 -14.454 161.073  1.00  0.00    -0.504 OA
ATOM     19  H   UNL     1     -17.738 -15.233 161.072  1.00  0.00     0.293 HD
ENDBRANCH  15  18
BRANCH  17  20
ATOM     20  O   UNL     1     -16.506 -13.291 159.312  1.00  0.00    -0.504 OA
ATOM     21  H   UNL     1     -15.999 -14.160 159.436  1.00  0.00     0.293 HD
ENDBRANCH  17  20
ENDBRANCH   1  12
BRANCH   2  22
ATOM     22  O   UNL     1     -18.773  -8.154 161.381  1.00  0.00    -0.502 OA
ATOM     23  H   UNL     1     -19.042  -8.581 160.503  1.00  0.00     0.293 HD
ENDBRANCH   2  22
BRANCH   6  24
ATOM     24  O   UNL     1     -15.590  -4.114 162.766  1.00  0.00    -0.507 OA
ATOM     25  H   UNL     1     -16.573  -4.026 162.975  1.00  0.00     0.293 HD
ENDBRANCH   6  24
BRANCH   8  26
ATOM     26  O   UNL     1     -11.391  -6.421 163.080  1.00  0.00    -0.508 OA
ATOM     27  H   UNL     1     -10.890  -7.222 163.448  1.00  0.00     0.293 HD
ENDBRANCH   8  26
TORSDOF 6
ENDMDL
