MODEL 1
REMARK VINA RESULT:    -3.772      0.000      0.000
REMARK INTER + INTRA:         -13.966
REMARK INTER:                  -9.504
REMARK INTRA:                  -4.462
REMARK UNBOUND:                -4.462
REMARK SMILES CCCCCCCCCCCCCCCCCCCCCCCCCCCC(=O)[O-]
REMARK SMILES IDX 15 1 16 2 17 3 18 4 19 5 20 6 21 7 22 8 23 9 24 10 25 11
REMARK SMILES IDX 26 12 27 13 28 14 29 15 30 16 14 17 13 18 12 19 11 20 10 21
REMARK SMILES IDX 9 22 8 23 7 24 6 25 5 26 4 27 3 28 2 29 1 30
REMARK H PARENT
REMARK Flexibility Score: inf
ROOT
ATOM      1  C   UNL     1      10.429  65.696   9.067  1.00  0.00     0.000 C 
ENDROOT
BRANCH   1   2
ATOM      2  C   UNL     1       9.242  64.775   8.732  1.00  0.00     0.000 C 
BRANCH   2   3
ATOM      3  C   UNL     1       9.575  63.272   8.710  1.00  0.00     0.000 C 
BRANCH   3   4
ATOM      4  C   UNL     1      11.072  62.927   8.866  1.00  0.00     0.000 C 
BRANCH   4   5
ATOM      5  C   UNL     1      11.651  62.002   7.778  1.00  0.00     0.000 C 
BRANCH   5   6
ATOM      6  C   UNL     1      12.731  62.648   6.892  1.00  0.00     0.000 C 
BRANCH   6   7
ATOM      7  C   UNL     1      13.379  63.902   7.525  1.00  0.00     0.000 C 
BRANCH   7   8
ATOM      8  C   UNL     1      13.267  65.159   6.647  1.00  0.00     0.000 C 
BRANCH   8   9
ATOM      9  C   UNL     1      12.126  65.054   5.623  1.00  0.00     0.000 C 
BRANCH   9  10
ATOM     10  C   UNL     1      12.223  66.169   4.575  1.00  0.00     0.000 C 
BRANCH  10  11
ATOM     11  C   UNL     1      11.304  65.880   3.378  1.00  0.00     0.000 C 
BRANCH  11  12
ATOM     12  C   UNL     1      11.809  66.515   2.074  1.00  0.00     0.006 C 
BRANCH  12  13
ATOM     13  C   UNL     1      11.314  67.956   1.887  1.00  0.00     0.053 C 
BRANCH  13  14
ATOM     14  C   UNL     1      10.573  68.092   0.593  1.00  0.00     0.041 C 
ATOM     15  O   UNL     1      11.064  67.626  -0.470  1.00  0.00    -0.550 OA
ATOM     16  O   UNL     1       9.325  68.701   0.567  1.00  0.00    -0.550 OA
ENDBRANCH  13  14
ENDBRANCH  12  13
ENDBRANCH  11  12
ENDBRANCH  10  11
ENDBRANCH   9  10
ENDBRANCH   8   9
ENDBRANCH   7   8
ENDBRANCH   6   7
ENDBRANCH   5   6
ENDBRANCH   4   5
ENDBRANCH   3   4
ENDBRANCH   2   3
ENDBRANCH   1   2
BRANCH   1  17
ATOM     17  C   UNL     1      10.445  67.008   8.253  1.00  0.00     0.000 C 
BRANCH  17  18
ATOM     18  C   UNL     1       9.058  67.363   7.690  1.00  0.00     0.000 C 
BRANCH  18  19
ATOM     19  C   UNL     1       8.990  67.248   6.158  1.00  0.00     0.000 C 
BRANCH  19  20
ATOM     20  C   UNL     1       9.537  68.493   5.443  1.00  0.00     0.000 C 
BRANCH  20  21
ATOM     21  C   UNL     1       8.700  68.827   4.202  1.00  0.00     0.000 C 
BRANCH  21  22
ATOM     22  C   UNL     1       7.991  67.577   3.661  1.00  0.00    -0.000 C 
BRANCH  22  23
ATOM     23  C   UNL     1       6.474  67.794   3.475  1.00  0.00    -0.000 C 
BRANCH  23  24
ATOM     24  C   UNL     1       5.651  66.493   3.534  1.00  0.00    -0.000 C 
BRANCH  24  25
ATOM     25  C   UNL     1       4.531  66.484   4.590  1.00  0.00    -0.000 C 
BRANCH  25  26
ATOM     26  C   UNL     1       4.915  67.104   5.947  1.00  0.00    -0.000 C 
BRANCH  26  27
ATOM     27  C   UNL     1       4.477  66.258   7.162  1.00  0.00    -0.000 C 
BRANCH  27  28
ATOM     28  C   UNL     1       5.674  65.780   8.004  1.00  0.00    -0.000 C 
BRANCH  28  29
ATOM     29  C   UNL     1       5.549  64.309   8.425  1.00  0.00    -0.003 C 
ATOM     30  C   UNL     1       4.565  64.108   9.579  1.00  0.00     0.004 C 
ENDBRANCH  28  29
ENDBRANCH  27  28
ENDBRANCH  26  27
ENDBRANCH  25  26
ENDBRANCH  24  25
ENDBRANCH  23  24
ENDBRANCH  22  23
ENDBRANCH  21  22
ENDBRANCH  20  21
ENDBRANCH  19  20
ENDBRANCH  18  19
ENDBRANCH  17  18
ENDBRANCH   1  17
TORSDOF 26
ENDMDL
MODEL 2
REMARK VINA RESULT:    -3.761      2.991      7.273
REMARK INTER + INTRA:         -13.940
REMARK INTER:                  -8.522
REMARK INTRA:                  -5.418
REMARK UNBOUND:                -4.462
REMARK SMILES CCCCCCCCCCCCCCCCCCCCCCCCCCCC(=O)[O-]
REMARK SMILES IDX 15 1 16 2 17 3 18 4 19 5 20 6 21 7 22 8 23 9 24 10 25 11
REMARK SMILES IDX 26 12 27 13 28 14 29 15 30 16 14 17 13 18 12 19 11 20 10 21
REMARK SMILES IDX 9 22 8 23 7 24 6 25 5 26 4 27 3 28 2 29 1 30
REMARK H PARENT
REMARK Flexibility Score: inf
ROOT
ATOM      1  C   UNL     1       9.227  65.872   9.442  1.00  0.00     0.000 C 
ENDROOT
BRANCH   1   2
ATOM      2  C   UNL     1      10.369  66.663  10.106  1.00  0.00     0.000 C 
BRANCH   2   3
ATOM      3  C   UNL     1      11.673  66.724   9.289  1.00  0.00     0.000 C 
BRANCH   3   4
ATOM      4  C   UNL     1      11.844  67.984   8.414  1.00  0.00     0.000 C 
BRANCH   4   5
ATOM      5  C   UNL     1      10.841  69.120   8.693  1.00  0.00     0.000 C 
BRANCH   5   6
ATOM      6  C   UNL     1       9.788  69.332   7.591  1.00  0.00     0.000 C 
BRANCH   6   7
ATOM      7  C   UNL     1      10.068  68.521   6.305  1.00  0.00     0.000 C 
BRANCH   7   8
ATOM      8  C   UNL     1       8.941  67.541   5.941  1.00  0.00     0.000 C 
BRANCH   8   9
ATOM      9  C   UNL     1       7.620  68.262   5.631  1.00  0.00     0.000 C 
BRANCH   9  10
ATOM     10  C   UNL     1       6.431  67.526   6.261  1.00  0.00     0.000 C 
BRANCH  10  11
ATOM     11  C   UNL     1       6.259  67.922   7.736  1.00  0.00     0.000 C 
BRANCH  11  12
ATOM     12  C   UNL     1       5.854  66.738   8.626  1.00  0.00     0.006 C 
BRANCH  12  13
ATOM     13  C   UNL     1       5.202  65.597   7.832  1.00  0.00     0.053 C 
BRANCH  13  14
ATOM     14  C   UNL     1       5.310  64.307   8.584  1.00  0.00     0.041 C 
ATOM     15  O   UNL     1       6.270  63.522   8.362  1.00  0.00    -0.550 OA
ATOM     16  O   UNL     1       4.369  63.987   9.556  1.00  0.00    -0.550 OA
ENDBRANCH  13  14
ENDBRANCH  12  13
ENDBRANCH  11  12
ENDBRANCH  10  11
ENDBRANCH   9  10
ENDBRANCH   8   9
ENDBRANCH   7   8
ENDBRANCH   6   7
ENDBRANCH   5   6
ENDBRANCH   4   5
ENDBRANCH   3   4
ENDBRANCH   2   3
ENDBRANCH   1   2
BRANCH   1  17
ATOM     17  C   UNL     1       9.685  65.006   8.248  1.00  0.00     0.000 C 
BRANCH  17  18
ATOM     18  C   UNL     1       9.790  63.515   8.613  1.00  0.00     0.000 C 
BRANCH  18  19
ATOM     19  C   UNL     1      11.240  63.058   8.841  1.00  0.00     0.000 C 
BRANCH  19  20
ATOM     20  C   UNL     1      11.714  62.040   7.793  1.00  0.00     0.000 C 
BRANCH  20  21
ATOM     21  C   UNL     1      12.685  62.687   6.797  1.00  0.00     0.000 C 
BRANCH  21  22
ATOM     22  C   UNL     1      13.349  63.932   7.402  1.00  0.00    -0.000 C 
BRANCH  22  23
ATOM     23  C   UNL     1      13.385  65.119   6.417  1.00  0.00    -0.000 C 
BRANCH  23  24
ATOM     24  C   UNL     1      12.052  65.351   5.679  1.00  0.00    -0.000 C 
BRANCH  24  25
ATOM     25  C   UNL     1      12.192  65.696   4.186  1.00  0.00    -0.000 C 
BRANCH  25  26
ATOM     26  C   UNL     1      10.868  65.705   3.396  1.00  0.00    -0.000 C 
BRANCH  26  27
ATOM     27  C   UNL     1      10.852  66.709   2.223  1.00  0.00    -0.000 C 
BRANCH  27  28
ATOM     28  C   UNL     1       9.630  67.644   2.270  1.00  0.00    -0.000 C 
BRANCH  28  29
ATOM     29  C   UNL     1      10.009  69.091   2.616  1.00  0.00    -0.003 C 
ATOM     30  C   UNL     1      11.497  69.254   2.924  1.00  0.00     0.004 C 
ENDBRANCH  28  29
ENDBRANCH  27  28
ENDBRANCH  26  27
ENDBRANCH  25  26
ENDBRANCH  24  25
ENDBRANCH  23  24
ENDBRANCH  22  23
ENDBRANCH  21  22
ENDBRANCH  20  21
ENDBRANCH  19  20
ENDBRANCH  18  19
ENDBRANCH  17  18
ENDBRANCH   1  17
TORSDOF 26
ENDMDL
MODEL 3
REMARK VINA RESULT:    -3.753      2.034      6.143
REMARK INTER + INTRA:         -13.919
REMARK INTER:                  -9.277
REMARK INTRA:                  -4.642
REMARK UNBOUND:                -4.462
REMARK SMILES CCCCCCCCCCCCCCCCCCCCCCCCCCCC(=O)[O-]
REMARK SMILES IDX 15 1 16 2 17 3 18 4 19 5 20 6 21 7 22 8 23 9 24 10 25 11
REMARK SMILES IDX 26 12 27 13 28 14 29 15 30 16 14 17 13 18 12 19 11 20 10 21
REMARK SMILES IDX 9 22 8 23 7 24 6 25 5 26 4 27 3 28 2 29 1 30
REMARK H PARENT
REMARK Flexibility Score: inf
ROOT
ATOM      1  C   UNL     1      12.798  64.136   6.354  1.00  0.00     0.000 C 
ENDROOT
BRANCH   1   2
ATOM      2  C   UNL     1      12.981  62.738   6.973  1.00  0.00     0.000 C 
BRANCH   2   3
ATOM      3  C   UNL     1      11.710  62.138   7.603  1.00  0.00     0.000 C 
BRANCH   3   4
ATOM      4  C   UNL     1      11.165  62.894   8.834  1.00  0.00     0.000 C 
BRANCH   4   5
ATOM      5  C   UNL     1       9.769  63.521   8.656  1.00  0.00     0.000 C 
BRANCH   5   6
ATOM      6  C   UNL     1       9.778  64.998   8.223  1.00  0.00     0.000 C 
BRANCH   6   7
ATOM      7  C   UNL     1       8.486  65.760   8.600  1.00  0.00     0.000 C 
BRANCH   7   8
ATOM      8  C   UNL     1       7.295  64.835   8.902  1.00  0.00     0.000 C 
BRANCH   8   9
ATOM      9  C   UNL     1       5.978  65.612   9.046  1.00  0.00     0.000 C 
BRANCH   9  10
ATOM     10  C   UNL     1       4.979  65.207   7.956  1.00  0.00     0.000 C 
BRANCH  10  11
ATOM     11  C   UNL     1       4.568  66.422   7.110  1.00  0.00     0.000 C 
BRANCH  11  12
ATOM     12  C   UNL     1       5.756  67.069   6.382  1.00  0.00     0.006 C 
BRANCH  12  13
ATOM     13  C   UNL     1       5.327  67.882   5.154  1.00  0.00     0.053 C 
BRANCH  13  14
ATOM     14  C   UNL     1       4.866  66.972   4.058  1.00  0.00     0.041 C 
ATOM     15  O   UNL     1       3.664  66.992   3.680  1.00  0.00    -0.550 OA
ATOM     16  O   UNL     1       5.772  66.127   3.429  1.00  0.00    -0.550 OA
ENDBRANCH  13  14
ENDBRANCH  12  13
ENDBRANCH  11  12
ENDBRANCH  10  11
ENDBRANCH   9  10
ENDBRANCH   8   9
ENDBRANCH   7   8
ENDBRANCH   6   7
ENDBRANCH   5   6
ENDBRANCH   4   5
ENDBRANCH   3   4
ENDBRANCH   2   3
ENDBRANCH   1   2
BRANCH   1  17
ATOM     17  C   UNL     1      13.855  65.162   6.818  1.00  0.00     0.000 C 
BRANCH  17  18
ATOM     18  C   UNL     1      14.067  65.135   8.341  1.00  0.00     0.000 C 
BRANCH  18  19
ATOM     19  C   UNL     1      13.205  66.171   9.081  1.00  0.00     0.000 C 
BRANCH  19  20
ATOM     20  C   UNL     1      13.214  67.548   8.399  1.00  0.00     0.000 C 
BRANCH  20  21
ATOM     21  C   UNL     1      11.787  68.022   8.096  1.00  0.00     0.000 C 
BRANCH  21  22
ATOM     22  C   UNL     1      11.521  68.038   6.584  1.00  0.00    -0.000 C 
BRANCH  22  23
ATOM     23  C   UNL     1      10.050  68.366   6.248  1.00  0.00    -0.000 C 
BRANCH  23  24
ATOM     24  C   UNL     1       9.364  67.302   5.370  1.00  0.00    -0.000 C 
BRANCH  24  25
ATOM     25  C   UNL     1       9.147  67.716   3.904  1.00  0.00    -0.000 C 
BRANCH  25  26
ATOM     26  C   UNL     1       9.692  66.720   2.862  1.00  0.00    -0.000 C 
BRANCH  26  27
ATOM     27  C   UNL     1      10.576  65.609   3.469  1.00  0.00    -0.000 C 
BRANCH  27  28
ATOM     28  C   UNL     1      12.044  65.719   3.019  1.00  0.00    -0.000 C 
BRANCH  28  29
ATOM     29  C   UNL     1      12.357  67.068   2.356  1.00  0.00    -0.003 C 
ATOM     30  C   UNL     1      13.099  68.026   3.288  1.00  0.00     0.004 C 
ENDBRANCH  28  29
ENDBRANCH  27  28
ENDBRANCH  26  27
ENDBRANCH  25  26
ENDBRANCH  24  25
ENDBRANCH  23  24
ENDBRANCH  22  23
ENDBRANCH  21  22
ENDBRANCH  20  21
ENDBRANCH  19  20
ENDBRANCH  18  19
ENDBRANCH  17  18
ENDBRANCH   1  17
TORSDOF 26
ENDMDL
MODEL 4
REMARK VINA RESULT:    -3.749      2.135      6.860
REMARK INTER + INTRA:         -13.909
REMARK INTER:                  -9.189
REMARK INTRA:                  -4.720
REMARK UNBOUND:                -4.462
REMARK SMILES CCCCCCCCCCCCCCCCCCCCCCCCCCCC(=O)[O-]
REMARK SMILES IDX 15 1 16 2 17 3 18 4 19 5 20 6 21 7 22 8 23 9 24 10 25 11
REMARK SMILES IDX 26 12 27 13 28 14 29 15 30 16 14 17 13 18 12 19 11 20 10 21
REMARK SMILES IDX 9 22 8 23 7 24 6 25 5 26 4 27 3 28 2 29 1 30
REMARK H PARENT
REMARK Flexibility Score: inf
ROOT
ATOM      1  C   UNL     1       9.555  63.402   8.727  1.00  0.00     0.000 C 
ENDROOT
BRANCH   1   2
ATOM      2  C   UNL     1       9.184  64.879   8.506  1.00  0.00     0.000 C 
BRANCH   2   3
ATOM      3  C   UNL     1      10.243  65.890   8.982  1.00  0.00     0.000 C 
BRANCH   3   4
ATOM      4  C   UNL     1      10.047  67.336   8.476  1.00  0.00     0.000 C 
BRANCH   4   5
ATOM      5  C   UNL     1       8.804  67.562   7.596  1.00  0.00     0.000 C 
BRANCH   5   6
ATOM      6  C   UNL     1       7.764  68.531   8.189  1.00  0.00     0.000 C 
BRANCH   6   7
ATOM      7  C   UNL     1       7.576  68.374   9.716  1.00  0.00     0.000 C 
BRANCH   7   8
ATOM      8  C   UNL     1       6.207  67.793  10.108  1.00  0.00     0.000 C 
BRANCH   8   9
ATOM      9  C   UNL     1       6.141  66.271   9.903  1.00  0.00     0.000 C 
BRANCH   9  10
ATOM     10  C   UNL     1       4.724  65.829   9.518  1.00  0.00     0.000 C 
BRANCH  10  11
ATOM     11  C   UNL     1       4.275  66.502   8.212  1.00  0.00     0.000 C 
BRANCH  11  12
ATOM     12  C   UNL     1       5.030  65.976   6.982  1.00  0.00     0.006 C 
BRANCH  12  13
ATOM     13  C   UNL     1       5.036  66.977   5.819  1.00  0.00     0.053 C 
BRANCH  13  14
ATOM     14  C   UNL     1       4.493  66.341   4.577  1.00  0.00     0.041 C 
ATOM     15  O   UNL     1       3.264  66.075   4.486  1.00  0.00    -0.550 OA
ATOM     16  O   UNL     1       5.337  66.073   3.507  1.00  0.00    -0.550 OA
ENDBRANCH  13  14
ENDBRANCH  12  13
ENDBRANCH  11  12
ENDBRANCH  10  11
ENDBRANCH   9  10
ENDBRANCH   8   9
ENDBRANCH   7   8
ENDBRANCH   6   7
ENDBRANCH   5   6
ENDBRANCH   4   5
ENDBRANCH   3   4
ENDBRANCH   2   3
ENDBRANCH   1   2
BRANCH   1  17
ATOM     17  C   UNL     1      11.072  63.161   8.886  1.00  0.00     0.000 C 
BRANCH  17  18
ATOM     18  C   UNL     1      11.628  62.206   7.816  1.00  0.00     0.000 C 
BRANCH  18  19
ATOM     19  C   UNL     1      12.967  62.681   7.230  1.00  0.00     0.000 C 
BRANCH  19  20
ATOM     20  C   UNL     1      13.454  63.999   7.852  1.00  0.00     0.000 C 
BRANCH  20  21
ATOM     21  C   UNL     1      14.002  64.946   6.778  1.00  0.00     0.000 C 
BRANCH  21  22
ATOM     22  C   UNL     1      13.018  66.090   6.496  1.00  0.00    -0.000 C 
BRANCH  22  23
ATOM     23  C   UNL     1      11.798  65.629   5.671  1.00  0.00    -0.000 C 
BRANCH  23  24
ATOM     24  C   UNL     1      12.172  64.936   4.347  1.00  0.00    -0.000 C 
BRANCH  24  25
ATOM     25  C   UNL     1      11.671  65.652   3.079  1.00  0.00    -0.000 C 
BRANCH  25  26
ATOM     26  C   UNL     1      10.142  65.638   2.889  1.00  0.00    -0.000 C 
BRANCH  26  27
ATOM     27  C   UNL     1       9.512  67.047   2.828  1.00  0.00    -0.000 C 
BRANCH  27  28
ATOM     28  C   UNL     1      10.518  68.153   3.193  1.00  0.00    -0.000 C 
BRANCH  28  29
ATOM     29  C   UNL     1      10.232  68.780   4.566  1.00  0.00    -0.003 C 
ATOM     30  C   UNL     1      11.453  69.483   5.159  1.00  0.00     0.004 C 
ENDBRANCH  28  29
ENDBRANCH  27  28
ENDBRANCH  26  27
ENDBRANCH  25  26
ENDBRANCH  24  25
ENDBRANCH  23  24
ENDBRANCH  22  23
ENDBRANCH  21  22
ENDBRANCH  20  21
ENDBRANCH  19  20
ENDBRANCH  18  19
ENDBRANCH  17  18
ENDBRANCH   1  17
TORSDOF 26
ENDMDL
MODEL 5
REMARK VINA RESULT:    -3.741      3.017      7.455
REMARK INTER + INTRA:         -13.889
REMARK INTER:                  -8.829
REMARK INTRA:                  -5.060
REMARK UNBOUND:                -4.462
REMARK SMILES CCCCCCCCCCCCCCCCCCCCCCCCCCCC(=O)[O-]
REMARK SMILES IDX 15 1 16 2 17 3 18 4 19 5 20 6 21 7 22 8 23 9 24 10 25 11
REMARK SMILES IDX 26 12 27 13 28 14 29 15 30 16 14 17 13 18 12 19 11 20 10 21
REMARK SMILES IDX 9 22 8 23 7 24 6 25 5 26 4 27 3 28 2 29 1 30
REMARK H PARENT
REMARK Flexibility Score: inf
ROOT
ATOM      1  C   UNL     1       9.546  65.012   8.365  1.00  0.00     0.000 C 
ENDROOT
BRANCH   1   2
ATOM      2  C   UNL     1      10.616  65.899   9.028  1.00  0.00     0.000 C 
BRANCH   2   3
ATOM      3  C   UNL     1      10.772  67.299   8.407  1.00  0.00     0.000 C 
BRANCH   3   4
ATOM      4  C   UNL     1       9.563  67.791   7.582  1.00  0.00     0.000 C 
BRANCH   4   5
ATOM      5  C   UNL     1       9.859  68.945   6.605  1.00  0.00     0.000 C 
BRANCH   5   6
ATOM      6  C   UNL     1       9.026  68.921   5.311  1.00  0.00     0.000 C 
BRANCH   6   7
ATOM      7  C   UNL     1       7.996  67.768   5.262  1.00  0.00     0.000 C 
BRANCH   7   8
ATOM      8  C   UNL     1       7.322  67.606   3.889  1.00  0.00     0.000 C 
BRANCH   8   9
ATOM      9  C   UNL     1       5.797  67.777   3.966  1.00  0.00     0.000 C 
BRANCH   9  10
ATOM     10  C   UNL     1       5.096  66.417   4.066  1.00  0.00     0.000 C 
BRANCH  10  11
ATOM     11  C   UNL     1       3.849  66.506   4.960  1.00  0.00     0.000 C 
BRANCH  11  12
ATOM     12  C   UNL     1       4.188  66.839   6.421  1.00  0.00     0.006 C 
BRANCH  12  13
ATOM     13  C   UNL     1       5.119  65.802   7.063  1.00  0.00     0.053 C 
BRANCH  13  14
ATOM     14  C   UNL     1       4.654  65.466   8.447  1.00  0.00     0.041 C 
ATOM     15  O   UNL     1       4.667  64.272   8.848  1.00  0.00    -0.550 OA
ATOM     16  O   UNL     1       4.241  66.477   9.305  1.00  0.00    -0.550 OA
ENDBRANCH  13  14
ENDBRANCH  12  13
ENDBRANCH  11  12
ENDBRANCH  10  11
ENDBRANCH   9  10
ENDBRANCH   8   9
ENDBRANCH   7   8
ENDBRANCH   6   7
ENDBRANCH   5   6
ENDBRANCH   4   5
ENDBRANCH   3   4
ENDBRANCH   2   3
ENDBRANCH   1   2
BRANCH   1  17
ATOM     17  C   UNL     1       9.728  63.505   8.647  1.00  0.00     0.000 C 
BRANCH  17  18
ATOM     18  C   UNL     1      11.199  63.131   8.898  1.00  0.00     0.000 C 
BRANCH  18  19
ATOM     19  C   UNL     1      11.739  62.116   7.878  1.00  0.00     0.000 C 
BRANCH  19  20
ATOM     20  C   UNL     1      12.744  62.736   6.896  1.00  0.00     0.000 C 
BRANCH  20  21
ATOM     21  C   UNL     1      13.397  63.988   7.495  1.00  0.00     0.000 C 
BRANCH  21  22
ATOM     22  C   UNL     1      13.289  65.181   6.533  1.00  0.00    -0.000 C 
BRANCH  22  23
ATOM     23  C   UNL     1      12.468  64.846   5.270  1.00  0.00    -0.000 C 
BRANCH  23  24
ATOM     24  C   UNL     1      11.274  65.792   5.039  1.00  0.00    -0.000 C 
BRANCH  24  25
ATOM     25  C   UNL     1      10.727  65.803   3.600  1.00  0.00    -0.000 C 
BRANCH  25  26
ATOM     26  C   UNL     1      10.919  67.132   2.845  1.00  0.00    -0.000 C 
BRANCH  26  27
ATOM     27  C   UNL     1      12.370  67.661   2.878  1.00  0.00    -0.000 C 
BRANCH  27  28
ATOM     28  C   UNL     1      12.554  68.798   3.899  1.00  0.00    -0.000 C 
BRANCH  28  29
ATOM     29  C   UNL     1      13.781  68.590   4.798  1.00  0.00    -0.003 C 
ATOM     30  C   UNL     1      13.495  68.899   6.268  1.00  0.00     0.004 C 
ENDBRANCH  28  29
ENDBRANCH  27  28
ENDBRANCH  26  27
ENDBRANCH  25  26
ENDBRANCH  24  25
ENDBRANCH  23  24
ENDBRANCH  22  23
ENDBRANCH  21  22
ENDBRANCH  20  21
ENDBRANCH  19  20
ENDBRANCH  18  19
ENDBRANCH  17  18
ENDBRANCH   1  17
TORSDOF 26
ENDMDL
MODEL 6
REMARK VINA RESULT:    -3.718      1.452      2.805
REMARK INTER + INTRA:         -13.831
REMARK INTER:                  -8.575
REMARK INTRA:                  -5.257
REMARK UNBOUND:                -4.462
REMARK SMILES CCCCCCCCCCCCCCCCCCCCCCCCCCCC(=O)[O-]
REMARK SMILES IDX 15 1 16 2 17 3 18 4 19 5 20 6 21 7 22 8 23 9 24 10 25 11
REMARK SMILES IDX 26 12 27 13 28 14 29 15 30 16 14 17 13 18 12 19 11 20 10 21
REMARK SMILES IDX 9 22 8 23 7 24 6 25 5 26 4 27 3 28 2 29 1 30
REMARK H PARENT
REMARK Flexibility Score: inf
ROOT
ATOM      1  C   UNL     1       9.556  63.443   8.749  1.00  0.00     0.000 C 
ENDROOT
BRANCH   1   2
ATOM      2  C   UNL     1      10.938  62.805   8.973  1.00  0.00     0.000 C 
BRANCH   2   3
ATOM      3  C   UNL     1      11.695  62.431   7.685  1.00  0.00     0.000 C 
BRANCH   3   4
ATOM      4  C   UNL     1      13.059  63.128   7.497  1.00  0.00     0.000 C 
BRANCH   4   5
ATOM      5  C   UNL     1      13.518  64.005   8.678  1.00  0.00     0.000 C 
BRANCH   5   6
ATOM      6  C   UNL     1      13.680  65.499   8.345  1.00  0.00     0.000 C 
BRANCH   6   7
ATOM      7  C   UNL     1      13.778  65.785   6.828  1.00  0.00     0.000 C 
BRANCH   7   8
ATOM      8  C   UNL     1      12.645  66.680   6.299  1.00  0.00     0.000 C 
BRANCH   8   9
ATOM      9  C   UNL     1      11.591  65.881   5.516  1.00  0.00     0.000 C 
BRANCH   9  10
ATOM     10  C   UNL     1      12.230  65.128   4.344  1.00  0.00     0.000 C 
BRANCH  10  11
ATOM     11  C   UNL     1      11.333  65.188   3.098  1.00  0.00     0.000 C 
BRANCH  11  12
ATOM     12  C   UNL     1      10.065  66.027   3.318  1.00  0.00     0.006 C 
BRANCH  12  13
ATOM     13  C   UNL     1       9.932  67.176   2.310  1.00  0.00     0.053 C 
BRANCH  13  14
ATOM     14  C   UNL     1      11.135  68.066   2.367  1.00  0.00     0.041 C 
ATOM     15  O   UNL     1      11.880  68.190   1.358  1.00  0.00    -0.550 OA
ATOM     16  O   UNL     1      11.414  68.785   3.523  1.00  0.00    -0.550 OA
ENDBRANCH  13  14
ENDBRANCH  12  13
ENDBRANCH  11  12
ENDBRANCH  10  11
ENDBRANCH   9  10
ENDBRANCH   8   9
ENDBRANCH   7   8
ENDBRANCH   6   7
ENDBRANCH   5   6
ENDBRANCH   4   5
ENDBRANCH   3   4
ENDBRANCH   2   3
ENDBRANCH   1   2
BRANCH   1  17
ATOM     17  C   UNL     1       9.612  64.805   8.024  1.00  0.00     0.000 C 
BRANCH  17  18
ATOM     18  C   UNL     1       9.922  65.966   8.984  1.00  0.00     0.000 C 
BRANCH  18  19
ATOM     19  C   UNL     1       8.669  66.502   9.696  1.00  0.00     0.000 C 
BRANCH  19  20
ATOM     20  C   UNL     1       8.756  68.005  10.002  1.00  0.00     0.000 C 
BRANCH  20  21
ATOM     21  C   UNL     1       9.843  68.677   9.154  1.00  0.00     0.000 C 
BRANCH  21  22
ATOM     22  C   UNL     1       9.227  69.467   7.990  1.00  0.00    -0.000 C 
BRANCH  22  23
ATOM     23  C   UNL     1       9.698  68.951   6.614  1.00  0.00    -0.000 C 
BRANCH  23  24
ATOM     24  C   UNL     1       8.637  68.117   5.869  1.00  0.00    -0.000 C 
BRANCH  24  25
ATOM     25  C   UNL     1       7.247  68.101   6.531  1.00  0.00    -0.000 C 
BRANCH  25  26
ATOM     26  C   UNL     1       6.118  67.530   5.652  1.00  0.00    -0.000 C 
BRANCH  26  27
ATOM     27  C   UNL     1       5.073  66.709   6.439  1.00  0.00    -0.000 C 
BRANCH  27  28
ATOM     28  C   UNL     1       5.605  66.246   7.807  1.00  0.00    -0.000 C 
BRANCH  28  29
ATOM     29  C   UNL     1       4.901  64.979   8.315  1.00  0.00    -0.003 C 
ATOM     30  C   UNL     1       5.867  63.813   8.529  1.00  0.00     0.004 C 
ENDBRANCH  28  29
ENDBRANCH  27  28
ENDBRANCH  26  27
ENDBRANCH  25  26
ENDBRANCH  24  25
ENDBRANCH  23  24
ENDBRANCH  22  23
ENDBRANCH  21  22
ENDBRANCH  20  21
ENDBRANCH  19  20
ENDBRANCH  18  19
ENDBRANCH  17  18
ENDBRANCH   1  17
TORSDOF 26
ENDMDL
MODEL 7
REMARK VINA RESULT:    -3.715      2.103      6.524
REMARK INTER + INTRA:         -13.822
REMARK INTER:                  -9.472
REMARK INTRA:                  -4.351
REMARK UNBOUND:                -4.462
REMARK SMILES CCCCCCCCCCCCCCCCCCCCCCCCCCCC(=O)[O-]
REMARK SMILES IDX 15 1 16 2 17 3 18 4 19 5 20 6 21 7 22 8 23 9 24 10 25 11
REMARK SMILES IDX 26 12 27 13 28 14 29 15 30 16 14 17 13 18 12 19 11 20 10 21
REMARK SMILES IDX 9 22 8 23 7 24 6 25 5 26 4 27 3 28 2 29 1 30
REMARK H PARENT
REMARK Flexibility Score: inf
ROOT
ATOM      1  C   UNL     1       4.958  66.043   7.309  1.00  0.00     0.000 C 
ENDROOT
BRANCH   1   2
ATOM      2  C   UNL     1       5.126  67.527   7.682  1.00  0.00     0.000 C 
BRANCH   2   3
ATOM      3  C   UNL     1       6.379  67.846   8.518  1.00  0.00     0.000 C 
BRANCH   3   4
ATOM      4  C   UNL     1       7.600  68.342   7.713  1.00  0.00     0.000 C 
BRANCH   4   5
ATOM      5  C   UNL     1       8.417  67.240   7.012  1.00  0.00     0.000 C 
BRANCH   5   6
ATOM      6  C   UNL     1       9.780  67.700   6.466  1.00  0.00     0.000 C 
BRANCH   6   7
ATOM      7  C   UNL     1      10.651  66.542   5.924  1.00  0.00     0.000 C 
BRANCH   7   8
ATOM      8  C   UNL     1      11.008  66.688   4.436  1.00  0.00     0.000 C 
BRANCH   8   9
ATOM      9  C   UNL     1       9.822  66.355   3.517  1.00  0.00     0.000 C 
BRANCH   9  10
ATOM     10  C   UNL     1       9.614  67.453   2.468  1.00  0.00     0.000 C 
BRANCH  10  11
ATOM     11  C   UNL     1       8.444  68.371   2.857  1.00  0.00     0.000 C 
BRANCH  11  12
ATOM     12  C   UNL     1       7.387  67.657   3.713  1.00  0.00     0.006 C 
BRANCH  12  13
ATOM     13  C   UNL     1       5.955  68.079   3.359  1.00  0.00     0.053 C 
BRANCH  13  14
ATOM     14  C   UNL     1       5.003  66.945   3.585  1.00  0.00     0.041 C 
ATOM     15  O   UNL     1       5.358  65.761   3.340  1.00  0.00    -0.550 OA
ATOM     16  O   UNL     1       3.736  67.194   4.098  1.00  0.00    -0.550 OA
ENDBRANCH  13  14
ENDBRANCH  12  13
ENDBRANCH  11  12
ENDBRANCH  10  11
ENDBRANCH   9  10
ENDBRANCH   8   9
ENDBRANCH   7   8
ENDBRANCH   6   7
ENDBRANCH   5   6
ENDBRANCH   4   5
ENDBRANCH   3   4
ENDBRANCH   2   3
ENDBRANCH   1   2
BRANCH   1  17
ATOM     17  C   UNL     1       4.898  65.100   8.531  1.00  0.00     0.000 C 
BRANCH  17  18
ATOM     18  C   UNL     1       5.930  63.963   8.443  1.00  0.00     0.000 C 
BRANCH  18  19
ATOM     19  C   UNL     1       7.356  64.424   8.782  1.00  0.00     0.000 C 
BRANCH  19  20
ATOM     20  C   UNL     1       8.387  63.289   8.685  1.00  0.00     0.000 C 
BRANCH  20  21
ATOM     21  C   UNL     1       9.784  63.839   8.372  1.00  0.00     0.000 C 
BRANCH  21  22
ATOM     22  C   UNL     1      10.878  62.882   8.868  1.00  0.00    -0.000 C 
BRANCH  22  23
ATOM     23  C   UNL     1      11.616  62.180   7.708  1.00  0.00    -0.000 C 
BRANCH  23  24
ATOM     24  C   UNL     1      13.020  62.753   7.431  1.00  0.00    -0.000 C 
BRANCH  24  25
ATOM     25  C   UNL     1      13.071  63.837   6.339  1.00  0.00    -0.000 C 
BRANCH  25  26
ATOM     26  C   UNL     1      13.921  65.072   6.692  1.00  0.00    -0.000 C 
BRANCH  26  27
ATOM     27  C   UNL     1      14.086  65.299   8.211  1.00  0.00    -0.000 C 
BRANCH  27  28
ATOM     28  C   UNL     1      13.457  66.624   8.676  1.00  0.00    -0.000 C 
BRANCH  28  29
ATOM     29  C   UNL     1      12.135  66.417   9.428  1.00  0.00    -0.003 C 
ATOM     30  C   UNL     1      12.319  65.674  10.751  1.00  0.00     0.004 C 
ENDBRANCH  28  29
ENDBRANCH  27  28
ENDBRANCH  26  27
ENDBRANCH  25  26
ENDBRANCH  24  25
ENDBRANCH  23  24
ENDBRANCH  22  23
ENDBRANCH  21  22
ENDBRANCH  20  21
ENDBRANCH  19  20
ENDBRANCH  18  19
ENDBRANCH  17  18
ENDBRANCH   1  17
TORSDOF 26
ENDMDL
MODEL 8
REMARK VINA RESULT:    -3.639      2.388      7.262
REMARK INTER + INTRA:         -13.632
REMARK INTER:                  -9.026
REMARK INTRA:                  -4.606
REMARK UNBOUND:                -4.462
REMARK SMILES CCCCCCCCCCCCCCCCCCCCCCCCCCCC(=O)[O-]
REMARK SMILES IDX 15 1 16 2 17 3 18 4 19 5 20 6 21 7 22 8 23 9 24 10 25 11
REMARK SMILES IDX 26 12 27 13 28 14 29 15 30 16 14 17 13 18 12 19 11 20 10 21
REMARK SMILES IDX 9 22 8 23 7 24 6 25 5 26 4 27 3 28 2 29 1 30
REMARK H PARENT
REMARK Flexibility Score: inf
ROOT
ATOM      1  C   UNL     1       8.261  68.116   3.925  1.00  0.00     0.000 C 
ENDROOT
BRANCH   1   2
ATOM      2  C   UNL     1       9.312  68.672   4.903  1.00  0.00     0.000 C 
BRANCH   2   3
ATOM      3  C   UNL     1       8.749  69.152   6.254  1.00  0.00     0.000 C 
BRANCH   3   4
ATOM      4  C   UNL     1       7.594  68.301   6.825  1.00  0.00     0.000 C 
BRANCH   4   5
ATOM      5  C   UNL     1       8.026  67.050   7.614  1.00  0.00     0.000 C 
BRANCH   5   6
ATOM      6  C   UNL     1       7.174  66.751   8.861  1.00  0.00     0.000 C 
BRANCH   6   7
ATOM      7  C   UNL     1       6.519  65.351   8.838  1.00  0.00     0.000 C 
BRANCH   7   8
ATOM      8  C   UNL     1       5.280  65.268   7.932  1.00  0.00     0.000 C 
BRANCH   8   9
ATOM      9  C   UNL     1       4.349  66.477   8.107  1.00  0.00     0.000 C 
BRANCH   9  10
ATOM     10  C   UNL     1       3.843  66.983   6.751  1.00  0.00     0.000 C 
BRANCH  10  11
ATOM     11  C   UNL     1       4.812  66.595   5.623  1.00  0.00     0.000 C 
BRANCH  11  12
ATOM     12  C   UNL     1       4.090  66.228   4.318  1.00  0.00     0.006 C 
BRANCH  12  13
ATOM     13  C   UNL     1       2.594  66.568   4.354  1.00  0.00     0.053 C 
BRANCH  13  14
ATOM     14  C   UNL     1       2.141  67.086   3.024  1.00  0.00     0.041 C 
ATOM     15  O   UNL     1       1.082  67.764   2.935  1.00  0.00    -0.550 OA
ATOM     16  O   UNL     1       2.907  66.851   1.889  1.00  0.00    -0.550 OA
ENDBRANCH  13  14
ENDBRANCH  12  13
ENDBRANCH  11  12
ENDBRANCH  10  11
ENDBRANCH   9  10
ENDBRANCH   8   9
ENDBRANCH   7   8
ENDBRANCH   6   7
ENDBRANCH   5   6
ENDBRANCH   4   5
ENDBRANCH   3   4
ENDBRANCH   2   3
ENDBRANCH   1   2
BRANCH   1  17
ATOM     17  C   UNL     1       8.746  66.885   3.128  1.00  0.00     0.000 C 
BRANCH  17  18
ATOM     18  C   UNL     1      10.275  66.865   2.957  1.00  0.00     0.000 C 
BRANCH  18  19
ATOM     19  C   UNL     1      10.877  65.463   3.147  1.00  0.00     0.000 C 
BRANCH  19  20
ATOM     20  C   UNL     1      11.879  65.400   4.310  1.00  0.00     0.000 C 
BRANCH  20  21
ATOM     21  C   UNL     1      11.197  65.729   5.643  1.00  0.00     0.000 C 
BRANCH  21  22
ATOM     22  C   UNL     1      12.006  66.765   6.437  1.00  0.00    -0.000 C 
BRANCH  22  23
ATOM     23  C   UNL     1      11.693  66.726   7.948  1.00  0.00    -0.000 C 
BRANCH  23  24
ATOM     24  C   UNL     1      12.903  66.340   8.821  1.00  0.00    -0.000 C 
BRANCH  24  25
ATOM     25  C   UNL     1      13.911  65.393   8.145  1.00  0.00    -0.000 C 
BRANCH  25  26
ATOM     26  C   UNL     1      13.697  63.897   8.446  1.00  0.00    -0.000 C 
BRANCH  26  27
ATOM     27  C   UNL     1      13.092  63.107   7.265  1.00  0.00    -0.000 C 
BRANCH  27  28
ATOM     28  C   UNL     1      11.802  62.365   7.659  1.00  0.00    -0.000 C 
BRANCH  28  29
ATOM     29  C   UNL     1      11.079  63.027   8.842  1.00  0.00    -0.003 C 
ATOM     30  C   UNL     1       9.691  63.547   8.469  1.00  0.00     0.004 C 
ENDBRANCH  28  29
ENDBRANCH  27  28
ENDBRANCH  26  27
ENDBRANCH  25  26
ENDBRANCH  24  25
ENDBRANCH  23  24
ENDBRANCH  22  23
ENDBRANCH  21  22
ENDBRANCH  20  21
ENDBRANCH  19  20
ENDBRANCH  18  19
ENDBRANCH  17  18
ENDBRANCH   1  17
TORSDOF 26
ENDMDL
MODEL 9
REMARK VINA RESULT:    -3.630      3.120      6.257
REMARK INTER + INTRA:         -13.609
REMARK INTER:                  -8.025
REMARK INTRA:                  -5.584
REMARK UNBOUND:                -4.462
REMARK SMILES CCCCCCCCCCCCCCCCCCCCCCCCCCCC(=O)[O-]
REMARK SMILES IDX 15 1 16 2 17 3 18 4 19 5 20 6 21 7 22 8 23 9 24 10 25 11
REMARK SMILES IDX 26 12 27 13 28 14 29 15 30 16 14 17 13 18 12 19 11 20 10 21
REMARK SMILES IDX 9 22 8 23 7 24 6 25 5 26 4 27 3 28 2 29 1 30
REMARK H PARENT
REMARK Flexibility Score: inf
ROOT
ATOM      1  C   UNL     1      12.947  62.741   6.605  1.00  0.00     0.000 C 
ENDROOT
BRANCH   1   2
ATOM      2  C   UNL     1      11.884  61.995   7.432  1.00  0.00     0.000 C 
BRANCH   2   3
ATOM      3  C   UNL     1      11.345  62.773   8.646  1.00  0.00     0.000 C 
BRANCH   3   4
ATOM      4  C   UNL     1      10.009  63.510   8.415  1.00  0.00     0.000 C 
BRANCH   4   5
ATOM      5  C   UNL     1      10.003  65.001   8.803  1.00  0.00     0.000 C 
BRANCH   5   6
ATOM      6  C   UNL     1      11.201  65.446   9.662  1.00  0.00     0.000 C 
BRANCH   6   7
ATOM      7  C   UNL     1      11.272  66.975   9.877  1.00  0.00     0.000 C 
BRANCH   7   8
ATOM      8  C   UNL     1      10.485  67.459  11.106  1.00  0.00     0.000 C 
BRANCH   8   9
ATOM      9  C   UNL     1       9.318  68.383  10.723  1.00  0.00     0.000 C 
BRANCH   9  10
ATOM     10  C   UNL     1       8.014  67.589  10.577  1.00  0.00     0.000 C 
BRANCH  10  11
ATOM     11  C   UNL     1       7.249  68.017   9.315  1.00  0.00     0.000 C 
BRANCH  11  12
ATOM     12  C   UNL     1       6.681  66.824   8.532  1.00  0.00     0.006 C 
BRANCH  12  13
ATOM     13  C   UNL     1       6.635  65.537   9.365  1.00  0.00     0.053 C 
BRANCH  13  14
ATOM     14  C   UNL     1       5.845  64.481   8.657  1.00  0.00     0.041 C 
ATOM     15  O   UNL     1       6.377  63.376   8.368  1.00  0.00    -0.550 OA
ATOM     16  O   UNL     1       4.509  64.704   8.346  1.00  0.00    -0.550 OA
ENDBRANCH  13  14
ENDBRANCH  12  13
ENDBRANCH  11  12
ENDBRANCH  10  11
ENDBRANCH   9  10
ENDBRANCH   8   9
ENDBRANCH   7   8
ENDBRANCH   6   7
ENDBRANCH   5   6
ENDBRANCH   4   5
ENDBRANCH   3   4
ENDBRANCH   2   3
ENDBRANCH   1   2
BRANCH   1  17
ATOM     17  C   UNL     1      13.564  63.952   7.337  1.00  0.00     0.000 C 
BRANCH  17  18
ATOM     18  C   UNL     1      13.314  65.275   6.593  1.00  0.00     0.000 C 
BRANCH  18  19
ATOM     19  C   UNL     1      12.045  65.241   5.727  1.00  0.00     0.000 C 
BRANCH  19  20
ATOM     20  C   UNL     1      12.179  66.073   4.442  1.00  0.00     0.000 C 
BRANCH  20  21
ATOM     21  C   UNL     1      11.413  65.423   3.283  1.00  0.00     0.000 C 
BRANCH  21  22
ATOM     22  C   UNL     1      10.714  66.484   2.420  1.00  0.00    -0.000 C 
BRANCH  22  23
ATOM     23  C   UNL     1      10.122  67.633   3.263  1.00  0.00    -0.000 C 
BRANCH  23  24
ATOM     24  C   UNL     1       8.671  67.384   3.717  1.00  0.00    -0.000 C 
BRANCH  24  25
ATOM     25  C   UNL     1       8.330  67.924   5.118  1.00  0.00    -0.000 C 
BRANCH  25  26
ATOM     26  C   UNL     1       9.312  67.506   6.230  1.00  0.00    -0.000 C 
BRANCH  26  27
ATOM     27  C   UNL     1       9.923  68.697   6.998  1.00  0.00    -0.000 C 
BRANCH  27  28
ATOM     28  C   UNL     1      11.285  69.126   6.423  1.00  0.00    -0.000 C 
BRANCH  28  29
ATOM     29  C   UNL     1      12.272  69.568   7.514  1.00  0.00    -0.003 C 
ATOM     30  C   UNL     1      13.565  68.752   7.504  1.00  0.00     0.004 C 
ENDBRANCH  28  29
ENDBRANCH  27  28
ENDBRANCH  26  27
ENDBRANCH  25  26
ENDBRANCH  24  25
ENDBRANCH  23  24
ENDBRANCH  22  23
ENDBRANCH  21  22
ENDBRANCH  20  21
ENDBRANCH  19  20
ENDBRANCH  18  19
ENDBRANCH  17  18
ENDBRANCH   1  17
TORSDOF 26
ENDMDL
