MODEL 1
REMARK VINA RESULT:    -7.013      0.000      0.000
REMARK INTER + INTRA:          -8.429
REMARK INTER:                  -8.448
REMARK INTRA:                   0.019
REMARK UNBOUND:                 0.019
REMARK SMILES O=c1c(O)c(-c2ccc(O)c(O)c2)oc2cc(O)cc(O)c12
REMARK SMILES IDX 5 1 3 2 2 3 1 4 22 5 20 6 19 7 17 8 16 9 15 10 14 11 6 12
REMARK SMILES IDX 7 13 8 14 9 15 13 16 11 17 10 18 12 20 4 22 21 24 18 26
REMARK H PARENT 10 19 12 21 4 23 21 25 18 27
REMARK Flexibility Score: inf
ROOT
ATOM      1  C   UNL     1      10.749  25.637  40.268  1.00  0.00     0.180 A 
ATOM      2  C   UNL     1      10.369  24.882  41.392  1.00  0.00     0.208 A 
ATOM      3  C   UNL     1      10.429  25.476  42.663  1.00  0.00     0.238 A 
ATOM      4  O   UNL     1      10.037  24.815  43.660  1.00  0.00    -0.285 OA
ATOM      5  C   UNL     1      10.882  26.811  42.796  1.00  0.00     0.111 A 
ATOM      6  C   UNL     1      11.022  27.500  44.038  1.00  0.00     0.134 A 
ATOM      7  C   UNL     1      11.355  28.860  44.040  1.00  0.00     0.093 A 
ATOM      8  C   UNL     1      11.617  29.540  42.848  1.00  0.00     0.123 A 
ATOM      9  C   UNL     1      11.542  28.860  41.634  1.00  0.00     0.094 A 
ATOM     10  C   UNL     1      11.176  27.513  41.597  1.00  0.00     0.146 A 
ATOM     11  O   UNL     1      11.107  26.906  40.419  1.00  0.00    -0.452 OA
ENDROOT
BRANCH   1  12
ATOM     12  C   UNL     1      10.736  25.071  38.900  1.00  0.00     0.025 A 
ATOM     13  C   UNL     1       9.609  24.399  38.395  1.00  0.00     0.016 A 
ATOM     14  C   UNL     1       9.630  23.853  37.110  1.00  0.00     0.051 A 
ATOM     15  C   UNL     1      10.778  23.956  36.314  1.00  0.00     0.157 A 
ATOM     16  C   UNL     1      11.893  25.154  38.106  1.00  0.00     0.062 A 
ATOM     17  C   UNL     1      11.916  24.609  36.818  1.00  0.00     0.158 A 
BRANCH  15  18
ATOM     18  O   UNL     1      10.795  23.412  35.031  1.00  0.00    -0.504 OA
ATOM     19  H   UNL     1      10.045  23.585  34.372  1.00  0.00     0.293 HD
ENDBRANCH  15  18
BRANCH  17  20
ATOM     20  O   UNL     1      13.078  24.723  36.055  1.00  0.00    -0.504 OA
ATOM     21  H   UNL     1      14.000  24.625  36.462  1.00  0.00     0.293 HD
ENDBRANCH  17  20
ENDBRANCH   1  12
BRANCH   2  22
ATOM     22  O   UNL     1       9.904  23.574  41.236  1.00  0.00    -0.502 OA
ATOM     23  H   UNL     1      10.392  22.773  41.619  1.00  0.00     0.293 HD
ENDBRANCH   2  22
BRANCH   6  24
ATOM     24  O   UNL     1      10.873  26.892  45.289  1.00  0.00    -0.507 OA
ATOM     25  H   UNL     1      10.046  26.402  45.593  1.00  0.00     0.293 HD
ENDBRANCH   6  24
BRANCH   8  26
ATOM     26  O   UNL     1      11.963  30.889  42.860  1.00  0.00    -0.508 OA
ATOM     27  H   UNL     1      12.234  31.374  42.012  1.00  0.00     0.293 HD
ENDBRANCH   8  26
TORSDOF 6
ENDMDL
MODEL 2
REMARK VINA RESULT:    -6.991      2.915      4.713
REMARK INTER + INTRA:          -8.402
REMARK INTER:                  -8.132
REMARK INTRA:                  -0.271
REMARK UNBOUND:                 0.019
REMARK SMILES O=c1c(O)c(-c2ccc(O)c(O)c2)oc2cc(O)cc(O)c12
REMARK SMILES IDX 5 1 3 2 2 3 1 4 22 5 20 6 19 7 17 8 16 9 15 10 14 11 6 12
REMARK SMILES IDX 7 13 8 14 9 15 13 16 11 17 10 18 12 20 4 22 21 24 18 26
REMARK H PARENT 10 19 12 21 4 23 21 25 18 27
REMARK Flexibility Score: inf
ROOT
ATOM      1  C   UNL     1       9.617  25.087  40.232  1.00  0.00     0.180 A 
ATOM      2  C   UNL     1      10.350  25.272  41.417  1.00  0.00     0.208 A 
ATOM      3  C   UNL     1      11.554  25.992  41.367  1.00  0.00     0.238 A 
ATOM      4  O   UNL     1      12.178  26.203  42.441  1.00  0.00    -0.285 OA
ATOM      5  C   UNL     1      12.019  26.504  40.131  1.00  0.00     0.111 A 
ATOM      6  C   UNL     1      13.246  27.212  39.957  1.00  0.00     0.134 A 
ATOM      7  C   UNL     1      13.542  27.785  38.714  1.00  0.00     0.093 A 
ATOM      8  C   UNL     1      12.687  27.618  37.622  1.00  0.00     0.123 A 
ATOM      9  C   UNL     1      11.517  26.877  37.767  1.00  0.00     0.094 A 
ATOM     10  C   UNL     1      11.176  26.325  39.004  1.00  0.00     0.146 A 
ATOM     11  O   UNL     1      10.046  25.634  39.100  1.00  0.00    -0.452 OA
ENDROOT
BRANCH   1  12
ATOM     12  C   UNL     1       8.352  24.318  40.200  1.00  0.00     0.025 A 
ATOM     13  C   UNL     1       7.150  24.866  40.682  1.00  0.00     0.016 A 
ATOM     14  C   UNL     1       5.974  24.112  40.664  1.00  0.00     0.051 A 
ATOM     15  C   UNL     1       5.982  22.798  40.179  1.00  0.00     0.157 A 
ATOM     16  C   UNL     1       8.359  22.992  39.735  1.00  0.00     0.062 A 
ATOM     17  C   UNL     1       7.183  22.235  39.715  1.00  0.00     0.158 A 
BRANCH  15  18
ATOM     18  O   UNL     1       4.806  22.050  40.161  1.00  0.00    -0.504 OA
ATOM     19  H   UNL     1       4.494  21.532  40.975  1.00  0.00     0.293 HD
ENDBRANCH  15  18
BRANCH  17  20
ATOM     20  O   UNL     1       7.226  20.928  39.233  1.00  0.00    -0.504 OA
ATOM     21  H   UNL     1       7.541  20.154  39.805  1.00  0.00     0.293 HD
ENDBRANCH  17  20
ENDBRANCH   1  12
BRANCH   2  22
ATOM     22  O   UNL     1       9.862  24.779  42.630  1.00  0.00    -0.502 OA
ATOM     23  H   UNL     1       8.903  24.474  42.747  1.00  0.00     0.293 HD
ENDBRANCH   2  22
BRANCH   6  24
ATOM     24  O   UNL     1      14.212  27.358  40.958  1.00  0.00    -0.507 OA
ATOM     25  H   UNL     1      14.120  27.962  41.760  1.00  0.00     0.293 HD
ENDBRANCH   6  24
BRANCH   8  26
ATOM     26  O   UNL     1      12.997  28.178  36.384  1.00  0.00    -0.508 OA
ATOM     27  H   UNL     1      12.670  27.764  35.519  1.00  0.00     0.293 HD
ENDBRANCH   8  26
TORSDOF 6
ENDMDL
MODEL 3
REMARK VINA RESULT:    -6.969      3.004      4.324
REMARK INTER + INTRA:          -8.376
REMARK INTER:                  -8.081
REMARK INTRA:                  -0.295
REMARK UNBOUND:                 0.019
REMARK SMILES O=c1c(O)c(-c2ccc(O)c(O)c2)oc2cc(O)cc(O)c12
REMARK SMILES IDX 5 1 3 2 2 3 1 4 22 5 20 6 19 7 17 8 16 9 15 10 14 11 6 12
REMARK SMILES IDX 7 13 8 14 9 15 13 16 11 17 10 18 12 20 4 22 21 24 18 26
REMARK H PARENT 10 19 12 21 4 23 21 25 18 27
REMARK Flexibility Score: inf
ROOT
ATOM      1  C   UNL     1      10.880  25.993  41.429  1.00  0.00     0.180 A 
ATOM      2  C   UNL     1      10.547  24.641  41.230  1.00  0.00     0.208 A 
ATOM      3  C   UNL     1       9.530  24.070  42.011  1.00  0.00     0.238 A 
ATOM      4  O   UNL     1       9.198  22.875  41.792  1.00  0.00    -0.285 OA
ATOM      5  C   UNL     1       8.869  24.851  42.990  1.00  0.00     0.111 A 
ATOM      6  C   UNL     1       7.852  24.364  43.865  1.00  0.00     0.134 A 
ATOM      7  C   UNL     1       7.177  25.257  44.706  1.00  0.00     0.093 A 
ATOM      8  C   UNL     1       7.528  26.609  44.749  1.00  0.00     0.123 A 
ATOM      9  C   UNL     1       8.560  27.082  43.943  1.00  0.00     0.094 A 
ATOM     10  C   UNL     1       9.227  26.222  43.067  1.00  0.00     0.146 A 
ATOM     11  O   UNL     1      10.198  26.716  42.309  1.00  0.00    -0.452 OA
ENDROOT
BRANCH   1  12
ATOM     12  C   UNL     1      11.957  26.659  40.662  1.00  0.00     0.025 A 
ATOM     13  C   UNL     1      13.229  26.875  41.222  1.00  0.00     0.016 A 
ATOM     14  C   UNL     1      14.222  27.527  40.488  1.00  0.00     0.051 A 
ATOM     15  C   UNL     1      13.959  27.985  39.191  1.00  0.00     0.157 A 
ATOM     16  C   UNL     1      11.692  27.139  39.369  1.00  0.00     0.062 A 
ATOM     17  C   UNL     1      12.685  27.792  38.630  1.00  0.00     0.158 A 
BRANCH  15  18
ATOM     18  O   UNL     1      14.953  28.634  38.460  1.00  0.00    -0.504 OA
ATOM     19  H   UNL     1      15.678  29.175  38.916  1.00  0.00     0.293 HD
ENDBRANCH  15  18
BRANCH  17  20
ATOM     20  O   UNL     1      12.387  28.241  37.344  1.00  0.00    -0.504 OA
ATOM     21  H   UNL     1      11.435  28.318  37.008  1.00  0.00     0.293 HD
ENDBRANCH  17  20
ENDBRANCH   1  12
BRANCH   2  22
ATOM     22  O   UNL     1      11.195  23.895  40.243  1.00  0.00    -0.502 OA
ATOM     23  H   UNL     1      11.333  22.894  40.320  1.00  0.00     0.293 HD
ENDBRANCH   2  22
BRANCH   6  24
ATOM     24  O   UNL     1       7.488  23.017  43.966  1.00  0.00    -0.507 OA
ATOM     25  H   UNL     1       7.651  22.437  44.774  1.00  0.00     0.293 HD
ENDBRANCH   6  24
BRANCH   8  26
ATOM     26  O   UNL     1       6.862  27.489  45.600  1.00  0.00    -0.508 OA
ATOM     27  H   UNL     1       6.892  28.492  45.454  1.00  0.00     0.293 HD
ENDBRANCH   8  26
TORSDOF 6
ENDMDL
MODEL 4
REMARK VINA RESULT:    -6.867      3.064      5.823
REMARK INTER + INTRA:          -8.253
REMARK INTER:                  -7.995
REMARK INTRA:                  -0.257
REMARK UNBOUND:                 0.019
REMARK SMILES O=c1c(O)c(-c2ccc(O)c(O)c2)oc2cc(O)cc(O)c12
REMARK SMILES IDX 5 1 3 2 2 3 1 4 22 5 20 6 19 7 17 8 16 9 15 10 14 11 6 12
REMARK SMILES IDX 7 13 8 14 9 15 13 16 11 17 10 18 12 20 4 22 21 24 18 26
REMARK H PARENT 10 19 12 21 4 23 21 25 18 27
REMARK Flexibility Score: inf
ROOT
ATOM      1  C   UNL     1      10.208  25.822  39.848  1.00  0.00     0.180 A 
ATOM      2  C   UNL     1       9.321  26.250  40.851  1.00  0.00     0.208 A 
ATOM      3  C   UNL     1       8.185  25.473  41.130  1.00  0.00     0.238 A 
ATOM      4  O   UNL     1       7.422  25.831  42.066  1.00  0.00    -0.285 OA
ATOM      5  C   UNL     1       7.942  24.288  40.393  1.00  0.00     0.111 A 
ATOM      6  C   UNL     1       6.802  23.447  40.564  1.00  0.00     0.134 A 
ATOM      7  C   UNL     1       6.730  22.232  39.871  1.00  0.00     0.093 A 
ATOM      8  C   UNL     1       7.726  21.859  38.965  1.00  0.00     0.123 A 
ATOM      9  C   UNL     1       8.813  22.703  38.747  1.00  0.00     0.094 A 
ATOM     10  C   UNL     1       8.931  23.904  39.450  1.00  0.00     0.146 A 
ATOM     11  O   UNL     1       9.987  24.673  39.219  1.00  0.00    -0.452 OA
ENDROOT
BRANCH   1  12
ATOM     12  C   UNL     1      11.413  26.600  39.479  1.00  0.00     0.025 A 
ATOM     13  C   UNL     1      11.477  27.327  38.278  1.00  0.00     0.016 A 
ATOM     14  C   UNL     1      12.633  28.034  37.940  1.00  0.00     0.051 A 
ATOM     15  C   UNL     1      13.748  28.014  38.788  1.00  0.00     0.157 A 
ATOM     16  C   UNL     1      12.541  26.566  40.316  1.00  0.00     0.062 A 
ATOM     17  C   UNL     1      13.701  27.274  39.982  1.00  0.00     0.158 A 
BRANCH  15  18
ATOM     18  O   UNL     1      14.900  28.722  38.450  1.00  0.00    -0.504 OA
ATOM     19  H   UNL     1      15.440  29.221  39.147  1.00  0.00     0.293 HD
ENDBRANCH  15  18
BRANCH  17  20
ATOM     20  O   UNL     1      14.795  27.227  40.845  1.00  0.00    -0.504 OA
ATOM     21  H   UNL     1      15.384  26.407  40.923  1.00  0.00     0.293 HD
ENDBRANCH  17  20
ENDBRANCH   1  12
BRANCH   2  22
ATOM     22  O   UNL     1       9.591  27.409  41.581  1.00  0.00    -0.502 OA
ATOM     23  H   UNL     1       9.949  28.253  41.150  1.00  0.00     0.293 HD
ENDBRANCH   2  22
BRANCH   6  24
ATOM     24  O   UNL     1       5.709  23.769  41.375  1.00  0.00    -0.507 OA
ATOM     25  H   UNL     1       5.328  23.169  42.091  1.00  0.00     0.293 HD
ENDBRANCH   6  24
BRANCH   8  26
ATOM     26  O   UNL     1       7.640  20.656  38.268  1.00  0.00    -0.508 OA
ATOM     27  H   UNL     1       8.357  19.945  38.347  1.00  0.00     0.293 HD
ENDBRANCH   8  26
TORSDOF 6
ENDMDL
MODEL 5
REMARK VINA RESULT:    -6.829      2.494      6.950
REMARK INTER + INTRA:          -8.207
REMARK INTER:                  -7.939
REMARK INTRA:                  -0.268
REMARK UNBOUND:                 0.019
REMARK SMILES O=c1c(O)c(-c2ccc(O)c(O)c2)oc2cc(O)cc(O)c12
REMARK SMILES IDX 5 1 3 2 2 3 1 4 22 5 20 6 19 7 17 8 16 9 15 10 14 11 6 12
REMARK SMILES IDX 7 13 8 14 9 15 13 16 11 17 10 18 12 20 4 22 21 24 18 26
REMARK H PARENT 10 19 12 21 4 23 21 25 18 27
REMARK Flexibility Score: inf
ROOT
ATOM      1  C   UNL     1       9.807  25.644  41.304  1.00  0.00     0.180 A 
ATOM      2  C   UNL     1      10.659  24.828  40.540  1.00  0.00     0.208 A 
ATOM      3  C   UNL     1      10.141  23.660  39.959  1.00  0.00     0.238 A 
ATOM      4  O   UNL     1      10.894  22.961  39.230  1.00  0.00    -0.285 OA
ATOM      5  C   UNL     1       8.783  23.313  40.162  1.00  0.00     0.111 A 
ATOM      6  C   UNL     1       8.163  22.132  39.654  1.00  0.00     0.134 A 
ATOM      7  C   UNL     1       6.782  21.957  39.808  1.00  0.00     0.093 A 
ATOM      8  C   UNL     1       6.011  22.889  40.507  1.00  0.00     0.123 A 
ATOM      9  C   UNL     1       6.618  24.015  41.058  1.00  0.00     0.094 A 
ATOM     10  C   UNL     1       7.987  24.236  40.890  1.00  0.00     0.146 A 
ATOM     11  O   UNL     1       8.523  25.327  41.423  1.00  0.00    -0.452 OA
ENDROOT
BRANCH   1  12
ATOM     12  C   UNL     1      10.286  26.878  41.969  1.00  0.00     0.025 A 
ATOM     13  C   UNL     1      10.531  28.055  41.240  1.00  0.00     0.016 A 
ATOM     14  C   UNL     1      11.006  29.199  41.885  1.00  0.00     0.051 A 
ATOM     15  C   UNL     1      11.257  29.182  43.263  1.00  0.00     0.157 A 
ATOM     16  C   UNL     1      10.560  26.860  43.347  1.00  0.00     0.062 A 
ATOM     17  C   UNL     1      11.035  28.004  43.996  1.00  0.00     0.158 A 
BRANCH  15  18
ATOM     18  O   UNL     1      11.729  30.327  43.904  1.00  0.00    -0.504 OA
ATOM     19  H   UNL     1      11.922  30.335  44.899  1.00  0.00     0.293 HD
ENDBRANCH  15  18
BRANCH  17  20
ATOM     20  O   UNL     1      11.281  27.952  45.368  1.00  0.00    -0.504 OA
ATOM     21  H   UNL     1      10.574  28.194  46.051  1.00  0.00     0.293 HD
ENDBRANCH  17  20
ENDBRANCH   1  12
BRANCH   2  22
ATOM     22  O   UNL     1      11.990  25.200  40.333  1.00  0.00    -0.502 OA
ATOM     23  H   UNL     1      12.719  25.015  41.011  1.00  0.00     0.293 HD
ENDBRANCH   2  22
BRANCH   6  24
ATOM     24  O   UNL     1       8.857  21.097  39.021  1.00  0.00    -0.507 OA
ATOM     25  H   UNL     1       9.228  21.143  38.084  1.00  0.00     0.293 HD
ENDBRANCH   6  24
BRANCH   8  26
ATOM     26  O   UNL     1       4.640  22.699  40.669  1.00  0.00    -0.508 OA
ATOM     27  H   UNL     1       4.255  21.792  40.907  1.00  0.00     0.293 HD
ENDBRANCH   8  26
TORSDOF 6
ENDMDL
MODEL 6
REMARK VINA RESULT:    -6.796      9.008     10.326
REMARK INTER + INTRA:          -8.167
REMARK INTER:                  -8.135
REMARK INTRA:                  -0.032
REMARK UNBOUND:                 0.019
REMARK SMILES O=c1c(O)c(-c2ccc(O)c(O)c2)oc2cc(O)cc(O)c12
REMARK SMILES IDX 5 1 3 2 2 3 1 4 22 5 20 6 19 7 17 8 16 9 15 10 14 11 6 12
REMARK SMILES IDX 7 13 8 14 9 15 13 16 11 17 10 18 12 20 4 22 21 24 18 26
REMARK H PARENT 10 19 12 21 4 23 21 25 18 27
REMARK Flexibility Score: inf
ROOT
ATOM      1  C   UNL     1      16.924  18.526  40.181  1.00  0.00     0.180 A 
ATOM      2  C   UNL     1      16.506  19.412  41.189  1.00  0.00     0.208 A 
ATOM      3  C   UNL     1      17.338  20.489  41.536  1.00  0.00     0.238 A 
ATOM      4  O   UNL     1      16.935  21.310  42.401  1.00  0.00    -0.285 OA
ATOM      5  C   UNL     1      18.582  20.658  40.881  1.00  0.00     0.111 A 
ATOM      6  C   UNL     1      19.522  21.690  41.180  1.00  0.00     0.134 A 
ATOM      7  C   UNL     1      20.662  21.839  40.381  1.00  0.00     0.093 A 
ATOM      8  C   UNL     1      20.928  20.952  39.334  1.00  0.00     0.123 A 
ATOM      9  C   UNL     1      20.047  19.906  39.073  1.00  0.00     0.094 A 
ATOM     10  C   UNL     1      18.883  19.754  39.829  1.00  0.00     0.146 A 
ATOM     11  O   UNL     1      18.066  18.749  39.540  1.00  0.00    -0.452 OA
ENDROOT
BRANCH   1  12
ATOM     12  C   UNL     1      16.114  17.354  39.778  1.00  0.00     0.025 A 
ATOM     13  C   UNL     1      16.658  16.057  39.763  1.00  0.00     0.016 A 
ATOM     14  C   UNL     1      15.881  14.970  39.357  1.00  0.00     0.051 A 
ATOM     15  C   UNL     1      14.556  15.161  38.946  1.00  0.00     0.157 A 
ATOM     16  C   UNL     1      14.790  17.543  39.345  1.00  0.00     0.062 A 
ATOM     17  C   UNL     1      14.009  16.455  38.938  1.00  0.00     0.158 A 
BRANCH  15  18
ATOM     18  O   UNL     1      13.782  14.073  38.543  1.00  0.00    -0.504 OA
ATOM     19  H   UNL     1      13.969  13.582  37.677  1.00  0.00     0.293 HD
ENDBRANCH  15  18
BRANCH  17  20
ATOM     20  O   UNL     1      12.696  16.681  38.529  1.00  0.00    -0.504 OA
ATOM     21  H   UNL     1      12.437  16.723  37.551  1.00  0.00     0.293 HD
ENDBRANCH  17  20
ENDBRANCH   1  12
BRANCH   2  22
ATOM     22  O   UNL     1      15.265  19.240  41.807  1.00  0.00    -0.502 OA
ATOM     23  H   UNL     1      14.389  19.353  41.310  1.00  0.00     0.293 HD
ENDBRANCH   2  22
BRANCH   6  24
ATOM     24  O   UNL     1      19.397  22.571  42.259  1.00  0.00    -0.507 OA
ATOM     25  H   UNL     1      19.786  22.414  43.176  1.00  0.00     0.293 HD
ENDBRANCH   6  24
BRANCH   8  26
ATOM     26  O   UNL     1      22.073  21.097  38.553  1.00  0.00    -0.508 OA
ATOM     27  H   UNL     1      22.161  21.845  37.874  1.00  0.00     0.293 HD
ENDBRANCH   8  26
TORSDOF 6
ENDMDL
MODEL 7
REMARK VINA RESULT:    -6.777      2.998      5.778
REMARK INTER + INTRA:          -8.144
REMARK INTER:                  -7.932
REMARK INTRA:                  -0.212
REMARK UNBOUND:                 0.019
REMARK SMILES O=c1c(O)c(-c2ccc(O)c(O)c2)oc2cc(O)cc(O)c12
REMARK SMILES IDX 5 1 3 2 2 3 1 4 22 5 20 6 19 7 17 8 16 9 15 10 14 11 6 12
REMARK SMILES IDX 7 13 8 14 9 15 13 16 11 17 10 18 12 20 4 22 21 24 18 26
REMARK H PARENT 10 19 12 21 4 23 21 25 18 27
REMARK Flexibility Score: inf
ROOT
ATOM      1  C   UNL     1      10.272  25.789  39.894  1.00  0.00     0.180 A 
ATOM      2  C   UNL     1       9.370  26.255  40.867  1.00  0.00     0.208 A 
ATOM      3  C   UNL     1       8.208  25.512  41.127  1.00  0.00     0.238 A 
ATOM      4  O   UNL     1       7.430  25.903  42.037  1.00  0.00    -0.285 OA
ATOM      5  C   UNL     1       7.953  24.322  40.402  1.00  0.00     0.111 A 
ATOM      6  C   UNL     1       6.788  23.512  40.555  1.00  0.00     0.134 A 
ATOM      7  C   UNL     1       6.703  22.289  39.879  1.00  0.00     0.093 A 
ATOM      8  C   UNL     1       7.713  21.877  39.005  1.00  0.00     0.123 A 
ATOM      9  C   UNL     1       8.826  22.690  38.804  1.00  0.00     0.094 A 
ATOM     10  C   UNL     1       8.957  23.898  39.492  1.00  0.00     0.146 A 
ATOM     11  O   UNL     1      10.039  24.637  39.278  1.00  0.00    -0.452 OA
ENDROOT
BRANCH   1  12
ATOM     12  C   UNL     1      11.506  26.530  39.547  1.00  0.00     0.025 A 
ATOM     13  C   UNL     1      12.581  26.628  40.448  1.00  0.00     0.016 A 
ATOM     14  C   UNL     1      13.725  27.353  40.108  1.00  0.00     0.051 A 
ATOM     15  C   UNL     1      13.809  28.002  38.869  1.00  0.00     0.157 A 
ATOM     16  C   UNL     1      11.587  27.200  38.315  1.00  0.00     0.062 A 
ATOM     17  C   UNL     1      12.732  27.927  37.970  1.00  0.00     0.158 A 
BRANCH  15  18
ATOM     18  O   UNL     1      14.953  28.723  38.531  1.00  0.00    -0.504 OA
ATOM     19  H   UNL     1      14.987  29.732  38.613  1.00  0.00     0.293 HD
ENDBRANCH  15  18
BRANCH  17  20
ATOM     20  O   UNL     1      12.781  28.567  36.732  1.00  0.00    -0.504 OA
ATOM     21  H   UNL     1      12.844  28.052  35.862  1.00  0.00     0.293 HD
ENDBRANCH  17  20
ENDBRANCH   1  12
BRANCH   2  22
ATOM     22  O   UNL     1       9.651  27.418  41.587  1.00  0.00    -0.502 OA
ATOM     23  H   UNL     1       9.521  27.483  42.590  1.00  0.00     0.293 HD
ENDBRANCH   2  22
BRANCH   6  24
ATOM     24  O   UNL     1       5.683  23.874  41.331  1.00  0.00    -0.507 OA
ATOM     25  H   UNL     1       4.755  24.034  40.970  1.00  0.00     0.293 HD
ENDBRANCH   6  24
BRANCH   8  26
ATOM     26  O   UNL     1       7.614  20.666  38.324  1.00  0.00    -0.508 OA
ATOM     27  H   UNL     1       8.407  20.266  37.835  1.00  0.00     0.293 HD
ENDBRANCH   8  26
TORSDOF 6
ENDMDL
MODEL 8
REMARK VINA RESULT:    -6.650      2.352      6.991
REMARK INTER + INTRA:          -7.991
REMARK INTER:                  -7.678
REMARK INTRA:                  -0.313
REMARK UNBOUND:                 0.019
REMARK SMILES O=c1c(O)c(-c2ccc(O)c(O)c2)oc2cc(O)cc(O)c12
REMARK SMILES IDX 5 1 3 2 2 3 1 4 22 5 20 6 19 7 17 8 16 9 15 10 14 11 6 12
REMARK SMILES IDX 7 13 8 14 9 15 13 16 11 17 10 18 12 20 4 22 21 24 18 26
REMARK H PARENT 10 19 12 21 4 23 21 25 18 27
REMARK Flexibility Score: inf
ROOT
ATOM      1  C   UNL     1       9.851  25.364  41.467  1.00  0.00     0.180 A 
ATOM      2  C   UNL     1      11.249  25.366  41.622  1.00  0.00     0.208 A 
ATOM      3  C   UNL     1      12.051  24.913  40.563  1.00  0.00     0.238 A 
ATOM      4  O   UNL     1      13.303  24.968  40.686  1.00  0.00    -0.285 OA
ATOM      5  C   UNL     1      11.447  24.449  39.369  1.00  0.00     0.111 A 
ATOM      6  C   UNL     1      12.161  23.929  38.248  1.00  0.00     0.134 A 
ATOM      7  C   UNL     1      11.469  23.621  37.071  1.00  0.00     0.093 A 
ATOM      8  C   UNL     1      10.080  23.752  36.997  1.00  0.00     0.123 A 
ATOM      9  C   UNL     1       9.368  24.201  38.106  1.00  0.00     0.094 A 
ATOM     10  C   UNL     1      10.034  24.551  39.282  1.00  0.00     0.146 A 
ATOM     11  O   UNL     1       9.318  24.984  40.312  1.00  0.00    -0.452 OA
ENDROOT
BRANCH   1  12
ATOM     12  C   UNL     1       8.939  25.803  42.548  1.00  0.00     0.025 A 
ATOM     13  C   UNL     1       8.627  27.161  42.737  1.00  0.00     0.016 A 
ATOM     14  C   UNL     1       7.783  27.553  43.778  1.00  0.00     0.051 A 
ATOM     15  C   UNL     1       7.249  26.600  44.655  1.00  0.00     0.157 A 
ATOM     16  C   UNL     1       8.418  24.853  43.442  1.00  0.00     0.062 A 
ATOM     17  C   UNL     1       7.571  25.242  44.486  1.00  0.00     0.158 A 
BRANCH  15  18
ATOM     18  O   UNL     1       6.405  26.994  45.692  1.00  0.00    -0.504 OA
ATOM     19  H   UNL     1       5.577  27.551  45.518  1.00  0.00     0.293 HD
ENDBRANCH  15  18
BRANCH  17  20
ATOM     20  O   UNL     1       7.062  24.269  45.345  1.00  0.00    -0.504 OA
ATOM     21  H   UNL     1       6.365  24.483  46.047  1.00  0.00     0.293 HD
ENDBRANCH  17  20
ENDBRANCH   1  12
BRANCH   2  22
ATOM     22  O   UNL     1      11.825  25.849  42.800  1.00  0.00    -0.502 OA
ATOM     23  H   UNL     1      12.556  25.350  43.293  1.00  0.00     0.293 HD
ENDBRANCH   2  22
BRANCH   6  24
ATOM     24  O   UNL     1      13.537  23.675  38.249  1.00  0.00    -0.507 OA
ATOM     25  H   UNL     1      14.252  24.384  38.206  1.00  0.00     0.293 HD
ENDBRANCH   6  24
BRANCH   8  26
ATOM     26  O   UNL     1       9.397  23.428  35.827  1.00  0.00    -0.508 OA
ATOM     27  H   UNL     1       8.855  24.118  35.320  1.00  0.00     0.293 HD
ENDBRANCH   8  26
TORSDOF 6
ENDMDL
MODEL 9
REMARK VINA RESULT:    -6.595      3.170      5.013
REMARK INTER + INTRA:          -7.925
REMARK INTER:                  -7.614
REMARK INTRA:                  -0.312
REMARK UNBOUND:                 0.019
REMARK SMILES O=c1c(O)c(-c2ccc(O)c(O)c2)oc2cc(O)cc(O)c12
REMARK SMILES IDX 5 1 3 2 2 3 1 4 22 5 20 6 19 7 17 8 16 9 15 10 14 11 6 12
REMARK SMILES IDX 7 13 8 14 9 15 13 16 11 17 10 18 12 20 4 22 21 24 18 26
REMARK H PARENT 10 19 12 21 4 23 21 25 18 27
REMARK Flexibility Score: inf
ROOT
ATOM      1  C   UNL     1      10.192  24.321  39.720  1.00  0.00     0.180 A 
ATOM      2  C   UNL     1      10.349  25.353  38.779  1.00  0.00     0.208 A 
ATOM      3  C   UNL     1      11.472  26.191  38.870  1.00  0.00     0.238 A 
ATOM      4  O   UNL     1      11.637  27.079  37.993  1.00  0.00    -0.285 OA
ATOM      5  C   UNL     1      12.415  25.996  39.909  1.00  0.00     0.111 A 
ATOM      6  C   UNL     1      13.568  26.810  40.121  1.00  0.00     0.134 A 
ATOM      7  C   UNL     1      14.500  26.447  41.100  1.00  0.00     0.093 A 
ATOM      8  C   UNL     1      14.288  25.334  41.919  1.00  0.00     0.123 A 
ATOM      9  C   UNL     1      13.136  24.569  41.760  1.00  0.00     0.094 A 
ATOM     10  C   UNL     1      12.206  24.885  40.767  1.00  0.00     0.146 A 
ATOM     11  O   UNL     1      11.126  24.123  40.643  1.00  0.00    -0.452 OA
ENDROOT
BRANCH   1  12
ATOM     12  C   UNL     1       9.022  23.413  39.705  1.00  0.00     0.025 A 
ATOM     13  C   UNL     1       8.985  22.280  38.873  1.00  0.00     0.016 A 
ATOM     14  C   UNL     1       7.860  21.452  38.858  1.00  0.00     0.051 A 
ATOM     15  C   UNL     1       6.751  21.749  39.660  1.00  0.00     0.157 A 
ATOM     16  C   UNL     1       7.899  23.719  40.491  1.00  0.00     0.062 A 
ATOM     17  C   UNL     1       6.770  22.891  40.479  1.00  0.00     0.158 A 
BRANCH  15  18
ATOM     18  O   UNL     1       5.630  20.920  39.644  1.00  0.00    -0.504 OA
ATOM     19  H   UNL     1       4.948  20.965  38.896  1.00  0.00     0.293 HD
ENDBRANCH  15  18
BRANCH  17  20
ATOM     20  O   UNL     1       5.681  23.219  41.284  1.00  0.00    -0.504 OA
ATOM     21  H   UNL     1       5.795  23.582  42.223  1.00  0.00     0.293 HD
ENDBRANCH  17  20
ENDBRANCH   1  12
BRANCH   2  22
ATOM     22  O   UNL     1       9.419  25.514  37.750  1.00  0.00    -0.502 OA
ATOM     23  H   UNL     1       8.459  25.202  37.830  1.00  0.00     0.293 HD
ENDBRANCH   2  22
BRANCH   6  24
ATOM     24  O   UNL     1      13.828  27.992  39.420  1.00  0.00    -0.507 OA
ATOM     25  H   UNL     1      14.688  28.194  38.934  1.00  0.00     0.293 HD
ENDBRANCH   6  24
BRANCH   8  26
ATOM     26  O   UNL     1      15.213  24.988  42.901  1.00  0.00    -0.508 OA
ATOM     27  H   UNL     1      15.387  25.588  43.700  1.00  0.00     0.293 HD
ENDBRANCH   8  26
TORSDOF 6
ENDMDL
