MODEL 1
REMARK VINA RESULT:    -3.586      0.000      0.000
REMARK INTER + INTRA:          -9.969
REMARK INTER:                  -6.939
REMARK INTRA:                  -3.029
REMARK UNBOUND:                -3.029
REMARK SMILES CCCCCCCCCCCCCCCCCC(=O)[O-]
REMARK SMILES IDX 10 1 11 2 12 3 13 4 14 5 15 6 16 7 17 8 18 9 19 10 20 11
REMARK SMILES IDX 9 12 8 13 7 14 6 15 5 16 4 17 3 18 2 19 1 20
REMARK H PARENT
REMARK Flexibility Score: inf
ROOT
ATOM      1  C   UNL     1      17.876  38.511  35.508  1.00  0.00     0.000 C 
ENDROOT
BRANCH   1   2
ATOM      2  C   UNL     1      19.172  37.744  35.198  1.00  0.00     0.000 C 
BRANCH   2   3
ATOM      3  C   UNL     1      20.372  38.674  34.952  1.00  0.00     0.000 C 
BRANCH   3   4
ATOM      4  C   UNL     1      21.717  37.927  34.826  1.00  0.00     0.000 C 
BRANCH   4   5
ATOM      5  C   UNL     1      21.732  36.621  35.639  1.00  0.00     0.000 C 
BRANCH   5   6
ATOM      6  C   UNL     1      22.601  36.721  36.903  1.00  0.00     0.000 C 
BRANCH   6   7
ATOM      7  C   UNL     1      21.929  37.545  38.015  1.00  0.00     0.006 C 
BRANCH   7   8
ATOM      8  C   UNL     1      20.598  36.932  38.466  1.00  0.00     0.053 C 
BRANCH   8   9
ATOM      9  C   UNL     1      19.609  37.984  38.864  1.00  0.00     0.041 C 
ATOM     10  O   UNL     1      19.780  39.181  38.511  1.00  0.00    -0.550 OA
ATOM     11  O   UNL     1      18.520  37.651  39.660  1.00  0.00    -0.550 OA
ENDBRANCH   8   9
ENDBRANCH   7   8
ENDBRANCH   6   7
ENDBRANCH   5   6
ENDBRANCH   4   5
ENDBRANCH   3   4
ENDBRANCH   2   3
ENDBRANCH   1   2
BRANCH   1  12
ATOM     12  C   UNL     1      17.724  39.782  34.656  1.00  0.00     0.000 C 
BRANCH  12  13
ATOM     13  C   UNL     1      16.626  39.654  33.589  1.00  0.00    -0.000 C 
BRANCH  13  14
ATOM     14  C   UNL     1      17.046  40.355  32.287  1.00  0.00    -0.000 C 
BRANCH  14  15
ATOM     15  C   UNL     1      18.562  40.298  32.042  1.00  0.00    -0.000 C 
BRANCH  15  16
ATOM     16  C   UNL     1      18.945  39.316  30.921  1.00  0.00    -0.000 C 
BRANCH  16  17
ATOM     17  C   UNL     1      20.110  38.394  31.322  1.00  0.00    -0.000 C 
BRANCH  17  18
ATOM     18  C   UNL     1      19.644  36.975  31.680  1.00  0.00    -0.000 C 
BRANCH  18  19
ATOM     19  C   UNL     1      18.165  36.777  31.327  1.00  0.00    -0.003 C 
ATOM     20  C   UNL     1      17.413  36.093  32.464  1.00  0.00     0.004 C 
ENDBRANCH  18  19
ENDBRANCH  17  18
ENDBRANCH  16  17
ENDBRANCH  15  16
ENDBRANCH  14  15
ENDBRANCH  13  14
ENDBRANCH  12  13
ENDBRANCH   1  12
TORSDOF 16
ENDMDL
MODEL 2
REMARK VINA RESULT:    -3.576      1.372      2.634
REMARK INTER + INTRA:          -9.950
REMARK INTER:                  -6.819
REMARK INTRA:                  -3.130
REMARK UNBOUND:                -3.029
REMARK SMILES CCCCCCCCCCCCCCCCCC(=O)[O-]
REMARK SMILES IDX 10 1 11 2 12 3 13 4 14 5 15 6 16 7 17 8 18 9 19 10 20 11
REMARK SMILES IDX 9 12 8 13 7 14 6 15 5 16 4 17 3 18 2 19 1 20
REMARK H PARENT
REMARK Flexibility Score: inf
ROOT
ATOM      1  C   UNL     1      18.616  36.615  33.544  1.00  0.00     0.000 C 
ENDROOT
BRANCH   1   2
ATOM      2  C   UNL     1      19.550  37.005  32.387  1.00  0.00     0.000 C 
BRANCH   2   3
ATOM      3  C   UNL     1      20.951  37.425  32.865  1.00  0.00     0.000 C 
BRANCH   3   4
ATOM      4  C   UNL     1      21.193  37.170  34.368  1.00  0.00     0.000 C 
BRANCH   4   5
ATOM      5  C   UNL     1      21.805  38.395  35.071  1.00  0.00     0.000 C 
BRANCH   5   6
ATOM      6  C   UNL     1      21.457  38.453  36.567  1.00  0.00     0.000 C 
BRANCH   6   7
ATOM      7  C   UNL     1      20.567  37.280  37.010  1.00  0.00     0.006 C 
BRANCH   7   8
ATOM      8  C   UNL     1      20.540  37.117  38.535  1.00  0.00     0.053 C 
BRANCH   8   9
ATOM      9  C   UNL     1      19.638  38.120  39.185  1.00  0.00     0.041 C 
ATOM     10  O   UNL     1      18.458  38.273  38.771  1.00  0.00    -0.550 OA
ATOM     11  O   UNL     1      20.112  38.917  40.219  1.00  0.00    -0.550 OA
ENDBRANCH   8   9
ENDBRANCH   7   8
ENDBRANCH   6   7
ENDBRANCH   5   6
ENDBRANCH   4   5
ENDBRANCH   3   4
ENDBRANCH   2   3
ENDBRANCH   1   2
BRANCH   1  12
ATOM     12  C   UNL     1      17.496  37.643  33.772  1.00  0.00     0.000 C 
BRANCH  12  13
ATOM     13  C   UNL     1      17.439  38.149  35.222  1.00  0.00    -0.000 C 
BRANCH  13  14
ATOM     14  C   UNL     1      18.187  39.483  35.364  1.00  0.00    -0.000 C 
BRANCH  14  15
ATOM     15  C   UNL     1      18.007  40.401  34.144  1.00  0.00    -0.000 C 
BRANCH  15  16
ATOM     16  C   UNL     1      19.348  40.803  33.503  1.00  0.00    -0.000 C 
BRANCH  16  17
ATOM     17  C   UNL     1      19.328  40.670  31.971  1.00  0.00    -0.000 C 
BRANCH  17  18
ATOM     18  C   UNL     1      17.906  40.529  31.407  1.00  0.00    -0.000 C 
BRANCH  18  19
ATOM     19  C   UNL     1      17.888  39.589  30.195  1.00  0.00    -0.003 C 
ATOM     20  C   UNL     1      17.210  40.246  28.997  1.00  0.00     0.004 C 
ENDBRANCH  18  19
ENDBRANCH  17  18
ENDBRANCH  16  17
ENDBRANCH  15  16
ENDBRANCH  14  15
ENDBRANCH  13  14
ENDBRANCH  12  13
ENDBRANCH   1  12
TORSDOF 16
ENDMDL
MODEL 3
REMARK VINA RESULT:    -3.538      2.478      4.024
REMARK INTER + INTRA:          -9.877
REMARK INTER:                  -7.368
REMARK INTRA:                  -2.509
REMARK UNBOUND:                -3.029
REMARK SMILES CCCCCCCCCCCCCCCCCC(=O)[O-]
REMARK SMILES IDX 10 1 11 2 12 3 13 4 14 5 15 6 16 7 17 8 18 9 19 10 20 11
REMARK SMILES IDX 9 12 8 13 7 14 6 15 5 16 4 17 3 18 2 19 1 20
REMARK H PARENT
REMARK Flexibility Score: inf
ROOT
ATOM      1  C   UNL     1      17.296  38.193  34.714  1.00  0.00     0.000 C 
ENDROOT
BRANCH   1   2
ATOM      2  C   UNL     1      16.490  37.495  33.607  1.00  0.00     0.000 C 
BRANCH   2   3
ATOM      3  C   UNL     1      17.307  36.431  32.854  1.00  0.00     0.000 C 
BRANCH   3   4
ATOM      4  C   UNL     1      18.817  36.473  33.170  1.00  0.00     0.000 C 
BRANCH   4   5
ATOM      5  C   UNL     1      19.649  36.917  31.954  1.00  0.00     0.000 C 
BRANCH   5   6
ATOM      6  C   UNL     1      20.995  37.542  32.356  1.00  0.00     0.000 C 
BRANCH   6   7
ATOM      7  C   UNL     1      20.897  38.367  33.651  1.00  0.00     0.006 C 
BRANCH   7   8
ATOM      8  C   UNL     1      21.995  37.998  34.656  1.00  0.00     0.053 C 
BRANCH   8   9
ATOM      9  C   UNL     1      21.467  37.148  35.770  1.00  0.00     0.041 C 
ATOM     10  O   UNL     1      20.378  37.443  36.331  1.00  0.00    -0.550 OA
ATOM     11  O   UNL     1      22.196  36.054  36.218  1.00  0.00    -0.550 OA
ENDBRANCH   8   9
ENDBRANCH   7   8
ENDBRANCH   6   7
ENDBRANCH   5   6
ENDBRANCH   4   5
ENDBRANCH   3   4
ENDBRANCH   2   3
ENDBRANCH   1   2
BRANCH   1  12
ATOM     12  C   UNL     1      17.401  39.712  34.500  1.00  0.00     0.000 C 
BRANCH  12  13
ATOM     13  C   UNL     1      17.017  40.140  33.075  1.00  0.00    -0.000 C 
BRANCH  13  14
ATOM     14  C   UNL     1      18.268  40.487  32.253  1.00  0.00    -0.000 C 
BRANCH  14  15
ATOM     15  C   UNL     1      17.992  40.542  30.741  1.00  0.00    -0.000 C 
BRANCH  15  16
ATOM     16  C   UNL     1      17.247  39.296  30.230  1.00  0.00    -0.000 C 
BRANCH  16  17
ATOM     17  C   UNL     1      16.977  39.355  28.717  1.00  0.00    -0.000 C 
BRANCH  17  18
ATOM     18  C   UNL     1      16.539  40.751  28.247  1.00  0.00    -0.000 C 
BRANCH  18  19
ATOM     19  C   UNL     1      15.192  40.685  27.517  1.00  0.00    -0.003 C 
ATOM     20  C   UNL     1      14.035  40.981  28.465  1.00  0.00     0.004 C 
ENDBRANCH  18  19
ENDBRANCH  17  18
ENDBRANCH  16  17
ENDBRANCH  15  16
ENDBRANCH  14  15
ENDBRANCH  13  14
ENDBRANCH  12  13
ENDBRANCH   1  12
TORSDOF 16
ENDMDL
MODEL 4
REMARK VINA RESULT:    -3.537      2.508      6.459
REMARK INTER + INTRA:          -9.875
REMARK INTER:                  -7.127
REMARK INTRA:                  -2.748
REMARK UNBOUND:                -3.029
REMARK SMILES CCCCCCCCCCCCCCCCCC(=O)[O-]
REMARK SMILES IDX 10 1 11 2 12 3 13 4 14 5 15 6 16 7 17 8 18 9 19 10 20 11
REMARK SMILES IDX 9 12 8 13 7 14 6 15 5 16 4 17 3 18 2 19 1 20
REMARK H PARENT
REMARK Flexibility Score: inf
ROOT
ATOM      1  C   UNL     1      19.405  38.777  36.842  1.00  0.00     0.000 C 
ENDROOT
BRANCH   1   2
ATOM      2  C   UNL     1      19.166  39.915  35.838  1.00  0.00     0.000 C 
BRANCH   2   3
ATOM      3  C   UNL     1      18.021  39.614  34.855  1.00  0.00     0.000 C 
BRANCH   3   4
ATOM      4  C   UNL     1      17.324  38.261  35.113  1.00  0.00     0.000 C 
BRANCH   4   5
ATOM      5  C   UNL     1      17.283  37.382  33.852  1.00  0.00     0.000 C 
BRANCH   5   6
ATOM      6  C   UNL     1      18.435  37.686  32.881  1.00  0.00     0.000 C 
BRANCH   6   7
ATOM      7  C   UNL     1      19.534  36.611  32.917  1.00  0.00     0.006 C 
BRANCH   7   8
ATOM      8  C   UNL     1      20.620  36.927  33.953  1.00  0.00     0.053 C 
BRANCH   8   9
ATOM      9  C   UNL     1      21.568  37.977  33.462  1.00  0.00     0.041 C 
ATOM     10  O   UNL     1      22.120  38.764  34.276  1.00  0.00    -0.550 OA
ATOM     11  O   UNL     1      21.811  38.115  32.101  1.00  0.00    -0.550 OA
ENDBRANCH   8   9
ENDBRANCH   7   8
ENDBRANCH   6   7
ENDBRANCH   5   6
ENDBRANCH   4   5
ENDBRANCH   3   4
ENDBRANCH   2   3
ENDBRANCH   1   2
BRANCH   1  12
ATOM     12  C   UNL     1      19.292  39.245  38.303  1.00  0.00     0.000 C 
BRANCH  12  13
ATOM     13  C   UNL     1      18.911  38.107  39.264  1.00  0.00    -0.000 C 
BRANCH  13  14
ATOM     14  C   UNL     1      19.821  38.110  40.501  1.00  0.00    -0.000 C 
BRANCH  14  15
ATOM     15  C   UNL     1      20.789  39.305  40.527  1.00  0.00    -0.000 C 
BRANCH  15  16
ATOM     16  C   UNL     1      22.252  38.876  40.738  1.00  0.00    -0.000 C 
BRANCH  16  17
ATOM     17  C   UNL     1      22.664  37.720  39.811  1.00  0.00    -0.000 C 
BRANCH  17  18
ATOM     18  C   UNL     1      22.871  38.172  38.357  1.00  0.00    -0.000 C 
BRANCH  18  19
ATOM     19  C   UNL     1      22.637  37.010  37.384  1.00  0.00    -0.003 C 
ATOM     20  C   UNL     1      21.759  35.932  38.013  1.00  0.00     0.004 C 
ENDBRANCH  18  19
ENDBRANCH  17  18
ENDBRANCH  16  17
ENDBRANCH  15  16
ENDBRANCH  14  15
ENDBRANCH  13  14
ENDBRANCH  12  13
ENDBRANCH   1  12
TORSDOF 16
ENDMDL
MODEL 5
REMARK VINA RESULT:    -3.525      5.254      8.150
REMARK INTER + INTRA:          -9.852
REMARK INTER:                  -6.832
REMARK INTRA:                  -3.020
REMARK UNBOUND:                -3.029
REMARK SMILES CCCCCCCCCCCCCCCCCC(=O)[O-]
REMARK SMILES IDX 10 1 11 2 12 3 13 4 14 5 15 6 16 7 17 8 18 9 19 10 20 11
REMARK SMILES IDX 9 12 8 13 7 14 6 15 5 16 4 17 3 18 2 19 1 20
REMARK H PARENT
REMARK Flexibility Score: inf
ROOT
ATOM      1  C   UNL     1      14.683  38.493  27.139  1.00  0.00     0.000 C 
ENDROOT
BRANCH   1   2
ATOM      2  C   UNL     1      13.821  39.667  27.629  1.00  0.00     0.000 C 
BRANCH   2   3
ATOM      3  C   UNL     1      14.659  40.846  28.152  1.00  0.00     0.000 C 
BRANCH   3   4
ATOM      4  C   UNL     1      15.938  41.109  27.329  1.00  0.00     0.000 C 
BRANCH   4   5
ATOM      5  C   UNL     1      17.215  40.795  28.128  1.00  0.00     0.000 C 
BRANCH   5   6
ATOM      6  C   UNL     1      16.918  40.380  29.578  1.00  0.00     0.000 C 
BRANCH   6   7
ATOM      7  C   UNL     1      17.366  38.940  29.881  1.00  0.00     0.006 C 
BRANCH   7   8
ATOM      8  C   UNL     1      18.881  38.839  30.097  1.00  0.00     0.053 C 
BRANCH   8   9
ATOM      9  C   UNL     1      19.277  37.501  30.641  1.00  0.00     0.041 C 
ATOM     10  O   UNL     1      20.251  36.877  30.142  1.00  0.00    -0.550 OA
ATOM     11  O   UNL     1      18.544  36.923  31.669  1.00  0.00    -0.550 OA
ENDBRANCH   8   9
ENDBRANCH   7   8
ENDBRANCH   6   7
ENDBRANCH   5   6
ENDBRANCH   4   5
ENDBRANCH   3   4
ENDBRANCH   2   3
ENDBRANCH   1   2
BRANCH   1  12
ATOM     12  C   UNL     1      14.200  37.926  25.793  1.00  0.00     0.000 C 
BRANCH  12  13
ATOM     13  C   UNL     1      15.357  37.478  24.887  1.00  0.00    -0.000 C 
BRANCH  13  14
ATOM     14  C   UNL     1      16.476  38.531  24.870  1.00  0.00    -0.000 C 
BRANCH  14  15
ATOM     15  C   UNL     1      17.875  37.919  25.050  1.00  0.00    -0.000 C 
BRANCH  15  16
ATOM     16  C   UNL     1      18.265  37.761  26.530  1.00  0.00    -0.000 C 
BRANCH  16  17
ATOM     17  C   UNL     1      18.657  36.316  26.882  1.00  0.00    -0.000 C 
BRANCH  17  18
ATOM     18  C   UNL     1      17.693  35.669  27.889  1.00  0.00    -0.000 C 
BRANCH  18  19
ATOM     19  C   UNL     1      16.614  34.853  27.168  1.00  0.00    -0.003 C 
ATOM     20  C   UNL     1      15.295  34.882  27.934  1.00  0.00     0.004 C 
ENDBRANCH  18  19
ENDBRANCH  17  18
ENDBRANCH  16  17
ENDBRANCH  15  16
ENDBRANCH  14  15
ENDBRANCH  13  14
ENDBRANCH  12  13
ENDBRANCH   1  12
TORSDOF 16
ENDMDL
MODEL 6
REMARK VINA RESULT:    -3.514      2.856      6.758
REMARK INTER + INTRA:          -9.830
REMARK INTER:                  -6.934
REMARK INTRA:                  -2.896
REMARK UNBOUND:                -3.029
REMARK SMILES CCCCCCCCCCCCCCCCCC(=O)[O-]
REMARK SMILES IDX 10 1 11 2 12 3 13 4 14 5 15 6 16 7 17 8 18 9 19 10 20 11
REMARK SMILES IDX 9 12 8 13 7 14 6 15 5 16 4 17 3 18 2 19 1 20
REMARK H PARENT
REMARK Flexibility Score: inf
ROOT
ATOM      1  C   UNL     1      19.184  37.728  35.241  1.00  0.00     0.000 C 
ENDROOT
BRANCH   1   2
ATOM      2  C   UNL     1      17.866  38.472  35.512  1.00  0.00     0.000 C 
BRANCH   2   3
ATOM      3  C   UNL     1      17.769  39.810  34.758  1.00  0.00     0.000 C 
BRANCH   3   4
ATOM      4  C   UNL     1      16.628  39.852  33.720  1.00  0.00     0.000 C 
BRANCH   4   5
ATOM      5  C   UNL     1      17.127  40.284  32.329  1.00  0.00     0.000 C 
BRANCH   5   6
ATOM      6  C   UNL     1      18.252  39.381  31.799  1.00  0.00     0.000 C 
BRANCH   6   7
ATOM      7  C   UNL     1      17.782  37.937  31.555  1.00  0.00     0.006 C 
BRANCH   7   8
ATOM      8  C   UNL     1      18.904  36.917  31.782  1.00  0.00     0.053 C 
BRANCH   8   9
ATOM      9  C   UNL     1      19.983  37.039  30.750  1.00  0.00     0.041 C 
ATOM     10  O   UNL     1      19.776  36.651  29.569  1.00  0.00    -0.550 OA
ATOM     11  O   UNL     1      21.229  37.541  31.101  1.00  0.00    -0.550 OA
ENDBRANCH   8   9
ENDBRANCH   7   8
ENDBRANCH   6   7
ENDBRANCH   5   6
ENDBRANCH   4   5
ENDBRANCH   3   4
ENDBRANCH   2   3
ENDBRANCH   1   2
BRANCH   1  12
ATOM     12  C   UNL     1      20.309  38.668  34.777  1.00  0.00     0.000 C 
BRANCH  12  13
ATOM     13  C   UNL     1      21.678  37.973  34.722  1.00  0.00    -0.000 C 
BRANCH  13  14
ATOM     14  C   UNL     1      21.666  36.675  35.544  1.00  0.00    -0.000 C 
BRANCH  14  15
ATOM     15  C   UNL     1      22.392  36.816  36.891  1.00  0.00    -0.000 C 
BRANCH  15  16
ATOM     16  C   UNL     1      21.643  36.122  38.043  1.00  0.00    -0.000 C 
BRANCH  16  17
ATOM     17  C   UNL     1      20.392  36.901  38.482  1.00  0.00    -0.000 C 
BRANCH  17  18
ATOM     18  C   UNL     1      20.727  38.296  39.032  1.00  0.00    -0.000 C 
BRANCH  18  19
ATOM     19  C   UNL     1      19.638  39.309  38.656  1.00  0.00    -0.003 C 
ATOM     20  C   UNL     1      20.230  40.510  37.925  1.00  0.00     0.004 C 
ENDBRANCH  18  19
ENDBRANCH  17  18
ENDBRANCH  16  17
ENDBRANCH  15  16
ENDBRANCH  14  15
ENDBRANCH  13  14
ENDBRANCH  12  13
ENDBRANCH   1  12
TORSDOF 16
ENDMDL
MODEL 7
REMARK VINA RESULT:    -3.502      3.388      6.368
REMARK INTER + INTRA:          -9.806
REMARK INTER:                  -7.024
REMARK INTRA:                  -2.782
REMARK UNBOUND:                -3.029
REMARK SMILES CCCCCCCCCCCCCCCCCC(=O)[O-]
REMARK SMILES IDX 10 1 11 2 12 3 13 4 14 5 15 6 16 7 17 8 18 9 19 10 20 11
REMARK SMILES IDX 9 12 8 13 7 14 6 15 5 16 4 17 3 18 2 19 1 20
REMARK H PARENT
REMARK Flexibility Score: inf
ROOT
ATOM      1  C   UNL     1      17.876  39.936  34.755  1.00  0.00     0.000 C 
ENDROOT
BRANCH   1   2
ATOM      2  C   UNL     1      17.597  38.474  35.135  1.00  0.00     0.000 C 
BRANCH   2   3
ATOM      3  C   UNL     1      16.755  37.733  34.082  1.00  0.00     0.000 C 
BRANCH   3   4
ATOM      4  C   UNL     1      17.590  36.839  33.140  1.00  0.00     0.000 C 
BRANCH   4   5
ATOM      5  C   UNL     1      19.008  36.593  33.683  1.00  0.00     0.000 C 
BRANCH   5   6
ATOM      6  C   UNL     1      20.070  36.569  32.572  1.00  0.00     0.000 C 
BRANCH   6   7
ATOM      7  C   UNL     1      19.849  37.672  31.523  1.00  0.00     0.006 C 
BRANCH   7   8
ATOM      8  C   UNL     1      19.970  37.141  30.089  1.00  0.00     0.053 C 
BRANCH   8   9
ATOM      9  C   UNL     1      18.638  37.074  29.408  1.00  0.00     0.041 C 
ATOM     10  O   UNL     1      17.825  36.155  29.693  1.00  0.00    -0.550 OA
ATOM     11  O   UNL     1      18.310  38.002  28.427  1.00  0.00    -0.550 OA
ENDBRANCH   8   9
ENDBRANCH   7   8
ENDBRANCH   6   7
ENDBRANCH   5   6
ENDBRANCH   4   5
ENDBRANCH   3   4
ENDBRANCH   2   3
ENDBRANCH   1   2
BRANCH   1  12
ATOM     12  C   UNL     1      19.193  40.461  35.351  1.00  0.00     0.000 C 
BRANCH  12  13
ATOM     13  C   UNL     1      20.428  40.006  34.557  1.00  0.00    -0.000 C 
BRANCH  13  14
ATOM     14  C   UNL     1      21.508  39.451  35.498  1.00  0.00    -0.000 C 
BRANCH  14  15
ATOM     15  C   UNL     1      22.136  38.146  34.983  1.00  0.00    -0.000 C 
BRANCH  15  16
ATOM     16  C   UNL     1      22.007  36.989  35.989  1.00  0.00    -0.000 C 
BRANCH  16  17
ATOM     17  C   UNL     1      20.736  37.099  36.849  1.00  0.00    -0.000 C 
BRANCH  17  18
ATOM     18  C   UNL     1      21.028  36.988  38.353  1.00  0.00    -0.000 C 
BRANCH  18  19
ATOM     19  C   UNL     1      20.365  38.135  39.126  1.00  0.00    -0.003 C 
ATOM     20  C   UNL     1      18.993  38.468  38.549  1.00  0.00     0.004 C 
ENDBRANCH  18  19
ENDBRANCH  17  18
ENDBRANCH  16  17
ENDBRANCH  15  16
ENDBRANCH  14  15
ENDBRANCH  13  14
ENDBRANCH  12  13
ENDBRANCH   1  12
TORSDOF 16
ENDMDL
MODEL 8
REMARK VINA RESULT:    -3.491      1.448      2.534
REMARK INTER + INTRA:          -9.785
REMARK INTER:                  -6.982
REMARK INTRA:                  -2.803
REMARK UNBOUND:                -3.029
REMARK SMILES CCCCCCCCCCCCCCCCCC(=O)[O-]
REMARK SMILES IDX 10 1 11 2 12 3 13 4 14 5 15 6 16 7 17 8 18 9 19 10 20 11
REMARK SMILES IDX 9 12 8 13 7 14 6 15 5 16 4 17 3 18 2 19 1 20
REMARK H PARENT
REMARK Flexibility Score: inf
ROOT
ATOM      1  C   UNL     1      20.843  40.513  35.797  1.00  0.00     0.000 C 
ENDROOT
BRANCH   1   2
ATOM      2  C   UNL     1      21.281  40.133  34.374  1.00  0.00     0.000 C 
BRANCH   2   3
ATOM      3  C   UNL     1      22.260  38.947  34.346  1.00  0.00     0.000 C 
BRANCH   3   4
ATOM      4  C   UNL     1      22.656  38.439  35.749  1.00  0.00     0.000 C 
BRANCH   4   5
ATOM      5  C   UNL     1      22.139  37.015  36.016  1.00  0.00     0.000 C 
BRANCH   5   6
ATOM      6  C   UNL     1      22.450  36.531  37.441  1.00  0.00     0.000 C 
BRANCH   6   7
ATOM      7  C   UNL     1      21.178  36.208  38.244  1.00  0.00     0.006 C 
BRANCH   7   8
ATOM      8  C   UNL     1      20.147  37.342  38.176  1.00  0.00     0.053 C 
BRANCH   8   9
ATOM      9  C   UNL     1      20.344  38.338  39.277  1.00  0.00     0.041 C 
ATOM     10  O   UNL     1      19.647  38.269  40.325  1.00  0.00    -0.550 OA
ATOM     11  O   UNL     1      21.265  39.367  39.131  1.00  0.00    -0.550 OA
ENDBRANCH   8   9
ENDBRANCH   7   8
ENDBRANCH   6   7
ENDBRANCH   5   6
ENDBRANCH   4   5
ENDBRANCH   3   4
ENDBRANCH   2   3
ENDBRANCH   1   2
BRANCH   1  12
ATOM     12  C   UNL     1      19.350  40.242  36.048  1.00  0.00     0.000 C 
BRANCH  12  13
ATOM     13  C   UNL     1      18.438  40.979  35.054  1.00  0.00    -0.000 C 
BRANCH  13  14
ATOM     14  C   UNL     1      17.446  40.006  34.400  1.00  0.00    -0.000 C 
BRANCH  14  15
ATOM     15  C   UNL     1      17.418  38.631  35.086  1.00  0.00    -0.000 C 
BRANCH  15  16
ATOM     16  C   UNL     1      17.642  37.472  34.098  1.00  0.00    -0.000 C 
BRANCH  16  17
ATOM     17  C   UNL     1      19.117  37.044  34.022  1.00  0.00    -0.000 C 
BRANCH  17  18
ATOM     18  C   UNL     1      19.544  36.642  32.602  1.00  0.00    -0.000 C 
BRANCH  18  19
ATOM     19  C   UNL     1      19.820  37.880  31.741  1.00  0.00    -0.003 C 
ATOM     20  C   UNL     1      21.140  37.746  30.987  1.00  0.00     0.004 C 
ENDBRANCH  18  19
ENDBRANCH  17  18
ENDBRANCH  16  17
ENDBRANCH  15  16
ENDBRANCH  14  15
ENDBRANCH  13  14
ENDBRANCH  12  13
ENDBRANCH   1  12
TORSDOF 16
ENDMDL
MODEL 9
REMARK VINA RESULT:    -3.483      1.555      2.785
REMARK INTER + INTRA:          -9.770
REMARK INTER:                  -6.629
REMARK INTRA:                  -3.141
REMARK UNBOUND:                -3.029
REMARK SMILES CCCCCCCCCCCCCCCCCC(=O)[O-]
REMARK SMILES IDX 10 1 11 2 12 3 13 4 14 5 15 6 16 7 17 8 18 9 19 10 20 11
REMARK SMILES IDX 9 12 8 13 7 14 6 15 5 16 4 17 3 18 2 19 1 20
REMARK H PARENT
REMARK Flexibility Score: inf
ROOT
ATOM      1  C   UNL     1      18.280  38.165  35.796  1.00  0.00     0.000 C 
ENDROOT
BRANCH   1   2
ATOM      2  C   UNL     1      19.029  39.485  36.039  1.00  0.00     0.000 C 
BRANCH   2   3
ATOM      3  C   UNL     1      19.240  40.298  34.751  1.00  0.00     0.000 C 
BRANCH   3   4
ATOM      4  C   UNL     1      20.673  40.201  34.186  1.00  0.00     0.000 C 
BRANCH   4   5
ATOM      5  C   UNL     1      21.628  39.480  35.153  1.00  0.00     0.000 C 
BRANCH   5   6
ATOM      6  C   UNL     1      22.098  38.119  34.616  1.00  0.00     0.000 C 
BRANCH   6   7
ATOM      7  C   UNL     1      21.924  36.989  35.644  1.00  0.00     0.006 C 
BRANCH   7   8
ATOM      8  C   UNL     1      22.036  37.496  37.087  1.00  0.00     0.053 C 
BRANCH   8   9
ATOM      9  C   UNL     1      21.302  36.611  38.046  1.00  0.00     0.041 C 
ATOM     10  O   UNL     1      21.729  35.452  38.294  1.00  0.00    -0.550 OA
ATOM     11  O   UNL     1      20.121  37.049  38.633  1.00  0.00    -0.550 OA
ENDBRANCH   8   9
ENDBRANCH   7   8
ENDBRANCH   6   7
ENDBRANCH   5   6
ENDBRANCH   4   5
ENDBRANCH   3   4
ENDBRANCH   2   3
ENDBRANCH   1   2
BRANCH   1  12
ATOM     12  C   UNL     1      17.210  38.286  34.698  1.00  0.00     0.000 C 
BRANCH  12  13
ATOM     13  C   UNL     1      17.387  37.248  33.578  1.00  0.00    -0.000 C 
BRANCH  13  14
ATOM     14  C   UNL     1      18.808  36.665  33.594  1.00  0.00    -0.000 C 
BRANCH  14  15
ATOM     15  C   UNL     1      19.442  36.601  32.195  1.00  0.00    -0.000 C 
BRANCH  15  16
ATOM     16  C   UNL     1      19.819  37.991  31.651  1.00  0.00    -0.000 C 
BRANCH  16  17
ATOM     17  C   UNL     1      19.289  38.227  30.227  1.00  0.00    -0.000 C 
BRANCH  17  18
ATOM     18  C   UNL     1      17.844  38.750  30.213  1.00  0.00    -0.000 C 
BRANCH  18  19
ATOM     19  C   UNL     1      17.782  40.200  30.708  1.00  0.00    -0.003 C 
ATOM     20  C   UNL     1      16.660  40.389  31.724  1.00  0.00     0.004 C 
ENDBRANCH  18  19
ENDBRANCH  17  18
ENDBRANCH  16  17
ENDBRANCH  15  16
ENDBRANCH  14  15
ENDBRANCH  13  14
ENDBRANCH  12  13
ENDBRANCH   1  12
TORSDOF 16
ENDMDL
