MODEL 1
REMARK VINA RESULT:    -4.599      0.000      0.000
REMARK INTER + INTRA:          -4.599
REMARK INTER:                  -4.599
REMARK INTRA:                   0.000
REMARK UNBOUND:                 0.000
REMARK SMILES CC1(C)O[C@]2(C)CC[C@H]1CC2
REMARK SMILES IDX 1 1 2 2 9 3 8 4 7 5 5 6 4 7 11 8 10 9 6 10 3 11
REMARK H PARENT
REMARK Flexibility Score: inf
ROOT
ATOM      1  C   UNL     1     -37.461  76.068 -28.041  1.00  0.00     0.042 C 
ATOM      2  C   UNL     1     -36.530  75.066 -27.325  1.00  0.00     0.066 C 
ATOM      3  C   UNL     1     -35.667  74.260 -28.371  1.00  0.00     0.021 C 
ATOM      4  C   UNL     1     -34.719  73.312 -27.598  1.00  0.00     0.009 C 
ATOM      5  C   UNL     1     -33.946  74.125 -26.532  1.00  0.00     0.035 C 
ATOM      6  C   UNL     1     -34.309  75.634 -26.653  1.00  0.00     0.066 C 
ATOM      7  O   UNL     1     -35.706  75.801 -26.408  1.00  0.00    -0.369 OA
ATOM      8  C   UNL     1     -33.982  76.117 -28.095  1.00  0.00     0.035 C 
ATOM      9  C   UNL     1     -34.755  75.258 -29.125  1.00  0.00     0.009 C 
ATOM     10  C   UNL     1     -33.524  76.455 -25.625  1.00  0.00     0.042 C 
ATOM     11  C   UNL     1     -37.426  74.112 -26.506  1.00  0.00     0.042 C 
ENDROOT
TORSDOF 0
ENDMDL
MODEL 2
REMARK VINA RESULT:    -4.556     16.684     18.170
REMARK INTER + INTRA:          -4.556
REMARK INTER:                  -4.556
REMARK INTRA:                   0.000
REMARK UNBOUND:                 0.000
REMARK SMILES CC1(C)O[C@]2(C)CC[C@H]1CC2
REMARK SMILES IDX 1 1 2 2 9 3 8 4 7 5 5 6 4 7 11 8 10 9 6 10 3 11
REMARK H PARENT
REMARK Flexibility Score: inf
ROOT
ATOM      1  C   UNL     1     -39.184  74.970  -8.935  1.00  0.00     0.042 C 
ATOM      2  C   UNL     1     -39.142  73.611  -9.667  1.00  0.00     0.066 C 
ATOM      3  C   UNL     1     -39.989  72.532  -8.889  1.00  0.00     0.021 C 
ATOM      4  C   UNL     1     -39.954  71.209  -9.693  1.00  0.00     0.009 C 
ATOM      5  C   UNL     1     -40.362  71.494 -11.158  1.00  0.00     0.035 C 
ATOM      6  C   UNL     1     -40.758  72.991 -11.313  1.00  0.00     0.066 C 
ATOM      7  O   UNL     1     -39.630  73.810 -11.002  1.00  0.00    -0.369 OA
ATOM      8  C   UNL     1     -41.912  73.314 -10.322  1.00  0.00     0.035 C 
ATOM      9  C   UNL     1     -41.468  72.986  -8.875  1.00  0.00     0.009 C 
ATOM     10  C   UNL     1     -41.196  73.280 -12.753  1.00  0.00     0.042 C 
ATOM     11  C   UNL     1     -37.661  73.183  -9.756  1.00  0.00     0.042 C 
ENDROOT
TORSDOF 0
ENDMDL
MODEL 3
REMARK VINA RESULT:    -4.507     16.235     17.602
REMARK INTER + INTRA:          -4.507
REMARK INTER:                  -4.507
REMARK INTRA:                   0.000
REMARK UNBOUND:                 0.000
REMARK SMILES CC1(C)O[C@]2(C)CC[C@H]1CC2
REMARK SMILES IDX 1 1 2 2 9 3 8 4 7 5 5 6 4 7 11 8 10 9 6 10 3 11
REMARK H PARENT
REMARK Flexibility Score: inf
ROOT
ATOM      1  C   UNL     1     -41.423  74.604 -11.526  1.00  0.00     0.042 C 
ATOM      2  C   UNL     1     -39.947  74.183 -11.351  1.00  0.00     0.066 C 
ATOM      3  C   UNL     1     -39.432  74.542  -9.905  1.00  0.00     0.021 C 
ATOM      4  C   UNL     1     -37.970  74.052  -9.769  1.00  0.00     0.009 C 
ATOM      5  C   UNL     1     -37.892  72.565 -10.190  1.00  0.00     0.035 C 
ATOM      6  C   UNL     1     -39.317  72.034 -10.518  1.00  0.00     0.066 C 
ATOM      7  O   UNL     1     -39.852  72.775 -11.616  1.00  0.00    -0.369 OA
ATOM      8  C   UNL     1     -40.230  72.234  -9.275  1.00  0.00     0.035 C 
ATOM      9  C   UNL     1     -40.254  73.729  -8.875  1.00  0.00     0.009 C 
ATOM     10  C   UNL     1     -39.258  70.552 -10.904  1.00  0.00     0.042 C 
ATOM     11  C   UNL     1     -39.127  74.929 -12.424  1.00  0.00     0.042 C 
ENDROOT
TORSDOF 0
ENDMDL
MODEL 4
REMARK VINA RESULT:    -4.438      1.078      3.297
REMARK INTER + INTRA:          -4.438
REMARK INTER:                  -4.438
REMARK INTRA:                   0.000
REMARK UNBOUND:                 0.000
REMARK SMILES CC1(C)O[C@]2(C)CC[C@H]1CC2
REMARK SMILES IDX 1 1 2 2 9 3 8 4 7 5 5 6 4 7 11 8 10 9 6 10 3 11
REMARK H PARENT
REMARK Flexibility Score: inf
ROOT
ATOM      1  C   UNL     1     -33.563  74.101 -26.873  1.00  0.00     0.042 C 
ATOM      2  C   UNL     1     -34.631  75.047 -27.465  1.00  0.00     0.066 C 
ATOM      3  C   UNL     1     -35.446  74.324 -28.605  1.00  0.00     0.021 C 
ATOM      4  C   UNL     1     -36.532  75.297 -29.125  1.00  0.00     0.009 C 
ATOM      5  C   UNL     1     -37.342  75.841 -27.924  1.00  0.00     0.035 C 
ATOM      6  C   UNL     1     -36.859  75.162 -26.610  1.00  0.00     0.066 C 
ATOM      7  O   UNL     1     -35.484  75.482 -26.395  1.00  0.00    -0.369 OA
ATOM      8  C   UNL     1     -37.008  73.620 -26.754  1.00  0.00     0.035 C 
ATOM      9  C   UNL     1     -36.205  73.127 -27.982  1.00  0.00     0.009 C 
ATOM     10  C   UNL     1     -37.676  75.668 -25.417  1.00  0.00     0.042 C 
ATOM     11  C   UNL     1     -33.892  76.282 -28.022  1.00  0.00     0.042 C 
ENDROOT
TORSDOF 0
ENDMDL
MODEL 5
REMARK VINA RESULT:    -4.429     16.514     17.971
REMARK INTER + INTRA:          -4.429
REMARK INTER:                  -4.429
REMARK INTRA:                   0.000
REMARK UNBOUND:                 0.000
REMARK SMILES CC1(C)O[C@]2(C)CC[C@H]1CC2
REMARK SMILES IDX 1 1 2 2 9 3 8 4 7 5 5 6 4 7 11 8 10 9 6 10 3 11
REMARK H PARENT
REMARK Flexibility Score: inf
ROOT
ATOM      1  C   UNL     1     -41.923  72.636 -12.591  1.00  0.00     0.042 C 
ATOM      2  C   UNL     1     -41.078  73.143 -11.401  1.00  0.00     0.066 C 
ATOM      3  C   UNL     1     -41.792  72.819 -10.032  1.00  0.00     0.021 C 
ATOM      4  C   UNL     1     -40.880  73.301  -8.878  1.00  0.00     0.009 C 
ATOM      5  C   UNL     1     -39.459  72.724  -9.079  1.00  0.00     0.035 C 
ATOM      6  C   UNL     1     -39.443  71.780 -10.317  1.00  0.00     0.066 C 
ATOM      7  O   UNL     1     -39.782  72.532 -11.483  1.00  0.00    -0.369 OA
ATOM      8  C   UNL     1     -40.497  70.656 -10.110  1.00  0.00     0.035 C 
ATOM      9  C   UNL     1     -41.895  71.282  -9.884  1.00  0.00     0.009 C 
ATOM     10  C   UNL     1     -38.048  71.175 -10.508  1.00  0.00     0.042 C 
ATOM     11  C   UNL     1     -40.903  74.666 -11.579  1.00  0.00     0.042 C 
ENDROOT
TORSDOF 0
ENDMDL
MODEL 6
REMARK VINA RESULT:    -4.359     16.461     17.837
REMARK INTER + INTRA:          -4.359
REMARK INTER:                  -4.359
REMARK INTRA:                   0.000
REMARK UNBOUND:                 0.000
REMARK SMILES CC1(C)O[C@]2(C)CC[C@H]1CC2
REMARK SMILES IDX 1 1 2 2 9 3 8 4 7 5 5 6 4 7 11 8 10 9 6 10 3 11
REMARK H PARENT
REMARK Flexibility Score: inf
ROOT
ATOM      1  C   UNL     1     -38.480  74.871 -11.384  1.00  0.00     0.042 C 
ATOM      2  C   UNL     1     -39.285  74.119 -10.301  1.00  0.00     0.066 C 
ATOM      3  C   UNL     1     -40.835  74.255 -10.562  1.00  0.00     0.021 C 
ATOM      4  C   UNL     1     -41.588  73.443  -9.481  1.00  0.00     0.009 C 
ATOM      5  C   UNL     1     -41.011  72.008  -9.431  1.00  0.00     0.035 C 
ATOM      6  C   UNL     1     -39.935  71.833 -10.541  1.00  0.00     0.066 C 
ATOM      7  O   UNL     1     -38.863  72.747 -10.305  1.00  0.00    -0.369 OA
ATOM      8  C   UNL     1     -40.578  72.147 -11.922  1.00  0.00     0.035 C 
ATOM      9  C   UNL     1     -41.165  73.580 -11.914  1.00  0.00     0.009 C 
ATOM     10  C   UNL     1     -39.379  70.405 -10.524  1.00  0.00     0.042 C 
ATOM     11  C   UNL     1     -38.905  74.734  -8.937  1.00  0.00     0.042 C 
ENDROOT
TORSDOF 0
ENDMDL
MODEL 7
REMARK VINA RESULT:    -4.314     16.473     17.801
REMARK INTER + INTRA:          -4.314
REMARK INTER:                  -4.314
REMARK INTRA:                   0.000
REMARK UNBOUND:                 0.000
REMARK SMILES CC1(C)O[C@]2(C)CC[C@H]1CC2
REMARK SMILES IDX 1 1 2 2 9 3 8 4 7 5 5 6 4 7 11 8 10 9 6 10 3 11
REMARK H PARENT
REMARK Flexibility Score: inf
ROOT
ATOM      1  C   UNL     1     -38.867  70.765 -10.623  1.00  0.00     0.042 C 
ATOM      2  C   UNL     1     -39.784  71.990 -10.415  1.00  0.00     0.066 C 
ATOM      3  C   UNL     1     -39.522  72.651  -9.007  1.00  0.00     0.021 C 
ATOM      4  C   UNL     1     -40.427  73.899  -8.875  1.00  0.00     0.009 C 
ATOM      5  C   UNL     1     -40.234  74.801 -10.118  1.00  0.00     0.035 C 
ATOM      6  C   UNL     1     -39.131  74.202 -11.037  1.00  0.00     0.066 C 
ATOM      7  O   UNL     1     -39.546  72.912 -11.489  1.00  0.00    -0.369 OA
ATOM      8  C   UNL     1     -37.815  74.057 -10.221  1.00  0.00     0.035 C 
ATOM      9  C   UNL     1     -38.065  73.173  -8.975  1.00  0.00     0.009 C 
ATOM     10  C   UNL     1     -38.906  75.103 -12.256  1.00  0.00     0.042 C 
ATOM     11  C   UNL     1     -41.242  71.495 -10.522  1.00  0.00     0.042 C 
ENDROOT
TORSDOF 0
ENDMDL
MODEL 8
REMARK VINA RESULT:    -4.191     16.055     17.381
REMARK INTER + INTRA:          -4.191
REMARK INTER:                  -4.191
REMARK INTRA:                   0.000
REMARK UNBOUND:                 0.000
REMARK SMILES CC1(C)O[C@]2(C)CC[C@H]1CC2
REMARK SMILES IDX 1 1 2 2 9 3 8 4 7 5 5 6 4 7 11 8 10 9 6 10 3 11
REMARK H PARENT
REMARK Flexibility Score: inf
ROOT
ATOM      1  C   UNL     1     -38.521  75.654 -12.675  1.00  0.00     0.042 C 
ATOM      2  C   UNL     1     -38.253  75.296 -11.197  1.00  0.00     0.066 C 
ATOM      3  C   UNL     1     -39.558  75.480 -10.332  1.00  0.00     0.021 C 
ATOM      4  C   UNL     1     -39.246  75.059  -8.876  1.00  0.00     0.009 C 
ATOM      5  C   UNL     1     -38.604  73.651  -8.881  1.00  0.00     0.035 C 
ATOM      6  C   UNL     1     -38.572  73.091 -10.333  1.00  0.00     0.066 C 
ATOM      7  O   UNL     1     -37.767  73.946 -11.147  1.00  0.00    -0.369 OA
ATOM      8  C   UNL     1     -40.021  73.066 -10.897  1.00  0.00     0.035 C 
ATOM      9  C   UNL     1     -40.630  74.489 -10.844  1.00  0.00     0.009 C 
ATOM     10  C   UNL     1     -37.969  71.683 -10.348  1.00  0.00     0.042 C 
ATOM     11  C   UNL     1     -37.129  76.228 -10.695  1.00  0.00     0.042 C 
ENDROOT
TORSDOF 0
ENDMDL
MODEL 9
REMARK VINA RESULT:    -4.086     16.298     17.795
REMARK INTER + INTRA:          -4.086
REMARK INTER:                  -4.086
REMARK INTRA:                   0.000
REMARK UNBOUND:                 0.000
REMARK SMILES CC1(C)O[C@]2(C)CC[C@H]1CC2
REMARK SMILES IDX 1 1 2 2 9 3 8 4 7 5 5 6 4 7 11 8 10 9 6 10 3 11
REMARK H PARENT
REMARK Flexibility Score: inf
ROOT
ATOM      1  C   UNL     1     -39.034  71.623  -8.876  1.00  0.00     0.042 C 
ATOM      2  C   UNL     1     -39.684  71.728 -10.274  1.00  0.00     0.066 C 
ATOM      3  C   UNL     1     -41.257  71.696 -10.161  1.00  0.00     0.021 C 
ATOM      4  C   UNL     1     -41.854  71.856 -11.580  1.00  0.00     0.009 C 
ATOM      5  C   UNL     1     -41.227  73.098 -12.257  1.00  0.00     0.035 C 
ATOM      6  C   UNL     1     -40.280  73.822 -11.257  1.00  0.00     0.066 C 
ATOM      7  O   UNL     1     -39.219  72.938 -10.891  1.00  0.00    -0.369 OA
ATOM      8  C   UNL     1     -41.086  74.206  -9.984  1.00  0.00     0.035 C 
ATOM      9  C   UNL     1     -41.717  72.937  -9.359  1.00  0.00     0.009 C 
ATOM     10  C   UNL     1     -39.678  75.074 -11.904  1.00  0.00     0.042 C 
ATOM     11  C   UNL     1     -39.172  70.535 -11.109  1.00  0.00     0.042 C 
ENDROOT
TORSDOF 0
ENDMDL
