MODEL 1
REMARK VINA RESULT:    -5.800      0.000      0.000
REMARK INTER + INTRA:          -7.316
REMARK INTER:                  -6.987
REMARK INTRA:                  -0.329
REMARK UNBOUND:                -0.329
REMARK SMILES O=c1c(O)c(-c2ccc(O)c(O)c2)oc2cc(O)cc(O)c12
REMARK SMILES IDX 5 1 3 2 2 3 1 4 22 5 20 6 19 7 17 8 16 9 15 10 14 11 6 12
REMARK SMILES IDX 7 13 8 14 9 15 13 16 11 17 10 18 12 20 4 22 21 24 18 26
REMARK H PARENT 10 19 12 21 4 23 21 25 18 27
REMARK Flexibility Score: inf
ROOT
ATOM      1  C   UNL     1    -105.919  44.578  54.217  1.00  0.00     0.180 A 
ATOM      2  C   UNL     1    -107.012  43.751  54.540  1.00  0.00     0.208 A 
ATOM      3  C   UNL     1    -106.854  42.777  55.538  1.00  0.00     0.238 A 
ATOM      4  O   UNL     1    -107.823  42.023  55.829  1.00  0.00    -0.285 OA
ATOM      5  C   UNL     1    -105.620  42.661  56.210  1.00  0.00     0.111 A 
ATOM      6  C   UNL     1    -105.381  41.710  57.231  1.00  0.00     0.134 A 
ATOM      7  C   UNL     1    -104.127  41.663  57.857  1.00  0.00     0.093 A 
ATOM      8  C   UNL     1    -103.111  42.545  57.485  1.00  0.00     0.123 A 
ATOM      9  C   UNL     1    -103.341  43.487  56.477  1.00  0.00     0.094 A 
ATOM     10  C   UNL     1    -104.583  43.549  55.840  1.00  0.00     0.146 A 
ATOM     11  O   UNL     1    -104.774  44.449  54.881  1.00  0.00    -0.452 OA
ENDROOT
BRANCH   1  12
ATOM     12  C   UNL     1    -106.001  45.614  53.163  1.00  0.00     0.025 A 
ATOM     13  C   UNL     1    -105.631  45.338  51.834  1.00  0.00     0.016 A 
ATOM     14  C   UNL     1    -105.693  46.340  50.861  1.00  0.00     0.051 A 
ATOM     15  C   UNL     1    -106.112  47.632  51.203  1.00  0.00     0.157 A 
ATOM     16  C   UNL     1    -106.398  46.918  53.504  1.00  0.00     0.062 A 
ATOM     17  C   UNL     1    -106.461  47.922  52.528  1.00  0.00     0.158 A 
BRANCH  15  18
ATOM     18  O   UNL     1    -106.177  48.633  50.236  1.00  0.00    -0.504 OA
ATOM     19  H   UNL     1    -105.469  48.719  49.514  1.00  0.00     0.293 HD
ENDBRANCH  15  18
BRANCH  17  20
ATOM     20  O   UNL     1    -106.871  49.212  52.867  1.00  0.00    -0.504 OA
ATOM     21  H   UNL     1    -106.203  49.963  52.996  1.00  0.00     0.293 HD
ENDBRANCH  17  20
ENDBRANCH   1  12
BRANCH   2  22
ATOM     22  O   UNL     1    -108.239  43.920  53.894  1.00  0.00    -0.502 OA
ATOM     23  H   UNL     1    -109.104  43.542  54.263  1.00  0.00     0.293 HD
ENDBRANCH   2  22
BRANCH   6  24
ATOM     24  O   UNL     1    -106.375  40.814  57.626  1.00  0.00    -0.507 OA
ATOM     25  H   UNL     1    -106.305  40.286  58.489  1.00  0.00     0.293 HD
ENDBRANCH   6  24
BRANCH   8  26
ATOM     26  O   UNL     1    -101.875  42.478  58.125  1.00  0.00    -0.508 OA
ATOM     27  H   UNL     1    -101.553  41.625  58.567  1.00  0.00     0.293 HD
ENDBRANCH   8  26
TORSDOF 6
ENDMDL
MODEL 2
REMARK VINA RESULT:    -5.156      2.744      4.689
REMARK INTER + INTRA:          -6.540
REMARK INTER:                  -6.238
REMARK INTRA:                  -0.303
REMARK UNBOUND:                -0.329
REMARK SMILES O=c1c(O)c(-c2ccc(O)c(O)c2)oc2cc(O)cc(O)c12
REMARK SMILES IDX 5 1 3 2 2 3 1 4 22 5 20 6 19 7 17 8 16 9 15 10 14 11 6 12
REMARK SMILES IDX 7 13 8 14 9 15 13 16 11 17 10 18 12 20 4 22 21 24 18 26
REMARK H PARENT 10 19 12 21 4 23 21 25 18 27
REMARK Flexibility Score: inf
ROOT
ATOM      1  C   UNL     1    -107.184  47.834  53.546  1.00  0.00     0.180 A 
ATOM      2  C   UNL     1    -106.650  47.385  52.323  1.00  0.00     0.208 A 
ATOM      3  C   UNL     1    -106.013  46.135  52.279  1.00  0.00     0.238 A 
ATOM      4  O   UNL     1    -105.521  45.727  51.192  1.00  0.00    -0.285 OA
ATOM      5  C   UNL     1    -105.941  45.349  53.447  1.00  0.00     0.111 A 
ATOM      6  C   UNL     1    -105.321  44.076  53.486  1.00  0.00     0.134 A 
ATOM      7  C   UNL     1    -105.298  43.351  54.687  1.00  0.00     0.093 A 
ATOM      8  C   UNL     1    -105.880  43.870  55.844  1.00  0.00     0.123 A 
ATOM      9  C   UNL     1    -106.493  45.127  55.812  1.00  0.00     0.094 A 
ATOM     10  C   UNL     1    -106.526  45.866  54.626  1.00  0.00     0.146 A 
ATOM     11  O   UNL     1    -107.110  47.059  54.624  1.00  0.00    -0.452 OA
ENDROOT
BRANCH   1  12
ATOM     12  C   UNL     1    -107.853  49.149  53.677  1.00  0.00     0.025 A 
ATOM     13  C   UNL     1    -109.194  49.330  53.294  1.00  0.00     0.016 A 
ATOM     14  C   UNL     1    -109.797  50.586  53.403  1.00  0.00     0.051 A 
ATOM     15  C   UNL     1    -109.066  51.680  53.883  1.00  0.00     0.157 A 
ATOM     16  C   UNL     1    -107.120  50.255  54.137  1.00  0.00     0.062 A 
ATOM     17  C   UNL     1    -107.724  51.515  54.248  1.00  0.00     0.158 A 
BRANCH  15  18
ATOM     18  O   UNL     1    -109.664  52.934  53.996  1.00  0.00    -0.504 OA
ATOM     19  H   UNL     1    -109.476  53.673  53.327  1.00  0.00     0.293 HD
ENDBRANCH  15  18
BRANCH  17  20
ATOM     20  O   UNL     1    -106.997  52.608  54.718  1.00  0.00    -0.504 OA
ATOM     21  H   UNL     1    -106.408  53.158  54.103  1.00  0.00     0.293 HD
ENDBRANCH  17  20
ENDBRANCH   1  12
BRANCH   2  22
ATOM     22  O   UNL     1    -106.778  48.162  51.169  1.00  0.00    -0.502 OA
ATOM     23  H   UNL     1    -107.377  47.893  50.397  1.00  0.00     0.293 HD
ENDBRANCH   2  22
BRANCH   6  24
ATOM     24  O   UNL     1    -104.730  43.528  52.347  1.00  0.00    -0.507 OA
ATOM     25  H   UNL     1    -105.201  42.827  51.787  1.00  0.00     0.293 HD
ENDBRANCH   6  24
BRANCH   8  26
ATOM     26  O   UNL     1    -105.844  43.128  57.024  1.00  0.00    -0.508 OA
ATOM     27  H   UNL     1    -106.469  43.331  57.796  1.00  0.00     0.293 HD
ENDBRANCH   8  26
TORSDOF 6
ENDMDL
MODEL 3
REMARK VINA RESULT:    -4.991      1.777      3.589
REMARK INTER + INTRA:          -6.341
REMARK INTER:                  -6.029
REMARK INTRA:                  -0.312
REMARK UNBOUND:                -0.329
REMARK SMILES O=c1c(O)c(-c2ccc(O)c(O)c2)oc2cc(O)cc(O)c12
REMARK SMILES IDX 5 1 3 2 2 3 1 4 22 5 20 6 19 7 17 8 16 9 15 10 14 11 6 12
REMARK SMILES IDX 7 13 8 14 9 15 13 16 11 17 10 18 12 20 4 22 21 24 18 26
REMARK H PARENT 10 19 12 21 4 23 21 25 18 27
REMARK Flexibility Score: inf
ROOT
ATOM      1  C   UNL     1    -106.120  44.051  54.033  1.00  0.00     0.180 A 
ATOM      2  C   UNL     1    -105.245  43.878  55.123  1.00  0.00     0.208 A 
ATOM      3  C   UNL     1    -105.353  42.716  55.901  1.00  0.00     0.238 A 
ATOM      4  O   UNL     1    -104.582  42.555  56.886  1.00  0.00    -0.285 OA
ATOM      5  C   UNL     1    -106.314  41.740  55.567  1.00  0.00     0.111 A 
ATOM      6  C   UNL     1    -106.484  40.538  56.297  1.00  0.00     0.134 A 
ATOM      7  C   UNL     1    -107.458  39.612  55.895  1.00  0.00     0.093 A 
ATOM      8  C   UNL     1    -108.262  39.862  54.781  1.00  0.00     0.123 A 
ATOM      9  C   UNL     1    -108.099  41.047  54.056  1.00  0.00     0.094 A 
ATOM     10  C   UNL     1    -107.135  41.983  54.441  1.00  0.00     0.146 A 
ATOM     11  O   UNL     1    -107.005  43.103  53.739  1.00  0.00    -0.452 OA
ENDROOT
BRANCH   1  12
ATOM     12  C   UNL     1    -106.081  45.259  53.176  1.00  0.00     0.025 A 
ATOM     13  C   UNL     1    -106.690  46.461  53.577  1.00  0.00     0.016 A 
ATOM     14  C   UNL     1    -106.662  47.581  52.741  1.00  0.00     0.051 A 
ATOM     15  C   UNL     1    -106.038  47.511  51.489  1.00  0.00     0.157 A 
ATOM     16  C   UNL     1    -105.476  45.190  51.911  1.00  0.00     0.062 A 
ATOM     17  C   UNL     1    -105.447  46.312  51.072  1.00  0.00     0.158 A 
BRANCH  15  18
ATOM     18  O   UNL     1    -106.006  48.626  50.653  1.00  0.00    -0.504 OA
ATOM     19  H   UNL     1    -106.654  48.726  49.879  1.00  0.00     0.293 HD
ENDBRANCH  15  18
BRANCH  17  20
ATOM     20  O   UNL     1    -104.832  46.244  49.822  1.00  0.00    -0.504 OA
ATOM     21  H   UNL     1    -105.374  46.222  48.965  1.00  0.00     0.293 HD
ENDBRANCH  17  20
ENDBRANCH   1  12
BRANCH   2  22
ATOM     22  O   UNL     1    -104.269  44.838  55.402  1.00  0.00    -0.502 OA
ATOM     23  H   UNL     1    -103.292  44.598  55.530  1.00  0.00     0.293 HD
ENDBRANCH   2  22
BRANCH   6  24
ATOM     24  O   UNL     1    -105.696  40.259  57.414  1.00  0.00    -0.507 OA
ATOM     25  H   UNL     1    -105.896  40.663  58.322  1.00  0.00     0.293 HD
ENDBRANCH   6  24
BRANCH   8  26
ATOM     26  O   UNL     1    -109.221  38.925  54.403  1.00  0.00    -0.508 OA
ATOM     27  H   UNL     1    -110.037  38.742  54.975  1.00  0.00     0.293 HD
ENDBRANCH   8  26
TORSDOF 6
ENDMDL
MODEL 4
REMARK VINA RESULT:    -4.978      2.533      3.961
REMARK INTER + INTRA:          -6.326
REMARK INTER:                  -6.002
REMARK INTRA:                  -0.325
REMARK UNBOUND:                -0.329
REMARK SMILES O=c1c(O)c(-c2ccc(O)c(O)c2)oc2cc(O)cc(O)c12
REMARK SMILES IDX 5 1 3 2 2 3 1 4 22 5 20 6 19 7 17 8 16 9 15 10 14 11 6 12
REMARK SMILES IDX 7 13 8 14 9 15 13 16 11 17 10 18 12 20 4 22 21 24 18 26
REMARK H PARENT 10 19 12 21 4 23 21 25 18 27
REMARK Flexibility Score: inf
ROOT
ATOM      1  C   UNL     1    -106.865  47.414  54.419  1.00  0.00     0.180 A 
ATOM      2  C   UNL     1    -107.596  46.700  53.450  1.00  0.00     0.208 A 
ATOM      3  C   UNL     1    -107.405  45.314  53.341  1.00  0.00     0.238 A 
ATOM      4  O   UNL     1    -108.045  44.665  52.470  1.00  0.00    -0.285 OA
ATOM      5  C   UNL     1    -106.508  44.664  54.213  1.00  0.00     0.111 A 
ATOM      6  C   UNL     1    -106.261  43.269  54.172  1.00  0.00     0.134 A 
ATOM      7  C   UNL     1    -105.359  42.696  55.081  1.00  0.00     0.093 A 
ATOM      8  C   UNL     1    -104.701  43.485  56.026  1.00  0.00     0.123 A 
ATOM      9  C   UNL     1    -104.939  44.862  56.071  1.00  0.00     0.094 A 
ATOM     10  C   UNL     1    -105.834  45.453  55.174  1.00  0.00     0.146 A 
ATOM     11  O   UNL     1    -106.038  46.765  55.234  1.00  0.00    -0.452 OA
ENDROOT
BRANCH   1  12
ATOM     12  C   UNL     1    -106.997  48.879  54.583  1.00  0.00     0.025 A 
ATOM     13  C   UNL     1    -107.954  49.437  55.449  1.00  0.00     0.016 A 
ATOM     14  C   UNL     1    -108.077  50.824  55.568  1.00  0.00     0.051 A 
ATOM     15  C   UNL     1    -107.256  51.673  54.815  1.00  0.00     0.157 A 
ATOM     16  C   UNL     1    -106.192  49.736  53.814  1.00  0.00     0.062 A 
ATOM     17  C   UNL     1    -106.314  51.128  53.934  1.00  0.00     0.158 A 
BRANCH  15  18
ATOM     18  O   UNL     1    -107.374  53.056  54.932  1.00  0.00    -0.504 OA
ATOM     19  H   UNL     1    -106.637  53.679  54.621  1.00  0.00     0.293 HD
ENDBRANCH  15  18
BRANCH  17  20
ATOM     20  O   UNL     1    -105.503  51.975  53.180  1.00  0.00    -0.504 OA
ATOM     21  H   UNL     1    -105.686  52.970  53.121  1.00  0.00     0.293 HD
ENDBRANCH  17  20
ENDBRANCH   1  12
BRANCH   2  22
ATOM     22  O   UNL     1    -108.516  47.361  52.632  1.00  0.00    -0.502 OA
ATOM     23  H   UNL     1    -109.497  47.111  52.607  1.00  0.00     0.293 HD
ENDBRANCH   2  22
BRANCH   6  24
ATOM     24  O   UNL     1    -106.903  42.453  53.240  1.00  0.00    -0.507 OA
ATOM     25  H   UNL     1    -107.519  42.835  52.532  1.00  0.00     0.293 HD
ENDBRANCH   6  24
BRANCH   8  26
ATOM     26  O   UNL     1    -103.811  42.889  56.917  1.00  0.00    -0.508 OA
ATOM     27  H   UNL     1    -102.811  42.902  56.754  1.00  0.00     0.293 HD
ENDBRANCH   8  26
TORSDOF 6
ENDMDL
MODEL 5
REMARK VINA RESULT:    -4.947      2.694      5.013
REMARK INTER + INTRA:          -6.288
REMARK INTER:                  -6.004
REMARK INTRA:                  -0.284
REMARK UNBOUND:                -0.329
REMARK SMILES O=c1c(O)c(-c2ccc(O)c(O)c2)oc2cc(O)cc(O)c12
REMARK SMILES IDX 5 1 3 2 2 3 1 4 22 5 20 6 19 7 17 8 16 9 15 10 14 11 6 12
REMARK SMILES IDX 7 13 8 14 9 15 13 16 11 17 10 18 12 20 4 22 21 24 18 26
REMARK H PARENT 10 19 12 21 4 23 21 25 18 27
REMARK Flexibility Score: inf
ROOT
ATOM      1  C   UNL     1    -107.483  44.503  53.304  1.00  0.00     0.180 A 
ATOM      2  C   UNL     1    -106.655  43.515  53.871  1.00  0.00     0.208 A 
ATOM      3  C   UNL     1    -107.118  42.192  53.929  1.00  0.00     0.238 A 
ATOM      4  O   UNL     1    -106.390  41.301  54.445  1.00  0.00    -0.285 OA
ATOM      5  C   UNL     1    -108.387  41.875  53.401  1.00  0.00     0.111 A 
ATOM      6  C   UNL     1    -108.926  40.565  53.416  1.00  0.00     0.134 A 
ATOM      7  C   UNL     1    -110.193  40.329  52.863  1.00  0.00     0.093 A 
ATOM      8  C   UNL     1    -110.929  41.371  52.297  1.00  0.00     0.123 A 
ATOM      9  C   UNL     1    -110.403  42.667  52.280  1.00  0.00     0.094 A 
ATOM     10  C   UNL     1    -109.143  42.923  52.827  1.00  0.00     0.146 A 
ATOM     11  O   UNL     1    -108.668  44.164  52.803  1.00  0.00    -0.452 OA
ENDROOT
BRANCH   1  12
ATOM     12  C   UNL     1    -107.073  45.923  53.224  1.00  0.00     0.025 A 
ATOM     13  C   UNL     1    -107.102  46.758  54.355  1.00  0.00     0.016 A 
ATOM     14  C   UNL     1    -106.733  48.103  54.251  1.00  0.00     0.051 A 
ATOM     15  C   UNL     1    -106.345  48.635  53.014  1.00  0.00     0.157 A 
ATOM     16  C   UNL     1    -106.704  46.468  51.983  1.00  0.00     0.062 A 
ATOM     17  C   UNL     1    -106.334  47.816  51.878  1.00  0.00     0.158 A 
BRANCH  15  18
ATOM     18  O   UNL     1    -105.976  49.974  52.906  1.00  0.00    -0.504 OA
ATOM     19  H   UNL     1    -105.015  50.246  52.730  1.00  0.00     0.293 HD
ENDBRANCH  15  18
BRANCH  17  20
ATOM     20  O   UNL     1    -105.954  48.350  50.647  1.00  0.00    -0.504 OA
ATOM     21  H   UNL     1    -105.691  49.324  50.550  1.00  0.00     0.293 HD
ENDBRANCH  17  20
ENDBRANCH   1  12
BRANCH   2  22
ATOM     22  O   UNL     1    -105.382  43.848  54.341  1.00  0.00    -0.502 OA
ATOM     23  H   UNL     1    -104.631  44.131  53.722  1.00  0.00     0.293 HD
ENDBRANCH   2  22
BRANCH   6  24
ATOM     24  O   UNL     1    -108.215  39.501  53.973  1.00  0.00    -0.507 OA
ATOM     25  H   UNL     1    -107.309  39.635  54.408  1.00  0.00     0.293 HD
ENDBRANCH   6  24
BRANCH   8  26
ATOM     26  O   UNL     1    -112.185  41.109  51.754  1.00  0.00    -0.508 OA
ATOM     27  H   UNL     1    -112.664  40.232  51.926  1.00  0.00     0.293 HD
ENDBRANCH   8  26
TORSDOF 6
ENDMDL
MODEL 6
REMARK VINA RESULT:    -4.915      1.807      2.767
REMARK INTER + INTRA:          -6.250
REMARK INTER:                  -6.082
REMARK INTRA:                  -0.168
REMARK UNBOUND:                -0.329
REMARK SMILES O=c1c(O)c(-c2ccc(O)c(O)c2)oc2cc(O)cc(O)c12
REMARK SMILES IDX 5 1 3 2 2 3 1 4 22 5 20 6 19 7 17 8 16 9 15 10 14 11 6 12
REMARK SMILES IDX 7 13 8 14 9 15 13 16 11 17 10 18 12 20 4 22 21 24 18 26
REMARK H PARENT 10 19 12 21 4 23 21 25 18 27
REMARK Flexibility Score: inf
ROOT
ATOM      1  C   UNL     1    -107.032  44.381  54.036  1.00  0.00     0.180 A 
ATOM      2  C   UNL     1    -107.868  43.587  53.227  1.00  0.00     0.208 A 
ATOM      3  C   UNL     1    -108.020  42.227  53.538  1.00  0.00     0.238 A 
ATOM      4  O   UNL     1    -108.757  41.504  52.814  1.00  0.00    -0.285 OA
ATOM      5  C   UNL     1    -107.355  41.689  54.659  1.00  0.00     0.111 A 
ATOM      6  C   UNL     1    -107.459  40.330  55.043  1.00  0.00     0.134 A 
ATOM      7  C   UNL     1    -106.773  39.874  56.177  1.00  0.00     0.093 A 
ATOM      8  C   UNL     1    -105.987  40.746  56.934  1.00  0.00     0.123 A 
ATOM      9  C   UNL     1    -105.880  42.089  56.559  1.00  0.00     0.094 A 
ATOM     10  C   UNL     1    -106.555  42.563  55.431  1.00  0.00     0.146 A 
ATOM     11  O   UNL     1    -106.432  43.842  55.094  1.00  0.00    -0.452 OA
ENDROOT
BRANCH   1  12
ATOM     12  C   UNL     1    -106.806  45.818  53.762  1.00  0.00     0.025 A 
ATOM     13  C   UNL     1    -107.282  46.813  54.634  1.00  0.00     0.016 A 
ATOM     14  C   UNL     1    -107.078  48.165  54.342  1.00  0.00     0.051 A 
ATOM     15  C   UNL     1    -106.409  48.541  53.171  1.00  0.00     0.157 A 
ATOM     16  C   UNL     1    -106.155  46.203  52.579  1.00  0.00     0.062 A 
ATOM     17  C   UNL     1    -105.950  47.558  52.286  1.00  0.00     0.158 A 
BRANCH  15  18
ATOM     18  O   UNL     1    -106.202  49.887  52.877  1.00  0.00    -0.504 OA
ATOM     19  H   UNL     1    -105.351  50.207  52.426  1.00  0.00     0.293 HD
ENDBRANCH  15  18
BRANCH  17  20
ATOM     20  O   UNL     1    -105.290  47.935  51.116  1.00  0.00    -0.504 OA
ATOM     21  H   UNL     1    -105.157  48.910  50.874  1.00  0.00     0.293 HD
ENDBRANCH  17  20
ENDBRANCH   1  12
BRANCH   2  22
ATOM     22  O   UNL     1    -108.555  44.156  52.151  1.00  0.00    -0.502 OA
ATOM     23  H   UNL     1    -108.549  45.153  51.969  1.00  0.00     0.293 HD
ENDBRANCH   2  22
BRANCH   6  24
ATOM     24  O   UNL     1    -108.236  39.433  54.309  1.00  0.00    -0.507 OA
ATOM     25  H   UNL     1    -108.465  39.598  53.335  1.00  0.00     0.293 HD
ENDBRANCH   6  24
BRANCH   8  26
ATOM     26  O   UNL     1    -105.316  40.267  58.057  1.00  0.00    -0.508 OA
ATOM     27  H   UNL     1    -104.324  40.063  58.034  1.00  0.00     0.293 HD
ENDBRANCH   8  26
TORSDOF 6
ENDMDL
MODEL 7
REMARK VINA RESULT:    -4.905      1.571      6.940
REMARK INTER + INTRA:          -6.238
REMARK INTER:                  -5.914
REMARK INTRA:                  -0.323
REMARK UNBOUND:                -0.329
REMARK SMILES O=c1c(O)c(-c2ccc(O)c(O)c2)oc2cc(O)cc(O)c12
REMARK SMILES IDX 5 1 3 2 2 3 1 4 22 5 20 6 19 7 17 8 16 9 15 10 14 11 6 12
REMARK SMILES IDX 7 13 8 14 9 15 13 16 11 17 10 18 12 20 4 22 21 24 18 26
REMARK H PARENT 10 19 12 21 4 23 21 25 18 27
REMARK Flexibility Score: inf
ROOT
ATOM      1  C   UNL     1    -105.847  44.636  54.721  1.00  0.00     0.180 A 
ATOM      2  C   UNL     1    -105.558  44.630  53.342  1.00  0.00     0.208 A 
ATOM      3  C   UNL     1    -105.799  45.793  52.594  1.00  0.00     0.238 A 
ATOM      4  O   UNL     1    -105.555  45.796  51.357  1.00  0.00    -0.285 OA
ATOM      5  C   UNL     1    -106.302  46.943  53.236  1.00  0.00     0.111 A 
ATOM      6  C   UNL     1    -106.568  48.156  52.555  1.00  0.00     0.134 A 
ATOM      7  C   UNL     1    -107.059  49.260  53.268  1.00  0.00     0.093 A 
ATOM      8  C   UNL     1    -107.289  49.176  54.642  1.00  0.00     0.123 A 
ATOM      9  C   UNL     1    -107.029  47.981  55.320  1.00  0.00     0.094 A 
ATOM     10  C   UNL     1    -106.540  46.869  54.629  1.00  0.00     0.146 A 
ATOM     11  O   UNL     1    -106.307  45.744  55.295  1.00  0.00    -0.452 OA
ENDROOT
BRANCH   1  12
ATOM     12  C   UNL     1    -105.638  43.443  55.574  1.00  0.00     0.025 A 
ATOM     13  C   UNL     1    -106.598  42.418  55.646  1.00  0.00     0.016 A 
ATOM     14  C   UNL     1    -106.390  41.313  56.477  1.00  0.00     0.051 A 
ATOM     15  C   UNL     1    -105.229  41.224  57.256  1.00  0.00     0.157 A 
ATOM     16  C   UNL     1    -104.486  43.358  56.373  1.00  0.00     0.062 A 
ATOM     17  C   UNL     1    -104.277  42.250  57.206  1.00  0.00     0.158 A 
BRANCH  15  18
ATOM     18  O   UNL     1    -105.017  40.124  58.085  1.00  0.00    -0.504 OA
ATOM     19  H   UNL     1    -105.158  39.176  57.753  1.00  0.00     0.293 HD
ENDBRANCH  15  18
BRANCH  17  20
ATOM     20  O   UNL     1    -103.126  42.162  57.988  1.00  0.00    -0.504 OA
ATOM     21  H   UNL     1    -102.393  42.860  57.933  1.00  0.00     0.293 HD
ENDBRANCH  17  20
ENDBRANCH   1  12
BRANCH   2  22
ATOM     22  O   UNL     1    -105.014  43.492  52.741  1.00  0.00    -0.502 OA
ATOM     23  H   UNL     1    -104.583  43.517  51.824  1.00  0.00     0.293 HD
ENDBRANCH   2  22
BRANCH   6  24
ATOM     24  O   UNL     1    -106.348  48.272  51.182  1.00  0.00    -0.507 OA
ATOM     25  H   UNL     1    -105.686  48.940  50.803  1.00  0.00     0.293 HD
ENDBRANCH   6  24
BRANCH   8  26
ATOM     26  O   UNL     1    -107.776  50.288  55.326  1.00  0.00    -0.508 OA
ATOM     27  H   UNL     1    -108.289  51.020  54.848  1.00  0.00     0.293 HD
ENDBRANCH   8  26
TORSDOF 6
ENDMDL
MODEL 8
REMARK VINA RESULT:    -4.769      4.093      6.235
REMARK INTER + INTRA:          -6.074
REMARK INTER:                  -5.944
REMARK INTRA:                  -0.130
REMARK UNBOUND:                -0.329
REMARK SMILES O=c1c(O)c(-c2ccc(O)c(O)c2)oc2cc(O)cc(O)c12
REMARK SMILES IDX 5 1 3 2 2 3 1 4 22 5 20 6 19 7 17 8 16 9 15 10 14 11 6 12
REMARK SMILES IDX 7 13 8 14 9 15 13 16 11 17 10 18 12 20 4 22 21 24 18 26
REMARK H PARENT 10 19 12 21 4 23 21 25 18 27
REMARK Flexibility Score: inf
ROOT
ATOM      1  C   UNL     1    -107.617  48.182  53.764  1.00  0.00     0.180 A 
ATOM      2  C   UNL     1    -108.689  48.623  52.964  1.00  0.00     0.208 A 
ATOM      3  C   UNL     1    -109.450  47.673  52.266  1.00  0.00     0.238 A 
ATOM      4  O   UNL     1    -110.405  48.057  51.538  1.00  0.00    -0.285 OA
ATOM      5  C   UNL     1    -109.143  46.303  52.396  1.00  0.00     0.111 A 
ATOM      6  C   UNL     1    -109.864  45.282  51.730  1.00  0.00     0.134 A 
ATOM      7  C   UNL     1    -109.502  43.940  51.917  1.00  0.00     0.093 A 
ATOM      8  C   UNL     1    -108.438  43.599  52.754  1.00  0.00     0.123 A 
ATOM      9  C   UNL     1    -107.721  44.603  53.414  1.00  0.00     0.094 A 
ATOM     10  C   UNL     1    -108.065  45.946  53.240  1.00  0.00     0.146 A 
ATOM     11  O   UNL     1    -107.366  46.880  53.874  1.00  0.00    -0.452 OA
ENDROOT
BRANCH   1  12
ATOM     12  C   UNL     1    -106.756  49.124  54.516  1.00  0.00     0.025 A 
ATOM     13  C   UNL     1    -106.716  49.117  55.921  1.00  0.00     0.016 A 
ATOM     14  C   UNL     1    -105.914  50.032  56.610  1.00  0.00     0.051 A 
ATOM     15  C   UNL     1    -105.153  50.974  55.905  1.00  0.00     0.157 A 
ATOM     16  C   UNL     1    -106.007  50.085  53.816  1.00  0.00     0.062 A 
ATOM     17  C   UNL     1    -105.203  51.002  54.506  1.00  0.00     0.158 A 
BRANCH  15  18
ATOM     18  O   UNL     1    -104.351  51.887  56.587  1.00  0.00    -0.504 OA
ATOM     19  H   UNL     1    -104.619  52.860  56.681  1.00  0.00     0.293 HD
ENDBRANCH  15  18
BRANCH  17  20
ATOM     20  O   UNL     1    -104.450  51.946  53.807  1.00  0.00    -0.504 OA
ATOM     21  H   UNL     1    -103.677  52.435  54.244  1.00  0.00     0.293 HD
ENDBRANCH  17  20
ENDBRANCH   1  12
BRANCH   2  22
ATOM     22  O   UNL     1    -109.002  49.983  52.893  1.00  0.00    -0.502 OA
ATOM     23  H   UNL     1    -109.123  50.466  52.010  1.00  0.00     0.293 HD
ENDBRANCH   2  22
BRANCH   6  24
ATOM     24  O   UNL     1    -110.933  45.589  50.887  1.00  0.00    -0.507 OA
ATOM     25  H   UNL     1    -111.713  44.954  50.762  1.00  0.00     0.293 HD
ENDBRANCH   6  24
BRANCH   8  26
ATOM     26  O   UNL     1    -108.100  42.258  52.923  1.00  0.00    -0.508 OA
ATOM     27  H   UNL     1    -107.330  41.837  52.415  1.00  0.00     0.293 HD
ENDBRANCH   8  26
TORSDOF 6
ENDMDL
MODEL 9
REMARK VINA RESULT:    -4.753     12.234     14.914
REMARK INTER + INTRA:          -6.055
REMARK INTER:                  -5.723
REMARK INTRA:                  -0.332
REMARK UNBOUND:                -0.329
REMARK SMILES O=c1c(O)c(-c2ccc(O)c(O)c2)oc2cc(O)cc(O)c12
REMARK SMILES IDX 5 1 3 2 2 3 1 4 22 5 20 6 19 7 17 8 16 9 15 10 14 11 6 12
REMARK SMILES IDX 7 13 8 14 9 15 13 16 11 17 10 18 12 20 4 22 21 24 18 26
REMARK H PARENT 10 19 12 21 4 23 21 25 18 27
REMARK Flexibility Score: inf
ROOT
ATOM      1  C   UNL     1    -107.138  43.557  41.167  1.00  0.00     0.180 A 
ATOM      2  C   UNL     1    -106.496  43.596  39.914  1.00  0.00     0.208 A 
ATOM      3  C   UNL     1    -105.963  44.812  39.462  1.00  0.00     0.238 A 
ATOM      4  O   UNL     1    -105.396  44.862  38.336  1.00  0.00    -0.285 OA
ATOM      5  C   UNL     1    -106.059  45.960  40.275  1.00  0.00     0.111 A 
ATOM      6  C   UNL     1    -105.544  47.224  39.895  1.00  0.00     0.134 A 
ATOM      7  C   UNL     1    -105.672  48.317  40.765  1.00  0.00     0.093 A 
ATOM      8  C   UNL     1    -106.303  48.173  42.002  1.00  0.00     0.123 A 
ATOM      9  C   UNL     1    -106.815  46.928  42.382  1.00  0.00     0.094 A 
ATOM     10  C   UNL     1    -106.698  45.827  41.530  1.00  0.00     0.146 A 
ATOM     11  O   UNL     1    -107.197  44.657  41.913  1.00  0.00    -0.452 OA
ENDROOT
BRANCH   1  12
ATOM     12  C   UNL     1    -107.742  42.317  41.704  1.00  0.00     0.025 A 
ATOM     13  C   UNL     1    -109.087  41.991  41.456  1.00  0.00     0.016 A 
ATOM     14  C   UNL     1    -109.643  40.826  41.994  1.00  0.00     0.051 A 
ATOM     15  C   UNL     1    -108.868  39.980  42.797  1.00  0.00     0.157 A 
ATOM     16  C   UNL     1    -106.977  41.475  42.528  1.00  0.00     0.062 A 
ATOM     17  C   UNL     1    -107.533  40.307  43.067  1.00  0.00     0.158 A 
BRANCH  15  18
ATOM     18  O   UNL     1    -109.417  38.817  43.334  1.00  0.00    -0.504 OA
ATOM     19  H   UNL     1    -109.341  38.602  44.322  1.00  0.00     0.293 HD
ENDBRANCH  15  18
BRANCH  17  20
ATOM     20  O   UNL     1    -106.766  39.466  43.873  1.00  0.00    -0.504 OA
ATOM     21  H   UNL     1    -106.980  38.479  43.964  1.00  0.00     0.293 HD
ENDBRANCH  17  20
ENDBRANCH   1  12
BRANCH   2  22
ATOM     22  O   UNL     1    -106.371  42.432  39.150  1.00  0.00    -0.502 OA
ATOM     23  H   UNL     1    -106.403  42.442  38.137  1.00  0.00     0.293 HD
ENDBRANCH   2  22
BRANCH   6  24
ATOM     24  O   UNL     1    -104.908  47.400  38.666  1.00  0.00    -0.507 OA
ATOM     25  H   UNL     1    -104.165  46.784  38.356  1.00  0.00     0.293 HD
ENDBRANCH   6  24
BRANCH   8  26
ATOM     26  O   UNL     1    -106.416  49.275  42.847  1.00  0.00    -0.508 OA
ATOM     27  H   UNL     1    -106.452  49.168  43.854  1.00  0.00     0.293 HD
ENDBRANCH   8  26
TORSDOF 6
ENDMDL
