MODEL 1
REMARK VINA RESULT:    -7.216      0.000      0.000
REMARK INTER + INTRA:         -10.716
REMARK INTER:                  -9.536
REMARK INTRA:                  -1.181
REMARK UNBOUND:                -1.181
REMARK SMILES CC[C@H](C=C[C@@H](C)[C@@H]1CC[C@H]2C3=CC[C@@H]4C[C@H](O)CC[C@]4(C)[C@H]3CC[C@@]21C)C(C)C
REMARK SMILES IDX 6 1 7 2 5 3 4 4 3 5 2 6 1 7 28 8 29 9 30 10 8 11 9 12 26 13
REMARK SMILES IDX 10 14 11 15 25 16 27 17 12 18 24 19 23 20 13 21 21 22 14 23
REMARK SMILES IDX 15 24 20 25 22 26 16 27 19 28 17 29 18 30
REMARK H PARENT 18 31
REMARK Flexibility Score: inf
ROOT
ATOM      1  C   UNL     1     114.713 124.152 123.435  1.00  0.00     0.012 C 
ATOM      2  C   UNL     1     114.330 125.169 122.336  1.00  0.00     0.012 C 
ENDROOT
BRANCH   1   3
ATOM      3  C   UNL     1     114.268 124.686 124.782  1.00  0.00    -0.028 C 
ATOM      4  C   UNL     1     114.259 126.001 125.076  1.00  0.00    -0.027 C 
BRANCH   4   5
ATOM      5  C   UNL     1     113.793 126.546 126.415  1.00  0.00     0.014 C 
BRANCH   5   6
ATOM      6  C   UNL     1     114.901 127.391 127.099  1.00  0.00     0.004 C 
ATOM      7  C   UNL     1     116.207 127.410 126.302  1.00  0.00     0.004 C 
ENDBRANCH   5   6
BRANCH   5   8
ATOM      8  C   UNL     1     112.446 127.320 126.257  1.00  0.00    -0.011 C 
ATOM      9  C   UNL     1     112.412 128.177 124.978  1.00  0.00     0.008 C 
ATOM     10  C   UNL     1     112.188 128.226 127.477  1.00  0.00     0.008 C 
ENDBRANCH   5   8
ENDBRANCH   4   5
ENDBRANCH   1   3
BRANCH   1  11
ATOM     11  C   UNL     1     116.243 123.788 123.459  1.00  0.00     0.002 C 
ATOM     12  C   UNL     1     117.124 124.689 122.535  1.00  0.00     0.005 C 
ATOM     13  C   UNL     1     116.596 122.335 122.982  1.00  0.00    -0.023 C 
ATOM     14  C   UNL     1     117.677 123.809 121.407  1.00  0.00     0.009 C 
ATOM     15  C   UNL     1     116.843 122.543 121.488  1.00  0.00     0.021 C 
ATOM     16  C   UNL     1     115.511 121.234 123.110  1.00  0.00     0.008 C 
ATOM     17  C   UNL     1     117.884 121.886 123.743  1.00  0.00     0.012 C 
ATOM     18  C   UNL     1     117.320 121.290 120.782  1.00  0.00    -0.067 C 
ATOM     19  C   UNL     1     115.989 119.889 122.523  1.00  0.00     0.009 C 
ATOM     20  C   UNL     1     116.600 119.973 121.081  1.00  0.00     0.021 C 
ATOM     21  C   UNL     1     117.997 121.390 119.624  1.00  0.00    -0.027 C 
ATOM     22  C   UNL     1     117.515 118.736 120.701  1.00  0.00    -0.023 C 
ATOM     23  C   UNL     1     117.907 120.294 118.604  1.00  0.00     0.031 C 
ATOM     24  C   UNL     1     118.061 118.881 119.213  1.00  0.00     0.002 C 
ATOM     25  C   UNL     1     116.678 117.427 120.861  1.00  0.00     0.010 C 
ATOM     26  C   UNL     1     118.752 118.654 121.646  1.00  0.00     0.012 C 
ATOM     27  C   UNL     1     117.453 117.846 118.244  1.00  0.00     0.036 C 
ATOM     28  C   UNL     1     117.335 116.199 120.213  1.00  0.00     0.032 C 
ATOM     29  C   UNL     1     117.721 116.410 118.730  1.00  0.00     0.114 C 
BRANCH  29  30
ATOM     30  O   UNL     1     117.015 115.498 117.925  1.00  0.00    -0.393 OA
ATOM     31  H   UNL     1     117.608 114.711 117.804  1.00  0.00     0.210 HD
ENDBRANCH  29  30
ENDBRANCH   1  11
TORSDOF 6
ENDMDL
MODEL 2
REMARK VINA RESULT:    -7.052      0.724      1.619
REMARK INTER + INTRA:         -10.500
REMARK INTER:                  -9.574
REMARK INTRA:                  -0.926
REMARK UNBOUND:                -1.181
REMARK SMILES CC[C@H](C=C[C@@H](C)[C@@H]1CC[C@H]2C3=CC[C@@H]4C[C@H](O)CC[C@]4(C)[C@H]3CC[C@@]21C)C(C)C
REMARK SMILES IDX 6 1 7 2 5 3 4 4 3 5 2 6 1 7 28 8 29 9 30 10 8 11 9 12 26 13
REMARK SMILES IDX 10 14 11 15 25 16 27 17 12 18 24 19 23 20 13 21 21 22 14 23
REMARK SMILES IDX 15 24 20 25 22 26 16 27 19 28 17 29 18 30
REMARK H PARENT 18 31
REMARK Flexibility Score: inf
ROOT
ATOM      1  C   UNL     1     114.609 124.186 122.472  1.00  0.00     0.012 C 
ATOM      2  C   UNL     1     114.277 124.391 120.977  1.00  0.00     0.012 C 
ENDROOT
BRANCH   1   3
ATOM      3  C   UNL     1     114.270 125.452 123.234  1.00  0.00    -0.028 C 
ATOM      4  C   UNL     1     114.604 125.635 124.526  1.00  0.00    -0.027 C 
BRANCH   4   5
ATOM      5  C   UNL     1     114.289 126.910 125.290  1.00  0.00     0.014 C 
BRANCH   5   6
ATOM      6  C   UNL     1     113.346 126.633 126.490  1.00  0.00     0.004 C 
ATOM      7  C   UNL     1     112.269 127.707 126.657  1.00  0.00     0.004 C 
ENDBRANCH   5   6
BRANCH   5   8
ATOM      8  C   UNL     1     115.604 127.644 125.704  1.00  0.00    -0.011 C 
ATOM      9  C   UNL     1     116.778 127.312 124.764  1.00  0.00     0.008 C 
ATOM     10  C   UNL     1     116.000 127.284 127.149  1.00  0.00     0.008 C 
ENDBRANCH   5   8
ENDBRANCH   4   5
ENDBRANCH   1   3
BRANCH   1  11
ATOM     11  C   UNL     1     116.099 123.757 122.741  1.00  0.00     0.002 C 
ATOM     12  C   UNL     1     117.148 124.551 121.898  1.00  0.00     0.005 C 
ATOM     13  C   UNL     1     116.438 122.260 122.414  1.00  0.00    -0.023 C 
ATOM     14  C   UNL     1     117.807 123.571 120.921  1.00  0.00     0.009 C 
ATOM     15  C   UNL     1     116.904 122.351 120.961  1.00  0.00     0.021 C 
ATOM     16  C   UNL     1     115.287 121.221 122.453  1.00  0.00     0.008 C 
ATOM     17  C   UNL     1     117.579 121.811 123.380  1.00  0.00     0.012 C 
ATOM     18  C   UNL     1     117.409 121.031 120.413  1.00  0.00    -0.067 C 
ATOM     19  C   UNL     1     115.771 119.817 122.029  1.00  0.00     0.009 C 
ATOM     20  C   UNL     1     116.584 119.772 120.688  1.00  0.00     0.021 C 
ATOM     21  C   UNL     1     118.247 121.019 119.361  1.00  0.00    -0.027 C 
ATOM     22  C   UNL     1     117.476 118.472 120.525  1.00  0.00    -0.023 C 
ATOM     23  C   UNL     1     118.243 119.859 118.411  1.00  0.00     0.031 C 
ATOM     24  C   UNL     1     118.233 118.487 119.125  1.00  0.00     0.002 C 
ATOM     25  C   UNL     1     116.555 117.216 120.645  1.00  0.00     0.010 C 
ATOM     26  C   UNL     1     118.560 118.404 121.642  1.00  0.00     0.012 C 
ATOM     27  C   UNL     1     117.715 117.414 118.146  1.00  0.00     0.036 C 
ATOM     28  C   UNL     1     117.231 115.917 120.178  1.00  0.00     0.032 C 
ATOM     29  C   UNL     1     117.833 116.006 118.757  1.00  0.00     0.114 C 
BRANCH  29  30
ATOM     30  O   UNL     1     117.201 115.071 117.918  1.00  0.00    -0.393 OA
ATOM     31  H   UNL     1     117.847 114.858 117.195  1.00  0.00     0.210 HD
ENDBRANCH  29  30
ENDBRANCH   1  11
TORSDOF 6
ENDMDL
MODEL 3
REMARK VINA RESULT:    -6.890      2.661      5.119
REMARK INTER + INTRA:         -10.286
REMARK INTER:                  -9.117
REMARK INTRA:                  -1.169
REMARK UNBOUND:                -1.181
REMARK SMILES CC[C@H](C=C[C@@H](C)[C@@H]1CC[C@H]2C3=CC[C@@H]4C[C@H](O)CC[C@]4(C)[C@H]3CC[C@@]21C)C(C)C
REMARK SMILES IDX 6 1 7 2 5 3 4 4 3 5 2 6 1 7 28 8 29 9 30 10 8 11 9 12 26 13
REMARK SMILES IDX 10 14 11 15 25 16 27 17 12 18 24 19 23 20 13 21 21 22 14 23
REMARK SMILES IDX 15 24 20 25 22 26 16 27 19 28 17 29 18 30
REMARK H PARENT 18 31
REMARK Flexibility Score: inf
ROOT
ATOM      1  C   UNL     1     114.302 124.173 123.674  1.00  0.00     0.012 C 
ATOM      2  C   UNL     1     114.671 124.930 124.970  1.00  0.00     0.012 C 
ENDROOT
BRANCH   1   3
ATOM      3  C   UNL     1     114.588 122.697 123.864  1.00  0.00    -0.028 C 
ATOM      4  C   UNL     1     113.636 121.751 123.747  1.00  0.00    -0.027 C 
BRANCH   4   5
ATOM      5  C   UNL     1     113.919 120.267 123.913  1.00  0.00     0.014 C 
BRANCH   5   6
ATOM      6  C   UNL     1     115.352 119.907 123.437  1.00  0.00     0.004 C 
ATOM      7  C   UNL     1     115.396 119.470 121.971  1.00  0.00     0.004 C 
ENDBRANCH   5   6
BRANCH   5   8
ATOM      8  C   UNL     1     113.631 119.811 125.379  1.00  0.00    -0.011 C 
ATOM      9  C   UNL     1     114.865 119.176 126.046  1.00  0.00     0.008 C 
ATOM     10  C   UNL     1     112.463 118.806 125.420  1.00  0.00     0.008 C 
ENDBRANCH   5   8
ENDBRANCH   4   5
ENDBRANCH   1   3
BRANCH   1  11
ATOM     11  C   UNL     1     115.029 124.719 122.390  1.00  0.00     0.002 C 
ATOM     12  C   UNL     1     114.295 124.378 121.053  1.00  0.00     0.005 C 
ATOM     13  C   UNL     1     116.479 124.168 122.151  1.00  0.00    -0.023 C 
ATOM     14  C   UNL     1     115.185 123.415 120.259  1.00  0.00     0.009 C 
ATOM     15  C   UNL     1     116.213 122.946 121.273  1.00  0.00     0.021 C 
ATOM     16  C   UNL     1     117.289 123.673 123.378  1.00  0.00     0.008 C 
ATOM     17  C   UNL     1     117.289 125.275 121.405  1.00  0.00     0.012 C 
ATOM     18  C   UNL     1     117.481 122.270 120.791  1.00  0.00    -0.067 C 
ATOM     19  C   UNL     1     118.656 123.090 122.963  1.00  0.00     0.009 C 
ATOM     20  C   UNL     1     118.603 122.033 121.805  1.00  0.00     0.021 C 
ATOM     21  C   UNL     1     117.452 121.499 119.690  1.00  0.00    -0.027 C 
ATOM     22  C   UNL     1     119.990 121.824 121.066  1.00  0.00    -0.023 C 
ATOM     23  C   UNL     1     118.404 120.347 119.554  1.00  0.00     0.031 C 
ATOM     24  C   UNL     1     119.857 120.711 119.936  1.00  0.00     0.002 C 
ATOM     25  C   UNL     1     121.064 121.418 122.124  1.00  0.00     0.010 C 
ATOM     26  C   UNL     1     120.448 123.142 120.371  1.00  0.00     0.012 C 
ATOM     27  C   UNL     1     120.629 119.417 120.269  1.00  0.00     0.036 C 
ATOM     28  C   UNL     1     122.357 120.868 121.501  1.00  0.00     0.032 C 
ATOM     29  C   UNL     1     122.122 119.710 120.503  1.00  0.00     0.114 C 
BRANCH  29  30
ATOM     30  O   UNL     1     122.765 118.549 120.969  1.00  0.00    -0.393 OA
ATOM     31  H   UNL     1     122.175 117.786 120.732  1.00  0.00     0.210 HD
ENDBRANCH  29  30
ENDBRANCH   1  11
TORSDOF 6
ENDMDL
MODEL 4
REMARK VINA RESULT:    -6.694      2.840      3.820
REMARK INTER + INTRA:         -10.027
REMARK INTER:                  -8.606
REMARK INTRA:                  -1.421
REMARK UNBOUND:                -1.181
REMARK SMILES CC[C@H](C=C[C@@H](C)[C@@H]1CC[C@H]2C3=CC[C@@H]4C[C@H](O)CC[C@]4(C)[C@H]3CC[C@@]21C)C(C)C
REMARK SMILES IDX 6 1 7 2 5 3 4 4 3 5 2 6 1 7 28 8 29 9 30 10 8 11 9 12 26 13
REMARK SMILES IDX 10 14 11 15 25 16 27 17 12 18 24 19 23 20 13 21 21 22 14 23
REMARK SMILES IDX 15 24 20 25 22 26 16 27 19 28 17 29 18 30
REMARK H PARENT 18 31
REMARK Flexibility Score: inf
ROOT
ATOM      1  C   UNL     1     114.976 123.037 123.596  1.00  0.00     0.012 C 
ATOM      2  C   UNL     1     113.753 122.122 123.361  1.00  0.00     0.012 C 
ENDROOT
BRANCH   1   3
ATOM      3  C   UNL     1     114.613 124.100 124.613  1.00  0.00    -0.028 C 
ATOM      4  C   UNL     1     115.350 125.213 124.797  1.00  0.00    -0.027 C 
BRANCH   4   5
ATOM      5  C   UNL     1     114.980 126.294 125.798  1.00  0.00     0.014 C 
BRANCH   5   6
ATOM      6  C   UNL     1     116.006 127.459 125.778  1.00  0.00     0.004 C 
ATOM      7  C   UNL     1     116.933 127.410 124.562  1.00  0.00     0.004 C 
ENDBRANCH   5   6
BRANCH   5   8
ATOM      8  C   UNL     1     113.510 126.772 125.576  1.00  0.00    -0.011 C 
ATOM      9  C   UNL     1     113.370 127.671 124.333  1.00  0.00     0.008 C 
ATOM     10  C   UNL     1     112.990 127.534 126.810  1.00  0.00     0.008 C 
ENDBRANCH   5   8
ENDBRANCH   4   5
ENDBRANCH   1   3
BRANCH   1  11
ATOM     11  C   UNL     1     115.540 123.694 122.282  1.00  0.00     0.002 C 
ATOM     12  C   UNL     1     114.851 123.188 120.974  1.00  0.00     0.005 C 
ATOM     13  C   UNL     1     117.064 123.441 122.003  1.00  0.00    -0.023 C 
ATOM     14  C   UNL     1     115.893 122.408 120.163  1.00  0.00     0.009 C 
ATOM     15  C   UNL     1     117.024 122.174 121.149  1.00  0.00     0.021 C 
ATOM     16  C   UNL     1     117.992 123.141 123.209  1.00  0.00     0.008 C 
ATOM     17  C   UNL     1     117.613 124.673 121.217  1.00  0.00     0.012 C 
ATOM     18  C   UNL     1     118.387 121.757 120.635  1.00  0.00    -0.067 C 
ATOM     19  C   UNL     1     119.437 122.836 122.757  1.00  0.00     0.009 C 
ATOM     20  C   UNL     1     119.563 121.769 121.614  1.00  0.00     0.021 C 
ATOM     21  C   UNL     1     118.481 120.975 119.545  1.00  0.00    -0.027 C 
ATOM     22  C   UNL     1     120.941 121.828 120.833  1.00  0.00    -0.023 C 
ATOM     23  C   UNL     1     119.640 120.036 119.392  1.00  0.00     0.031 C 
ATOM     24  C   UNL     1     121.002 120.691 119.722  1.00  0.00     0.002 C 
ATOM     25  C   UNL     1     122.106 121.665 121.861  1.00  0.00     0.010 C 
ATOM     26  C   UNL     1     121.105 123.198 120.108  1.00  0.00     0.012 C 
ATOM     27  C   UNL     1     122.027 119.584 120.047  1.00  0.00     0.036 C 
ATOM     28  C   UNL     1     123.464 121.374 121.204  1.00  0.00     0.032 C 
ATOM     29  C   UNL     1     123.438 120.174 120.228  1.00  0.00     0.114 C 
BRANCH  29  30
ATOM     30  O   UNL     1     124.313 119.175 120.688  1.00  0.00    -0.393 OA
ATOM     31  H   UNL     1     125.143 119.256 120.148  1.00  0.00     0.210 HD
ENDBRANCH  29  30
ENDBRANCH   1  11
TORSDOF 6
ENDMDL
MODEL 5
REMARK VINA RESULT:    -6.478      3.553      9.872
REMARK INTER + INTRA:          -9.742
REMARK INTER:                  -8.452
REMARK INTRA:                  -1.290
REMARK UNBOUND:                -1.181
REMARK SMILES CC[C@H](C=C[C@@H](C)[C@@H]1CC[C@H]2C3=CC[C@@H]4C[C@H](O)CC[C@]4(C)[C@H]3CC[C@@]21C)C(C)C
REMARK SMILES IDX 6 1 7 2 5 3 4 4 3 5 2 6 1 7 28 8 29 9 30 10 8 11 9 12 26 13
REMARK SMILES IDX 10 14 11 15 25 16 27 17 12 18 24 19 23 20 13 21 21 22 14 23
REMARK SMILES IDX 15 24 20 25 22 26 16 27 19 28 17 29 18 30
REMARK H PARENT 18 31
REMARK Flexibility Score: inf
ROOT
ATOM      1  C   UNL     1     117.876 119.190 117.983  1.00  0.00     0.012 C 
ATOM      2  C   UNL     1     117.156 117.829 117.847  1.00  0.00     0.012 C 
ENDROOT
BRANCH   1   3
ATOM      3  C   UNL     1     118.751 119.413 116.766  1.00  0.00    -0.028 C 
ATOM      4  C   UNL     1     120.072 119.150 116.762  1.00  0.00    -0.027 C 
BRANCH   4   5
ATOM      5  C   UNL     1     120.952 119.348 115.539  1.00  0.00     0.014 C 
BRANCH   5   6
ATOM      6  C   UNL     1     122.383 119.796 115.938  1.00  0.00     0.004 C 
ATOM      7  C   UNL     1     122.563 119.924 117.452  1.00  0.00     0.004 C 
ENDBRANCH   5   6
BRANCH   5   8
ATOM      8  C   UNL     1     120.940 118.071 114.639  1.00  0.00    -0.011 C 
ATOM      9  C   UNL     1     121.826 116.948 115.209  1.00  0.00     0.008 C 
ATOM     10  C   UNL     1     121.408 118.406 113.209  1.00  0.00     0.008 C 
ENDBRANCH   5   8
ENDBRANCH   4   5
ENDBRANCH   1   3
BRANCH   1  11
ATOM     11  C   UNL     1     118.716 119.336 119.306  1.00  0.00     0.002 C 
ATOM     12  C   UNL     1     118.534 118.150 120.307  1.00  0.00     0.005 C 
ATOM     13  C   UNL     1     118.380 120.595 120.181  1.00  0.00    -0.023 C 
ATOM     14  C   UNL     1     117.829 118.691 121.556  1.00  0.00     0.009 C 
ATOM     15  C   UNL     1     117.308 120.050 121.123  1.00  0.00     0.021 C 
ATOM     16  C   UNL     1     117.772 121.838 119.478  1.00  0.00     0.008 C 
ATOM     17  C   UNL     1     119.683 121.010 120.935  1.00  0.00     0.012 C 
ATOM     18  C   UNL     1     116.872 121.051 122.174  1.00  0.00    -0.067 C 
ATOM     19  C   UNL     1     117.427 122.953 120.488  1.00  0.00     0.009 C 
ATOM     20  C   UNL     1     116.589 122.488 121.730  1.00  0.00     0.021 C 
ATOM     21  C   UNL     1     116.307 120.620 123.316  1.00  0.00    -0.027 C 
ATOM     22  C   UNL     1     116.668 123.481 122.963  1.00  0.00    -0.023 C 
ATOM     23  C   UNL     1     115.310 121.482 124.033  1.00  0.00     0.031 C 
ATOM     24  C   UNL     1     115.762 122.956 124.162  1.00  0.00     0.002 C 
ATOM     25  C   UNL     1     116.206 124.897 122.495  1.00  0.00     0.010 C 
ATOM     26  C   UNL     1     118.130 123.584 123.495  1.00  0.00     0.012 C 
ATOM     27  C   UNL     1     114.524 123.841 124.415  1.00  0.00     0.036 C 
ATOM     28  C   UNL     1     115.921 125.861 123.658  1.00  0.00     0.032 C 
ATOM     29  C   UNL     1     114.936 125.296 124.707  1.00  0.00     0.114 C 
BRANCH  29  30
ATOM     30  O   UNL     1     113.790 126.109 124.765  1.00  0.00    -0.393 OA
ATOM     31  H   UNL     1     113.040 125.521 125.041  1.00  0.00     0.210 HD
ENDBRANCH  29  30
ENDBRANCH   1  11
TORSDOF 6
ENDMDL
MODEL 6
REMARK VINA RESULT:    -6.477      1.968      3.121
REMARK INTER + INTRA:          -9.740
REMARK INTER:                  -8.459
REMARK INTRA:                  -1.281
REMARK UNBOUND:                -1.181
REMARK SMILES CC[C@H](C=C[C@@H](C)[C@@H]1CC[C@H]2C3=CC[C@@H]4C[C@H](O)CC[C@]4(C)[C@H]3CC[C@@]21C)C(C)C
REMARK SMILES IDX 6 1 7 2 5 3 4 4 3 5 2 6 1 7 28 8 29 9 30 10 8 11 9 12 26 13
REMARK SMILES IDX 10 14 11 15 25 16 27 17 12 18 24 19 23 20 13 21 21 22 14 23
REMARK SMILES IDX 15 24 20 25 22 26 16 27 19 28 17 29 18 30
REMARK H PARENT 18 31
REMARK Flexibility Score: inf
ROOT
ATOM      1  C   UNL     1     114.524 122.560 124.004  1.00  0.00     0.012 C 
ATOM      2  C   UNL     1     113.483 121.726 124.786  1.00  0.00     0.012 C 
ENDROOT
BRANCH   1   3
ATOM      3  C   UNL     1     114.412 124.012 124.422  1.00  0.00    -0.028 C 
ATOM      4  C   UNL     1     115.467 124.725 124.863  1.00  0.00    -0.027 C 
BRANCH   4   5
ATOM      5  C   UNL     1     115.368 126.188 125.262  1.00  0.00     0.014 C 
BRANCH   5   6
ATOM      6  C   UNL     1     116.230 127.086 124.336  1.00  0.00     0.004 C 
ATOM      7  C   UNL     1     117.238 126.287 123.507  1.00  0.00     0.004 C 
ENDBRANCH   5   6
BRANCH   5   8
ATOM      8  C   UNL     1     113.875 126.640 125.334  1.00  0.00    -0.011 C 
ATOM      9  C   UNL     1     113.529 127.685 124.257  1.00  0.00     0.008 C 
ATOM     10  C   UNL     1     113.545 127.221 126.723  1.00  0.00     0.008 C 
ENDBRANCH   5   8
ENDBRANCH   4   5
ENDBRANCH   1   3
BRANCH   1  11
ATOM     11  C   UNL     1     114.406 122.420 122.441  1.00  0.00     0.002 C 
ATOM     12  C   UNL     1     113.274 121.447 121.975  1.00  0.00     0.005 C 
ATOM     13  C   UNL     1     115.680 121.857 121.718  1.00  0.00    -0.023 C 
ATOM     14  C   UNL     1     113.938 120.240 121.304  1.00  0.00     0.009 C 
ATOM     15  C   UNL     1     115.398 120.355 121.703  1.00  0.00     0.021 C 
ATOM     16  C   UNL     1     117.059 122.050 122.401  1.00  0.00     0.008 C 
ATOM     17  C   UNL     1     115.720 122.471 120.282  1.00  0.00     0.012 C 
ATOM     18  C   UNL     1     116.443 119.559 120.946  1.00  0.00    -0.067 C 
ATOM     19  C   UNL     1     118.192 121.370 121.603  1.00  0.00     0.009 C 
ATOM     20  C   UNL     1     117.918 119.879 121.200  1.00  0.00     0.021 C 
ATOM     21  C   UNL     1     116.135 118.346 120.456  1.00  0.00    -0.027 C 
ATOM     22  C   UNL     1     118.816 119.366 119.999  1.00  0.00    -0.023 C 
ATOM     23  C   UNL     1     117.201 117.299 120.318  1.00  0.00     0.031 C 
ATOM     24  C   UNL     1     118.504 117.838 119.681  1.00  0.00     0.002 C 
ATOM     25  C   UNL     1     120.319 119.559 120.380  1.00  0.00     0.010 C 
ATOM     26  C   UNL     1     118.523 120.181 118.703  1.00  0.00     0.012 C 
ATOM     27  C   UNL     1     119.669 116.895 120.046  1.00  0.00     0.036 C 
ATOM     28  C   UNL     1     121.286 118.804 119.454  1.00  0.00     0.032 C 
ATOM     29  C   UNL     1     120.958 117.299 119.308  1.00  0.00     0.114 C 
BRANCH  29  30
ATOM     30  O   UNL     1     122.037 116.534 119.785  1.00  0.00    -0.393 OA
ATOM     31  H   UNL     1     122.793 116.691 119.160  1.00  0.00     0.210 HD
ENDBRANCH  29  30
ENDBRANCH   1  11
TORSDOF 6
ENDMDL
MODEL 7
REMARK VINA RESULT:    -6.442      6.829     12.453
REMARK INTER + INTRA:          -9.694
REMARK INTER:                  -8.231
REMARK INTRA:                  -1.463
REMARK UNBOUND:                -1.181
REMARK SMILES CC[C@H](C=C[C@@H](C)[C@@H]1CC[C@H]2C3=CC[C@@H]4C[C@H](O)CC[C@]4(C)[C@H]3CC[C@@]21C)C(C)C
REMARK SMILES IDX 6 1 7 2 5 3 4 4 3 5 2 6 1 7 28 8 29 9 30 10 8 11 9 12 26 13
REMARK SMILES IDX 10 14 11 15 25 16 27 17 12 18 24 19 23 20 13 21 21 22 14 23
REMARK SMILES IDX 15 24 20 25 22 26 16 27 19 28 17 29 18 30
REMARK H PARENT 18 31
REMARK Flexibility Score: inf
ROOT
ATOM      1  C   UNL     1     123.598 120.112 113.025  1.00  0.00     0.012 C 
ATOM      2  C   UNL     1     123.086 120.388 111.592  1.00  0.00     0.012 C 
ENDROOT
BRANCH   1   3
ATOM      3  C   UNL     1     125.113 120.115 113.019  1.00  0.00    -0.028 C 
ATOM      4  C   UNL     1     125.844 119.327 113.831  1.00  0.00    -0.027 C 
BRANCH   4   5
ATOM      5  C   UNL     1     127.364 119.306 113.815  1.00  0.00     0.014 C 
BRANCH   5   6
ATOM      6  C   UNL     1     127.954 120.590 114.456  1.00  0.00     0.004 C 
ATOM      7  C   UNL     1     127.347 120.901 115.826  1.00  0.00     0.004 C 
ENDBRANCH   5   6
BRANCH   5   8
ATOM      8  C   UNL     1     127.904 117.994 114.468  1.00  0.00    -0.011 C 
ATOM      9  C   UNL     1     128.590 117.073 113.443  1.00  0.00     0.008 C 
ATOM     10  C   UNL     1     126.766 117.218 115.159  1.00  0.00     0.008 C 
ENDBRANCH   5   8
ENDBRANCH   4   5
ENDBRANCH   1   3
BRANCH   1  11
ATOM     11  C   UNL     1     123.046 118.779 113.651  1.00  0.00     0.002 C 
ATOM     12  C   UNL     1     121.803 118.194 112.905  1.00  0.00     0.005 C 
ATOM     13  C   UNL     1     122.551 118.887 115.137  1.00  0.00    -0.023 C 
ATOM     14  C   UNL     1     120.601 118.281 113.852  1.00  0.00     0.009 C 
ATOM     15  C   UNL     1     121.069 119.214 114.954  1.00  0.00     0.021 C 
ATOM     16  C   UNL     1     123.151 120.002 116.032  1.00  0.00     0.008 C 
ATOM     17  C   UNL     1     122.777 117.498 115.814  1.00  0.00     0.012 C 
ATOM     18  C   UNL     1     120.304 119.267 116.261  1.00  0.00    -0.067 C 
ATOM     19  C   UNL     1     122.501 120.023 117.432  1.00  0.00     0.009 C 
ATOM     20  C   UNL     1     120.933 120.021 117.436  1.00  0.00     0.021 C 
ATOM     21  C   UNL     1     118.971 119.092 116.265  1.00  0.00    -0.027 C 
ATOM     22  C   UNL     1     120.297 119.547 118.809  1.00  0.00    -0.023 C 
ATOM     23  C   UNL     1     118.129 119.755 117.314  1.00  0.00     0.031 C 
ATOM     24  C   UNL     1     118.709 119.612 118.740  1.00  0.00     0.002 C 
ATOM     25  C   UNL     1     120.842 120.459 119.954  1.00  0.00     0.010 C 
ATOM     26  C   UNL     1     120.691 118.071 119.118  1.00  0.00     0.012 C 
ATOM     27  C   UNL     1     118.110 120.713 119.640  1.00  0.00     0.036 C 
ATOM     28  C   UNL     1     120.059 120.323 121.269  1.00  0.00     0.032 C 
ATOM     29  C   UNL     1     118.534 120.519 121.107  1.00  0.00     0.114 C 
BRANCH  29  30
ATOM     30  O   UNL     1     118.118 121.625 121.870  1.00  0.00    -0.393 OA
ATOM     31  H   UNL     1     117.409 122.079 121.345  1.00  0.00     0.210 HD
ENDBRANCH  29  30
ENDBRANCH   1  11
TORSDOF 6
ENDMDL
MODEL 8
REMARK VINA RESULT:    -6.358      4.324      6.721
REMARK INTER + INTRA:          -9.583
REMARK INTER:                  -8.552
REMARK INTRA:                  -1.030
REMARK UNBOUND:                -1.181
REMARK SMILES CC[C@H](C=C[C@@H](C)[C@@H]1CC[C@H]2C3=CC[C@@H]4C[C@H](O)CC[C@]4(C)[C@H]3CC[C@@]21C)C(C)C
REMARK SMILES IDX 6 1 7 2 5 3 4 4 3 5 2 6 1 7 28 8 29 9 30 10 8 11 9 12 26 13
REMARK SMILES IDX 10 14 11 15 25 16 27 17 12 18 24 19 23 20 13 21 21 22 14 23
REMARK SMILES IDX 15 24 20 25 22 26 16 27 19 28 17 29 18 30
REMARK H PARENT 18 31
REMARK Flexibility Score: inf
ROOT
ATOM      1  C   UNL     1     117.897 121.110 120.157  1.00  0.00     0.012 C 
ATOM      2  C   UNL     1     118.620 122.372 120.681  1.00  0.00     0.012 C 
ENDROOT
BRANCH   1   3
ATOM      3  C   UNL     1     116.584 120.947 120.896  1.00  0.00    -0.028 C 
ATOM      4  C   UNL     1     115.961 121.973 121.506  1.00  0.00    -0.027 C 
BRANCH   4   5
ATOM      5  C   UNL     1     114.633 121.823 122.229  1.00  0.00     0.014 C 
BRANCH   5   6
ATOM      6  C   UNL     1     114.811 121.929 123.767  1.00  0.00     0.004 C 
ATOM      7  C   UNL     1     113.542 121.554 124.536  1.00  0.00     0.004 C 
ENDBRANCH   5   6
BRANCH   5   8
ATOM      8  C   UNL     1     113.582 122.831 121.665  1.00  0.00    -0.011 C 
ATOM      9  C   UNL     1     112.681 122.194 120.591  1.00  0.00     0.008 C 
ATOM     10  C   UNL     1     114.277 124.071 121.068  1.00  0.00     0.008 C 
ENDBRANCH   5   8
ENDBRANCH   4   5
ENDBRANCH   1   3
BRANCH   1  11
ATOM     11  C   UNL     1     118.758 119.797 120.256  1.00  0.00     0.002 C 
ATOM     12  C   UNL     1     120.039 119.944 121.139  1.00  0.00     0.005 C 
ATOM     13  C   UNL     1     119.324 119.258 118.895  1.00  0.00    -0.023 C 
ATOM     14  C   UNL     1     121.261 119.807 120.224  1.00  0.00     0.009 C 
ATOM     15  C   UNL     1     120.688 119.944 118.825  1.00  0.00     0.021 C 
ATOM     16  C   UNL     1     118.569 119.622 117.590  1.00  0.00     0.008 C 
ATOM     17  C   UNL     1     119.442 117.705 119.013  1.00  0.00     0.012 C 
ATOM     18  C   UNL     1     121.515 119.505 117.634  1.00  0.00    -0.067 C 
ATOM     19  C   UNL     1     119.298 119.084 116.339  1.00  0.00     0.009 C 
ATOM     20  C   UNL     1     120.829 119.419 116.268  1.00  0.00     0.021 C 
ATOM     21  C   UNL     1     122.853 119.643 117.660  1.00  0.00    -0.027 C 
ATOM     22  C   UNL     1     121.644 118.477 115.289  1.00  0.00    -0.023 C 
ATOM     23  C   UNL     1     123.610 119.863 116.384  1.00  0.00     0.031 C 
ATOM     24  C   UNL     1     123.176 118.909 115.246  1.00  0.00     0.002 C 
ATOM     25  C   UNL     1     121.003 118.559 113.867  1.00  0.00     0.010 C 
ATOM     26  C   UNL     1     121.591 116.997 115.776  1.00  0.00     0.012 C 
ATOM     27  C   UNL     1     123.593 119.518 113.892  1.00  0.00     0.036 C 
ATOM     28  C   UNL     1     121.889 117.960 112.763  1.00  0.00     0.032 C 
ATOM     29  C   UNL     1     123.325 118.535 112.738  1.00  0.00     0.114 C 
BRANCH  29  30
ATOM     30  O   UNL     1     123.554 119.176 111.507  1.00  0.00    -0.393 OA
ATOM     31  H   UNL     1     124.240 119.873 111.676  1.00  0.00     0.210 HD
ENDBRANCH  29  30
ENDBRANCH   1  11
TORSDOF 6
ENDMDL
MODEL 9
REMARK VINA RESULT:    -6.257      4.020     10.378
REMARK INTER + INTRA:          -9.449
REMARK INTER:                  -8.611
REMARK INTRA:                  -0.838
REMARK UNBOUND:                -1.181
REMARK SMILES CC[C@H](C=C[C@@H](C)[C@@H]1CC[C@H]2C3=CC[C@@H]4C[C@H](O)CC[C@]4(C)[C@H]3CC[C@@]21C)C(C)C
REMARK SMILES IDX 6 1 7 2 5 3 4 4 3 5 2 6 1 7 28 8 29 9 30 10 8 11 9 12 26 13
REMARK SMILES IDX 10 14 11 15 25 16 27 17 12 18 24 19 23 20 13 21 21 22 14 23
REMARK SMILES IDX 15 24 20 25 22 26 16 27 19 28 17 29 18 30
REMARK H PARENT 18 31
REMARK Flexibility Score: inf
ROOT
ATOM      1  C   UNL     1     119.265 119.654 117.471  1.00  0.00     0.012 C 
ATOM      2  C   UNL     1     117.928 119.501 116.710  1.00  0.00     0.012 C 
ENDROOT
BRANCH   1   3
ATOM      3  C   UNL     1     120.369 118.990 116.672  1.00  0.00    -0.028 C 
ATOM      4  C   UNL     1     120.456 119.089 115.331  1.00  0.00    -0.027 C 
BRANCH   4   5
ATOM      5  C   UNL     1     121.572 118.446 114.525  1.00  0.00     0.014 C 
BRANCH   5   6
ATOM      6  C   UNL     1     121.009 117.603 113.350  1.00  0.00     0.004 C 
ATOM      7  C   UNL     1     121.681 116.233 113.229  1.00  0.00     0.004 C 
ENDBRANCH   5   6
BRANCH   5   8
ATOM      8  C   UNL     1     122.608 119.520 114.064  1.00  0.00    -0.011 C 
ATOM      9  C   UNL     1     122.433 119.903 112.583  1.00  0.00     0.008 C 
ATOM     10  C   UNL     1     124.050 119.021 114.288  1.00  0.00     0.008 C 
ENDBRANCH   5   8
ENDBRANCH   4   5
ENDBRANCH   1   3
BRANCH   1  11
ATOM     11  C   UNL     1     119.228 119.093 118.940  1.00  0.00     0.002 C 
ATOM     12  C   UNL     1     118.236 117.902 119.140  1.00  0.00     0.005 C 
ATOM     13  C   UNL     1     118.781 120.118 120.041  1.00  0.00    -0.023 C 
ATOM     14  C   UNL     1     117.112 118.376 120.068  1.00  0.00     0.009 C 
ATOM     15  C   UNL     1     117.271 119.886 120.096  1.00  0.00     0.021 C 
ATOM     16  C   UNL     1     118.993 121.630 119.768  1.00  0.00     0.008 C 
ATOM     17  C   UNL     1     119.494 119.725 121.373  1.00  0.00     0.012 C 
ATOM     18  C   UNL     1     116.582 120.688 121.181  1.00  0.00    -0.067 C 
ATOM     19  C   UNL     1     118.427 122.503 120.908  1.00  0.00     0.009 C 
ATOM     20  C   UNL     1     116.956 122.165 121.335  1.00  0.00     0.021 C 
ATOM     21  C   UNL     1     115.392 120.285 121.659  1.00  0.00    -0.027 C 
ATOM     22  C   UNL     1     116.572 122.691 122.780  1.00  0.00    -0.023 C 
ATOM     23  C   UNL     1     114.411 121.294 122.180  1.00  0.00     0.031 C 
ATOM     24  C   UNL     1     115.056 122.342 123.117  1.00  0.00     0.002 C 
ATOM     25  C   UNL     1     116.812 124.234 122.830  1.00  0.00     0.010 C 
ATOM     26  C   UNL     1     117.460 122.014 123.867  1.00  0.00     0.012 C 
ATOM     27  C   UNL     1     114.149 123.588 123.178  1.00  0.00     0.036 C 
ATOM     28  C   UNL     1     116.171 124.912 124.051  1.00  0.00     0.032 C 
ATOM     29  C   UNL     1     114.666 124.597 124.219  1.00  0.00     0.114 C 
BRANCH  29  30
ATOM     30  O   UNL     1     113.924 125.789 124.133  1.00  0.00    -0.393 OA
ATOM     31  H   UNL     1     114.161 126.327 124.933  1.00  0.00     0.210 HD
ENDBRANCH  29  30
ENDBRANCH   1  11
TORSDOF 6
ENDMDL
