MODEL 1
REMARK VINA RESULT:    -5.995      0.000      0.000
REMARK INTER + INTRA:          -7.343
REMARK INTER:                  -7.046
REMARK INTRA:                  -0.297
REMARK UNBOUND:                -0.297
REMARK SMILES O=c1cc(-c2ccc(O)c(O)c2)oc2cc(O)cc(O)c12
REMARK SMILES IDX 4 1 3 2 2 3 1 4 21 5 19 6 18 7 16 8 15 9 14 10 13 11 5 12
REMARK SMILES IDX 6 13 7 14 8 15 12 16 10 17 9 18 11 20 20 22 17 24
REMARK H PARENT 9 19 11 21 20 23 17 25
REMARK Flexibility Score: inf
ROOT
ATOM      1  C   UNL     1     -14.753  66.644  75.768  1.00  0.00     0.138 A 
ATOM      2  C   UNL     1     -13.831  65.723  75.249  1.00  0.00     0.100 A 
ATOM      3  C   UNL     1     -14.037  64.356  75.441  1.00  0.00     0.197 A 
ATOM      4  O   UNL     1     -13.226  63.554  74.911  1.00  0.00    -0.289 OA
ATOM      5  C   UNL     1     -15.158  63.912  76.182  1.00  0.00     0.107 A 
ATOM      6  C   UNL     1     -15.447  62.545  76.475  1.00  0.00     0.134 A 
ATOM      7  C   UNL     1     -16.647  62.217  77.118  1.00  0.00     0.093 A 
ATOM      8  C   UNL     1     -17.537  63.207  77.532  1.00  0.00     0.123 A 
ATOM      9  C   UNL     1     -17.239  64.550  77.298  1.00  0.00     0.094 A 
ATOM     10  C   UNL     1     -16.067  64.908  76.628  1.00  0.00     0.146 A 
ATOM     11  O   UNL     1     -15.825  66.196  76.413  1.00  0.00    -0.456 OA
ENDROOT
BRANCH   1  12
ATOM     12  C   UNL     1     -14.581  68.108  75.594  1.00  0.00     0.021 A 
ATOM     13  C   UNL     1     -15.551  68.984  76.114  1.00  0.00     0.016 A 
ATOM     14  C   UNL     1     -15.408  70.366  75.970  1.00  0.00     0.051 A 
ATOM     15  C   UNL     1     -14.294  70.898  75.316  1.00  0.00     0.157 A 
ATOM     16  C   UNL     1     -13.453  68.650  74.948  1.00  0.00     0.062 A 
ATOM     17  C   UNL     1     -13.309  70.038  74.805  1.00  0.00     0.158 A 
BRANCH  15  18
ATOM     18  O   UNL     1     -14.180  72.283  75.188  1.00  0.00    -0.504 OA
ATOM     19  H   UNL     1     -14.364  72.759  74.313  1.00  0.00     0.293 HD
ENDBRANCH  15  18
BRANCH  17  20
ATOM     20  O   UNL     1     -12.190  70.563  74.162  1.00  0.00    -0.504 OA
ATOM     21  H   UNL     1     -12.189  70.755  73.167  1.00  0.00     0.293 HD
ENDBRANCH  17  20
ENDBRANCH   1  12
BRANCH   6  22
ATOM     22  O   UNL     1     -14.585  61.484  76.182  1.00  0.00    -0.507 OA
ATOM     23  H   UNL     1     -14.541  60.618  76.696  1.00  0.00     0.293 HD
ENDBRANCH   6  22
BRANCH   8  24
ATOM     24  O   UNL     1     -18.715  62.844  78.183  1.00  0.00    -0.508 OA
ATOM     25  H   UNL     1     -18.702  62.370  79.078  1.00  0.00     0.293 HD
ENDBRANCH   8  24
TORSDOF 5
ENDMDL
MODEL 2
REMARK VINA RESULT:    -5.808      1.258      2.770
REMARK INTER + INTRA:          -7.124
REMARK INTER:                  -6.806
REMARK INTRA:                  -0.318
REMARK UNBOUND:                -0.297
REMARK SMILES O=c1cc(-c2ccc(O)c(O)c2)oc2cc(O)cc(O)c12
REMARK SMILES IDX 4 1 3 2 2 3 1 4 21 5 19 6 18 7 16 8 15 9 14 10 13 11 5 12
REMARK SMILES IDX 6 13 7 14 8 15 12 16 10 17 9 18 11 20 20 22 17 24
REMARK H PARENT 9 19 11 21 20 23 17 25
REMARK Flexibility Score: inf
ROOT
ATOM      1  C   UNL     1     -15.370  66.183  76.152  1.00  0.00     0.138 A 
ATOM      2  C   UNL     1     -16.528  65.735  76.804  1.00  0.00     0.100 A 
ATOM      3  C   UNL     1     -16.740  64.366  76.973  1.00  0.00     0.197 A 
ATOM      4  O   UNL     1     -17.757  63.997  77.615  1.00  0.00    -0.289 OA
ATOM      5  C   UNL     1     -15.800  63.440  76.459  1.00  0.00     0.107 A 
ATOM      6  C   UNL     1     -15.932  62.022  76.536  1.00  0.00     0.134 A 
ATOM      7  C   UNL     1     -14.882  61.206  76.096  1.00  0.00     0.093 A 
ATOM      8  C   UNL     1     -13.734  61.755  75.525  1.00  0.00     0.123 A 
ATOM      9  C   UNL     1     -13.618  63.140  75.395  1.00  0.00     0.094 A 
ATOM     10  C   UNL     1     -14.632  63.981  75.857  1.00  0.00     0.146 A 
ATOM     11  O   UNL     1     -14.478  65.294  75.728  1.00  0.00    -0.456 OA
ENDROOT
BRANCH   1  12
ATOM     12  C   UNL     1     -15.097  67.627  75.944  1.00  0.00     0.021 A 
ATOM     13  C   UNL     1     -16.059  68.576  76.332  1.00  0.00     0.016 A 
ATOM     14  C   UNL     1     -15.823  69.941  76.154  1.00  0.00     0.051 A 
ATOM     15  C   UNL     1     -14.621  70.383  75.596  1.00  0.00     0.157 A 
ATOM     16  C   UNL     1     -13.881  68.079  75.394  1.00  0.00     0.062 A 
ATOM     17  C   UNL     1     -13.643  69.450  75.218  1.00  0.00     0.158 A 
BRANCH  15  18
ATOM     18  O   UNL     1     -14.413  71.753  75.430  1.00  0.00    -0.504 OA
ATOM     19  H   UNL     1     -13.865  72.298  76.085  1.00  0.00     0.293 HD
ENDBRANCH  15  18
BRANCH  17  20
ATOM     20  O   UNL     1     -12.437  69.886  74.671  1.00  0.00    -0.504 OA
ATOM     21  H   UNL     1     -12.207  70.871  74.606  1.00  0.00     0.293 HD
ENDBRANCH  17  20
ENDBRANCH   1  12
BRANCH   6  22
ATOM     22  O   UNL     1     -17.073  61.367  77.010  1.00  0.00    -0.507 OA
ATOM     23  H   UNL     1     -17.961  61.337  76.533  1.00  0.00     0.293 HD
ENDBRANCH   6  22
BRANCH   8  24
ATOM     24  O   UNL     1     -12.716  60.912  75.083  1.00  0.00    -0.508 OA
ATOM     25  H   UNL     1     -11.740  61.162  75.186  1.00  0.00     0.293 HD
ENDBRANCH   8  24
TORSDOF 5
ENDMDL
MODEL 3
REMARK VINA RESULT:    -5.785      2.930      8.644
REMARK INTER + INTRA:          -7.096
REMARK INTER:                  -6.831
REMARK INTRA:                  -0.265
REMARK UNBOUND:                -0.297
REMARK SMILES O=c1cc(-c2ccc(O)c(O)c2)oc2cc(O)cc(O)c12
REMARK SMILES IDX 4 1 3 2 2 3 1 4 21 5 19 6 18 7 16 8 15 9 14 10 13 11 5 12
REMARK SMILES IDX 6 13 7 14 8 15 12 16 10 17 9 18 11 20 20 22 17 24
REMARK H PARENT 9 19 11 21 20 23 17 25
REMARK Flexibility Score: inf
ROOT
ATOM      1  C   UNL     1     -14.271  70.841  74.542  1.00  0.00     0.138 A 
ATOM      2  C   UNL     1     -13.802  71.065  73.240  1.00  0.00     0.100 A 
ATOM      3  C   UNL     1     -13.703  72.370  72.755  1.00  0.00     0.197 A 
ATOM      4  O   UNL     1     -13.220  72.542  71.606  1.00  0.00    -0.289 OA
ATOM      5  C   UNL     1     -14.106  73.454  73.571  1.00  0.00     0.107 A 
ATOM      6  C   UNL     1     -14.088  74.823  73.169  1.00  0.00     0.134 A 
ATOM      7  C   UNL     1     -14.400  75.820  74.101  1.00  0.00     0.093 A 
ATOM      8  C   UNL     1     -14.788  75.496  75.400  1.00  0.00     0.123 A 
ATOM      9  C   UNL     1     -14.861  74.157  75.789  1.00  0.00     0.094 A 
ATOM     10  C   UNL     1     -14.522  73.141  74.893  1.00  0.00     0.146 A 
ATOM     11  O   UNL     1     -14.591  71.881  75.305  1.00  0.00    -0.456 OA
ENDROOT
BRANCH   1  12
ATOM     12  C   UNL     1     -14.397  69.473  75.105  1.00  0.00     0.021 A 
ATOM     13  C   UNL     1     -15.555  68.720  74.840  1.00  0.00     0.016 A 
ATOM     14  C   UNL     1     -15.694  67.429  75.353  1.00  0.00     0.051 A 
ATOM     15  C   UNL     1     -14.680  66.862  76.130  1.00  0.00     0.157 A 
ATOM     16  C   UNL     1     -13.372  68.894  75.878  1.00  0.00     0.062 A 
ATOM     17  C   UNL     1     -13.511  67.595  76.391  1.00  0.00     0.158 A 
BRANCH  15  18
ATOM     18  O   UNL     1     -14.848  65.571  76.629  1.00  0.00    -0.504 OA
ATOM     19  H   UNL     1     -15.170  64.806  76.047  1.00  0.00     0.293 HD
ENDBRANCH  15  18
BRANCH  17  20
ATOM     20  O   UNL     1     -12.491  67.032  77.156  1.00  0.00    -0.504 OA
ATOM     21  H   UNL     1     -12.687  66.386  77.912  1.00  0.00     0.293 HD
ENDBRANCH  17  20
ENDBRANCH   1  12
BRANCH   6  22
ATOM     22  O   UNL     1     -13.798  75.252  71.869  1.00  0.00    -0.507 OA
ATOM     23  H   UNL     1     -14.313  75.958  71.367  1.00  0.00     0.293 HD
ENDBRANCH   6  22
BRANCH   8  24
ATOM     24  O   UNL     1     -15.107  76.514  76.297  1.00  0.00    -0.508 OA
ATOM     25  H   UNL     1     -15.972  76.505  76.823  1.00  0.00     0.293 HD
ENDBRANCH   8  24
TORSDOF 5
ENDMDL
MODEL 4
REMARK VINA RESULT:    -5.722     16.452     18.389
REMARK INTER + INTRA:          -7.023
REMARK INTER:                  -6.759
REMARK INTRA:                  -0.263
REMARK UNBOUND:                -0.297
REMARK SMILES O=c1cc(-c2ccc(O)c(O)c2)oc2cc(O)cc(O)c12
REMARK SMILES IDX 4 1 3 2 2 3 1 4 21 5 19 6 18 7 16 8 15 9 14 10 13 11 5 12
REMARK SMILES IDX 6 13 7 14 8 15 12 16 10 17 9 18 11 20 20 22 17 24
REMARK H PARENT 9 19 11 21 20 23 17 25
REMARK Flexibility Score: inf
ROOT
ATOM      1  C   UNL     1     -17.728  79.257  88.136  1.00  0.00     0.138 A 
ATOM      2  C   UNL     1     -18.842  79.155  88.980  1.00  0.00     0.100 A 
ATOM      3  C   UNL     1     -20.124  79.107  88.429  1.00  0.00     0.197 A 
ATOM      4  O   UNL     1     -21.100  78.952  89.208  1.00  0.00    -0.289 OA
ATOM      5  C   UNL     1     -20.290  79.192  87.026  1.00  0.00     0.107 A 
ATOM      6  C   UNL     1     -21.549  79.194  86.356  1.00  0.00     0.134 A 
ATOM      7  C   UNL     1     -21.586  79.166  84.956  1.00  0.00     0.093 A 
ATOM      8  C   UNL     1     -20.413  79.198  84.204  1.00  0.00     0.123 A 
ATOM      9  C   UNL     1     -19.176  79.250  84.849  1.00  0.00     0.094 A 
ATOM     10  C   UNL     1     -19.105  79.244  86.244  1.00  0.00     0.146 A 
ATOM     11  O   UNL     1     -17.909  79.281  86.819  1.00  0.00    -0.456 OA
ENDROOT
BRANCH   1  12
ATOM     12  C   UNL     1     -16.343  79.314  88.669  1.00  0.00     0.021 A 
ATOM     13  C   UNL     1     -15.646  80.535  88.654  1.00  0.00     0.016 A 
ATOM     14  C   UNL     1     -14.345  80.615  89.157  1.00  0.00     0.051 A 
ATOM     15  C   UNL     1     -13.722  79.485  89.691  1.00  0.00     0.157 A 
ATOM     16  C   UNL     1     -15.715  78.180  89.220  1.00  0.00     0.062 A 
ATOM     17  C   UNL     1     -14.409  78.262  89.727  1.00  0.00     0.158 A 
BRANCH  15  18
ATOM     18  O   UNL     1     -12.422  79.597  90.184  1.00  0.00    -0.504 OA
ATOM     19  H   UNL     1     -12.161  80.306  90.858  1.00  0.00     0.293 HD
ENDBRANCH  15  18
BRANCH  17  20
ATOM     20  O   UNL     1     -13.797  77.133  90.268  1.00  0.00    -0.504 OA
ATOM     21  H   UNL     1     -12.937  76.758  89.884  1.00  0.00     0.293 HD
ENDBRANCH  17  20
ENDBRANCH   1  12
BRANCH   6  22
ATOM     22  O   UNL     1     -22.783  79.249  87.011  1.00  0.00    -0.507 OA
ATOM     23  H   UNL     1     -23.574  78.660  86.802  1.00  0.00     0.293 HD
ENDBRANCH   6  22
BRANCH   8  24
ATOM     24  O   UNL     1     -20.487  79.185  82.812  1.00  0.00    -0.508 OA
ATOM     25  H   UNL     1     -19.838  79.711  82.241  1.00  0.00     0.293 HD
ENDBRANCH   8  24
TORSDOF 5
ENDMDL
MODEL 5
REMARK VINA RESULT:    -5.697      1.341      7.273
REMARK INTER + INTRA:          -6.993
REMARK INTER:                  -6.676
REMARK INTRA:                  -0.317
REMARK UNBOUND:                -0.297
REMARK SMILES O=c1cc(-c2ccc(O)c(O)c2)oc2cc(O)cc(O)c12
REMARK SMILES IDX 4 1 3 2 2 3 1 4 21 5 19 6 18 7 16 8 15 9 14 10 13 11 5 12
REMARK SMILES IDX 6 13 7 14 8 15 12 16 10 17 9 18 11 20 20 22 17 24
REMARK H PARENT 9 19 11 21 20 23 17 25
REMARK Flexibility Score: inf
ROOT
ATOM      1  C   UNL     1     -15.491  66.650  76.066  1.00  0.00     0.138 A 
ATOM      2  C   UNL     1     -16.124  67.795  76.570  1.00  0.00     0.100 A 
ATOM      3  C   UNL     1     -15.670  69.059  76.192  1.00  0.00     0.197 A 
ATOM      4  O   UNL     1     -16.297  70.066  76.612  1.00  0.00    -0.289 OA
ATOM      5  C   UNL     1     -14.555  69.175  75.327  1.00  0.00     0.107 A 
ATOM      6  C   UNL     1     -13.979  70.411  74.906  1.00  0.00     0.134 A 
ATOM      7  C   UNL     1     -12.950  70.405  73.957  1.00  0.00     0.093 A 
ATOM      8  C   UNL     1     -12.436  69.208  73.460  1.00  0.00     0.123 A 
ATOM      9  C   UNL     1     -12.956  67.991  73.904  1.00  0.00     0.094 A 
ATOM     10  C   UNL     1     -14.006  67.965  74.825  1.00  0.00     0.146 A 
ATOM     11  O   UNL     1     -14.482  66.788  75.213  1.00  0.00    -0.456 OA
ENDROOT
BRANCH   1  12
ATOM     12  C   UNL     1     -15.934  65.282  76.437  1.00  0.00     0.021 A 
ATOM     13  C   UNL     1     -17.114  65.116  77.183  1.00  0.00     0.016 A 
ATOM     14  C   UNL     1     -17.555  63.839  77.538  1.00  0.00     0.051 A 
ATOM     15  C   UNL     1     -16.834  62.708  77.148  1.00  0.00     0.157 A 
ATOM     16  C   UNL     1     -15.217  64.138  76.035  1.00  0.00     0.062 A 
ATOM     17  C   UNL     1     -15.662  62.855  76.390  1.00  0.00     0.158 A 
BRANCH  15  18
ATOM     18  O   UNL     1     -17.299  61.446  77.519  1.00  0.00    -0.504 OA
ATOM     19  H   UNL     1     -17.559  61.226  78.473  1.00  0.00     0.293 HD
ENDBRANCH  15  18
BRANCH  17  20
ATOM     20  O   UNL     1     -14.944  61.730  75.988  1.00  0.00    -0.504 OA
ATOM     21  H   UNL     1     -14.886  60.901  76.568  1.00  0.00     0.293 HD
ENDBRANCH  17  20
ENDBRANCH   1  12
BRANCH   6  22
ATOM     22  O   UNL     1     -14.360  71.661  75.405  1.00  0.00    -0.507 OA
ATOM     23  H   UNL     1     -14.211  72.540  74.934  1.00  0.00     0.293 HD
ENDBRANCH   6  22
BRANCH   8  24
ATOM     24  O   UNL     1     -11.401  69.239  72.527  1.00  0.00    -0.508 OA
ATOM     25  H   UNL     1     -10.630  68.584  72.568  1.00  0.00     0.293 HD
ENDBRANCH   8  24
TORSDOF 5
ENDMDL
MODEL 6
REMARK VINA RESULT:    -5.384      4.213      6.892
REMARK INTER + INTRA:          -6.625
REMARK INTER:                  -6.335
REMARK INTRA:                  -0.290
REMARK UNBOUND:                -0.297
REMARK SMILES O=c1cc(-c2ccc(O)c(O)c2)oc2cc(O)cc(O)c12
REMARK SMILES IDX 4 1 3 2 2 3 1 4 21 5 19 6 18 7 16 8 15 9 14 10 13 11 5 12
REMARK SMILES IDX 6 13 7 14 8 15 12 16 10 17 9 18 11 20 20 22 17 24
REMARK H PARENT 9 19 11 21 20 23 17 25
REMARK Flexibility Score: inf
ROOT
ATOM      1  C   UNL     1     -14.024  72.614  74.303  1.00  0.00     0.138 A 
ATOM      2  C   UNL     1     -13.988  72.580  72.903  1.00  0.00     0.100 A 
ATOM      3  C   UNL     1     -13.723  71.376  72.247  1.00  0.00     0.197 A 
ATOM      4  O   UNL     1     -13.759  71.364  70.990  1.00  0.00    -0.289 OA
ATOM      5  C   UNL     1     -13.463  70.207  73.002  1.00  0.00     0.107 A 
ATOM      6  C   UNL     1     -13.142  68.934  72.443  1.00  0.00     0.134 A 
ATOM      7  C   UNL     1     -13.019  67.822  73.286  1.00  0.00     0.093 A 
ATOM      8  C   UNL     1     -13.145  67.948  74.668  1.00  0.00     0.123 A 
ATOM      9  C   UNL     1     -13.406  69.199  75.230  1.00  0.00     0.094 A 
ATOM     10  C   UNL     1     -13.569  70.321  74.414  1.00  0.00     0.146 A 
ATOM     11  O   UNL     1     -13.831  71.491  74.987  1.00  0.00    -0.456 OA
ENDROOT
BRANCH   1  12
ATOM     12  C   UNL     1     -14.299  73.867  75.050  1.00  0.00     0.021 A 
ATOM     13  C   UNL     1     -13.623  75.047  74.694  1.00  0.00     0.016 A 
ATOM     14  C   UNL     1     -13.870  76.241  75.376  1.00  0.00     0.051 A 
ATOM     15  C   UNL     1     -14.801  76.281  76.417  1.00  0.00     0.157 A 
ATOM     16  C   UNL     1     -15.246  73.916  76.092  1.00  0.00     0.062 A 
ATOM     17  C   UNL     1     -15.496  75.115  76.776  1.00  0.00     0.158 A 
BRANCH  15  18
ATOM     18  O   UNL     1     -15.025  77.488  77.080  1.00  0.00    -0.504 OA
ATOM     19  H   UNL     1     -15.943  77.756  77.414  1.00  0.00     0.293 HD
ENDBRANCH  15  18
BRANCH  17  20
ATOM     20  O   UNL     1     -16.434  75.151  77.805  1.00  0.00    -0.504 OA
ATOM     21  H   UNL     1     -16.763  74.305  78.255  1.00  0.00     0.293 HD
ENDBRANCH  17  20
ENDBRANCH   1  12
BRANCH   6  22
ATOM     22  O   UNL     1     -12.910  68.715  71.082  1.00  0.00    -0.507 OA
ATOM     23  H   UNL     1     -13.535  68.987  70.339  1.00  0.00     0.293 HD
ENDBRANCH   6  22
BRANCH   8  24
ATOM     24  O   UNL     1     -13.001  66.823  75.477  1.00  0.00    -0.508 OA
ATOM     25  H   UNL     1     -13.658  66.616  76.220  1.00  0.00     0.293 HD
ENDBRANCH   8  24
TORSDOF 5
ENDMDL
MODEL 7
REMARK VINA RESULT:    -5.328      1.314      6.891
REMARK INTER + INTRA:          -6.559
REMARK INTER:                  -6.263
REMARK INTRA:                  -0.297
REMARK UNBOUND:                -0.297
REMARK SMILES O=c1cc(-c2ccc(O)c(O)c2)oc2cc(O)cc(O)c12
REMARK SMILES IDX 4 1 3 2 2 3 1 4 21 5 19 6 18 7 16 8 15 9 14 10 13 11 5 12
REMARK SMILES IDX 6 13 7 14 8 15 12 16 10 17 9 18 11 20 20 22 17 24
REMARK H PARENT 9 19 11 21 20 23 17 25
REMARK Flexibility Score: inf
ROOT
ATOM      1  C   UNL     1     -14.543  66.284  75.458  1.00  0.00     0.138 A 
ATOM      2  C   UNL     1     -13.461  66.030  74.604  1.00  0.00     0.100 A 
ATOM      3  C   UNL     1     -12.773  67.097  74.024  1.00  0.00     0.197 A 
ATOM      4  O   UNL     1     -11.768  66.840  73.312  1.00  0.00    -0.289 OA
ATOM      5  C   UNL     1     -13.192  68.425  74.280  1.00  0.00     0.107 A 
ATOM      6  C   UNL     1     -12.593  69.589  73.713  1.00  0.00     0.134 A 
ATOM      7  C   UNL     1     -13.018  70.857  74.129  1.00  0.00     0.093 A 
ATOM      8  C   UNL     1     -14.060  71.003  75.043  1.00  0.00     0.123 A 
ATOM      9  C   UNL     1     -14.690  69.871  75.564  1.00  0.00     0.094 A 
ATOM     10  C   UNL     1     -14.265  68.593  75.195  1.00  0.00     0.146 A 
ATOM     11  O   UNL     1     -14.881  67.541  75.724  1.00  0.00    -0.456 OA
ENDROOT
BRANCH   1  12
ATOM     12  C   UNL     1     -15.310  65.186  76.098  1.00  0.00     0.021 A 
ATOM     13  C   UNL     1     -16.411  65.498  76.916  1.00  0.00     0.016 A 
ATOM     14  C   UNL     1     -17.153  64.482  77.525  1.00  0.00     0.051 A 
ATOM     15  C   UNL     1     -16.818  63.141  77.321  1.00  0.00     0.157 A 
ATOM     16  C   UNL     1     -14.984  63.832  75.886  1.00  0.00     0.062 A 
ATOM     17  C   UNL     1     -15.731  62.813  76.495  1.00  0.00     0.158 A 
BRANCH  15  18
ATOM     18  O   UNL     1     -17.577  62.150  77.943  1.00  0.00    -0.504 OA
ATOM     19  H   UNL     1     -18.479  62.345  78.360  1.00  0.00     0.293 HD
ENDBRANCH  15  18
BRANCH  17  20
ATOM     20  O   UNL     1     -15.398  61.477  76.279  1.00  0.00    -0.504 OA
ATOM     21  H   UNL     1     -15.472  61.052  75.361  1.00  0.00     0.293 HD
ENDBRANCH  17  20
ENDBRANCH   1  12
BRANCH   6  22
ATOM     22  O   UNL     1     -11.601  69.556  72.726  1.00  0.00    -0.507 OA
ATOM     23  H   UNL     1     -10.611  69.622  72.902  1.00  0.00     0.293 HD
ENDBRANCH   6  22
BRANCH   8  24
ATOM     24  O   UNL     1     -14.468  72.280  75.423  1.00  0.00    -0.508 OA
ATOM     25  H   UNL     1     -15.326  72.688  75.075  1.00  0.00     0.293 HD
ENDBRANCH   8  24
TORSDOF 5
ENDMDL
MODEL 8
REMARK VINA RESULT:    -5.223      3.162      8.837
REMARK INTER + INTRA:          -6.436
REMARK INTER:                  -6.118
REMARK INTRA:                  -0.318
REMARK UNBOUND:                -0.297
REMARK SMILES O=c1cc(-c2ccc(O)c(O)c2)oc2cc(O)cc(O)c12
REMARK SMILES IDX 4 1 3 2 2 3 1 4 21 5 19 6 18 7 16 8 15 9 14 10 13 11 5 12
REMARK SMILES IDX 6 13 7 14 8 15 12 16 10 17 9 18 11 20 20 22 17 24
REMARK H PARENT 9 19 11 21 20 23 17 25
REMARK Flexibility Score: inf
ROOT
ATOM      1  C   UNL     1     -13.398  70.901  74.407  1.00  0.00     0.138 A 
ATOM      2  C   UNL     1     -12.140  71.220  73.877  1.00  0.00     0.100 A 
ATOM      3  C   UNL     1     -11.725  72.552  73.835  1.00  0.00     0.197 A 
ATOM      4  O   UNL     1     -10.566  72.800  73.411  1.00  0.00    -0.289 OA
ATOM      5  C   UNL     1     -12.589  73.572  74.299  1.00  0.00     0.107 A 
ATOM      6  C   UNL     1     -12.289  74.967  74.268  1.00  0.00     0.134 A 
ATOM      7  C   UNL     1     -13.173  75.876  74.863  1.00  0.00     0.093 A 
ATOM      8  C   UNL     1     -14.372  75.449  75.431  1.00  0.00     0.123 A 
ATOM      9  C   UNL     1     -14.701  74.092  75.420  1.00  0.00     0.094 A 
ATOM     10  C   UNL     1     -13.824  73.156  74.866  1.00  0.00     0.146 A 
ATOM     11  O   UNL     1     -14.167  71.873  74.886  1.00  0.00    -0.456 OA
ENDROOT
BRANCH   1  12
ATOM     12  C   UNL     1     -13.888  69.502  74.474  1.00  0.00     0.021 A 
ATOM     13  C   UNL     1     -13.074  68.460  73.994  1.00  0.00     0.016 A 
ATOM     14  C   UNL     1     -13.510  67.135  74.053  1.00  0.00     0.051 A 
ATOM     15  C   UNL     1     -14.758  66.823  74.598  1.00  0.00     0.157 A 
ATOM     16  C   UNL     1     -15.140  69.182  75.035  1.00  0.00     0.062 A 
ATOM     17  C   UNL     1     -15.577  67.850  75.096  1.00  0.00     0.158 A 
BRANCH  15  18
ATOM     18  O   UNL     1     -15.166  65.490  74.642  1.00  0.00    -0.504 OA
ATOM     19  H   UNL     1     -16.124  65.214  74.461  1.00  0.00     0.293 HD
ENDBRANCH  15  18
BRANCH  17  20
ATOM     20  O   UNL     1     -16.818  67.545  75.652  1.00  0.00    -0.504 OA
ATOM     21  H   UNL     1     -16.899  67.069  76.543  1.00  0.00     0.293 HD
ENDBRANCH  17  20
ENDBRANCH   1  12
BRANCH   6  22
ATOM     22  O   UNL     1     -11.159  75.510  73.649  1.00  0.00    -0.507 OA
ATOM     23  H   UNL     1     -10.686  76.349  73.945  1.00  0.00     0.293 HD
ENDBRANCH   6  22
BRANCH   8  24
ATOM     24  O   UNL     1     -15.235  76.383  76.000  1.00  0.00    -0.508 OA
ATOM     25  H   UNL     1     -15.243  76.559  76.997  1.00  0.00     0.293 HD
ENDBRANCH   8  24
TORSDOF 5
ENDMDL
MODEL 9
REMARK VINA RESULT:    -5.219      1.831      3.555
REMARK INTER + INTRA:          -6.431
REMARK INTER:                  -6.168
REMARK INTRA:                  -0.263
REMARK UNBOUND:                -0.297
REMARK SMILES O=c1cc(-c2ccc(O)c(O)c2)oc2cc(O)cc(O)c12
REMARK SMILES IDX 4 1 3 2 2 3 1 4 21 5 19 6 18 7 16 8 15 9 14 10 13 11 5 12
REMARK SMILES IDX 6 13 7 14 8 15 12 16 10 17 9 18 11 20 20 22 17 24
REMARK H PARENT 9 19 11 21 20 23 17 25
REMARK Flexibility Score: inf
ROOT
ATOM      1  C   UNL     1     -14.753  68.502  75.082  1.00  0.00     0.138 A 
ATOM      2  C   UNL     1     -16.057  68.222  75.514  1.00  0.00     0.100 A 
ATOM      3  C   UNL     1     -16.345  66.982  76.085  1.00  0.00     0.197 A 
ATOM      4  O   UNL     1     -17.510  66.785  76.519  1.00  0.00    -0.289 OA
ATOM      5  C   UNL     1     -15.326  66.006  76.196  1.00  0.00     0.107 A 
ATOM      6  C   UNL     1     -15.513  64.694  76.725  1.00  0.00     0.134 A 
ATOM      7  C   UNL     1     -14.406  63.853  76.893  1.00  0.00     0.093 A 
ATOM      8  C   UNL     1     -13.131  64.253  76.496  1.00  0.00     0.123 A 
ATOM      9  C   UNL     1     -12.945  65.516  75.928  1.00  0.00     0.094 A 
ATOM     10  C   UNL     1     -14.024  66.390  75.780  1.00  0.00     0.146 A 
ATOM     11  O   UNL     1     -13.803  67.587  75.248  1.00  0.00    -0.456 OA
ENDROOT
BRANCH   1  12
ATOM     12  C   UNL     1     -14.393  69.803  74.466  1.00  0.00     0.021 A 
ATOM     13  C   UNL     1     -14.013  69.846  73.112  1.00  0.00     0.016 A 
ATOM     14  C   UNL     1     -13.677  71.060  72.508  1.00  0.00     0.051 A 
ATOM     15  C   UNL     1     -13.722  72.250  73.237  1.00  0.00     0.157 A 
ATOM     16  C   UNL     1     -14.450  71.008  75.194  1.00  0.00     0.062 A 
ATOM     17  C   UNL     1     -14.114  72.227  74.585  1.00  0.00     0.158 A 
BRANCH  15  18
ATOM     18  O   UNL     1     -13.380  73.446  72.606  1.00  0.00    -0.504 OA
ATOM     19  H   UNL     1     -13.704  73.675  71.674  1.00  0.00     0.293 HD
ENDBRANCH  15  18
BRANCH  17  20
ATOM     20  O   UNL     1     -14.172  73.413  75.316  1.00  0.00    -0.504 OA
ATOM     21  H   UNL     1     -13.354  73.996  75.450  1.00  0.00     0.293 HD
ENDBRANCH  17  20
ENDBRANCH   1  12
BRANCH   6  22
ATOM     22  O   UNL     1     -16.759  64.162  77.073  1.00  0.00    -0.507 OA
ATOM     23  H   UNL     1     -17.004  63.819  77.989  1.00  0.00     0.293 HD
ENDBRANCH   6  22
BRANCH   8  24
ATOM     24  O   UNL     1     -12.054  63.385  76.664  1.00  0.00    -0.508 OA
ATOM     25  H   UNL     1     -11.443  63.448  77.469  1.00  0.00     0.293 HD
ENDBRANCH   8  24
TORSDOF 5
ENDMDL
