MODEL 1
REMARK VINA RESULT:    -3.792      0.000      0.000
REMARK INTER + INTRA:          -9.577
REMARK INTER:                  -7.118
REMARK INTRA:                  -2.459
REMARK UNBOUND:                -2.459
REMARK SMILES CCCCCCCCC=CCCCCCCCC(=O)[O-]
REMARK SMILES IDX 10 1 9 2 11 3 12 4 13 5 14 6 15 7 16 8 17 9 18 10 19 11
REMARK SMILES IDX 20 12 8 13 7 14 6 15 5 16 4 17 3 18 2 19 1 20
REMARK H PARENT
REMARK Flexibility Score: inf
ROOT
ATOM      1  C   UNL     1       5.984 -18.063  13.535  1.00  0.00    -0.031 C 
ATOM      2  C   UNL     1       5.649 -19.008  14.435  1.00  0.00    -0.031 C 
ENDROOT
BRANCH   1   3
ATOM      3  C   UNL     1       7.227 -17.211  13.591  1.00  0.00     0.027 C 
BRANCH   3   4
ATOM      4  C   UNL     1       6.946 -15.845  14.233  1.00  0.00     0.004 C 
BRANCH   4   5
ATOM      5  C   UNL     1       7.479 -15.742  15.672  1.00  0.00     0.000 C 
BRANCH   5   6
ATOM      6  C   UNL     1       7.334 -14.352  16.322  1.00  0.00     0.000 C 
BRANCH   6   7
ATOM      7  C   UNL     1       6.161 -13.501  15.794  1.00  0.00     0.000 C 
BRANCH   7   8
ATOM      8  C   UNL     1       6.568 -12.323  14.886  1.00  0.00     0.006 C 
BRANCH   8   9
ATOM      9  C   UNL     1       5.496 -11.909  13.865  1.00  0.00     0.053 C 
BRANCH   9  10
ATOM     10  C   UNL     1       5.979 -10.821  12.956  1.00  0.00     0.041 C 
ATOM     11  O   UNL     1       5.455  -9.677  13.001  1.00  0.00    -0.550 OA
ATOM     12  O   UNL     1       6.985 -11.081  12.033  1.00  0.00    -0.550 OA
ENDBRANCH   9  10
ENDBRANCH   8   9
ENDBRANCH   7   8
ENDBRANCH   6   7
ENDBRANCH   5   6
ENDBRANCH   4   5
ENDBRANCH   3   4
ENDBRANCH   1   3
BRANCH   2  13
ATOM     13  C   UNL     1       6.441 -19.358  15.673  1.00  0.00     0.027 C 
BRANCH  13  14
ATOM     14  C   UNL     1       5.625 -19.125  16.953  1.00  0.00     0.004 C 
BRANCH  14  15
ATOM     15  C   UNL     1       4.282 -18.425  16.677  1.00  0.00     0.000 C 
BRANCH  15  16
ATOM     16  C   UNL     1       4.157 -17.085  17.434  1.00  0.00     0.000 C 
BRANCH  16  17
ATOM     17  C   UNL     1       3.913 -15.874  16.513  1.00  0.00    -0.000 C 
BRANCH  17  18
ATOM     18  C   UNL     1       3.407 -16.225  15.104  1.00  0.00    -0.000 C 
BRANCH  18  19
ATOM     19  C   UNL     1       2.784 -15.022  14.380  1.00  0.00    -0.003 C 
ATOM     20  C   UNL     1       1.460 -14.621  15.021  1.00  0.00     0.004 C 
ENDBRANCH  18  19
ENDBRANCH  17  18
ENDBRANCH  16  17
ENDBRANCH  15  16
ENDBRANCH  14  15
ENDBRANCH  13  14
ENDBRANCH   2  13
TORSDOF 15
ENDMDL
MODEL 2
REMARK VINA RESULT:    -3.755      1.173      4.157
REMARK INTER + INTRA:          -9.508
REMARK INTER:                  -6.714
REMARK INTRA:                  -2.794
REMARK UNBOUND:                -2.459
REMARK SMILES CCCCCCCCC=CCCCCCCCC(=O)[O-]
REMARK SMILES IDX 10 1 9 2 11 3 12 4 13 5 14 6 15 7 16 8 17 9 18 10 19 11
REMARK SMILES IDX 20 12 8 13 7 14 6 15 5 16 4 17 3 18 2 19 1 20
REMARK H PARENT
REMARK Flexibility Score: inf
ROOT
ATOM      1  C   UNL     1       3.805 -16.910  15.926  1.00  0.00    -0.031 C 
ATOM      2  C   UNL     1       4.857 -16.625  16.718  1.00  0.00    -0.031 C 
ENDROOT
BRANCH   1   3
ATOM      3  C   UNL     1       3.317 -16.053  14.786  1.00  0.00     0.027 C 
BRANCH   3   4
ATOM      4  C   UNL     1       2.081 -15.233  15.186  1.00  0.00     0.004 C 
BRANCH   4   5
ATOM      5  C   UNL     1       2.296 -13.718  15.030  1.00  0.00     0.000 C 
BRANCH   5   6
ATOM      6  C   UNL     1       2.964 -13.028  16.236  1.00  0.00     0.000 C 
BRANCH   6   7
ATOM      7  C   UNL     1       4.184 -12.148  15.895  1.00  0.00     0.000 C 
BRANCH   7   8
ATOM      8  C   UNL     1       4.824 -12.428  14.520  1.00  0.00     0.006 C 
BRANCH   8   9
ATOM      9  C   UNL     1       6.287 -11.973  14.397  1.00  0.00     0.053 C 
BRANCH   9  10
ATOM     10  C   UNL     1       6.458 -10.914  13.352  1.00  0.00     0.041 C 
ATOM     11  O   UNL     1       7.605 -10.640  12.909  1.00  0.00    -0.550 OA
ATOM     12  O   UNL     1       5.356 -10.204  12.893  1.00  0.00    -0.550 OA
ENDBRANCH   9  10
ENDBRANCH   8   9
ENDBRANCH   7   8
ENDBRANCH   6   7
ENDBRANCH   5   6
ENDBRANCH   4   5
ENDBRANCH   3   4
ENDBRANCH   1   3
BRANCH   2  13
ATOM     13  C   UNL     1       5.711 -15.382  16.624  1.00  0.00     0.027 C 
BRANCH  13  14
ATOM     14  C   UNL     1       7.067 -15.674  15.964  1.00  0.00     0.004 C 
BRANCH  14  15
ATOM     15  C   UNL     1       6.975 -15.732  14.429  1.00  0.00     0.000 C 
BRANCH  15  16
ATOM     16  C   UNL     1       7.882 -16.829  13.832  1.00  0.00     0.000 C 
BRANCH  16  17
ATOM     17  C   UNL     1       7.140 -17.813  12.906  1.00  0.00    -0.000 C 
BRANCH  17  18
ATOM     18  C   UNL     1       5.925 -18.508  13.544  1.00  0.00    -0.000 C 
BRANCH  18  19
ATOM     19  C   UNL     1       6.273 -19.878  14.146  1.00  0.00    -0.003 C 
ATOM     20  C   UNL     1       6.386 -19.797  15.665  1.00  0.00     0.004 C 
ENDBRANCH  18  19
ENDBRANCH  17  18
ENDBRANCH  16  17
ENDBRANCH  15  16
ENDBRANCH  14  15
ENDBRANCH  13  14
ENDBRANCH   2  13
TORSDOF 15
ENDMDL
MODEL 3
REMARK VINA RESULT:    -3.693      1.422      3.587
REMARK INTER + INTRA:          -9.391
REMARK INTER:                  -6.379
REMARK INTRA:                  -3.012
REMARK UNBOUND:                -2.459
REMARK SMILES CCCCCCCCC=CCCCCCCCC(=O)[O-]
REMARK SMILES IDX 10 1 9 2 11 3 12 4 13 5 14 6 15 7 16 8 17 9 18 10 19 11
REMARK SMILES IDX 20 12 8 13 7 14 6 15 5 16 4 17 3 18 2 19 1 20
REMARK H PARENT
REMARK Flexibility Score: inf
ROOT
ATOM      1  C   UNL     1       3.746 -16.971  15.470  1.00  0.00    -0.031 C 
ATOM      2  C   UNL     1       4.646 -17.949  15.250  1.00  0.00    -0.031 C 
ENDROOT
BRANCH   1   3
ATOM      3  C   UNL     1       3.411 -15.864  14.503  1.00  0.00     0.027 C 
BRANCH   3   4
ATOM      4  C   UNL     1       2.176 -15.072  14.957  1.00  0.00     0.004 C 
BRANCH   4   5
ATOM      5  C   UNL     1       2.486 -14.088  16.098  1.00  0.00     0.000 C 
BRANCH   5   6
ATOM      6  C   UNL     1       2.904 -12.675  15.643  1.00  0.00     0.000 C 
BRANCH   6   7
ATOM      7  C   UNL     1       4.065 -12.047  16.441  1.00  0.00     0.000 C 
BRANCH   7   8
ATOM      8  C   UNL     1       5.403 -11.955  15.681  1.00  0.00     0.006 C 
BRANCH   8   9
ATOM      9  C   UNL     1       5.311 -12.308  14.188  1.00  0.00     0.053 C 
BRANCH   9  10
ATOM     10  C   UNL     1       5.646 -11.139  13.315  1.00  0.00     0.041 C 
ATOM     11  O   UNL     1       6.585 -11.220  12.479  1.00  0.00    -0.550 OA
ATOM     12  O   UNL     1       4.946  -9.947  13.448  1.00  0.00    -0.550 OA
ENDBRANCH   9  10
ENDBRANCH   8   9
ENDBRANCH   7   8
ENDBRANCH   6   7
ENDBRANCH   5   6
ENDBRANCH   4   5
ENDBRANCH   3   4
ENDBRANCH   1   3
BRANCH   2  13
ATOM     13  C   UNL     1       5.499 -18.092  14.011  1.00  0.00     0.027 C 
BRANCH  13  14
ATOM     14  C   UNL     1       6.937 -17.611  14.253  1.00  0.00     0.004 C 
BRANCH  14  15
ATOM     15  C   UNL     1       7.109 -16.106  13.980  1.00  0.00     0.000 C 
BRANCH  15  16
ATOM     16  C   UNL     1       7.189 -15.282  15.283  1.00  0.00     0.000 C 
BRANCH  16  17
ATOM     17  C   UNL     1       7.766 -16.066  16.478  1.00  0.00    -0.000 C 
BRANCH  17  18
ATOM     18  C   UNL     1       6.828 -16.174  17.692  1.00  0.00    -0.000 C 
BRANCH  18  19
ATOM     19  C   UNL     1       5.782 -15.050  17.736  1.00  0.00    -0.003 C 
ATOM     20  C   UNL     1       4.624 -15.415  18.660  1.00  0.00     0.004 C 
ENDBRANCH  18  19
ENDBRANCH  17  18
ENDBRANCH  16  17
ENDBRANCH  15  16
ENDBRANCH  14  15
ENDBRANCH  13  14
ENDBRANCH   2  13
TORSDOF 15
ENDMDL
MODEL 4
REMARK VINA RESULT:    -3.619      1.213      3.773
REMARK INTER + INTRA:          -9.251
REMARK INTER:                  -6.842
REMARK INTRA:                  -2.409
REMARK UNBOUND:                -2.459
REMARK SMILES CCCCCCCCC=CCCCCCCCC(=O)[O-]
REMARK SMILES IDX 10 1 9 2 11 3 12 4 13 5 14 6 15 7 16 8 17 9 18 10 19 11
REMARK SMILES IDX 20 12 8 13 7 14 6 15 5 16 4 17 3 18 2 19 1 20
REMARK H PARENT
REMARK Flexibility Score: inf
ROOT
ATOM      1  C   UNL     1       5.782 -16.041  14.865  1.00  0.00    -0.031 C 
ATOM      2  C   UNL     1       7.005 -16.195  14.323  1.00  0.00    -0.031 C 
ENDROOT
BRANCH   1   3
ATOM      3  C   UNL     1       4.540 -16.779  14.432  1.00  0.00     0.027 C 
BRANCH   3   4
ATOM      4  C   UNL     1       3.293 -16.265  15.168  1.00  0.00     0.004 C 
BRANCH   4   5
ATOM      5  C   UNL     1       2.640 -15.063  14.465  1.00  0.00     0.000 C 
BRANCH   5   6
ATOM      6  C   UNL     1       2.391 -13.838  15.368  1.00  0.00     0.000 C 
BRANCH   6   7
ATOM      7  C   UNL     1       3.553 -12.825  15.433  1.00  0.00     0.000 C 
BRANCH   7   8
ATOM      8  C   UNL     1       4.484 -12.822  14.203  1.00  0.00     0.006 C 
BRANCH   8   9
ATOM      9  C   UNL     1       5.753 -11.972  14.371  1.00  0.00     0.053 C 
BRANCH   9  10
ATOM     10  C   UNL     1       5.892 -10.953  13.283  1.00  0.00     0.041 C 
ATOM     11  O   UNL     1       6.710 -11.137  12.343  1.00  0.00    -0.550 OA
ATOM     12  O   UNL     1       5.146  -9.783  13.325  1.00  0.00    -0.550 OA
ENDBRANCH   9  10
ENDBRANCH   8   9
ENDBRANCH   7   8
ENDBRANCH   6   7
ENDBRANCH   5   6
ENDBRANCH   4   5
ENDBRANCH   3   4
ENDBRANCH   1   3
BRANCH   2  13
ATOM     13  C   UNL     1       7.342 -17.108  13.167  1.00  0.00     0.027 C 
BRANCH  13  14
ATOM     14  C   UNL     1       7.908 -18.451  13.651  1.00  0.00     0.004 C 
BRANCH  14  15
ATOM     15  C   UNL     1       6.978 -19.634  13.329  1.00  0.00     0.000 C 
BRANCH  15  16
ATOM     16  C   UNL     1       6.140 -20.066  14.551  1.00  0.00     0.000 C 
BRANCH  16  17
ATOM     17  C   UNL     1       6.733 -19.616  15.900  1.00  0.00    -0.000 C 
BRANCH  17  18
ATOM     18  C   UNL     1       5.724 -19.548  17.058  1.00  0.00    -0.000 C 
BRANCH  18  19
ATOM     19  C   UNL     1       5.716 -18.181  17.760  1.00  0.00    -0.003 C 
ATOM     20  C   UNL     1       4.330 -17.855  18.310  1.00  0.00     0.004 C 
ENDBRANCH  18  19
ENDBRANCH  17  18
ENDBRANCH  16  17
ENDBRANCH  15  16
ENDBRANCH  14  15
ENDBRANCH  13  14
ENDBRANCH   2  13
TORSDOF 15
ENDMDL
MODEL 5
REMARK VINA RESULT:    -3.585      1.640      3.964
REMARK INTER + INTRA:          -9.188
REMARK INTER:                  -6.447
REMARK INTRA:                  -2.741
REMARK UNBOUND:                -2.459
REMARK SMILES CCCCCCCCC=CCCCCCCCC(=O)[O-]
REMARK SMILES IDX 10 1 9 2 11 3 12 4 13 5 14 6 15 7 16 8 17 9 18 10 19 11
REMARK SMILES IDX 20 12 8 13 7 14 6 15 5 16 4 17 3 18 2 19 1 20
REMARK H PARENT
REMARK Flexibility Score: inf
ROOT
ATOM      1  C   UNL     1       2.808 -15.076  14.641  1.00  0.00    -0.031 C 
ATOM      2  C   UNL     1       2.438 -14.040  15.418  1.00  0.00    -0.031 C 
ENDROOT
BRANCH   1   3
ATOM      3  C   UNL     1       3.388 -16.375  15.140  1.00  0.00     0.027 C 
BRANCH   3   4
ATOM      4  C   UNL     1       4.722 -16.699  14.452  1.00  0.00     0.004 C 
BRANCH   4   5
ATOM      5  C   UNL     1       5.941 -16.198  15.246  1.00  0.00     0.000 C 
BRANCH   5   6
ATOM      6  C   UNL     1       6.683 -15.004  14.613  1.00  0.00     0.000 C 
BRANCH   6   7
ATOM      7  C   UNL     1       7.105 -13.897  15.601  1.00  0.00     0.000 C 
BRANCH   7   8
ATOM      8  C   UNL     1       6.673 -12.471  15.204  1.00  0.00     0.006 C 
BRANCH   8   9
ATOM      9  C   UNL     1       5.580 -12.416  14.125  1.00  0.00     0.053 C 
BRANCH   9  10
ATOM     10  C   UNL     1       5.697 -11.190  13.272  1.00  0.00     0.041 C 
ATOM     11  O   UNL     1       6.601 -11.108  12.399  1.00  0.00    -0.550 OA
ATOM     12  O   UNL     1       4.830 -10.122  13.466  1.00  0.00    -0.550 OA
ENDBRANCH   9  10
ENDBRANCH   8   9
ENDBRANCH   7   8
ENDBRANCH   6   7
ENDBRANCH   5   6
ENDBRANCH   4   5
ENDBRANCH   3   4
ENDBRANCH   1   3
BRANCH   2  13
ATOM     13  C   UNL     1       2.569 -13.984  16.923  1.00  0.00     0.027 C 
BRANCH  13  14
ATOM     14  C   UNL     1       3.840 -13.239  17.355  1.00  0.00     0.004 C 
BRANCH  14  15
ATOM     15  C   UNL     1       4.709 -14.066  18.319  1.00  0.00     0.000 C 
BRANCH  15  16
ATOM     16  C   UNL     1       3.952 -15.286  18.885  1.00  0.00     0.000 C 
BRANCH  16  17
ATOM     17  C   UNL     1       4.652 -16.632  18.614  1.00  0.00    -0.000 C 
BRANCH  17  18
ATOM     18  C   UNL     1       3.981 -17.852  19.266  1.00  0.00    -0.000 C 
BRANCH  18  19
ATOM     19  C   UNL     1       3.728 -18.994  18.271  1.00  0.00    -0.003 C 
ATOM     20  C   UNL     1       2.835 -20.068  18.884  1.00  0.00     0.004 C 
ENDBRANCH  18  19
ENDBRANCH  17  18
ENDBRANCH  16  17
ENDBRANCH  15  16
ENDBRANCH  14  15
ENDBRANCH  13  14
ENDBRANCH   2  13
TORSDOF 15
ENDMDL
MODEL 6
REMARK VINA RESULT:    -3.570      4.753      7.621
REMARK INTER + INTRA:          -9.160
REMARK INTER:                  -7.056
REMARK INTRA:                  -2.104
REMARK UNBOUND:                -2.459
REMARK SMILES CCCCCCCCC=CCCCCCCCC(=O)[O-]
REMARK SMILES IDX 10 1 9 2 11 3 12 4 13 5 14 6 15 7 16 8 17 9 18 10 19 11
REMARK SMILES IDX 20 12 8 13 7 14 6 15 5 16 4 17 3 18 2 19 1 20
REMARK H PARENT
REMARK Flexibility Score: inf
ROOT
ATOM      1  C   UNL     1       3.168 -15.391  15.674  1.00  0.00    -0.031 C 
ATOM      2  C   UNL     1       3.376 -14.533  14.656  1.00  0.00    -0.031 C 
ENDROOT
BRANCH   1   3
ATOM      3  C   UNL     1       3.547 -15.143  17.112  1.00  0.00     0.027 C 
BRANCH   3   4
ATOM      4  C   UNL     1       4.427 -16.273  17.666  1.00  0.00     0.004 C 
BRANCH   4   5
ATOM      5  C   UNL     1       4.296 -17.579  16.864  1.00  0.00     0.000 C 
BRANCH   5   6
ATOM      6  C   UNL     1       4.222 -18.861  17.716  1.00  0.00     0.000 C 
BRANCH   6   7
ATOM      7  C   UNL     1       4.130 -18.631  19.239  1.00  0.00     0.000 C 
BRANCH   7   8
ATOM      8  C   UNL     1       2.932 -19.315  19.929  1.00  0.00     0.006 C 
BRANCH   8   9
ATOM      9  C   UNL     1       2.353 -20.511  19.157  1.00  0.00     0.053 C 
BRANCH   9  10
ATOM     10  C   UNL     1       0.864 -20.599  19.296  1.00  0.00     0.041 C 
ATOM     11  O   UNL     1       0.285 -20.047  20.269  1.00  0.00    -0.550 OA
ATOM     12  O   UNL     1       0.120 -21.320  18.372  1.00  0.00    -0.550 OA
ENDBRANCH   9  10
ENDBRANCH   8   9
ENDBRANCH   7   8
ENDBRANCH   6   7
ENDBRANCH   5   6
ENDBRANCH   4   5
ENDBRANCH   3   4
ENDBRANCH   1   3
BRANCH   2  13
ATOM     13  C   UNL     1       4.053 -13.187  14.770  1.00  0.00     0.027 C 
BRANCH  13  14
ATOM     14  C   UNL     1       5.541 -13.268  14.398  1.00  0.00     0.004 C 
BRANCH  14  15
ATOM     15  C   UNL     1       6.434 -13.591  15.610  1.00  0.00     0.000 C 
BRANCH  15  16
ATOM     16  C   UNL     1       7.357 -14.800  15.347  1.00  0.00     0.000 C 
BRANCH  16  17
ATOM     17  C   UNL     1       6.897 -15.688  14.174  1.00  0.00    -0.000 C 
BRANCH  17  18
ATOM     18  C   UNL     1       6.846 -17.193  14.487  1.00  0.00    -0.000 C 
BRANCH  18  19
ATOM     19  C   UNL     1       6.135 -18.003  13.392  1.00  0.00    -0.003 C 
ATOM     20  C   UNL     1       6.921 -19.264  13.045  1.00  0.00     0.004 C 
ENDBRANCH  18  19
ENDBRANCH  17  18
ENDBRANCH  16  17
ENDBRANCH  15  16
ENDBRANCH  14  15
ENDBRANCH  13  14
ENDBRANCH   2  13
TORSDOF 15
ENDMDL
MODEL 7
REMARK VINA RESULT:    -3.548      1.435      3.467
REMARK INTER + INTRA:          -9.119
REMARK INTER:                  -6.145
REMARK INTRA:                  -2.975
REMARK UNBOUND:                -2.459
REMARK SMILES CCCCCCCCC=CCCCCCCCC(=O)[O-]
REMARK SMILES IDX 10 1 9 2 11 3 12 4 13 5 14 6 15 7 16 8 17 9 18 10 19 11
REMARK SMILES IDX 20 12 8 13 7 14 6 15 5 16 4 17 3 18 2 19 1 20
REMARK H PARENT
REMARK Flexibility Score: inf
ROOT
ATOM      1  C   UNL     1       3.999 -16.715  14.529  1.00  0.00    -0.031 C 
ATOM      2  C   UNL     1       5.314 -16.989  14.632  1.00  0.00    -0.031 C 
ENDROOT
BRANCH   1   3
ATOM      3  C   UNL     1       3.399 -15.333  14.483  1.00  0.00     0.027 C 
BRANCH   3   4
ATOM      4  C   UNL     1       2.244 -15.185  15.485  1.00  0.00     0.004 C 
BRANCH   4   5
ATOM      5  C   UNL     1       2.551 -14.175  16.604  1.00  0.00     0.000 C 
BRANCH   5   6
ATOM      6  C   UNL     1       4.044 -13.833  16.780  1.00  0.00     0.000 C 
BRANCH   6   7
ATOM      7  C   UNL     1       4.426 -12.377  16.442  1.00  0.00     0.000 C 
BRANCH   7   8
ATOM      8  C   UNL     1       5.708 -12.220  15.598  1.00  0.00     0.006 C 
BRANCH   8   9
ATOM      9  C   UNL     1       5.505 -12.441  14.090  1.00  0.00     0.053 C 
BRANCH   9  10
ATOM     10  C   UNL     1       5.689 -11.176  13.310  1.00  0.00     0.041 C 
ATOM     11  O   UNL     1       6.643 -11.068  12.494  1.00  0.00    -0.550 OA
ATOM     12  O   UNL     1       4.830 -10.103  13.509  1.00  0.00    -0.550 OA
ENDBRANCH   9  10
ENDBRANCH   8   9
ENDBRANCH   7   8
ENDBRANCH   6   7
ENDBRANCH   5   6
ENDBRANCH   4   5
ENDBRANCH   3   4
ENDBRANCH   1   3
BRANCH   2  13
ATOM     13  C   UNL     1       6.415 -15.961  14.751  1.00  0.00     0.027 C 
BRANCH  13  14
ATOM     14  C   UNL     1       7.056 -15.976  16.146  1.00  0.00     0.004 C 
BRANCH  14  15
ATOM     15  C   UNL     1       7.424 -17.397  16.611  1.00  0.00     0.000 C 
BRANCH  15  16
ATOM     16  C   UNL     1       6.702 -17.788  17.917  1.00  0.00     0.000 C 
BRANCH  16  17
ATOM     17  C   UNL     1       5.652 -16.759  18.378  1.00  0.00    -0.000 C 
BRANCH  17  18
ATOM     18  C   UNL     1       4.193 -17.230  18.265  1.00  0.00    -0.000 C 
BRANCH  18  19
ATOM     19  C   UNL     1       4.072 -18.657  17.710  1.00  0.00    -0.003 C 
ATOM     20  C   UNL     1       3.332 -19.565  18.688  1.00  0.00     0.004 C 
ENDBRANCH  18  19
ENDBRANCH  17  18
ENDBRANCH  16  17
ENDBRANCH  15  16
ENDBRANCH  14  15
ENDBRANCH  13  14
ENDBRANCH   2  13
TORSDOF 15
ENDMDL
MODEL 8
REMARK VINA RESULT:    -3.545      3.182      5.392
REMARK INTER + INTRA:          -9.113
REMARK INTER:                  -6.280
REMARK INTRA:                  -2.833
REMARK UNBOUND:                -2.459
REMARK SMILES CCCCCCCCC=CCCCCCCCC(=O)[O-]
REMARK SMILES IDX 10 1 9 2 11 3 12 4 13 5 14 6 15 7 16 8 17 9 18 10 19 11
REMARK SMILES IDX 20 12 8 13 7 14 6 15 5 16 4 17 3 18 2 19 1 20
REMARK H PARENT
REMARK Flexibility Score: inf
ROOT
ATOM      1  C   UNL     1       4.376 -17.075  17.362  1.00  0.00    -0.031 C 
ATOM      2  C   UNL     1       4.013 -17.479  16.129  1.00  0.00    -0.031 C 
ENDROOT
BRANCH   1   3
ATOM      3  C   UNL     1       4.624 -15.645  17.771  1.00  0.00     0.027 C 
BRANCH   3   4
ATOM      4  C   UNL     1       6.115 -15.382  18.025  1.00  0.00     0.004 C 
BRANCH   4   5
ATOM      5  C   UNL     1       6.823 -14.751  16.814  1.00  0.00     0.000 C 
BRANCH   5   6
ATOM      6  C   UNL     1       7.569 -15.747  15.905  1.00  0.00     0.000 C 
BRANCH   6   7
ATOM      7  C   UNL     1       7.305 -15.579  14.394  1.00  0.00     0.000 C 
BRANCH   7   8
ATOM      8  C   UNL     1       7.242 -16.896  13.594  1.00  0.00     0.006 C 
BRANCH   8   9
ATOM      9  C   UNL     1       7.155 -18.162  14.461  1.00  0.00     0.053 C 
BRANCH   9  10
ATOM     10  C   UNL     1       6.689 -19.348  13.674  1.00  0.00     0.041 C 
ATOM     11  O   UNL     1       5.759 -20.074  14.114  1.00  0.00    -0.550 OA
ATOM     12  O   UNL     1       7.306 -19.674  12.473  1.00  0.00    -0.550 OA
ENDBRANCH   9  10
ENDBRANCH   8   9
ENDBRANCH   7   8
ENDBRANCH   6   7
ENDBRANCH   5   6
ENDBRANCH   4   5
ENDBRANCH   3   4
ENDBRANCH   1   3
BRANCH   2  13
ATOM     13  C   UNL     1       3.823 -16.575  14.933  1.00  0.00     0.027 C 
BRANCH  13  14
ATOM     14  C   UNL     1       2.514 -15.777  15.027  1.00  0.00     0.004 C 
BRANCH  14  15
ATOM     15  C   UNL     1       2.613 -14.399  14.349  1.00  0.00     0.000 C 
BRANCH  15  16
ATOM     16  C   UNL     1       4.012 -13.769  14.512  1.00  0.00     0.000 C 
BRANCH  16  17
ATOM     17  C   UNL     1       4.078 -12.676  15.597  1.00  0.00    -0.000 C 
BRANCH  17  18
ATOM     18  C   UNL     1       5.041 -11.517  15.287  1.00  0.00    -0.000 C 
BRANCH  18  19
ATOM     19  C   UNL     1       6.074 -11.875  14.209  1.00  0.00    -0.003 C 
ATOM     20  C   UNL     1       5.959 -10.940  13.008  1.00  0.00     0.004 C 
ENDBRANCH  18  19
ENDBRANCH  17  18
ENDBRANCH  16  17
ENDBRANCH  15  16
ENDBRANCH  14  15
ENDBRANCH  13  14
ENDBRANCH   2  13
TORSDOF 15
ENDMDL
MODEL 9
REMARK VINA RESULT:    -3.456      1.995      4.256
REMARK INTER + INTRA:          -8.946
REMARK INTER:                  -6.471
REMARK INTRA:                  -2.476
REMARK UNBOUND:                -2.459
REMARK SMILES CCCCCCCCC=CCCCCCCCC(=O)[O-]
REMARK SMILES IDX 10 1 9 2 11 3 12 4 13 5 14 6 15 7 16 8 17 9 18 10 19 11
REMARK SMILES IDX 20 12 8 13 7 14 6 15 5 16 4 17 3 18 2 19 1 20
REMARK H PARENT
REMARK Flexibility Score: inf
ROOT
ATOM      1  C   UNL     1       2.998 -15.652  14.730  1.00  0.00    -0.031 C 
ATOM      2  C   UNL     1       3.711 -16.682  15.226  1.00  0.00    -0.031 C 
ENDROOT
BRANCH   1   3
ATOM      3  C   UNL     1       2.380 -14.548  15.550  1.00  0.00     0.027 C 
BRANCH   3   4
ATOM      4  C   UNL     1       3.307 -13.327  15.643  1.00  0.00     0.004 C 
BRANCH   4   5
ATOM      5  C   UNL     1       4.308 -13.249  14.478  1.00  0.00     0.000 C 
BRANCH   5   6
ATOM      6  C   UNL     1       5.408 -12.181  14.636  1.00  0.00     0.000 C 
BRANCH   6   7
ATOM      7  C   UNL     1       5.380 -11.051  13.586  1.00  0.00     0.000 C 
BRANCH   7   8
ATOM      8  C   UNL     1       5.045  -9.652  14.143  1.00  0.00     0.006 C 
BRANCH   8   9
ATOM      9  C   UNL     1       4.341  -9.665  15.509  1.00  0.00     0.053 C 
BRANCH   9  10
ATOM     10  C   UNL     1       2.852  -9.580  15.373  1.00  0.00     0.041 C 
ATOM     11  O   UNL     1       2.105 -10.083  16.253  1.00  0.00    -0.550 OA
ATOM     12  O   UNL     1       2.289  -8.977  14.255  1.00  0.00    -0.550 OA
ENDBRANCH   9  10
ENDBRANCH   8   9
ENDBRANCH   7   8
ENDBRANCH   6   7
ENDBRANCH   5   6
ENDBRANCH   4   5
ENDBRANCH   3   4
ENDBRANCH   1   3
BRANCH   2  13
ATOM     13  C   UNL     1       3.989 -16.930  16.690  1.00  0.00     0.027 C 
BRANCH  13  14
ATOM     14  C   UNL     1       5.205 -16.130  17.180  1.00  0.00     0.004 C 
BRANCH  14  15
ATOM     15  C   UNL     1       6.508 -16.547  16.475  1.00  0.00     0.000 C 
BRANCH  15  16
ATOM     16  C   UNL     1       7.050 -15.437  15.549  1.00  0.00     0.000 C 
BRANCH  16  17
ATOM     17  C   UNL     1       7.216 -15.880  14.082  1.00  0.00    -0.000 C 
BRANCH  17  18
ATOM     18  C   UNL     1       7.550 -17.369  13.891  1.00  0.00    -0.000 C 
BRANCH  18  19
ATOM     19  C   UNL     1       6.446 -18.134  13.146  1.00  0.00    -0.003 C 
ATOM     20  C   UNL     1       5.965 -19.332  13.959  1.00  0.00     0.004 C 
ENDBRANCH  18  19
ENDBRANCH  17  18
ENDBRANCH  16  17
ENDBRANCH  15  16
ENDBRANCH  14  15
ENDBRANCH  13  14
ENDBRANCH   2  13
TORSDOF 15
ENDMDL
