MODEL 1
REMARK VINA RESULT:    -6.932      0.000      0.000
REMARK INTER + INTRA:         -11.734
REMARK INTER:                 -10.174
REMARK INTRA:                  -1.560
REMARK UNBOUND:                -1.560
REMARK SMILES O=c1c(O[C@H]2O[C@@H](CO)[C@H](O)[C@H](O)[C@H]2O)c(-c2ccc(O)c(O)c2)oc2cc(O)cc(O)c12
REMARK SMILES IDX 4 1 3 2 16 3 25 4 2 5 26 6 1 7 33 8 27 9 31 10 28 11 30 12
REMARK SMILES IDX 17 13 18 14 19 15 20 16 24 17 22 18 21 19 23 21 32 23 29 25
REMARK SMILES IDX 5 27 14 28 6 29 12 30 7 31 10 32 15 33 13 35 8 37 9 38 11 40
REMARK H PARENT 21 20 23 22 32 24 29 26 15 34 13 36 9 39 11 41
REMARK Flexibility Score: inf
ROOT
ATOM      1  O   UNL     1     -38.095   5.621  82.000  1.00  0.00    -0.454 OA
ENDROOT
BRANCH   1   2
ATOM      2  C   UNL     1     -38.796   5.000  80.955  1.00  0.00     0.214 A 
ATOM      3  C   UNL     1     -38.275   4.944  79.645  1.00  0.00     0.180 A 
ATOM      4  O   UNL     1     -39.010   4.436  78.661  1.00  0.00    -0.452 OA
ATOM      5  C   UNL     1     -40.049   4.430  81.206  1.00  0.00     0.239 A 
ATOM      6  C   UNL     1     -40.221   3.922  78.848  1.00  0.00     0.146 A 
ATOM      7  O   UNL     1     -40.501   4.429  82.381  1.00  0.00    -0.285 OA
ATOM      8  C   UNL     1     -40.793   3.882  80.141  1.00  0.00     0.111 A 
ATOM      9  C   UNL     1     -40.919   3.409  77.751  1.00  0.00     0.094 A 
ATOM     10  C   UNL     1     -42.079   3.311  80.309  1.00  0.00     0.134 A 
ATOM     11  C   UNL     1     -42.190   2.848  77.923  1.00  0.00     0.123 A 
ATOM     12  C   UNL     1     -42.762   2.800  79.196  1.00  0.00     0.093 A 
BRANCH   3  13
ATOM     13  C   UNL     1     -36.912   5.413  79.324  1.00  0.00     0.025 A 
ATOM     14  C   UNL     1     -35.832   4.527  79.411  1.00  0.00     0.016 A 
ATOM     15  C   UNL     1     -34.537   4.966  79.131  1.00  0.00     0.051 A 
ATOM     16  C   UNL     1     -34.296   6.298  78.775  1.00  0.00     0.157 A 
ATOM     17  C   UNL     1     -36.675   6.756  78.994  1.00  0.00     0.062 A 
ATOM     18  C   UNL     1     -35.380   7.206  78.708  1.00  0.00     0.158 A 
BRANCH  16  19
ATOM     19  O   UNL     1     -32.979   6.673  78.500  1.00  0.00    -0.504 OA
ATOM     20  H   UNL     1     -32.313   6.084  78.022  1.00  0.00     0.293 HD
ENDBRANCH  16  19
BRANCH  18  21
ATOM     21  O   UNL     1     -35.218   8.552  78.369  1.00  0.00    -0.504 OA
ATOM     22  H   UNL     1     -34.429   8.911  77.851  1.00  0.00     0.293 HD
ENDBRANCH  18  21
ENDBRANCH   3  13
BRANCH  10  23
ATOM     23  O   UNL     1     -42.678   3.251  81.567  1.00  0.00    -0.507 OA
ATOM     24  H   UNL     1     -43.540   2.741  81.723  1.00  0.00     0.293 HD
ENDBRANCH  10  23
BRANCH  11  25
ATOM     25  O   UNL     1     -42.890   2.333  76.835  1.00  0.00    -0.508 OA
ATOM     26  H   UNL     1     -42.562   2.461  75.884  1.00  0.00     0.293 HD
ENDBRANCH  11  25
ENDBRANCH   1   2
BRANCH   1  27
ATOM     27  C   UNL     1     -37.134   4.925  82.802  1.00  0.00     0.339 C 
ATOM     28  C   UNL     1     -37.432   5.084  84.317  1.00  0.00     0.214 C 
ATOM     29  O   UNL     1     -35.812   5.284  82.410  1.00  0.00    -0.332 OA
ATOM     30  C   UNL     1     -36.127   5.164  85.112  1.00  0.00     0.180 C 
ATOM     31  C   UNL     1     -35.285   6.439  83.054  1.00  0.00     0.179 C 
ATOM     32  C   UNL     1     -35.308   6.362  84.612  1.00  0.00     0.177 C 
BRANCH  28  33
ATOM     33  O   UNL     1     -38.212   6.230  84.546  1.00  0.00    -0.384 OA
ATOM     34  H   UNL     1     -38.180   6.773  83.716  1.00  0.00     0.211 HD
ENDBRANCH  28  33
BRANCH  30  35
ATOM     35  O   UNL     1     -35.408   3.966  84.951  1.00  0.00    -0.387 OA
ATOM     36  H   UNL     1     -34.453   4.174  85.126  1.00  0.00     0.211 HD
ENDBRANCH  30  35
BRANCH  31  37
ATOM     37  C   UNL     1     -35.907   7.740  82.518  1.00  0.00     0.191 C 
BRANCH  37  38
ATOM     38  O   UNL     1     -36.508   8.445  83.567  1.00  0.00    -0.394 OA
ATOM     39  H   UNL     1     -37.488   8.342  83.444  1.00  0.00     0.210 HD
ENDBRANCH  37  38
ENDBRANCH  31  37
BRANCH  32  40
ATOM     40  O   UNL     1     -34.002   6.283  85.125  1.00  0.00    -0.387 OA
ATOM     41  H   UNL     1     -33.846   7.117  85.641  1.00  0.00     0.211 HD
ENDBRANCH  32  40
ENDBRANCH   1  27
TORSDOF 12
ENDMDL
MODEL 2
REMARK VINA RESULT:    -6.898      1.459      2.478
REMARK INTER + INTRA:         -11.684
REMARK INTER:                  -9.794
REMARK INTRA:                  -1.891
REMARK UNBOUND:                -1.560
REMARK SMILES O=c1c(O[C@H]2O[C@@H](CO)[C@H](O)[C@H](O)[C@H]2O)c(-c2ccc(O)c(O)c2)oc2cc(O)cc(O)c12
REMARK SMILES IDX 4 1 3 2 16 3 25 4 2 5 26 6 1 7 33 8 27 9 31 10 28 11 30 12
REMARK SMILES IDX 17 13 18 14 19 15 20 16 24 17 22 18 21 19 23 21 32 23 29 25
REMARK SMILES IDX 5 27 14 28 6 29 12 30 7 31 10 32 15 33 13 35 8 37 9 38 11 40
REMARK H PARENT 21 20 23 22 32 24 29 26 15 34 13 36 9 39 11 41
REMARK Flexibility Score: inf
ROOT
ATOM      1  O   UNL     1     -38.388   5.695  81.900  1.00  0.00    -0.454 OA
ENDROOT
BRANCH   1   2
ATOM      2  C   UNL     1     -39.022   4.997  80.861  1.00  0.00     0.214 A 
ATOM      3  C   UNL     1     -38.403   4.818  79.606  1.00  0.00     0.180 A 
ATOM      4  O   UNL     1     -39.072   4.238  78.614  1.00  0.00    -0.452 OA
ATOM      5  C   UNL     1     -40.303   4.473  81.060  1.00  0.00     0.239 A 
ATOM      6  C   UNL     1     -40.306   3.763  78.748  1.00  0.00     0.146 A 
ATOM      7  O   UNL     1     -40.844   4.582  82.192  1.00  0.00    -0.285 OA
ATOM      8  C   UNL     1     -40.977   3.847  79.991  1.00  0.00     0.111 A 
ATOM      9  C   UNL     1     -40.930   3.168  77.648  1.00  0.00     0.094 A 
ATOM     10  C   UNL     1     -42.285   3.315  80.106  1.00  0.00     0.134 A 
ATOM     11  C   UNL     1     -42.223   2.647  77.768  1.00  0.00     0.123 A 
ATOM     12  C   UNL     1     -42.893   2.720  78.991  1.00  0.00     0.093 A 
BRANCH   3  13
ATOM     13  C   UNL     1     -37.009   5.233  79.353  1.00  0.00     0.025 A 
ATOM     14  C   UNL     1     -35.952   4.479  79.876  1.00  0.00     0.016 A 
ATOM     15  C   UNL     1     -34.631   4.876  79.661  1.00  0.00     0.051 A 
ATOM     16  C   UNL     1     -34.343   6.039  78.937  1.00  0.00     0.157 A 
ATOM     17  C   UNL     1     -36.729   6.414  78.649  1.00  0.00     0.062 A 
ATOM     18  C   UNL     1     -35.407   6.820  78.426  1.00  0.00     0.158 A 
BRANCH  16  19
ATOM     19  O   UNL     1     -33.001   6.377  78.752  1.00  0.00    -0.504 OA
ATOM     20  H   UNL     1     -32.555   6.444  77.848  1.00  0.00     0.293 HD
ENDBRANCH  16  19
BRANCH  18  21
ATOM     21  O   UNL     1     -35.199   7.997  77.702  1.00  0.00    -0.504 OA
ATOM     22  H   UNL     1     -35.060   8.902  78.126  1.00  0.00     0.293 HD
ENDBRANCH  18  21
ENDBRANCH   3  13
BRANCH  10  23
ATOM     23  O   UNL     1     -42.980   3.376  81.313  1.00  0.00    -0.507 OA
ATOM     24  H   UNL     1     -43.581   2.619  81.621  1.00  0.00     0.293 HD
ENDBRANCH  10  23
BRANCH  11  25
ATOM     25  O   UNL     1     -42.850   2.051  76.676  1.00  0.00    -0.508 OA
ATOM     26  H   UNL     1     -43.319   2.603  75.966  1.00  0.00     0.293 HD
ENDBRANCH  11  25
ENDBRANCH   1   2
BRANCH   1  27
ATOM     27  C   UNL     1     -38.359   7.126  81.960  1.00  0.00     0.339 C 
ATOM     28  C   UNL     1     -36.918   7.659  82.178  1.00  0.00     0.214 C 
ATOM     29  O   UNL     1     -39.322   7.600  82.896  1.00  0.00    -0.332 OA
ATOM     30  C   UNL     1     -36.938   8.906  83.064  1.00  0.00     0.180 C 
ATOM     31  C   UNL     1     -38.863   7.688  84.241  1.00  0.00     0.179 C 
ATOM     32  C   UNL     1     -37.575   8.549  84.415  1.00  0.00     0.177 C 
BRANCH  28  33
ATOM     33  O   UNL     1     -36.109   6.665  82.755  1.00  0.00    -0.384 OA
ATOM     34  H   UNL     1     -35.875   6.027  82.031  1.00  0.00     0.211 HD
ENDBRANCH  28  33
BRANCH  30  35
ATOM     35  O   UNL     1     -37.668   9.923  82.422  1.00  0.00    -0.387 OA
ATOM     36  H   UNL     1     -38.465  10.109  82.984  1.00  0.00     0.211 HD
ENDBRANCH  30  35
BRANCH  31  37
ATOM     37  C   UNL     1     -38.744   6.307  84.907  1.00  0.00     0.191 C 
BRANCH  37  38
ATOM     38  O   UNL     1     -39.895   5.554  84.649  1.00  0.00    -0.394 OA
ATOM     39  H   UNL     1     -39.664   4.613  84.866  1.00  0.00     0.210 HD
ENDBRANCH  37  38
ENDBRANCH  31  37
BRANCH  32  40
ATOM     40  O   UNL     1     -37.858   9.730  85.125  1.00  0.00    -0.387 OA
ATOM     41  H   UNL     1     -38.228   9.453  86.004  1.00  0.00     0.211 HD
ENDBRANCH  32  40
ENDBRANCH   1  27
TORSDOF 12
ENDMDL
MODEL 3
REMARK VINA RESULT:    -6.514      2.047      6.344
REMARK INTER + INTRA:         -11.121
REMARK INTER:                  -9.659
REMARK INTRA:                  -1.462
REMARK UNBOUND:                -1.560
REMARK SMILES O=c1c(O[C@H]2O[C@@H](CO)[C@H](O)[C@H](O)[C@H]2O)c(-c2ccc(O)c(O)c2)oc2cc(O)cc(O)c12
REMARK SMILES IDX 4 1 3 2 16 3 25 4 2 5 26 6 1 7 33 8 27 9 31 10 28 11 30 12
REMARK SMILES IDX 17 13 18 14 19 15 20 16 24 17 22 18 21 19 23 21 32 23 29 25
REMARK SMILES IDX 5 27 14 28 6 29 12 30 7 31 10 32 15 33 13 35 8 37 9 38 11 40
REMARK H PARENT 21 20 23 22 32 24 29 26 15 34 13 36 9 39 11 41
REMARK Flexibility Score: inf
ROOT
ATOM      1  O   UNL     1     -37.177   5.061  81.802  1.00  0.00    -0.454 OA
ENDROOT
BRANCH   1   2
ATOM      2  C   UNL     1     -36.713   5.892  80.771  1.00  0.00     0.214 A 
ATOM      3  C   UNL     1     -37.108   5.698  79.431  1.00  0.00     0.180 A 
ATOM      4  O   UNL     1     -36.573   6.442  78.468  1.00  0.00    -0.452 OA
ATOM      5  C   UNL     1     -35.828   6.934  81.067  1.00  0.00     0.239 A 
ATOM      6  C   UNL     1     -35.697   7.414  78.700  1.00  0.00     0.146 A 
ATOM      7  O   UNL     1     -35.508   7.149  82.266  1.00  0.00    -0.285 OA
ATOM      8  C   UNL     1     -35.293   7.716  80.022  1.00  0.00     0.111 A 
ATOM      9  C   UNL     1     -35.188   8.144  77.623  1.00  0.00     0.094 A 
ATOM     10  C   UNL     1     -34.372   8.770  80.237  1.00  0.00     0.134 A 
ATOM     11  C   UNL     1     -34.277   9.183  77.842  1.00  0.00     0.123 A 
ATOM     12  C   UNL     1     -33.874   9.492  79.143  1.00  0.00     0.093 A 
BRANCH   3  13
ATOM     13  C   UNL     1     -38.130   4.702  79.052  1.00  0.00     0.025 A 
ATOM     14  C   UNL     1     -39.485   5.053  79.066  1.00  0.00     0.016 A 
ATOM     15  C   UNL     1     -40.459   4.112  78.731  1.00  0.00     0.051 A 
ATOM     16  C   UNL     1     -40.101   2.802  78.393  1.00  0.00     0.157 A 
ATOM     17  C   UNL     1     -37.765   3.383  78.740  1.00  0.00     0.062 A 
ATOM     18  C   UNL     1     -38.735   2.431  78.400  1.00  0.00     0.158 A 
BRANCH  16  19
ATOM     19  O   UNL     1     -41.123   1.910  78.061  1.00  0.00    -0.504 OA
ATOM     20  H   UNL     1     -41.390   1.120  78.631  1.00  0.00     0.293 HD
ENDBRANCH  16  19
BRANCH  18  21
ATOM     21  O   UNL     1     -38.300   1.142  78.083  1.00  0.00    -0.504 OA
ATOM     22  H   UNL     1     -37.527   0.945  77.465  1.00  0.00     0.293 HD
ENDBRANCH  18  21
ENDBRANCH   3  13
BRANCH  10  23
ATOM     23  O   UNL     1     -33.948   9.101  81.524  1.00  0.00    -0.507 OA
ATOM     24  H   UNL     1     -34.585   9.489  82.212  1.00  0.00     0.293 HD
ENDBRANCH  10  23
BRANCH  11  25
ATOM     25  O   UNL     1     -33.767   9.915  76.772  1.00  0.00    -0.508 OA
ATOM     26  H   UNL     1     -33.327   9.461  75.980  1.00  0.00     0.293 HD
ENDBRANCH  11  25
ENDBRANCH   1   2
BRANCH   1  27
ATOM     27  C   UNL     1     -38.150   5.493  82.759  1.00  0.00     0.339 C 
ATOM     28  C   UNL     1     -37.731   5.126  84.207  1.00  0.00     0.214 C 
ATOM     29  O   UNL     1     -39.448   5.045  82.379  1.00  0.00    -0.332 OA
ATOM     30  C   UNL     1     -38.959   4.758  85.042  1.00  0.00     0.180 C 
ATOM     31  C   UNL     1     -39.796   3.744  82.841  1.00  0.00     0.179 C 
ATOM     32  C   UNL     1     -39.672   3.567  84.386  1.00  0.00     0.177 C 
BRANCH  28  33
ATOM     33  O   UNL     1     -36.812   4.062  84.198  1.00  0.00    -0.384 OA
ATOM     34  H   UNL     1     -36.321   4.113  83.336  1.00  0.00     0.211 HD
ENDBRANCH  28  33
BRANCH  30  35
ATOM     35  O   UNL     1     -39.817   5.869  85.125  1.00  0.00    -0.387 OA
ATOM     36  H   UNL     1     -39.784   6.329  84.246  1.00  0.00     0.211 HD
ENDBRANCH  30  35
BRANCH  31  37
ATOM     37  C   UNL     1     -39.071   2.635  82.060  1.00  0.00     0.191 C 
BRANCH  37  38
ATOM     38  O   UNL     1     -38.997   1.476  82.840  1.00  0.00    -0.394 OA
ATOM     39  H   UNL     1     -39.798   0.937  82.612  1.00  0.00     0.210 HD
ENDBRANCH  37  38
ENDBRANCH  31  37
BRANCH  32  40
ATOM     40  O   UNL     1     -40.939   3.400  84.970  1.00  0.00    -0.387 OA
ATOM     41  H   UNL     1     -41.387   2.663  84.478  1.00  0.00     0.211 HD
ENDBRANCH  32  40
ENDBRANCH   1  27
TORSDOF 12
ENDMDL
MODEL 4
REMARK VINA RESULT:    -6.514      2.826      7.469
REMARK INTER + INTRA:         -11.120
REMARK INTER:                  -9.413
REMARK INTRA:                  -1.707
REMARK UNBOUND:                -1.560
REMARK SMILES O=c1c(O[C@H]2O[C@@H](CO)[C@H](O)[C@H](O)[C@H]2O)c(-c2ccc(O)c(O)c2)oc2cc(O)cc(O)c12
REMARK SMILES IDX 4 1 3 2 16 3 25 4 2 5 26 6 1 7 33 8 27 9 31 10 28 11 30 12
REMARK SMILES IDX 17 13 18 14 19 15 20 16 24 17 22 18 21 19 23 21 32 23 29 25
REMARK SMILES IDX 5 27 14 28 6 29 12 30 7 31 10 32 15 33 13 35 8 37 9 38 11 40
REMARK H PARENT 21 20 23 22 32 24 29 26 15 34 13 36 9 39 11 41
REMARK Flexibility Score: inf
ROOT
ATOM      1  O   UNL     1     -38.913   6.931  79.775  1.00  0.00    -0.454 OA
ENDROOT
BRANCH   1   2
ATOM      2  C   UNL     1     -37.971   6.139  80.449  1.00  0.00     0.214 A 
ATOM      3  C   UNL     1     -38.159   4.752  80.622  1.00  0.00     0.180 A 
ATOM      4  O   UNL     1     -37.296   4.052  81.350  1.00  0.00    -0.452 OA
ATOM      5  C   UNL     1     -36.820   6.733  80.977  1.00  0.00     0.239 A 
ATOM      6  C   UNL     1     -36.211   4.584  81.904  1.00  0.00     0.146 A 
ATOM      7  O   UNL     1     -36.616   7.961  80.784  1.00  0.00    -0.285 OA
ATOM      8  C   UNL     1     -35.914   5.956  81.729  1.00  0.00     0.111 A 
ATOM      9  C   UNL     1     -35.359   3.768  82.654  1.00  0.00     0.094 A 
ATOM     10  C   UNL     1     -34.741   6.488  82.318  1.00  0.00     0.134 A 
ATOM     11  C   UNL     1     -34.203   4.301  83.234  1.00  0.00     0.123 A 
ATOM     12  C   UNL     1     -33.898   5.653  83.064  1.00  0.00     0.093 A 
BRANCH   3  13
ATOM     13  C   UNL     1     -39.283   4.030  79.994  1.00  0.00     0.025 A 
ATOM     14  C   UNL     1     -39.102   3.398  78.758  1.00  0.00     0.016 A 
ATOM     15  C   UNL     1     -40.165   2.732  78.146  1.00  0.00     0.051 A 
ATOM     16  C   UNL     1     -41.429   2.698  78.747  1.00  0.00     0.157 A 
ATOM     17  C   UNL     1     -40.554   4.023  80.590  1.00  0.00     0.062 A 
ATOM     18  C   UNL     1     -41.627   3.356  79.984  1.00  0.00     0.158 A 
BRANCH  16  19
ATOM     19  O   UNL     1     -42.448   2.009  78.086  1.00  0.00    -0.504 OA
ATOM     20  H   UNL     1     -42.698   1.050  78.279  1.00  0.00     0.293 HD
ENDBRANCH  16  19
BRANCH  18  21
ATOM     21  O   UNL     1     -42.860   3.374  80.641  1.00  0.00    -0.504 OA
ATOM     22  H   UNL     1     -42.967   3.292  81.641  1.00  0.00     0.293 HD
ENDBRANCH  18  21
ENDBRANCH   3  13
BRANCH  10  23
ATOM     23  O   UNL     1     -34.411   7.835  82.168  1.00  0.00    -0.507 OA
ATOM     24  H   UNL     1     -35.032   8.574  82.478  1.00  0.00     0.293 HD
ENDBRANCH  10  23
BRANCH  11  25
ATOM     25  O   UNL     1     -33.349   3.492  83.981  1.00  0.00    -0.508 OA
ATOM     26  H   UNL     1     -33.186   3.661  84.967  1.00  0.00     0.293 HD
ENDBRANCH  11  25
ENDBRANCH   1   2
BRANCH   1  27
ATOM     27  C   UNL     1     -39.075   6.891  78.353  1.00  0.00     0.339 C 
ATOM     28  C   UNL     1     -38.235   7.991  77.651  1.00  0.00     0.214 C 
ATOM     29  O   UNL     1     -40.459   6.886  78.014  1.00  0.00    -0.332 OA
ATOM     30  C   UNL     1     -38.979   8.534  76.430  1.00  0.00     0.180 C 
ATOM     31  C   UNL     1     -41.055   8.173  77.891  1.00  0.00     0.179 C 
ATOM     32  C   UNL     1     -40.327   9.114  76.882  1.00  0.00     0.177 C 
BRANCH  28  33
ATOM     33  O   UNL     1     -37.945   9.034  78.547  1.00  0.00    -0.384 OA
ATOM     34  H   UNL     1     -37.426   8.637  79.294  1.00  0.00     0.211 HD
ENDBRANCH  28  33
BRANCH  30  35
ATOM     35  O   UNL     1     -39.169   7.496  75.499  1.00  0.00    -0.387 OA
ATOM     36  H   UNL     1     -38.561   7.675  74.735  1.00  0.00     0.211 HD
ENDBRANCH  30  35
BRANCH  31  37
ATOM     37  C   UNL     1     -41.286   8.840  79.257  1.00  0.00     0.191 C 
BRANCH  37  38
ATOM     38  O   UNL     1     -40.608  10.063  79.309  1.00  0.00    -0.394 OA
ATOM     39  H   UNL     1     -39.927  10.033  78.587  1.00  0.00     0.210 HD
ENDBRANCH  37  38
ENDBRANCH  31  37
BRANCH  32  40
ATOM     40  O   UNL     1     -41.134   9.354  75.756  1.00  0.00    -0.387 OA
ATOM     41  H   UNL     1     -40.617   9.051  74.963  1.00  0.00     0.211 HD
ENDBRANCH  32  40
ENDBRANCH   1  27
TORSDOF 12
ENDMDL
MODEL 5
REMARK VINA RESULT:    -6.465      2.512      6.982
REMARK INTER + INTRA:         -11.049
REMARK INTER:                  -9.234
REMARK INTRA:                  -1.816
REMARK UNBOUND:                -1.560
REMARK SMILES O=c1c(O[C@H]2O[C@@H](CO)[C@H](O)[C@H](O)[C@H]2O)c(-c2ccc(O)c(O)c2)oc2cc(O)cc(O)c12
REMARK SMILES IDX 4 1 3 2 16 3 25 4 2 5 26 6 1 7 33 8 27 9 31 10 28 11 30 12
REMARK SMILES IDX 17 13 18 14 19 15 20 16 24 17 22 18 21 19 23 21 32 23 29 25
REMARK SMILES IDX 5 27 14 28 6 29 12 30 7 31 10 32 15 33 13 35 8 37 9 38 11 40
REMARK H PARENT 21 20 23 22 32 24 29 26 15 34 13 36 9 39 11 41
REMARK Flexibility Score: inf
ROOT
ATOM      1  O   UNL     1     -38.588   4.795  80.081  1.00  0.00    -0.454 OA
ENDROOT
BRANCH   1   2
ATOM      2  C   UNL     1     -37.546   5.666  80.436  1.00  0.00     0.214 A 
ATOM      3  C   UNL     1     -37.337   6.885  79.759  1.00  0.00     0.180 A 
ATOM      4  O   UNL     1     -36.282   7.637  80.056  1.00  0.00    -0.452 OA
ATOM      5  C   UNL     1     -36.679   5.318  81.478  1.00  0.00     0.239 A 
ATOM      6  C   UNL     1     -35.411   7.324  81.010  1.00  0.00     0.146 A 
ATOM      7  O   UNL     1     -36.886   4.257  82.123  1.00  0.00    -0.285 OA
ATOM      8  C   UNL     1     -35.580   6.149  81.780  1.00  0.00     0.111 A 
ATOM      9  C   UNL     1     -34.331   8.177  81.252  1.00  0.00     0.094 A 
ATOM     10  C   UNL     1     -34.644   5.853  82.800  1.00  0.00     0.134 A 
ATOM     11  C   UNL     1     -33.408   7.878  82.261  1.00  0.00     0.123 A 
ATOM     12  C   UNL     1     -33.568   6.723  83.029  1.00  0.00     0.093 A 
BRANCH   3  13
ATOM     13  C   UNL     1     -38.275   7.381  78.732  1.00  0.00     0.025 A 
ATOM     14  C   UNL     1     -38.114   6.996  77.396  1.00  0.00     0.016 A 
ATOM     15  C   UNL     1     -38.982   7.477  76.415  1.00  0.00     0.051 A 
ATOM     16  C   UNL     1     -40.014   8.362  76.746  1.00  0.00     0.157 A 
ATOM     17  C   UNL     1     -39.292   8.289  79.067  1.00  0.00     0.062 A 
ATOM     18  C   UNL     1     -40.169   8.776  78.090  1.00  0.00     0.158 A 
BRANCH  16  19
ATOM     19  O   UNL     1     -40.852   8.801  75.719  1.00  0.00    -0.504 OA
ATOM     20  H   UNL     1     -40.990   8.304  74.851  1.00  0.00     0.293 HD
ENDBRANCH  16  19
BRANCH  18  21
ATOM     21  O   UNL     1     -41.169   9.663  78.496  1.00  0.00    -0.504 OA
ATOM     22  H   UNL     1     -41.004  10.470  79.079  1.00  0.00     0.293 HD
ENDBRANCH  18  21
ENDBRANCH   3  13
BRANCH  10  23
ATOM     23  O   UNL     1     -34.774   4.706  83.583  1.00  0.00    -0.507 OA
ATOM     24  H   UNL     1     -35.588   4.105  83.517  1.00  0.00     0.293 HD
ENDBRANCH  10  23
BRANCH  11  25
ATOM     25  O   UNL     1     -32.331   8.725  82.508  1.00  0.00    -0.508 OA
ATOM     26  H   UNL     1     -32.268   9.643  82.083  1.00  0.00     0.293 HD
ENDBRANCH  11  25
ENDBRANCH   1   2
BRANCH   1  27
ATOM     27  C   UNL     1     -39.871   4.833  80.716  1.00  0.00     0.339 C 
ATOM     28  C   UNL     1     -40.150   3.534  81.517  1.00  0.00     0.214 C 
ATOM     29  O   UNL     1     -40.878   5.183  79.772  1.00  0.00    -0.332 OA
ATOM     30  C   UNL     1     -41.632   3.163  81.435  1.00  0.00     0.180 C 
ATOM     31  C   UNL     1     -41.437   4.089  79.052  1.00  0.00     0.179 C 
ATOM     32  C   UNL     1     -42.017   2.963  79.962  1.00  0.00     0.177 C 
BRANCH  28  33
ATOM     33  O   UNL     1     -39.357   2.478  81.033  1.00  0.00    -0.384 OA
ATOM     34  H   UNL     1     -39.203   2.652  80.068  1.00  0.00     0.211 HD
ENDBRANCH  28  33
BRANCH  30  35
ATOM     35  O   UNL     1     -42.402   4.186  82.017  1.00  0.00    -0.387 OA
ATOM     36  H   UNL     1     -42.141   4.238  82.974  1.00  0.00     0.211 HD
ENDBRANCH  30  35
BRANCH  31  37
ATOM     37  C   UNL     1     -40.477   3.545  77.981  1.00  0.00     0.191 C 
BRANCH  37  38
ATOM     38  O   UNL     1     -40.170   2.207  78.253  1.00  0.00    -0.394 OA
ATOM     39  H   UNL     1     -40.222   2.107  79.240  1.00  0.00     0.210 HD
ENDBRANCH  37  38
ENDBRANCH  31  37
BRANCH  32  40
ATOM     40  O   UNL     1     -43.417   2.904  79.849  1.00  0.00    -0.387 OA
ATOM     41  H   UNL     1     -43.770   2.711  80.757  1.00  0.00     0.211 HD
ENDBRANCH  32  40
ENDBRANCH   1  27
TORSDOF 12
ENDMDL
MODEL 6
REMARK VINA RESULT:    -6.172      2.617      7.086
REMARK INTER + INTRA:         -10.619
REMARK INTER:                  -9.148
REMARK INTRA:                  -1.471
REMARK UNBOUND:                -1.560
REMARK SMILES O=c1c(O[C@H]2O[C@@H](CO)[C@H](O)[C@H](O)[C@H]2O)c(-c2ccc(O)c(O)c2)oc2cc(O)cc(O)c12
REMARK SMILES IDX 4 1 3 2 16 3 25 4 2 5 26 6 1 7 33 8 27 9 31 10 28 11 30 12
REMARK SMILES IDX 17 13 18 14 19 15 20 16 24 17 22 18 21 19 23 21 32 23 29 25
REMARK SMILES IDX 5 27 14 28 6 29 12 30 7 31 10 32 15 33 13 35 8 37 9 38 11 40
REMARK H PARENT 21 20 23 22 32 24 29 26 15 34 13 36 9 39 11 41
REMARK Flexibility Score: inf
ROOT
ATOM      1  O   UNL     1     -39.544   5.515  80.728  1.00  0.00    -0.454 OA
ENDROOT
BRANCH   1   2
ATOM      2  C   UNL     1     -38.313   6.166  80.900  1.00  0.00     0.214 A 
ATOM      3  C   UNL     1     -37.906   7.217  80.051  1.00  0.00     0.180 A 
ATOM      4  O   UNL     1     -36.693   7.743  80.182  1.00  0.00    -0.452 OA
ATOM      5  C   UNL     1     -37.454   5.762  81.928  1.00  0.00     0.239 A 
ATOM      6  C   UNL     1     -35.831   7.361  81.118  1.00  0.00     0.146 A 
ATOM      7  O   UNL     1     -37.828   4.860  82.723  1.00  0.00    -0.285 OA
ATOM      8  C   UNL     1     -36.181   6.355  82.050  1.00  0.00     0.111 A 
ATOM      9  C   UNL     1     -34.576   7.973  81.179  1.00  0.00     0.094 A 
ATOM     10  C   UNL     1     -35.245   5.983  83.046  1.00  0.00     0.134 A 
ATOM     11  C   UNL     1     -33.656   7.599  82.164  1.00  0.00     0.123 A 
ATOM     12  C   UNL     1     -33.992   6.611  83.092  1.00  0.00     0.093 A 
BRANCH   3  13
ATOM     13  C   UNL     1     -38.801   7.782  79.021  1.00  0.00     0.025 A 
ATOM     14  C   UNL     1     -39.824   8.663  79.394  1.00  0.00     0.016 A 
ATOM     15  C   UNL     1     -40.688   9.185  78.431  1.00  0.00     0.051 A 
ATOM     16  C   UNL     1     -40.559   8.826  77.084  1.00  0.00     0.157 A 
ATOM     17  C   UNL     1     -38.682   7.397  77.677  1.00  0.00     0.062 A 
ATOM     18  C   UNL     1     -39.544   7.917  76.703  1.00  0.00     0.158 A 
BRANCH  16  19
ATOM     19  O   UNL     1     -41.451   9.389  76.170  1.00  0.00    -0.504 OA
ATOM     20  H   UNL     1     -41.176  10.006  75.419  1.00  0.00     0.293 HD
ENDBRANCH  16  19
BRANCH  18  21
ATOM     21  O   UNL     1     -39.357   7.504  75.381  1.00  0.00    -0.504 OA
ATOM     22  H   UNL     1     -38.673   7.905  74.757  1.00  0.00     0.293 HD
ENDBRANCH  18  21
ENDBRANCH   3  13
BRANCH  10  23
ATOM     23  O   UNL     1     -35.551   4.997  83.984  1.00  0.00    -0.507 OA
ATOM     24  H   UNL     1     -34.951   4.815  84.781  1.00  0.00     0.293 HD
ENDBRANCH  10  23
BRANCH  11  25
ATOM     25  O   UNL     1     -32.404   8.207  82.231  1.00  0.00    -0.508 OA
ATOM     26  H   UNL     1     -31.588   7.792  81.796  1.00  0.00     0.293 HD
ENDBRANCH  11  25
ENDBRANCH   1   2
BRANCH   1  27
ATOM     27  C   UNL     1     -39.705   4.395  79.851  1.00  0.00     0.339 C 
ATOM     28  C   UNL     1     -40.727   4.695  78.722  1.00  0.00     0.214 C 
ATOM     29  O   UNL     1     -39.972   3.214  80.603  1.00  0.00    -0.332 OA
ATOM     30  C   UNL     1     -41.531   3.439  78.382  1.00  0.00     0.180 C 
ATOM     31  C   UNL     1     -41.345   2.985  80.899  1.00  0.00     0.179 C 
ATOM     32  C   UNL     1     -42.268   2.959  79.641  1.00  0.00     0.177 C 
BRANCH  28  33
ATOM     33  O   UNL     1     -41.590   5.736  79.105  1.00  0.00    -0.384 OA
ATOM     34  H   UNL     1     -41.043   6.394  79.608  1.00  0.00     0.211 HD
ENDBRANCH  28  33
BRANCH  30  35
ATOM     35  O   UNL     1     -40.662   2.443  77.904  1.00  0.00    -0.387 OA
ATOM     36  H   UNL     1     -39.832   2.495  78.446  1.00  0.00     0.211 HD
ENDBRANCH  30  35
BRANCH  31  37
ATOM     37  C   UNL     1     -41.870   3.927  81.996  1.00  0.00     0.191 C 
BRANCH  37  38
ATOM     38  O   UNL     1     -43.261   3.811  82.096  1.00  0.00    -0.394 OA
ATOM     39  H   UNL     1     -43.512   4.229  82.960  1.00  0.00     0.210 HD
ENDBRANCH  37  38
ENDBRANCH  31  37
BRANCH  32  40
ATOM     40  O   UNL     1     -42.775   1.666  79.423  1.00  0.00    -0.387 OA
ATOM     41  H   UNL     1     -43.613   1.772  78.900  1.00  0.00     0.211 HD
ENDBRANCH  32  40
ENDBRANCH   1  27
TORSDOF 12
ENDMDL
MODEL 7
REMARK VINA RESULT:    -6.160      2.767      4.908
REMARK INTER + INTRA:         -10.601
REMARK INTER:                  -9.157
REMARK INTRA:                  -1.444
REMARK UNBOUND:                -1.560
REMARK SMILES O=c1c(O[C@H]2O[C@@H](CO)[C@H](O)[C@H](O)[C@H]2O)c(-c2ccc(O)c(O)c2)oc2cc(O)cc(O)c12
REMARK SMILES IDX 4 1 3 2 16 3 25 4 2 5 26 6 1 7 33 8 27 9 31 10 28 11 30 12
REMARK SMILES IDX 17 13 18 14 19 15 20 16 24 17 22 18 21 19 23 21 32 23 29 25
REMARK SMILES IDX 5 27 14 28 6 29 12 30 7 31 10 32 15 33 13 35 8 37 9 38 11 40
REMARK H PARENT 21 20 23 22 32 24 29 26 15 34 13 36 9 39 11 41
REMARK Flexibility Score: inf
ROOT
ATOM      1  O   UNL     1     -36.975   5.653  79.544  1.00  0.00    -0.454 OA
ENDROOT
BRANCH   1   2
ATOM      2  C   UNL     1     -38.123   5.134  80.163  1.00  0.00     0.214 A 
ATOM      3  C   UNL     1     -39.415   5.590  79.827  1.00  0.00     0.180 A 
ATOM      4  O   UNL     1     -40.470   5.147  80.503  1.00  0.00    -0.452 OA
ATOM      5  C   UNL     1     -37.992   4.149  81.147  1.00  0.00     0.239 A 
ATOM      6  C   UNL     1     -40.386   4.242  81.473  1.00  0.00     0.146 A 
ATOM      7  O   UNL     1     -36.848   3.698  81.418  1.00  0.00    -0.285 OA
ATOM      8  C   UNL     1     -39.135   3.687  81.832  1.00  0.00     0.111 A 
ATOM      9  C   UNL     1     -41.552   3.836  82.128  1.00  0.00     0.094 A 
ATOM     10  C   UNL     1     -39.082   2.712  82.857  1.00  0.00     0.134 A 
ATOM     11  C   UNL     1     -41.492   2.873  83.142  1.00  0.00     0.123 A 
ATOM     12  C   UNL     1     -40.263   2.316  83.501  1.00  0.00     0.093 A 
BRANCH   3  13
ATOM     13  C   UNL     1     -39.648   6.536  78.719  1.00  0.00     0.025 A 
ATOM     14  C   UNL     1     -39.184   6.233  77.433  1.00  0.00     0.016 A 
ATOM     15  C   UNL     1     -39.380   7.131  76.384  1.00  0.00     0.051 A 
ATOM     16  C   UNL     1     -40.026   8.354  76.601  1.00  0.00     0.157 A 
ATOM     17  C   UNL     1     -40.273   7.772  78.950  1.00  0.00     0.062 A 
ATOM     18  C   UNL     1     -40.476   8.680  77.903  1.00  0.00     0.158 A 
BRANCH  16  19
ATOM     19  O   UNL     1     -40.197   9.206  75.508  1.00  0.00    -0.504 OA
ATOM     20  H   UNL     1     -40.262   8.890  74.550  1.00  0.00     0.293 HD
ENDBRANCH  16  19
BRANCH  18  21
ATOM     21  O   UNL     1     -41.121   9.883  78.199  1.00  0.00    -0.504 OA
ATOM     22  H   UNL     1     -41.980  10.184  77.764  1.00  0.00     0.293 HD
ENDBRANCH  18  21
ENDBRANCH   3  13
BRANCH  10  23
ATOM     23  O   UNL     1     -37.869   2.139  83.240  1.00  0.00    -0.507 OA
ATOM     24  H   UNL     1     -37.335   2.495  84.025  1.00  0.00     0.293 HD
ENDBRANCH  10  23
BRANCH  11  25
ATOM     25  O   UNL     1     -42.651   2.463  83.798  1.00  0.00    -0.508 OA
ATOM     26  H   UNL     1     -42.720   2.471  84.809  1.00  0.00     0.293 HD
ENDBRANCH  11  25
ENDBRANCH   1   2
BRANCH   1  27
ATOM     27  C   UNL     1     -36.393   6.903  79.929  1.00  0.00     0.339 C 
ATOM     28  C   UNL     1     -35.836   7.676  78.704  1.00  0.00     0.214 C 
ATOM     29  O   UNL     1     -35.461   6.707  80.989  1.00  0.00    -0.332 OA
ATOM     30  C   UNL     1     -34.563   8.434  79.084  1.00  0.00     0.180 C 
ATOM     31  C   UNL     1     -34.135   6.393  80.575  1.00  0.00     0.179 C 
ATOM     32  C   UNL     1     -33.516   7.431  79.590  1.00  0.00     0.177 C 
BRANCH  28  33
ATOM     33  O   UNL     1     -35.577   6.793  77.642  1.00  0.00    -0.384 OA
ATOM     34  H   UNL     1     -34.622   6.531  77.710  1.00  0.00     0.211 HD
ENDBRANCH  28  33
BRANCH  30  35
ATOM     35  O   UNL     1     -34.864   9.385  80.076  1.00  0.00    -0.387 OA
ATOM     36  H   UNL     1     -33.999   9.709  80.440  1.00  0.00     0.211 HD
ENDBRANCH  30  35
BRANCH  31  37
ATOM     37  C   UNL     1     -34.013   4.948  80.062  1.00  0.00     0.191 C 
BRANCH  37  38
ATOM     38  O   UNL     1     -34.021   4.058  81.142  1.00  0.00    -0.394 OA
ATOM     39  H   UNL     1     -34.733   3.394  80.948  1.00  0.00     0.210 HD
ENDBRANCH  37  38
ENDBRANCH  31  37
BRANCH  32  40
ATOM     40  O   UNL     1     -32.459   8.128  80.203  1.00  0.00    -0.387 OA
ATOM     41  H   UNL     1     -32.314   8.954  79.670  1.00  0.00     0.211 HD
ENDBRANCH  32  40
ENDBRANCH   1  27
TORSDOF 12
ENDMDL
MODEL 8
REMARK VINA RESULT:    -6.048      2.914      5.433
REMARK INTER + INTRA:         -10.437
REMARK INTER:                  -8.839
REMARK INTRA:                  -1.598
REMARK UNBOUND:                -1.560
REMARK SMILES O=c1c(O[C@H]2O[C@@H](CO)[C@H](O)[C@H](O)[C@H]2O)c(-c2ccc(O)c(O)c2)oc2cc(O)cc(O)c12
REMARK SMILES IDX 4 1 3 2 16 3 25 4 2 5 26 6 1 7 33 8 27 9 31 10 28 11 30 12
REMARK SMILES IDX 17 13 18 14 19 15 20 16 24 17 22 18 21 19 23 21 32 23 29 25
REMARK SMILES IDX 5 27 14 28 6 29 12 30 7 31 10 32 15 33 13 35 8 37 9 38 11 40
REMARK H PARENT 21 20 23 22 32 24 29 26 15 34 13 36 9 39 11 41
REMARK Flexibility Score: inf
ROOT
ATOM      1  O   UNL     1     -38.731   6.767  79.964  1.00  0.00    -0.454 OA
ENDROOT
BRANCH   1   2
ATOM      2  C   UNL     1     -38.621   5.648  80.803  1.00  0.00     0.214 A 
ATOM      3  C   UNL     1     -37.379   5.024  81.046  1.00  0.00     0.180 A 
ATOM      4  O   UNL     1     -37.328   3.909  81.766  1.00  0.00    -0.452 OA
ATOM      5  C   UNL     1     -39.767   5.123  81.410  1.00  0.00     0.239 A 
ATOM      6  C   UNL     1     -38.398   3.353  82.326  1.00  0.00     0.146 A 
ATOM      7  O   UNL     1     -40.873   5.702  81.242  1.00  0.00    -0.285 OA
ATOM      8  C   UNL     1     -39.673   3.949  82.184  1.00  0.00     0.111 A 
ATOM      9  C   UNL     1     -38.246   2.179  83.068  1.00  0.00     0.094 A 
ATOM     10  C   UNL     1     -40.790   3.341  82.808  1.00  0.00     0.134 A 
ATOM     11  C   UNL     1     -39.354   1.583  83.681  1.00  0.00     0.123 A 
ATOM     12  C   UNL     1     -40.617   2.164  83.551  1.00  0.00     0.093 A 
BRANCH   3  13
ATOM     13  C   UNL     1     -36.110   5.585  80.543  1.00  0.00     0.025 A 
ATOM     14  C   UNL     1     -35.382   4.896  79.566  1.00  0.00     0.016 A 
ATOM     15  C   UNL     1     -34.170   5.407  79.100  1.00  0.00     0.051 A 
ATOM     16  C   UNL     1     -33.655   6.604  79.612  1.00  0.00     0.157 A 
ATOM     17  C   UNL     1     -35.587   6.772  81.080  1.00  0.00     0.062 A 
ATOM     18  C   UNL     1     -34.372   7.294  80.618  1.00  0.00     0.158 A 
BRANCH  16  19
ATOM     19  O   UNL     1     -32.440   7.065  79.099  1.00  0.00    -0.504 OA
ATOM     20  H   UNL     1     -31.557   6.592  79.228  1.00  0.00     0.293 HD
ENDBRANCH  16  19
BRANCH  18  21
ATOM     21  O   UNL     1     -33.919   8.488  81.183  1.00  0.00    -0.504 OA
ATOM     22  H   UNL     1     -33.465   8.550  82.083  1.00  0.00     0.293 HD
ENDBRANCH  18  21
ENDBRANCH   3  13
BRANCH  10  23
ATOM     23  O   UNL     1     -42.065   3.896  82.695  1.00  0.00    -0.507 OA
ATOM     24  H   UNL     1     -42.900   3.321  82.703  1.00  0.00     0.293 HD
ENDBRANCH  10  23
BRANCH  11  25
ATOM     25  O   UNL     1     -39.209   0.413  84.423  1.00  0.00    -0.508 OA
ATOM     26  H   UNL     1     -39.992  -0.008  84.909  1.00  0.00     0.293 HD
ENDBRANCH  11  25
ENDBRANCH   1   2
BRANCH   1  27
ATOM     27  C   UNL     1     -39.047   6.656  78.571  1.00  0.00     0.339 C 
ATOM     28  C   UNL     1     -38.168   7.600  77.709  1.00  0.00     0.214 C 
ATOM     29  O   UNL     1     -40.451   6.794  78.371  1.00  0.00    -0.332 OA
ATOM     30  C   UNL     1     -38.973   8.149  76.529  1.00  0.00     0.180 C 
ATOM     31  C   UNL     1     -40.908   8.132  78.210  1.00  0.00     0.179 C 
ATOM     32  C   UNL     1     -40.192   8.913  77.066  1.00  0.00     0.177 C 
BRANCH  28  33
ATOM     33  O   UNL     1     -37.669   8.657  78.490  1.00  0.00    -0.384 OA
ATOM     34  H   UNL     1     -36.749   8.404  78.764  1.00  0.00     0.211 HD
ENDBRANCH  28  33
BRANCH  30  35
ATOM     35  O   UNL     1     -39.376   7.084  75.704  1.00  0.00    -0.387 OA
ATOM     36  H   UNL     1     -39.608   6.325  76.300  1.00  0.00     0.211 HD
ENDBRANCH  30  35
BRANCH  31  37
ATOM     37  C   UNL     1     -40.917   8.908  79.538  1.00  0.00     0.191 C 
BRANCH  37  38
ATOM     38  O   UNL     1     -40.088  10.031  79.437  1.00  0.00    -0.394 OA
ATOM     39  H   UNL     1     -40.692  10.813  79.346  1.00  0.00     0.210 HD
ENDBRANCH  37  38
ENDBRANCH  31  37
BRANCH  32  40
ATOM     40  O   UNL     1     -41.082   9.174  76.010  1.00  0.00    -0.387 OA
ATOM     41  H   UNL     1     -41.965   9.370  76.422  1.00  0.00     0.211 HD
ENDBRANCH  32  40
ENDBRANCH   1  27
TORSDOF 12
ENDMDL
MODEL 9
REMARK VINA RESULT:    -5.830      2.478      6.767
REMARK INTER + INTRA:         -10.116
REMARK INTER:                  -8.176
REMARK INTRA:                  -1.940
REMARK UNBOUND:                -1.560
REMARK SMILES O=c1c(O[C@H]2O[C@@H](CO)[C@H](O)[C@H](O)[C@H]2O)c(-c2ccc(O)c(O)c2)oc2cc(O)cc(O)c12
REMARK SMILES IDX 4 1 3 2 16 3 25 4 2 5 26 6 1 7 33 8 27 9 31 10 28 11 30 12
REMARK SMILES IDX 17 13 18 14 19 15 20 16 24 17 22 18 21 19 23 21 32 23 29 25
REMARK SMILES IDX 5 27 14 28 6 29 12 30 7 31 10 32 15 33 13 35 8 37 9 38 11 40
REMARK H PARENT 21 20 23 22 32 24 29 26 15 34 13 36 9 39 11 41
REMARK Flexibility Score: inf
ROOT
ATOM      1  O   UNL     1     -37.717   6.278  81.628  1.00  0.00    -0.454 OA
ENDROOT
BRANCH   1   2
ATOM      2  C   UNL     1     -36.486   6.913  81.402  1.00  0.00     0.214 A 
ATOM      3  C   UNL     1     -36.144   7.433  80.136  1.00  0.00     0.180 A 
ATOM      4  O   UNL     1     -34.932   7.938  79.933  1.00  0.00    -0.452 OA
ATOM      5  C   UNL     1     -35.564   7.027  82.447  1.00  0.00     0.239 A 
ATOM      6  C   UNL     1     -34.011   8.028  80.887  1.00  0.00     0.146 A 
ATOM      7  O   UNL     1     -35.879   6.612  83.594  1.00  0.00    -0.285 OA
ATOM      8  C   UNL     1     -34.294   7.586  82.202  1.00  0.00     0.111 A 
ATOM      9  C   UNL     1     -32.763   8.576  80.580  1.00  0.00     0.094 A 
ATOM     10  C   UNL     1     -33.297   7.712  83.200  1.00  0.00     0.134 A 
ATOM     11  C   UNL     1     -31.782   8.696  81.571  1.00  0.00     0.123 A 
ATOM     12  C   UNL     1     -32.051   8.267  82.872  1.00  0.00     0.093 A 
BRANCH   3  13
ATOM     13  C   UNL     1     -37.104   7.461  79.015  1.00  0.00     0.025 A 
ATOM     14  C   UNL     1     -37.045   6.477  78.021  1.00  0.00     0.016 A 
ATOM     15  C   UNL     1     -37.934   6.508  76.946  1.00  0.00     0.051 A 
ATOM     16  C   UNL     1     -38.885   7.528  76.834  1.00  0.00     0.157 A 
ATOM     17  C   UNL     1     -38.037   8.503  78.896  1.00  0.00     0.062 A 
ATOM     18  C   UNL     1     -38.936   8.542  77.821  1.00  0.00     0.158 A 
BRANCH  16  19
ATOM     19  O   UNL     1     -39.750   7.499  75.738  1.00  0.00    -0.504 OA
ATOM     20  H   UNL     1     -40.633   7.988  75.702  1.00  0.00     0.293 HD
ENDBRANCH  16  19
BRANCH  18  21
ATOM     21  O   UNL     1     -39.850   9.596  77.774  1.00  0.00    -0.504 OA
ATOM     22  H   UNL     1     -39.693  10.498  78.200  1.00  0.00     0.293 HD
ENDBRANCH  18  21
ENDBRANCH   3  13
BRANCH  10  23
ATOM     23  O   UNL     1     -33.535   7.290  84.508  1.00  0.00    -0.507 OA
ATOM     24  H   UNL     1     -32.861   6.730  85.019  1.00  0.00     0.293 HD
ENDBRANCH  10  23
BRANCH  11  25
ATOM     25  O   UNL     1     -30.536   9.243  81.271  1.00  0.00    -0.508 OA
ATOM     26  H   UNL     1     -30.098   9.929  81.875  1.00  0.00     0.293 HD
ENDBRANCH  11  25
ENDBRANCH   1   2
BRANCH   1  27
ATOM     27  C   UNL     1     -37.921   4.883  81.376  1.00  0.00     0.339 C 
ATOM     28  C   UNL     1     -39.097   4.646  80.392  1.00  0.00     0.214 C 
ATOM     29  O   UNL     1     -38.013   4.168  82.605  1.00  0.00    -0.332 OA
ATOM     30  C   UNL     1     -39.859   3.374  80.767  1.00  0.00     0.180 C 
ATOM     31  C   UNL     1     -39.320   4.100  83.166  1.00  0.00     0.179 C 
ATOM     32  C   UNL     1     -40.395   3.514  82.199  1.00  0.00     0.177 C 
BRANCH  28  33
ATOM     33  O   UNL     1     -39.967   5.751  80.391  1.00  0.00    -0.384 OA
ATOM     34  H   UNL     1     -39.423   6.545  80.148  1.00  0.00     0.211 HD
ENDBRANCH  28  33
BRANCH  30  35
ATOM     35  O   UNL     1     -38.998   2.266  80.663  1.00  0.00    -0.387 OA
ATOM     36  H   UNL     1     -38.073   2.622  80.598  1.00  0.00     0.211 HD
ENDBRANCH  30  35
BRANCH  31  37
ATOM     37  C   UNL     1     -39.755   5.436  83.791  1.00  0.00     0.191 C 
BRANCH  37  38
ATOM     38  O   UNL     1     -38.684   6.006  84.488  1.00  0.00    -0.394 OA
ATOM     39  H   UNL     1     -38.123   6.462  83.808  1.00  0.00     0.210 HD
ENDBRANCH  37  38
ENDBRANCH  31  37
BRANCH  32  40
ATOM     40  O   UNL     1     -40.843   2.263  82.656  1.00  0.00    -0.387 OA
ATOM     41  H   UNL     1     -41.663   2.046  82.138  1.00  0.00     0.211 HD
ENDBRANCH  32  40
ENDBRANCH   1  27
TORSDOF 12
ENDMDL
