MODEL 1
REMARK VINA RESULT:    -3.700      0.000      0.000
REMARK INTER + INTRA:          -8.855
REMARK INTER:                  -6.728
REMARK INTRA:                  -2.126
REMARK UNBOUND:                -2.126
REMARK SMILES CCCCCCCCCCCCCCCC(=O)[O-]
REMARK SMILES IDX 9 1 10 2 11 3 12 4 13 5 14 6 15 7 16 8 17 9 18 10 8 11 7 12
REMARK SMILES IDX 6 13 5 14 4 15 3 16 2 17 1 18
REMARK H PARENT
REMARK Flexibility Score: inf
ROOT
ATOM      1  C   UNL     1      -5.166  30.606  46.615  1.00  0.00     0.000 C 
ENDROOT
BRANCH   1   2
ATOM      2  C   UNL     1      -4.455  29.321  46.166  1.00  0.00     0.000 C 
BRANCH   2   3
ATOM      3  C   UNL     1      -5.185  28.077  46.695  1.00  0.00     0.000 C 
BRANCH   3   4
ATOM      4  C   UNL     1      -5.804  27.221  45.575  1.00  0.00     0.000 C 
BRANCH   4   5
ATOM      5  C   UNL     1      -7.343  27.222  45.530  1.00  0.00     0.000 C 
BRANCH   5   6
ATOM      6  C   UNL     1      -7.910  28.176  44.464  1.00  0.00     0.006 C 
BRANCH   6   7
ATOM      7  C   UNL     1      -9.440  28.273  44.529  1.00  0.00     0.053 C 
BRANCH   7   8
ATOM      8  C   UNL     1     -10.096  27.502  43.425  1.00  0.00     0.041 C 
ATOM      9  O   UNL     1      -9.402  27.016  42.493  1.00  0.00    -0.550 OA
ATOM     10  O   UNL     1     -11.470  27.296  43.439  1.00  0.00    -0.550 OA
ENDBRANCH   7   8
ENDBRANCH   6   7
ENDBRANCH   5   6
ENDBRANCH   4   5
ENDBRANCH   3   4
ENDBRANCH   2   3
ENDBRANCH   1   2
BRANCH   1  11
ATOM     11  C   UNL     1      -6.451  30.328  47.414  1.00  0.00     0.000 C 
BRANCH  11  12
ATOM     12  C   UNL     1      -7.695  31.096  46.926  1.00  0.00    -0.000 C 
BRANCH  12  13
ATOM     13  C   UNL     1      -7.405  32.082  45.775  1.00  0.00    -0.000 C 
BRANCH  13  14
ATOM     14  C   UNL     1      -7.828  33.521  46.120  1.00  0.00    -0.000 C 
BRANCH  14  15
ATOM     15  C   UNL     1      -7.110  34.064  47.366  1.00  0.00    -0.000 C 
BRANCH  15  16
ATOM     16  C   UNL     1      -5.600  34.239  47.145  1.00  0.00    -0.000 C 
BRANCH  16  17
ATOM     17  C   UNL     1      -4.815  33.867  48.407  1.00  0.00    -0.003 C 
ATOM     18  C   UNL     1      -5.751  33.588  49.578  1.00  0.00     0.004 C 
ENDBRANCH  16  17
ENDBRANCH  15  16
ENDBRANCH  14  15
ENDBRANCH  13  14
ENDBRANCH  12  13
ENDBRANCH  11  12
ENDBRANCH   1  11
TORSDOF 14
ENDMDL
MODEL 2
REMARK VINA RESULT:    -3.506     15.555     18.367
REMARK INTER + INTRA:          -8.502
REMARK INTER:                  -7.621
REMARK INTRA:                  -0.881
REMARK UNBOUND:                -2.126
REMARK SMILES CCCCCCCCCCCCCCCC(=O)[O-]
REMARK SMILES IDX 9 1 10 2 11 3 12 4 13 5 14 6 15 7 16 8 17 9 18 10 8 11 7 12
REMARK SMILES IDX 6 13 5 14 4 15 3 16 2 17 1 18
REMARK H PARENT
REMARK Flexibility Score: inf
ROOT
ATOM      1  C   UNL     1     -21.827  21.773  36.867  1.00  0.00     0.000 C 
ENDROOT
BRANCH   1   2
ATOM      2  C   UNL     1     -22.954  21.058  37.626  1.00  0.00     0.000 C 
BRANCH   2   3
ATOM      3  C   UNL     1     -22.937  21.435  39.115  1.00  0.00     0.000 C 
BRANCH   3   4
ATOM      4  C   UNL     1     -21.562  21.940  39.592  1.00  0.00     0.000 C 
BRANCH   4   5
ATOM      5  C   UNL     1     -21.367  21.952  41.118  1.00  0.00     0.000 C 
BRANCH   5   6
ATOM      6  C   UNL     1     -20.506  20.781  41.622  1.00  0.00     0.006 C 
BRANCH   6   7
ATOM      7  C   UNL     1     -19.173  21.254  42.216  1.00  0.00     0.053 C 
BRANCH   7   8
ATOM      8  C   UNL     1     -18.010  20.495  41.655  1.00  0.00     0.041 C 
ATOM      9  O   UNL     1     -16.935  21.092  41.387  1.00  0.00    -0.550 OA
ATOM     10  O   UNL     1     -18.104  19.123  41.456  1.00  0.00    -0.550 OA
ENDBRANCH   7   8
ENDBRANCH   6   7
ENDBRANCH   5   6
ENDBRANCH   4   5
ENDBRANCH   3   4
ENDBRANCH   2   3
ENDBRANCH   1   2
BRANCH   1  11
ATOM     11  C   UNL     1     -21.873  21.518  35.351  1.00  0.00     0.000 C 
BRANCH  11  12
ATOM     12  C   UNL     1     -20.686  22.103  34.560  1.00  0.00    -0.000 C 
BRANCH  12  13
ATOM     13  C   UNL     1     -20.272  23.517  35.018  1.00  0.00    -0.000 C 
BRANCH  13  14
ATOM     14  C   UNL     1     -20.066  24.476  33.831  1.00  0.00    -0.000 C 
BRANCH  14  15
ATOM     15  C   UNL     1     -18.610  24.956  33.706  1.00  0.00    -0.000 C 
BRANCH  15  16
ATOM     16  C   UNL     1     -17.843  24.221  32.597  1.00  0.00    -0.000 C 
BRANCH  16  17
ATOM     17  C   UNL     1     -16.690  23.397  33.181  1.00  0.00    -0.003 C 
ATOM     18  C   UNL     1     -17.114  21.953  33.430  1.00  0.00     0.004 C 
ENDBRANCH  16  17
ENDBRANCH  15  16
ENDBRANCH  14  15
ENDBRANCH  13  14
ENDBRANCH  12  13
ENDBRANCH  11  12
ENDBRANCH   1  11
TORSDOF 14
ENDMDL
MODEL 3
REMARK VINA RESULT:    -3.495     15.661     17.414
REMARK INTER + INTRA:          -8.481
REMARK INTER:                  -7.441
REMARK INTRA:                  -1.040
REMARK UNBOUND:                -2.126
REMARK SMILES CCCCCCCCCCCCCCCC(=O)[O-]
REMARK SMILES IDX 9 1 10 2 11 3 12 4 13 5 14 6 15 7 16 8 17 9 18 10 8 11 7 12
REMARK SMILES IDX 6 13 5 14 4 15 3 16 2 17 1 18
REMARK H PARENT
REMARK Flexibility Score: inf
ROOT
ATOM      1  C   UNL     1     -17.680  19.759  43.084  1.00  0.00     0.000 C 
ENDROOT
BRANCH   1   2
ATOM      2  C   UNL     1     -18.759  20.852  43.081  1.00  0.00     0.000 C 
BRANCH   2   3
ATOM      3  C   UNL     1     -20.120  20.276  42.662  1.00  0.00     0.000 C 
BRANCH   3   4
ATOM      4  C   UNL     1     -20.615  20.824  41.311  1.00  0.00     0.000 C 
BRANCH   4   5
ATOM      5  C   UNL     1     -20.056  22.205  40.925  1.00  0.00     0.000 C 
BRANCH   5   6
ATOM      6  C   UNL     1     -20.551  22.689  39.550  1.00  0.00     0.006 C 
BRANCH   6   7
ATOM      7  C   UNL     1     -21.900  22.066  39.168  1.00  0.00     0.053 C 
BRANCH   7   8
ATOM      8  C   UNL     1     -21.976  21.754  37.705  1.00  0.00     0.041 C 
ATOM      9  O   UNL     1     -22.739  20.841  37.291  1.00  0.00    -0.550 OA
ATOM     10  O   UNL     1     -21.226  22.489  36.795  1.00  0.00    -0.550 OA
ENDBRANCH   7   8
ENDBRANCH   6   7
ENDBRANCH   5   6
ENDBRANCH   4   5
ENDBRANCH   3   4
ENDBRANCH   2   3
ENDBRANCH   1   2
BRANCH   1  11
ATOM     11  C   UNL     1     -17.122  19.467  41.680  1.00  0.00     0.000 C 
BRANCH  11  12
ATOM     12  C   UNL     1     -17.520  18.097  41.098  1.00  0.00    -0.000 C 
BRANCH  12  13
ATOM     13  C   UNL     1     -16.579  16.947  41.517  1.00  0.00    -0.000 C 
BRANCH  13  14
ATOM     14  C   UNL     1     -16.020  16.180  40.304  1.00  0.00    -0.000 C 
BRANCH  14  15
ATOM     15  C   UNL     1     -15.432  17.115  39.235  1.00  0.00    -0.000 C 
BRANCH  15  16
ATOM     16  C   UNL     1     -13.967  16.789  38.911  1.00  0.00    -0.000 C 
BRANCH  16  17
ATOM     17  C   UNL     1     -13.355  15.887  39.988  1.00  0.00    -0.003 C 
ATOM     18  C   UNL     1     -11.944  16.339  40.351  1.00  0.00     0.004 C 
ENDBRANCH  16  17
ENDBRANCH  15  16
ENDBRANCH  14  15
ENDBRANCH  13  14
ENDBRANCH  12  13
ENDBRANCH  11  12
ENDBRANCH   1  11
TORSDOF 14
ENDMDL
MODEL 4
REMARK VINA RESULT:    -3.487     15.712     18.266
REMARK INTER + INTRA:          -8.467
REMARK INTER:                  -7.622
REMARK INTRA:                  -0.844
REMARK UNBOUND:                -2.126
REMARK SMILES CCCCCCCCCCCCCCCC(=O)[O-]
REMARK SMILES IDX 9 1 10 2 11 3 12 4 13 5 14 6 15 7 16 8 17 9 18 10 8 11 7 12
REMARK SMILES IDX 6 13 5 14 4 15 3 16 2 17 1 18
REMARK H PARENT
REMARK Flexibility Score: inf
ROOT
ATOM      1  C   UNL     1     -22.296  21.367  38.013  1.00  0.00     0.000 C 
ENDROOT
BRANCH   1   2
ATOM      2  C   UNL     1     -22.468  21.283  36.489  1.00  0.00     0.000 C 
BRANCH   2   3
ATOM      3  C   UNL     1     -21.580  22.316  35.779  1.00  0.00     0.000 C 
BRANCH   3   4
ATOM      4  C   UNL     1     -20.526  21.673  34.860  1.00  0.00     0.000 C 
BRANCH   4   5
ATOM      5  C   UNL     1     -19.408  22.620  34.390  1.00  0.00     0.000 C 
BRANCH   5   6
ATOM      6  C   UNL     1     -19.655  23.185  32.980  1.00  0.00     0.006 C 
BRANCH   6   7
ATOM      7  C   UNL     1     -19.654  24.719  32.963  1.00  0.00     0.053 C 
BRANCH   7   8
ATOM      8  C   UNL     1     -18.406  25.270  32.343  1.00  0.00     0.041 C 
ATOM      9  O   UNL     1     -17.386  24.542  32.220  1.00  0.00    -0.550 OA
ATOM     10  O   UNL     1     -18.379  26.577  31.875  1.00  0.00    -0.550 OA
ENDBRANCH   7   8
ENDBRANCH   6   7
ENDBRANCH   5   6
ENDBRANCH   4   5
ENDBRANCH   3   4
ENDBRANCH   2   3
ENDBRANCH   1   2
BRANCH   1  11
ATOM     11  C   UNL     1     -21.379  22.524  38.446  1.00  0.00     0.000 C 
BRANCH  11  12
ATOM     12  C   UNL     1     -20.725  22.347  39.830  1.00  0.00    -0.000 C 
BRANCH  12  13
ATOM     13  C   UNL     1     -21.665  21.731  40.888  1.00  0.00    -0.000 C 
BRANCH  13  14
ATOM     14  C   UNL     1     -20.906  20.853  41.900  1.00  0.00    -0.000 C 
BRANCH  14  15
ATOM     15  C   UNL     1     -19.411  20.723  41.565  1.00  0.00    -0.000 C 
BRANCH  15  16
ATOM     16  C   UNL     1     -18.523  20.765  42.817  1.00  0.00    -0.000 C 
BRANCH  16  17
ATOM     17  C   UNL     1     -17.482  19.641  42.788  1.00  0.00    -0.003 C 
ATOM     18  C   UNL     1     -17.682  18.733  41.578  1.00  0.00     0.004 C 
ENDBRANCH  16  17
ENDBRANCH  15  16
ENDBRANCH  14  15
ENDBRANCH  13  14
ENDBRANCH  12  13
ENDBRANCH  11  12
ENDBRANCH   1  11
TORSDOF 14
ENDMDL
MODEL 5
REMARK VINA RESULT:    -3.449      3.920      6.424
REMARK INTER + INTRA:          -8.398
REMARK INTER:                  -6.338
REMARK INTRA:                  -2.060
REMARK UNBOUND:                -2.126
REMARK SMILES CCCCCCCCCCCCCCCC(=O)[O-]
REMARK SMILES IDX 9 1 10 2 11 3 12 4 13 5 14 6 15 7 16 8 17 9 18 10 8 11 7 12
REMARK SMILES IDX 6 13 5 14 4 15 3 16 2 17 1 18
REMARK H PARENT
REMARK Flexibility Score: inf
ROOT
ATOM      1  C   UNL     1      -5.157  28.079  46.537  1.00  0.00     0.000 C 
ENDROOT
BRANCH   1   2
ATOM      2  C   UNL     1      -4.285  29.207  45.965  1.00  0.00     0.000 C 
BRANCH   2   3
ATOM      3  C   UNL     1      -4.896  30.582  46.274  1.00  0.00     0.000 C 
BRANCH   3   4
ATOM      4  C   UNL     1      -5.988  30.524  47.358  1.00  0.00     0.000 C 
BRANCH   4   5
ATOM      5  C   UNL     1      -7.024  31.661  47.299  1.00  0.00     0.000 C 
BRANCH   5   6
ATOM      6  C   UNL     1      -6.388  33.058  47.411  1.00  0.00     0.006 C 
BRANCH   6   7
ATOM      7  C   UNL     1      -5.469  33.179  48.634  1.00  0.00     0.053 C 
BRANCH   7   8
ATOM      8  C   UNL     1      -6.104  33.976  49.732  1.00  0.00     0.041 C 
ATOM      9  O   UNL     1      -6.960  34.859  49.461  1.00  0.00    -0.550 OA
ATOM     10  O   UNL     1      -5.772  33.724  51.057  1.00  0.00    -0.550 OA
ENDBRANCH   7   8
ENDBRANCH   6   7
ENDBRANCH   5   6
ENDBRANCH   4   5
ENDBRANCH   3   4
ENDBRANCH   2   3
ENDBRANCH   1   2
BRANCH   1  11
ATOM     11  C   UNL     1      -5.206  26.842  45.625  1.00  0.00     0.000 C 
BRANCH  11  12
ATOM     12  C   UNL     1      -6.479  26.721  44.765  1.00  0.00    -0.000 C 
BRANCH  12  13
ATOM     13  C   UNL     1      -7.752  27.247  45.463  1.00  0.00    -0.000 C 
BRANCH  13  14
ATOM     14  C   UNL     1      -8.649  28.054  44.507  1.00  0.00    -0.000 C 
BRANCH  14  15
ATOM     15  C   UNL     1      -8.925  29.478  45.017  1.00  0.00    -0.000 C 
BRANCH  15  16
ATOM     16  C   UNL     1      -8.413  30.558  44.052  1.00  0.00    -0.000 C 
BRANCH  16  17
ATOM     17  C   UNL     1      -7.081  30.140  43.419  1.00  0.00    -0.003 C 
ATOM     18  C   UNL     1      -6.384  31.329  42.764  1.00  0.00     0.004 C 
ENDBRANCH  16  17
ENDBRANCH  15  16
ENDBRANCH  14  15
ENDBRANCH  13  14
ENDBRANCH  12  13
ENDBRANCH  11  12
ENDBRANCH   1  11
TORSDOF 14
ENDMDL
MODEL 6
REMARK VINA RESULT:    -3.386      2.335      3.190
REMARK INTER + INTRA:          -8.283
REMARK INTER:                  -5.864
REMARK INTRA:                  -2.419
REMARK UNBOUND:                -2.126
REMARK SMILES CCCCCCCCCCCCCCCC(=O)[O-]
REMARK SMILES IDX 9 1 10 2 11 3 12 4 13 5 14 6 15 7 16 8 17 9 18 10 8 11 7 12
REMARK SMILES IDX 6 13 5 14 4 15 3 16 2 17 1 18
REMARK H PARENT
REMARK Flexibility Score: inf
ROOT
ATOM      1  C   UNL     1      -3.956  31.448  46.547  1.00  0.00     0.000 C 
ENDROOT
BRANCH   1   2
ATOM      2  C   UNL     1      -5.048  30.394  46.311  1.00  0.00     0.000 C 
BRANCH   2   3
ATOM      3  C   UNL     1      -6.176  30.533  47.344  1.00  0.00     0.000 C 
BRANCH   3   4
ATOM      4  C   UNL     1      -7.567  30.219  46.763  1.00  0.00     0.000 C 
BRANCH   4   5
ATOM      5  C   UNL     1      -7.557  29.567  45.368  1.00  0.00     0.000 C 
BRANCH   5   6
ATOM      6  C   UNL     1      -8.036  28.105  45.386  1.00  0.00     0.006 C 
BRANCH   6   7
ATOM      7  C   UNL     1      -6.934  27.129  44.956  1.00  0.00     0.053 C 
BRANCH   7   8
ATOM      8  C   UNL     1      -6.158  26.611  46.129  1.00  0.00     0.041 C 
ATOM      9  O   UNL     1      -5.085  27.171  46.474  1.00  0.00    -0.550 OA
ATOM     10  O   UNL     1      -6.635  25.529  46.857  1.00  0.00    -0.550 OA
ENDBRANCH   7   8
ENDBRANCH   6   7
ENDBRANCH   5   6
ENDBRANCH   4   5
ENDBRANCH   3   4
ENDBRANCH   2   3
ENDBRANCH   1   2
BRANCH   1  11
ATOM     11  C   UNL     1      -3.875  32.486  45.415  1.00  0.00     0.000 C 
BRANCH  11  12
ATOM     12  C   UNL     1      -4.828  32.228  44.231  1.00  0.00    -0.000 C 
BRANCH  12  13
ATOM     13  C   UNL     1      -6.071  33.143  44.224  1.00  0.00    -0.000 C 
BRANCH  13  14
ATOM     14  C   UNL     1      -5.964  34.279  45.257  1.00  0.00    -0.000 C 
BRANCH  14  15
ATOM     15  C   UNL     1      -7.266  34.482  46.048  1.00  0.00    -0.000 C 
BRANCH  15  16
ATOM     16  C   UNL     1      -7.125  34.085  47.525  1.00  0.00    -0.000 C 
BRANCH  16  17
ATOM     17  C   UNL     1      -5.717  34.395  48.044  1.00  0.00    -0.003 C 
ATOM     18  C   UNL     1      -5.443  33.677  49.362  1.00  0.00     0.004 C 
ENDBRANCH  16  17
ENDBRANCH  15  16
ENDBRANCH  14  15
ENDBRANCH  13  14
ENDBRANCH  12  13
ENDBRANCH  11  12
ENDBRANCH   1  11
TORSDOF 14
ENDMDL
MODEL 7
REMARK VINA RESULT:    -3.386     15.643     18.671
REMARK INTER + INTRA:          -8.283
REMARK INTER:                  -7.366
REMARK INTRA:                  -0.917
REMARK UNBOUND:                -2.126
REMARK SMILES CCCCCCCCCCCCCCCC(=O)[O-]
REMARK SMILES IDX 9 1 10 2 11 3 12 4 13 5 14 6 15 7 16 8 17 9 18 10 8 11 7 12
REMARK SMILES IDX 6 13 5 14 4 15 3 16 2 17 1 18
REMARK H PARENT
REMARK Flexibility Score: inf
ROOT
ATOM      1  C   UNL     1     -22.639  21.130  36.777  1.00  0.00     0.000 C 
ENDROOT
BRANCH   1   2
ATOM      2  C   UNL     1     -22.963  21.201  38.276  1.00  0.00     0.000 C 
BRANCH   2   3
ATOM      3  C   UNL     1     -21.848  21.927  39.043  1.00  0.00     0.000 C 
BRANCH   3   4
ATOM      4  C   UNL     1     -22.348  22.611  40.329  1.00  0.00     0.000 C 
BRANCH   4   5
ATOM      5  C   UNL     1     -21.241  23.133  41.262  1.00  0.00     0.000 C 
BRANCH   5   6
ATOM      6  C   UNL     1     -19.841  22.628  40.871  1.00  0.00     0.006 C 
BRANCH   6   7
ATOM      7  C   UNL     1     -19.145  21.898  42.027  1.00  0.00     0.053 C 
BRANCH   7   8
ATOM      8  C   UNL     1     -19.534  20.452  42.088  1.00  0.00     0.041 C 
ATOM      9  O   UNL     1     -18.771  19.570  41.613  1.00  0.00    -0.550 OA
ATOM     10  O   UNL     1     -20.725  20.077  42.696  1.00  0.00    -0.550 OA
ENDBRANCH   7   8
ENDBRANCH   6   7
ENDBRANCH   5   6
ENDBRANCH   4   5
ENDBRANCH   3   4
ENDBRANCH   2   3
ENDBRANCH   1   2
BRANCH   1  11
ATOM     11  C   UNL     1     -21.504  22.084  36.366  1.00  0.00     0.000 C 
BRANCH  11  12
ATOM     12  C   UNL     1     -21.102  22.008  34.879  1.00  0.00    -0.000 C 
BRANCH  12  13
ATOM     13  C   UNL     1     -19.790  22.751  34.553  1.00  0.00    -0.000 C 
BRANCH  13  14
ATOM     14  C   UNL     1     -19.626  23.008  33.043  1.00  0.00    -0.000 C 
BRANCH  14  15
ATOM     15  C   UNL     1     -18.933  24.347  32.745  1.00  0.00    -0.000 C 
BRANCH  15  16
ATOM     16  C   UNL     1     -19.827  25.306  31.944  1.00  0.00    -0.000 C 
BRANCH  16  17
ATOM     17  C   UNL     1     -20.903  25.928  32.840  1.00  0.00    -0.003 C 
ATOM     18  C   UNL     1     -20.280  26.662  34.024  1.00  0.00     0.004 C 
ENDBRANCH  16  17
ENDBRANCH  15  16
ENDBRANCH  14  15
ENDBRANCH  13  14
ENDBRANCH  12  13
ENDBRANCH  11  12
ENDBRANCH   1  11
TORSDOF 14
ENDMDL
MODEL 8
REMARK VINA RESULT:    -3.360      3.876      6.809
REMARK INTER + INTRA:          -8.237
REMARK INTER:                  -6.087
REMARK INTRA:                  -2.150
REMARK UNBOUND:                -2.126
REMARK SMILES CCCCCCCCCCCCCCCC(=O)[O-]
REMARK SMILES IDX 9 1 10 2 11 3 12 4 13 5 14 6 15 7 16 8 17 9 18 10 8 11 7 12
REMARK SMILES IDX 6 13 5 14 4 15 3 16 2 17 1 18
REMARK H PARENT
REMARK Flexibility Score: inf
ROOT
ATOM      1  C   UNL     1      -5.650  29.348  46.913  1.00  0.00     0.000 C 
ENDROOT
BRANCH   1   2
ATOM      2  C   UNL     1      -6.301  30.591  47.536  1.00  0.00     0.000 C 
BRANCH   2   3
ATOM      3  C   UNL     1      -7.683  30.853  46.920  1.00  0.00     0.000 C 
BRANCH   3   4
ATOM      4  C   UNL     1      -7.775  32.212  46.203  1.00  0.00     0.000 C 
BRANCH   4   5
ATOM      5  C   UNL     1      -6.712  33.243  46.623  1.00  0.00     0.000 C 
BRANCH   5   6
ATOM      6  C   UNL     1      -7.295  34.403  47.449  1.00  0.00     0.006 C 
BRANCH   6   7
ATOM      7  C   UNL     1      -6.290  34.950  48.471  1.00  0.00     0.053 C 
BRANCH   7   8
ATOM      8  C   UNL     1      -6.545  34.414  49.847  1.00  0.00     0.041 C 
ATOM      9  O   UNL     1      -7.472  34.892  50.551  1.00  0.00    -0.550 OA
ATOM     10  O   UNL     1      -5.778  33.366  50.340  1.00  0.00    -0.550 OA
ENDBRANCH   7   8
ENDBRANCH   6   7
ENDBRANCH   5   6
ENDBRANCH   4   5
ENDBRANCH   3   4
ENDBRANCH   2   3
ENDBRANCH   1   2
BRANCH   1  11
ATOM     11  C   UNL     1      -4.261  29.636  46.318  1.00  0.00     0.000 C 
BRANCH  11  12
ATOM     12  C   UNL     1      -4.262  30.587  45.104  1.00  0.00    -0.000 C 
BRANCH  12  13
ATOM     13  C   UNL     1      -4.768  29.931  43.802  1.00  0.00    -0.000 C 
BRANCH  13  14
ATOM     14  C   UNL     1      -6.208  30.355  43.458  1.00  0.00    -0.000 C 
BRANCH  14  15
ATOM     15  C   UNL     1      -7.089  29.167  43.040  1.00  0.00    -0.000 C 
BRANCH  15  16
ATOM     16  C   UNL     1      -6.917  27.953  43.965  1.00  0.00    -0.000 C 
BRANCH  16  17
ATOM     17  C   UNL     1      -8.176  27.723  44.807  1.00  0.00    -0.003 C 
ATOM     18  C   UNL     1      -9.310  28.645  44.369  1.00  0.00     0.004 C 
ENDBRANCH  16  17
ENDBRANCH  15  16
ENDBRANCH  14  15
ENDBRANCH  13  14
ENDBRANCH  12  13
ENDBRANCH  11  12
ENDBRANCH   1  11
TORSDOF 14
ENDMDL
MODEL 9
REMARK VINA RESULT:    -3.338      3.797      6.528
REMARK INTER + INTRA:          -8.196
REMARK INTER:                  -5.835
REMARK INTRA:                  -2.361
REMARK UNBOUND:                -2.126
REMARK SMILES CCCCCCCCCCCCCCCC(=O)[O-]
REMARK SMILES IDX 9 1 10 2 11 3 12 4 13 5 14 6 15 7 16 8 17 9 18 10 8 11 7 12
REMARK SMILES IDX 6 13 5 14 4 15 3 16 2 17 1 18
REMARK H PARENT
REMARK Flexibility Score: inf
ROOT
ATOM      1  C   UNL     1      -5.915  27.683  46.429  1.00  0.00     0.000 C 
ENDROOT
BRANCH   1   2
ATOM      2  C   UNL     1      -4.755  28.680  46.563  1.00  0.00     0.000 C 
BRANCH   2   3
ATOM      3  C   UNL     1      -5.274  30.075  46.943  1.00  0.00     0.000 C 
BRANCH   3   4
ATOM      4  C   UNL     1      -6.797  30.109  47.172  1.00  0.00     0.000 C 
BRANCH   4   5
ATOM      5  C   UNL     1      -7.468  31.463  46.884  1.00  0.00     0.000 C 
BRANCH   5   6
ATOM      6  C   UNL     1      -6.483  32.645  46.941  1.00  0.00     0.006 C 
BRANCH   6   7
ATOM      7  C   UNL     1      -6.701  33.521  48.181  1.00  0.00     0.053 C 
BRANCH   7   8
ATOM      8  C   UNL     1      -5.519  33.493  49.100  1.00  0.00     0.041 C 
ATOM      9  O   UNL     1      -5.684  33.554  50.347  1.00  0.00    -0.550 OA
ATOM     10  O   UNL     1      -4.236  33.370  48.581  1.00  0.00    -0.550 OA
ENDBRANCH   7   8
ENDBRANCH   6   7
ENDBRANCH   5   6
ENDBRANCH   4   5
ENDBRANCH   3   4
ENDBRANCH   2   3
ENDBRANCH   1   2
BRANCH   1  11
ATOM     11  C   UNL     1      -5.983  27.030  45.038  1.00  0.00     0.000 C 
BRANCH  11  12
ATOM     12  C   UNL     1      -4.967  27.578  44.016  1.00  0.00    -0.000 C 
BRANCH  12  13
ATOM     13  C   UNL     1      -5.615  28.357  42.852  1.00  0.00    -0.000 C 
BRANCH  13  14
ATOM     14  C   UNL     1      -5.949  29.809  43.238  1.00  0.00    -0.000 C 
BRANCH  14  15
ATOM     15  C   UNL     1      -7.457  30.035  43.436  1.00  0.00    -0.000 C 
BRANCH  15  16
ATOM     16  C   UNL     1      -8.307  29.225  42.445  1.00  0.00    -0.000 C 
BRANCH  16  17
ATOM     17  C   UNL     1      -9.306  28.330  43.186  1.00  0.00    -0.003 C 
ATOM     18  C   UNL     1      -9.275  28.592  44.688  1.00  0.00     0.004 C 
ENDBRANCH  16  17
ENDBRANCH  15  16
ENDBRANCH  14  15
ENDBRANCH  13  14
ENDBRANCH  12  13
ENDBRANCH  11  12
ENDBRANCH   1  11
TORSDOF 14
ENDMDL
