MODEL 1
REMARK VINA RESULT:    -5.466      0.000      0.000
REMARK INTER + INTRA:         -11.012
REMARK INTER:                  -9.939
REMARK INTRA:                  -1.073
REMARK UNBOUND:                -1.073
REMARK SMILES CCCCCCCCCCCCCCCC(=O)[O-]
REMARK SMILES IDX 9 1 10 2 11 3 12 4 13 5 14 6 15 7 16 8 17 9 18 10 8 11 7 12
REMARK SMILES IDX 6 13 5 14 4 15 3 16 2 17 1 18
REMARK H PARENT
REMARK Flexibility Score: inf
ROOT
ATOM      1  C   UNL     1      20.143  -0.713 -19.076  1.00  0.00     0.000 C 
ENDROOT
BRANCH   1   2
ATOM      2  C   UNL     1      20.982  -1.420 -17.998  1.00  0.00     0.000 C 
BRANCH   2   3
ATOM      3  C   UNL     1      20.124  -2.025 -16.872  1.00  0.00     0.000 C 
BRANCH   3   4
ATOM      4  C   UNL     1      20.448  -1.516 -15.453  1.00  0.00     0.000 C 
BRANCH   4   5
ATOM      5  C   UNL     1      21.137  -0.138 -15.392  1.00  0.00     0.000 C 
BRANCH   5   6
ATOM      6  C   UNL     1      20.231   1.022 -14.940  1.00  0.00     0.006 C 
BRANCH   6   7
ATOM      7  C   UNL     1      19.458   1.661 -16.101  1.00  0.00     0.053 C 
BRANCH   7   8
ATOM      8  C   UNL     1      17.992   1.412 -15.951  1.00  0.00     0.041 C 
ATOM      9  O   UNL     1      17.559   0.735 -14.982  1.00  0.00    -0.550 OA
ATOM     10  O   UNL     1      17.104   1.889 -16.907  1.00  0.00    -0.550 OA
ENDBRANCH   7   8
ENDBRANCH   6   7
ENDBRANCH   5   6
ENDBRANCH   4   5
ENDBRANCH   3   4
ENDBRANCH   2   3
ENDBRANCH   1   2
BRANCH   1  11
ATOM     11  C   UNL     1      20.871   0.489 -19.705  1.00  0.00     0.000 C 
BRANCH  11  12
ATOM     12  C   UNL     1      20.331   0.944 -21.076  1.00  0.00    -0.000 C 
BRANCH  12  13
ATOM     13  C   UNL     1      18.812   0.776 -21.265  1.00  0.00    -0.000 C 
BRANCH  13  14
ATOM     14  C   UNL     1      18.414   0.599 -22.741  1.00  0.00    -0.000 C 
BRANCH  14  15
ATOM     15  C   UNL     1      16.910   0.810 -22.976  1.00  0.00    -0.000 C 
BRANCH  15  16
ATOM     16  C   UNL     1      16.349  -0.114 -24.071  1.00  0.00    -0.000 C 
BRANCH  16  17
ATOM     17  C   UNL     1      15.809   0.668 -25.278  1.00  0.00    -0.003 C 
ATOM     18  C   UNL     1      16.407   2.070 -25.386  1.00  0.00     0.004 C 
ENDBRANCH  16  17
ENDBRANCH  15  16
ENDBRANCH  14  15
ENDBRANCH  13  14
ENDBRANCH  12  13
ENDBRANCH  11  12
ENDBRANCH   1  11
TORSDOF 14
ENDMDL
MODEL 2
REMARK VINA RESULT:    -5.465      0.886      1.713
REMARK INTER + INTRA:         -11.011
REMARK INTER:                  -9.996
REMARK INTRA:                  -1.015
REMARK UNBOUND:                -1.073
REMARK SMILES CCCCCCCCCCCCCCCC(=O)[O-]
REMARK SMILES IDX 9 1 10 2 11 3 12 4 13 5 14 6 15 7 16 8 17 9 18 10 8 11 7 12
REMARK SMILES IDX 6 13 5 14 4 15 3 16 2 17 1 18
REMARK H PARENT
REMARK Flexibility Score: inf
ROOT
ATOM      1  C   UNL     1      20.754   0.693 -20.117  1.00  0.00     0.000 C 
ENDROOT
BRANCH   1   2
ATOM      2  C   UNL     1      21.071  -0.298 -18.985  1.00  0.00     0.000 C 
BRANCH   2   3
ATOM      3  C   UNL     1      20.151  -1.532 -18.994  1.00  0.00     0.000 C 
BRANCH   3   4
ATOM      4  C   UNL     1      19.914  -2.185 -17.618  1.00  0.00     0.000 C 
BRANCH   4   5
ATOM      5  C   UNL     1      20.755  -1.605 -16.464  1.00  0.00     0.000 C 
BRANCH   5   6
ATOM      6  C   UNL     1      19.943  -1.139 -15.241  1.00  0.00     0.006 C 
BRANCH   6   7
ATOM      7  C   UNL     1      19.753   0.383 -15.198  1.00  0.00     0.053 C 
BRANCH   7   8
ATOM      8  C   UNL     1      18.396   0.752 -15.706  1.00  0.00     0.041 C 
ATOM      9  O   UNL     1      17.412   0.784 -14.921  1.00  0.00    -0.550 OA
ATOM     10  O   UNL     1      18.207   1.017 -17.056  1.00  0.00    -0.550 OA
ENDBRANCH   7   8
ENDBRANCH   6   7
ENDBRANCH   5   6
ENDBRANCH   4   5
ENDBRANCH   3   4
ENDBRANCH   2   3
ENDBRANCH   1   2
BRANCH   1  11
ATOM     11  C   UNL     1      19.722   0.143 -21.119  1.00  0.00     0.000 C 
BRANCH  11  12
ATOM     12  C   UNL     1      18.708   1.175 -21.655  1.00  0.00    -0.000 C 
BRANCH  12  13
ATOM     13  C   UNL     1      18.274   0.962 -23.117  1.00  0.00    -0.000 C 
BRANCH  13  14
ATOM     14  C   UNL     1      16.830   0.444 -23.237  1.00  0.00    -0.000 C 
BRANCH  14  15
ATOM     15  C   UNL     1      16.558  -0.237 -24.588  1.00  0.00    -0.000 C 
BRANCH  15  16
ATOM     16  C   UNL     1      15.485   0.496 -25.412  1.00  0.00    -0.000 C 
BRANCH  16  17
ATOM     17  C   UNL     1      15.873   1.951 -25.717  1.00  0.00    -0.003 C 
ATOM     18  C   UNL     1      17.169   2.059 -26.519  1.00  0.00     0.004 C 
ENDBRANCH  16  17
ENDBRANCH  15  16
ENDBRANCH  14  15
ENDBRANCH  13  14
ENDBRANCH  12  13
ENDBRANCH  11  12
ENDBRANCH   1  11
TORSDOF 14
ENDMDL
MODEL 3
REMARK VINA RESULT:    -5.233      1.642      3.865
REMARK INTER + INTRA:         -10.589
REMARK INTER:                  -9.173
REMARK INTRA:                  -1.416
REMARK UNBOUND:                -1.073
REMARK SMILES CCCCCCCCCCCCCCCC(=O)[O-]
REMARK SMILES IDX 9 1 10 2 11 3 12 4 13 5 14 6 15 7 16 8 17 9 18 10 8 11 7 12
REMARK SMILES IDX 6 13 5 14 4 15 3 16 2 17 1 18
REMARK H PARENT
REMARK Flexibility Score: inf
ROOT
ATOM      1  C   UNL     1      18.644   1.451 -22.804  1.00  0.00     0.000 C 
ENDROOT
BRANCH   1   2
ATOM      2  C   UNL     1      19.233   0.140 -22.255  1.00  0.00     0.000 C 
BRANCH   2   3
ATOM      3  C   UNL     1      20.347   0.372 -21.218  1.00  0.00     0.000 C 
BRANCH   3   4
ATOM      4  C   UNL     1      19.860   0.763 -19.808  1.00  0.00     0.000 C 
BRANCH   4   5
ATOM      5  C   UNL     1      20.641   0.121 -18.644  1.00  0.00     0.000 C 
BRANCH   5   6
ATOM      6  C   UNL     1      19.775  -0.343 -17.459  1.00  0.00     0.006 C 
BRANCH   6   7
ATOM      7  C   UNL     1      18.880   0.772 -16.903  1.00  0.00     0.053 C 
BRANCH   7   8
ATOM      8  C   UNL     1      18.636   0.564 -15.442  1.00  0.00     0.041 C 
ATOM      9  O   UNL     1      17.511   0.831 -14.943  1.00  0.00    -0.550 OA
ATOM     10  O   UNL     1      19.665   0.118 -14.622  1.00  0.00    -0.550 OA
ENDBRANCH   7   8
ENDBRANCH   6   7
ENDBRANCH   5   6
ENDBRANCH   4   5
ENDBRANCH   3   4
ENDBRANCH   2   3
ENDBRANCH   1   2
BRANCH   1  11
ATOM     11  C   UNL     1      17.107   1.419 -22.899  1.00  0.00     0.000 C 
BRANCH  11  12
ATOM     12  C   UNL     1      16.509   0.127 -23.492  1.00  0.00    -0.000 C 
BRANCH  12  13
ATOM     13  C   UNL     1      15.828   0.296 -24.863  1.00  0.00    -0.000 C 
BRANCH  13  14
ATOM     14  C   UNL     1      15.998   1.712 -25.439  1.00  0.00    -0.000 C 
BRANCH  14  15
ATOM     15  C   UNL     1      16.874   1.734 -26.701  1.00  0.00    -0.000 C 
BRANCH  15  16
ATOM     16  C   UNL     1      17.600   0.398 -26.939  1.00  0.00    -0.000 C 
BRANCH  16  17
ATOM     17  C   UNL     1      19.051   0.421 -26.436  1.00  0.00    -0.003 C 
ATOM     18  C   UNL     1      19.472  -0.899 -25.793  1.00  0.00     0.004 C 
ENDBRANCH  16  17
ENDBRANCH  15  16
ENDBRANCH  14  15
ENDBRANCH  13  14
ENDBRANCH  12  13
ENDBRANCH  11  12
ENDBRANCH   1  11
TORSDOF 14
ENDMDL
MODEL 4
REMARK VINA RESULT:    -5.190      5.378      8.300
REMARK INTER + INTRA:         -10.510
REMARK INTER:                  -8.171
REMARK INTRA:                  -2.339
REMARK UNBOUND:                -1.073
REMARK SMILES CCCCCCCCCCCCCCCC(=O)[O-]
REMARK SMILES IDX 9 1 10 2 11 3 12 4 13 5 14 6 15 7 16 8 17 9 18 10 8 11 7 12
REMARK SMILES IDX 6 13 5 14 4 15 3 16 2 17 1 18
REMARK H PARENT
REMARK Flexibility Score: inf
ROOT
ATOM      1  C   UNL     1      15.887   0.176 -24.955  1.00  0.00     0.000 C 
ENDROOT
BRANCH   1   2
ATOM      2  C   UNL     1      16.002   1.539 -25.658  1.00  0.00     0.000 C 
BRANCH   2   3
ATOM      3  C   UNL     1      17.182   1.607 -26.644  1.00  0.00     0.000 C 
BRANCH   3   4
ATOM      4  C   UNL     1      17.818   0.250 -27.003  1.00  0.00     0.000 C 
BRANCH   4   5
ATOM      5  C   UNL     1      19.216   0.001 -26.401  1.00  0.00     0.000 C 
BRANCH   5   6
ATOM      6  C   UNL     1      19.507  -1.461 -26.018  1.00  0.00     0.006 C 
BRANCH   6   7
ATOM      7  C   UNL     1      19.081  -1.797 -24.583  1.00  0.00     0.053 C 
BRANCH   7   8
ATOM      8  C   UNL     1      18.278  -3.058 -24.560  1.00  0.00     0.041 C 
ATOM      9  O   UNL     1      17.077  -3.039 -24.181  1.00  0.00    -0.550 OA
ATOM     10  O   UNL     1      18.869  -4.265 -24.912  1.00  0.00    -0.550 OA
ENDBRANCH   7   8
ENDBRANCH   6   7
ENDBRANCH   5   6
ENDBRANCH   4   5
ENDBRANCH   3   4
ENDBRANCH   2   3
ENDBRANCH   1   2
BRANCH   1  11
ATOM     11  C   UNL     1      16.347   0.223 -23.486  1.00  0.00     0.000 C 
BRANCH  11  12
ATOM     12  C   UNL     1      17.155   1.474 -23.087  1.00  0.00    -0.000 C 
BRANCH  12  13
ATOM     13  C   UNL     1      18.443   1.191 -22.292  1.00  0.00    -0.000 C 
BRANCH  13  14
ATOM     14  C   UNL     1      19.716   1.553 -23.077  1.00  0.00    -0.000 C 
BRANCH  14  15
ATOM     15  C   UNL     1      20.946   0.763 -22.603  1.00  0.00    -0.000 C 
BRANCH  15  16
ATOM     16  C   UNL     1      22.205   1.081 -23.429  1.00  0.00    -0.000 C 
BRANCH  16  17
ATOM     17  C   UNL     1      22.599  -0.072 -24.364  1.00  0.00    -0.003 C 
ATOM     18  C   UNL     1      22.776   0.381 -25.813  1.00  0.00     0.004 C 
ENDBRANCH  16  17
ENDBRANCH  15  16
ENDBRANCH  14  15
ENDBRANCH  13  14
ENDBRANCH  12  13
ENDBRANCH  11  12
ENDBRANCH   1  11
TORSDOF 14
ENDMDL
MODEL 5
REMARK VINA RESULT:    -5.157      1.935      4.295
REMARK INTER + INTRA:         -10.451
REMARK INTER:                  -9.004
REMARK INTRA:                  -1.447
REMARK UNBOUND:                -1.073
REMARK SMILES CCCCCCCCCCCCCCCC(=O)[O-]
REMARK SMILES IDX 9 1 10 2 11 3 12 4 13 5 14 6 15 7 16 8 17 9 18 10 8 11 7 12
REMARK SMILES IDX 6 13 5 14 4 15 3 16 2 17 1 18
REMARK H PARENT
REMARK Flexibility Score: inf
ROOT
ATOM      1  C   UNL     1      18.627   1.752 -22.618  1.00  0.00     0.000 C 
ENDROOT
BRANCH   1   2
ATOM      2  C   UNL     1      19.451   0.459 -22.505  1.00  0.00     0.000 C 
BRANCH   2   3
ATOM      3  C   UNL     1      20.433   0.475 -21.319  1.00  0.00     0.000 C 
BRANCH   3   4
ATOM      4  C   UNL     1      19.790   0.282 -19.932  1.00  0.00     0.000 C 
BRANCH   4   5
ATOM      5  C   UNL     1      20.708  -0.349 -18.866  1.00  0.00     0.000 C 
BRANCH   5   6
ATOM      6  C   UNL     1      20.596  -1.879 -18.736  1.00  0.00     0.006 C 
BRANCH   6   7
ATOM      7  C   UNL     1      19.713  -2.315 -17.560  1.00  0.00     0.053 C 
BRANCH   7   8
ATOM      8  C   UNL     1      20.071  -1.547 -16.328  1.00  0.00     0.041 C 
ATOM      9  O   UNL     1      19.284  -0.675 -15.872  1.00  0.00    -0.550 OA
ATOM     10  O   UNL     1      21.295  -1.761 -15.707  1.00  0.00    -0.550 OA
ENDBRANCH   7   8
ENDBRANCH   6   7
ENDBRANCH   5   6
ENDBRANCH   4   5
ENDBRANCH   3   4
ENDBRANCH   2   3
ENDBRANCH   1   2
BRANCH   1  11
ATOM     11  C   UNL     1      17.115   1.486 -22.742  1.00  0.00     0.000 C 
BRANCH  11  12
ATOM     12  C   UNL     1      16.733   0.123 -23.355  1.00  0.00    -0.000 C 
BRANCH  12  13
ATOM     13  C   UNL     1      15.963   0.201 -24.686  1.00  0.00    -0.000 C 
BRANCH  13  14
ATOM     14  C   UNL     1      15.960   1.618 -25.287  1.00  0.00    -0.000 C 
BRANCH  14  15
ATOM     15  C   UNL     1      16.980   1.779 -26.425  1.00  0.00    -0.000 C 
BRANCH  15  16
ATOM     16  C   UNL     1      17.607   0.439 -26.848  1.00  0.00    -0.000 C 
BRANCH  16  17
ATOM     17  C   UNL     1      19.070   0.309 -26.399  1.00  0.00    -0.003 C 
ATOM     18  C   UNL     1      19.403  -1.088 -25.876  1.00  0.00     0.004 C 
ENDBRANCH  16  17
ENDBRANCH  15  16
ENDBRANCH  14  15
ENDBRANCH  13  14
ENDBRANCH  12  13
ENDBRANCH  11  12
ENDBRANCH   1  11
TORSDOF 14
ENDMDL
MODEL 6
REMARK VINA RESULT:    -5.155      3.550      8.148
REMARK INTER + INTRA:         -10.448
REMARK INTER:                  -9.138
REMARK INTRA:                  -1.309
REMARK UNBOUND:                -1.073
REMARK SMILES CCCCCCCCCCCCCCCC(=O)[O-]
REMARK SMILES IDX 9 1 10 2 11 3 12 4 13 5 14 6 15 7 16 8 17 9 18 10 8 11 7 12
REMARK SMILES IDX 6 13 5 14 4 15 3 16 2 17 1 18
REMARK H PARENT
REMARK Flexibility Score: inf
ROOT
ATOM      1  C   UNL     1      20.839   0.454 -19.549  1.00  0.00     0.000 C 
ENDROOT
BRANCH   1   2
ATOM      2  C   UNL     1      19.830   0.210 -20.683  1.00  0.00     0.000 C 
BRANCH   2   3
ATOM      3  C   UNL     1      20.393   0.563 -22.072  1.00  0.00     0.000 C 
BRANCH   3   4
ATOM      4  C   UNL     1      19.340   0.714 -23.188  1.00  0.00     0.000 C 
BRANCH   4   5
ATOM      5  C   UNL     1      18.158  -0.273 -23.113  1.00  0.00     0.000 C 
BRANCH   5   6
ATOM      6  C   UNL     1      16.765   0.383 -23.102  1.00  0.00     0.006 C 
BRANCH   6   7
ATOM      7  C   UNL     1      16.681   1.619 -24.007  1.00  0.00     0.053 C 
BRANCH   7   8
ATOM      8  C   UNL     1      16.313   1.220 -25.400  1.00  0.00     0.041 C 
ATOM      9  O   UNL     1      15.231   0.614 -25.621  1.00  0.00    -0.550 OA
ATOM     10  O   UNL     1      17.185   1.476 -26.450  1.00  0.00    -0.550 OA
ENDBRANCH   7   8
ENDBRANCH   6   7
ENDBRANCH   5   6
ENDBRANCH   4   5
ENDBRANCH   3   4
ENDBRANCH   2   3
ENDBRANCH   1   2
BRANCH   1  11
ATOM     11  C   UNL     1      21.256  -0.843 -18.833  1.00  0.00     0.000 C 
BRANCH  11  12
ATOM     12  C   UNL     1      20.116  -1.848 -18.569  1.00  0.00    -0.000 C 
BRANCH  12  13
ATOM     13  C   UNL     1      19.797  -2.094 -17.083  1.00  0.00    -0.000 C 
BRANCH  13  14
ATOM     14  C   UNL     1      19.513  -0.792 -16.314  1.00  0.00    -0.000 C 
BRANCH  14  15
ATOM     15  C   UNL     1      20.393  -0.641 -15.064  1.00  0.00    -0.000 C 
BRANCH  15  16
ATOM     16  C   UNL     1      21.659  -1.513 -15.126  1.00  0.00    -0.000 C 
BRANCH  16  17
ATOM     17  C   UNL     1      22.907  -0.707 -15.517  1.00  0.00    -0.003 C 
ATOM     18  C   UNL     1      22.678   0.802 -15.450  1.00  0.00     0.004 C 
ENDBRANCH  16  17
ENDBRANCH  15  16
ENDBRANCH  14  15
ENDBRANCH  13  14
ENDBRANCH  12  13
ENDBRANCH  11  12
ENDBRANCH   1  11
TORSDOF 14
ENDMDL
MODEL 7
REMARK VINA RESULT:    -5.150      3.146      7.450
REMARK INTER + INTRA:         -10.437
REMARK INTER:                  -8.760
REMARK INTRA:                  -1.677
REMARK UNBOUND:                -1.073
REMARK SMILES CCCCCCCCCCCCCCCC(=O)[O-]
REMARK SMILES IDX 9 1 10 2 11 3 12 4 13 5 14 6 15 7 16 8 17 9 18 10 8 11 7 12
REMARK SMILES IDX 6 13 5 14 4 15 3 16 2 17 1 18
REMARK H PARENT
REMARK Flexibility Score: inf
ROOT
ATOM      1  C   UNL     1      20.118  -0.625 -19.557  1.00  0.00     0.000 C 
ENDROOT
BRANCH   1   2
ATOM      2  C   UNL     1      20.906   0.659 -19.867  1.00  0.00     0.000 C 
BRANCH   2   3
ATOM      3  C   UNL     1      20.311   1.458 -21.041  1.00  0.00     0.000 C 
BRANCH   3   4
ATOM      4  C   UNL     1      19.362   0.666 -21.961  1.00  0.00     0.000 C 
BRANCH   4   5
ATOM      5  C   UNL     1      17.927   1.222 -22.060  1.00  0.00     0.000 C 
BRANCH   5   6
ATOM      6  C   UNL     1      17.326   1.220 -23.477  1.00  0.00     0.006 C 
BRANCH   6   7
ATOM      7  C   UNL     1      16.380   0.037 -23.721  1.00  0.00     0.053 C 
BRANCH   7   8
ATOM      8  C   UNL     1      17.054  -1.007 -24.551  1.00  0.00     0.041 C 
ATOM      9  O   UNL     1      17.535  -0.710 -25.677  1.00  0.00    -0.550 OA
ATOM     10  O   UNL     1      17.112  -2.321 -24.104  1.00  0.00    -0.550 OA
ENDBRANCH   7   8
ENDBRANCH   6   7
ENDBRANCH   5   6
ENDBRANCH   4   5
ENDBRANCH   3   4
ENDBRANCH   2   3
ENDBRANCH   1   2
BRANCH   1  11
ATOM     11  C   UNL     1      20.793  -1.492 -18.478  1.00  0.00     0.000 C 
BRANCH  11  12
ATOM     12  C   UNL     1      19.837  -2.127 -17.448  1.00  0.00    -0.000 C 
BRANCH  12  13
ATOM     13  C   UNL     1      20.068  -1.690 -15.990  1.00  0.00    -0.000 C 
BRANCH  13  14
ATOM     14  C   UNL     1      21.231  -0.692 -15.848  1.00  0.00    -0.000 C 
BRANCH  14  15
ATOM     15  C   UNL     1      20.781   0.660 -15.273  1.00  0.00    -0.000 C 
BRANCH  15  16
ATOM     16  C   UNL     1      20.528   1.712 -16.368  1.00  0.00    -0.000 C 
BRANCH  16  17
ATOM     17  C   UNL     1      19.080   2.226 -16.363  1.00  0.00    -0.003 C 
ATOM     18  C   UNL     1      18.148   1.365 -17.215  1.00  0.00     0.004 C 
ENDBRANCH  16  17
ENDBRANCH  15  16
ENDBRANCH  14  15
ENDBRANCH  13  14
ENDBRANCH  12  13
ENDBRANCH  11  12
ENDBRANCH   1  11
TORSDOF 14
ENDMDL
MODEL 8
REMARK VINA RESULT:    -5.126      3.854      8.687
REMARK INTER + INTRA:         -10.395
REMARK INTER:                  -8.943
REMARK INTRA:                  -1.452
REMARK UNBOUND:                -1.073
REMARK SMILES CCCCCCCCCCCCCCCC(=O)[O-]
REMARK SMILES IDX 9 1 10 2 11 3 12 4 13 5 14 6 15 7 16 8 17 9 18 10 8 11 7 12
REMARK SMILES IDX 6 13 5 14 4 15 3 16 2 17 1 18
REMARK H PARENT
REMARK Flexibility Score: inf
ROOT
ATOM      1  C   UNL     1      16.718   0.190 -23.091  1.00  0.00     0.000 C 
ENDROOT
BRANCH   1   2
ATOM      2  C   UNL     1      16.187  -0.117 -24.501  1.00  0.00     0.000 C 
BRANCH   2   3
ATOM      3  C   UNL     1      15.920   1.152 -25.330  1.00  0.00     0.000 C 
BRANCH   3   4
ATOM      4  C   UNL     1      16.892   1.388 -26.503  1.00  0.00     0.000 C 
BRANCH   4   5
ATOM      5  C   UNL     1      17.607   0.126 -27.025  1.00  0.00     0.000 C 
BRANCH   5   6
ATOM      6  C   UNL     1      19.140   0.144 -26.887  1.00  0.00     0.006 C 
BRANCH   6   7
ATOM      7  C   UNL     1      19.638  -0.650 -25.672  1.00  0.00     0.053 C 
BRANCH   7   8
ATOM      8  C   UNL     1      19.222  -2.082 -25.780  1.00  0.00     0.041 C 
ATOM      9  O   UNL     1      19.429  -2.724 -26.843  1.00  0.00    -0.550 OA
ATOM     10  O   UNL     1      18.562  -2.696 -24.723  1.00  0.00    -0.550 OA
ENDBRANCH   7   8
ENDBRANCH   6   7
ENDBRANCH   5   6
ENDBRANCH   4   5
ENDBRANCH   3   4
ENDBRANCH   2   3
ENDBRANCH   1   2
BRANCH   1  11
ATOM     11  C   UNL     1      17.238   1.633 -22.951  1.00  0.00     0.000 C 
BRANCH  11  12
ATOM     12  C   UNL     1      18.654   1.770 -22.356  1.00  0.00    -0.000 C 
BRANCH  12  13
ATOM     13  C   UNL     1      19.435   0.450 -22.225  1.00  0.00    -0.000 C 
BRANCH  13  14
ATOM     14  C   UNL     1      20.507   0.502 -21.122  1.00  0.00    -0.000 C 
BRANCH  14  15
ATOM     15  C   UNL     1      20.022  -0.108 -19.798  1.00  0.00    -0.000 C 
BRANCH  15  16
ATOM     16  C   UNL     1      21.169  -0.338 -18.799  1.00  0.00    -0.000 C 
BRANCH  16  17
ATOM     17  C   UNL     1      20.799  -1.350 -17.704  1.00  0.00    -0.003 C 
ATOM     18  C   UNL     1      19.795  -2.396 -18.186  1.00  0.00     0.004 C 
ENDBRANCH  16  17
ENDBRANCH  15  16
ENDBRANCH  14  15
ENDBRANCH  13  14
ENDBRANCH  12  13
ENDBRANCH  11  12
ENDBRANCH   1  11
TORSDOF 14
ENDMDL
MODEL 9
REMARK VINA RESULT:    -5.090      4.105      8.643
REMARK INTER + INTRA:         -10.329
REMARK INTER:                  -8.531
REMARK INTRA:                  -1.798
REMARK UNBOUND:                -1.073
REMARK SMILES CCCCCCCCCCCCCCCC(=O)[O-]
REMARK SMILES IDX 9 1 10 2 11 3 12 4 13 5 14 6 15 7 16 8 17 9 18 10 8 11 7 12
REMARK SMILES IDX 6 13 5 14 4 15 3 16 2 17 1 18
REMARK H PARENT
REMARK Flexibility Score: inf
ROOT
ATOM      1  C   UNL     1      16.216  -0.085 -24.561  1.00  0.00     0.000 C 
ENDROOT
BRANCH   1   2
ATOM      2  C   UNL     1      15.962   1.215 -25.342  1.00  0.00     0.000 C 
BRANCH   2   3
ATOM      3  C   UNL     1      16.915   1.393 -26.537  1.00  0.00     0.000 C 
BRANCH   3   4
ATOM      4  C   UNL     1      18.182   0.515 -26.504  1.00  0.00     0.000 C 
BRANCH   4   5
ATOM      5  C   UNL     1      18.363  -0.421 -27.715  1.00  0.00     0.000 C 
BRANCH   5   6
ATOM      6  C   UNL     1      19.386  -1.554 -27.513  1.00  0.00     0.006 C 
BRANCH   6   7
ATOM      7  C   UNL     1      20.017  -1.544 -26.114  1.00  0.00     0.053 C 
BRANCH   7   8
ATOM      8  C   UNL     1      19.657  -2.792 -25.373  1.00  0.00     0.041 C 
ATOM      9  O   UNL     1      18.535  -2.896 -24.812  1.00  0.00    -0.550 OA
ATOM     10  O   UNL     1      20.581  -3.825 -25.261  1.00  0.00    -0.550 OA
ENDBRANCH   7   8
ENDBRANCH   6   7
ENDBRANCH   5   6
ENDBRANCH   4   5
ENDBRANCH   3   4
ENDBRANCH   2   3
ENDBRANCH   1   2
BRANCH   1  11
ATOM     11  C   UNL     1      16.776   0.167 -23.149  1.00  0.00     0.000 C 
BRANCH  11  12
ATOM     12  C   UNL     1      17.129   1.635 -22.832  1.00  0.00    -0.000 C 
BRANCH  12  13
ATOM     13  C   UNL     1      18.608   2.008 -23.041  1.00  0.00    -0.000 C 
BRANCH  13  14
ATOM     14  C   UNL     1      19.548   0.797 -22.914  1.00  0.00    -0.000 C 
BRANCH  14  15
ATOM     15  C   UNL     1      20.970   1.195 -22.488  1.00  0.00    -0.000 C 
BRANCH  15  16
ATOM     16  C   UNL     1      21.218   0.973 -20.986  1.00  0.00    -0.000 C 
BRANCH  16  17
ATOM     17  C   UNL     1      20.107   0.145 -20.324  1.00  0.00    -0.003 C 
ATOM     18  C   UNL     1      19.597   0.774 -19.028  1.00  0.00     0.004 C 
ENDBRANCH  16  17
ENDBRANCH  15  16
ENDBRANCH  14  15
ENDBRANCH  13  14
ENDBRANCH  12  13
ENDBRANCH  11  12
ENDBRANCH   1  11
TORSDOF 14
ENDMDL
