MODEL 1
REMARK VINA RESULT:    -2.751      0.000      0.000
REMARK INTER + INTRA:          -3.594
REMARK INTER:                  -3.314
REMARK INTRA:                  -0.280
REMARK UNBOUND:                -0.280
REMARK SMILES O=c1c(O)c(-c2ccc(O)c(O)c2)oc2cc(O)cc(O)c12
REMARK SMILES IDX 5 1 3 2 2 3 1 4 22 5 20 6 19 7 17 8 16 9 15 10 14 11 6 12
REMARK SMILES IDX 7 13 8 14 9 15 13 16 11 17 10 18 12 20 4 22 21 24 18 26
REMARK H PARENT 10 19 12 21 4 23 21 25 18 27
REMARK Flexibility Score: inf
ROOT
ATOM      1  C   UNL     1     -25.526  -5.660  19.144  1.00  0.00     0.180 A 
ATOM      2  C   UNL     1     -24.505  -5.100  19.932  1.00  0.00     0.208 A 
ATOM      3  C   UNL     1     -24.145  -3.758  19.727  1.00  0.00     0.238 A 
ATOM      4  O   UNL     1     -23.268  -3.248  20.472  1.00  0.00    -0.285 OA
ATOM      5  C   UNL     1     -24.799  -2.999  18.727  1.00  0.00     0.111 A 
ATOM      6  C   UNL     1     -24.487  -1.643  18.406  1.00  0.00     0.134 A 
ATOM      7  C   UNL     1     -25.285  -0.950  17.489  1.00  0.00     0.093 A 
ATOM      8  C   UNL     1     -26.344  -1.582  16.832  1.00  0.00     0.123 A 
ATOM      9  C   UNL     1     -26.618  -2.922  17.094  1.00  0.00     0.094 A 
ATOM     10  C   UNL     1     -25.862  -3.630  18.031  1.00  0.00     0.146 A 
ATOM     11  O   UNL     1     -26.165  -4.903  18.260  1.00  0.00    -0.452 OA
ENDROOT
BRANCH   1  12
ATOM     12  C   UNL     1     -25.944  -7.074  19.284  1.00  0.00     0.025 A 
ATOM     13  C   UNL     1     -26.762  -7.493  20.348  1.00  0.00     0.016 A 
ATOM     14  C   UNL     1     -27.125  -8.836  20.475  1.00  0.00     0.051 A 
ATOM     15  C   UNL     1     -26.665  -9.782  19.549  1.00  0.00     0.157 A 
ATOM     16  C   UNL     1     -25.469  -8.029  18.372  1.00  0.00     0.062 A 
ATOM     17  C   UNL     1     -25.830  -9.377  18.494  1.00  0.00     0.158 A 
BRANCH  15  18
ATOM     18  O   UNL     1     -27.029 -11.122  19.677  1.00  0.00    -0.504 OA
ATOM     19  H   UNL     1     -26.336 -11.861  19.686  1.00  0.00     0.293 HD
ENDBRANCH  15  18
BRANCH  17  20
ATOM     20  O   UNL     1     -25.350 -10.294  17.562  1.00  0.00    -0.504 OA
ATOM     21  H   UNL     1     -25.010 -11.209  17.832  1.00  0.00     0.293 HD
ENDBRANCH  17  20
ENDBRANCH   1  12
BRANCH   2  22
ATOM     22  O   UNL     1     -23.888  -5.862  20.928  1.00  0.00    -0.502 OA
ATOM     23  H   UNL     1     -23.159  -5.490  21.524  1.00  0.00     0.293 HD
ENDBRANCH   2  22
BRANCH   6  24
ATOM     24  O   UNL     1     -23.395  -0.947  18.935  1.00  0.00    -0.507 OA
ATOM     25  H   UNL     1     -22.436  -1.253  18.877  1.00  0.00     0.293 HD
ENDBRANCH   6  24
BRANCH   8  26
ATOM     26  O   UNL     1     -27.123  -0.889  15.909  1.00  0.00    -0.508 OA
ATOM     27  H   UNL     1     -27.410  -1.311  15.034  1.00  0.00     0.293 HD
ENDBRANCH   8  26
TORSDOF 6
ENDMDL
MODEL 2
REMARK VINA RESULT:    -2.052      1.531      6.992
REMARK INTER + INTRA:          -2.752
REMARK INTER:                  -2.429
REMARK INTRA:                  -0.323
REMARK UNBOUND:                -0.280
REMARK SMILES O=c1c(O)c(-c2ccc(O)c(O)c2)oc2cc(O)cc(O)c12
REMARK SMILES IDX 5 1 3 2 2 3 1 4 22 5 20 6 19 7 17 8 16 9 15 10 14 11 6 12
REMARK SMILES IDX 7 13 8 14 9 15 13 16 11 17 10 18 12 20 4 22 21 24 18 26
REMARK H PARENT 10 19 12 21 4 23 21 25 18 27
REMARK Flexibility Score: inf
ROOT
ATOM      1  C   UNL     1     -25.589  -6.022  18.939  1.00  0.00     0.180 A 
ATOM      2  C   UNL     1     -26.331  -6.533  20.019  1.00  0.00     0.208 A 
ATOM      3  C   UNL     1     -26.505  -7.922  20.127  1.00  0.00     0.238 A 
ATOM      4  O   UNL     1     -27.125  -8.377  21.125  1.00  0.00    -0.285 OA
ATOM      5  C   UNL     1     -25.950  -8.780  19.148  1.00  0.00     0.111 A 
ATOM      6  C   UNL     1     -26.099 -10.201  19.138  1.00  0.00     0.134 A 
ATOM      7  C   UNL     1     -25.397 -10.961  18.195  1.00  0.00     0.093 A 
ATOM      8  C   UNL     1     -24.604 -10.348  17.221  1.00  0.00     0.123 A 
ATOM      9  C   UNL     1     -24.501  -8.960  17.187  1.00  0.00     0.094 A 
ATOM     10  C   UNL     1     -25.160  -8.176  18.137  1.00  0.00     0.146 A 
ATOM     11  O   UNL     1     -25.025  -6.857  18.075  1.00  0.00    -0.452 OA
ENDROOT
BRANCH   1  12
ATOM     12  C   UNL     1     -25.382  -4.569  18.743  1.00  0.00     0.025 A 
ATOM     13  C   UNL     1     -24.301  -3.896  19.339  1.00  0.00     0.016 A 
ATOM     14  C   UNL     1     -24.139  -2.520  19.160  1.00  0.00     0.051 A 
ATOM     15  C   UNL     1     -25.062  -1.793  18.396  1.00  0.00     0.157 A 
ATOM     16  C   UNL     1     -26.316  -3.832  17.996  1.00  0.00     0.062 A 
ATOM     17  C   UNL     1     -26.157  -2.453  17.814  1.00  0.00     0.158 A 
BRANCH  15  18
ATOM     18  O   UNL     1     -24.898  -0.421  18.218  1.00  0.00    -0.504 OA
ATOM     19  H   UNL     1     -25.679   0.181  17.984  1.00  0.00     0.293 HD
ENDBRANCH  15  18
BRANCH  17  20
ATOM     20  O   UNL     1     -27.096  -1.758  17.054  1.00  0.00    -0.504 OA
ATOM     21  H   UNL     1     -27.840  -2.231  16.554  1.00  0.00     0.293 HD
ENDBRANCH  17  20
ENDBRANCH   1  12
BRANCH   2  22
ATOM     22  O   UNL     1     -26.852  -5.669  20.985  1.00  0.00    -0.502 OA
ATOM     23  H   UNL     1     -27.017  -4.686  20.804  1.00  0.00     0.293 HD
ENDBRANCH   2  22
BRANCH   6  24
ATOM     24  O   UNL     1     -26.938 -10.904  20.007  1.00  0.00    -0.507 OA
ATOM     25  H   UNL     1     -26.624 -11.446  20.797  1.00  0.00     0.293 HD
ENDBRANCH   6  24
BRANCH   8  26
ATOM     26  O   UNL     1     -23.922 -11.112  16.277  1.00  0.00    -0.508 OA
ATOM     27  H   UNL     1     -22.999 -11.485  16.463  1.00  0.00     0.293 HD
ENDBRANCH   8  26
TORSDOF 6
ENDMDL
