MODEL 1
REMARK VINA RESULT:    -3.784      0.000      0.000
REMARK INTER + INTRA:          -7.176
REMARK INTER:                  -5.996
REMARK INTRA:                  -1.181
REMARK UNBOUND:                -1.181
REMARK SMILES CCCCCCCCCCCC(=O)[O-]
REMARK SMILES IDX 7 1 8 2 9 3 10 4 11 5 12 6 13 7 14 8 6 9 5 10 4 11 3 12 2 13
REMARK SMILES IDX 1 14
REMARK H PARENT
REMARK Flexibility Score: inf
ROOT
ATOM      1  C   UNL     1      12.358  19.700  15.531  1.00  0.00     0.000 C 
ENDROOT
BRANCH   1   2
ATOM      2  C   UNL     1      12.098  19.047  14.165  1.00  0.00     0.000 C 
BRANCH   2   3
ATOM      3  C   UNL     1      10.694  18.428  14.053  1.00  0.00     0.000 C 
BRANCH   3   4
ATOM      4  C   UNL     1      10.601  17.177  13.157  1.00  0.00     0.006 C 
BRANCH   4   5
ATOM      5  C   UNL     1       9.922  17.414  11.798  1.00  0.00     0.053 C 
BRANCH   5   6
ATOM      6  C   UNL     1       8.932  16.339  11.470  1.00  0.00     0.041 C 
ATOM      7  O   UNL     1       8.491  15.585  12.376  1.00  0.00    -0.550 OA
ATOM      8  O   UNL     1       8.523  16.147  10.155  1.00  0.00    -0.550 OA
ENDBRANCH   5   6
ENDBRANCH   4   5
ENDBRANCH   3   4
ENDBRANCH   2   3
ENDBRANCH   1   2
BRANCH   1   9
ATOM      9  C   UNL     1      13.150  18.761  16.448  1.00  0.00     0.000 C 
BRANCH   9  10
ATOM     10  C   UNL     1      14.050  17.824  15.634  1.00  0.00    -0.000 C 
BRANCH  10  11
ATOM     11  C   UNL     1      14.031  16.403  16.213  1.00  0.00    -0.000 C 
BRANCH  11  12
ATOM     12  C   UNL     1      12.942  16.207  17.285  1.00  0.00    -0.000 C 
BRANCH  12  13
ATOM     13  C   UNL     1      11.756  15.328  16.848  1.00  0.00    -0.003 C 
ATOM     14  C   UNL     1      10.421  16.073  16.867  1.00  0.00     0.004 C 
ENDBRANCH  12  13
ENDBRANCH  11  12
ENDBRANCH  10  11
ENDBRANCH   9  10
ENDBRANCH   1   9
TORSDOF 10
ENDMDL
MODEL 2
REMARK VINA RESULT:    -3.673      3.625      6.282
REMARK INTER + INTRA:          -7.001
REMARK INTER:                  -6.471
REMARK INTRA:                  -0.530
REMARK UNBOUND:                -1.181
REMARK SMILES CCCCCCCCCCCC(=O)[O-]
REMARK SMILES IDX 7 1 8 2 9 3 10 4 11 5 12 6 13 7 14 8 6 9 5 10 4 11 3 12 2 13
REMARK SMILES IDX 1 14
REMARK H PARENT
REMARK Flexibility Score: inf
ROOT
ATOM      1  C   UNL     1      11.263  17.349  15.732  1.00  0.00     0.000 C 
ENDROOT
BRANCH   1   2
ATOM      2  C   UNL     1      11.127  15.981  16.417  1.00  0.00     0.000 C 
BRANCH   2   3
ATOM      3  C   UNL     1      12.369  15.595  17.239  1.00  0.00     0.000 C 
BRANCH   3   4
ATOM      4  C   UNL     1      13.561  16.565  17.117  1.00  0.00     0.006 C 
BRANCH   4   5
ATOM      5  C   UNL     1      14.614  16.154  16.075  1.00  0.00     0.053 C 
BRANCH   5   6
ATOM      6  C   UNL     1      15.749  17.129  16.009  1.00  0.00     0.041 C 
ATOM      7  O   UNL     1      16.473  17.189  14.981  1.00  0.00    -0.550 OA
ATOM      8  O   UNL     1      16.029  17.947  17.096  1.00  0.00    -0.550 OA
ENDBRANCH   5   6
ENDBRANCH   4   5
ENDBRANCH   3   4
ENDBRANCH   2   3
ENDBRANCH   1   2
BRANCH   1   9
ATOM      9  C   UNL     1      11.274  17.202  14.206  1.00  0.00     0.000 C 
BRANCH   9  10
ATOM     10  C   UNL     1      10.654  18.429  13.529  1.00  0.00    -0.000 C 
BRANCH  10  11
ATOM     11  C   UNL     1       9.907  18.031  12.248  1.00  0.00    -0.000 C 
BRANCH  11  12
ATOM     12  C   UNL     1       9.800  16.505  12.066  1.00  0.00    -0.000 C 
BRANCH  12  13
ATOM     13  C   UNL     1       8.539  16.029  11.324  1.00  0.00    -0.003 C 
ATOM     14  C   UNL     1       8.490  16.496   9.868  1.00  0.00     0.004 C 
ENDBRANCH  12  13
ENDBRANCH  11  12
ENDBRANCH  10  11
ENDBRANCH   9  10
ENDBRANCH   1   9
TORSDOF 10
ENDMDL
MODEL 3
REMARK VINA RESULT:    -3.666      1.286      2.531
REMARK INTER + INTRA:          -6.990
REMARK INTER:                  -6.258
REMARK INTRA:                  -0.732
REMARK UNBOUND:                -1.181
REMARK SMILES CCCCCCCCCCCC(=O)[O-]
REMARK SMILES IDX 7 1 8 2 9 3 10 4 11 5 12 6 13 7 14 8 6 9 5 10 4 11 3 12 2 13
REMARK SMILES IDX 1 14
REMARK H PARENT
REMARK Flexibility Score: inf
ROOT
ATOM      1  C   UNL     1      11.573  18.359  15.395  1.00  0.00     0.000 C 
ENDROOT
BRANCH   1   2
ATOM      2  C   UNL     1      11.206  17.228  14.423  1.00  0.00     0.000 C 
BRANCH   2   3
ATOM      3  C   UNL     1      10.580  17.741  13.114  1.00  0.00     0.000 C 
BRANCH   3   4
ATOM      4  C   UNL     1       9.919  16.659  12.237  1.00  0.00     0.006 C 
BRANCH   4   5
ATOM      5  C   UNL     1       9.847  17.005  10.742  1.00  0.00     0.053 C 
BRANCH   5   6
ATOM      6  C   UNL     1       8.524  16.639  10.143  1.00  0.00     0.041 C 
ATOM      7  O   UNL     1       8.247  16.979   8.963  1.00  0.00    -0.550 OA
ATOM      8  O   UNL     1       7.583  15.952  10.900  1.00  0.00    -0.550 OA
ENDBRANCH   5   6
ENDBRANCH   4   5
ENDBRANCH   3   4
ENDBRANCH   2   3
ENDBRANCH   1   2
BRANCH   1   9
ATOM      9  C   UNL     1      11.649  17.843  16.836  1.00  0.00     0.000 C 
BRANCH   9  10
ATOM     10  C   UNL     1      11.620  16.311  16.876  1.00  0.00    -0.000 C 
BRANCH  10  11
ATOM     11  C   UNL     1      12.893  15.753  17.528  1.00  0.00    -0.000 C 
BRANCH  11  12
ATOM     12  C   UNL     1      14.126  16.647  17.297  1.00  0.00    -0.000 C 
BRANCH  12  13
ATOM     13  C   UNL     1      14.944  16.307  16.039  1.00  0.00    -0.003 C 
ATOM     14  C   UNL     1      15.707  17.508  15.479  1.00  0.00     0.004 C 
ENDBRANCH  12  13
ENDBRANCH  11  12
ENDBRANCH  10  11
ENDBRANCH   9  10
ENDBRANCH   1   9
TORSDOF 10
ENDMDL
MODEL 4
REMARK VINA RESULT:    -3.632      2.762      6.027
REMARK INTER + INTRA:          -6.936
REMARK INTER:                  -5.864
REMARK INTRA:                  -1.071
REMARK UNBOUND:                -1.181
REMARK SMILES CCCCCCCCCCCC(=O)[O-]
REMARK SMILES IDX 7 1 8 2 9 3 10 4 11 5 12 6 13 7 14 8 6 9 5 10 4 11 3 12 2 13
REMARK SMILES IDX 1 14
REMARK H PARENT
REMARK Flexibility Score: inf
ROOT
ATOM      1  C   UNL     1       9.522  19.216  12.848  1.00  0.00     0.000 C 
ENDROOT
BRANCH   1   2
ATOM      2  C   UNL     1      10.841  18.430  12.795  1.00  0.00     0.000 C 
BRANCH   2   3
ATOM      3  C   UNL     1      10.952  17.371  13.906  1.00  0.00     0.000 C 
BRANCH   3   4
ATOM      4  C   UNL     1      12.165  17.533  14.845  1.00  0.00     0.006 C 
BRANCH   4   5
ATOM      5  C   UNL     1      11.805  17.678  16.332  1.00  0.00     0.053 C 
BRANCH   5   6
ATOM      6  C   UNL     1      11.449  16.363  16.954  1.00  0.00     0.041 C 
ATOM      7  O   UNL     1      12.355  15.586  17.354  1.00  0.00    -0.550 OA
ATOM      8  O   UNL     1      10.118  15.979  17.060  1.00  0.00    -0.550 OA
ENDBRANCH   5   6
ENDBRANCH   4   5
ENDBRANCH   3   4
ENDBRANCH   2   3
ENDBRANCH   1   2
BRANCH   1   9
ATOM      9  C   UNL     1       9.107  19.688  11.449  1.00  0.00     0.000 C 
BRANCH   9  10
ATOM     10  C   UNL     1      10.094  19.195  10.385  1.00  0.00    -0.000 C 
BRANCH  10  11
ATOM     11  C   UNL     1       9.355  18.539   9.210  1.00  0.00    -0.000 C 
BRANCH  11  12
ATOM     12  C   UNL     1       8.219  17.602   9.665  1.00  0.00    -0.000 C 
BRANCH  12  13
ATOM     13  C   UNL     1       8.683  16.232  10.190  1.00  0.00    -0.003 C 
ATOM     14  C   UNL     1       8.214  15.948  11.617  1.00  0.00     0.004 C 
ENDBRANCH  12  13
ENDBRANCH  11  12
ENDBRANCH  10  11
ENDBRANCH   9  10
ENDBRANCH   1   9
TORSDOF 10
ENDMDL
MODEL 5
REMARK VINA RESULT:    -3.609      5.369      7.235
REMARK INTER + INTRA:          -6.899
REMARK INTER:                  -5.912
REMARK INTRA:                  -0.987
REMARK UNBOUND:                -1.181
REMARK SMILES CCCCCCCCCCCC(=O)[O-]
REMARK SMILES IDX 7 1 8 2 9 3 10 4 11 5 12 6 13 7 14 8 6 9 5 10 4 11 3 12 2 13
REMARK SMILES IDX 1 14
REMARK H PARENT
REMARK Flexibility Score: inf
ROOT
ATOM      1  C   UNL     1      14.685  16.644  15.954  1.00  0.00     0.000 C 
ENDROOT
BRANCH   1   2
ATOM      2  C   UNL     1      16.182  16.565  15.620  1.00  0.00     0.000 C 
BRANCH   2   3
ATOM      3  C   UNL     1      16.646  17.685  14.673  1.00  0.00     0.000 C 
BRANCH   3   4
ATOM      4  C   UNL     1      17.537  18.764  15.322  1.00  0.00     0.006 C 
BRANCH   4   5
ATOM      5  C   UNL     1      18.214  18.329  16.631  1.00  0.00     0.053 C 
BRANCH   5   6
ATOM      6  C   UNL     1      19.611  17.838  16.404  1.00  0.00     0.041 C 
ATOM      7  O   UNL     1      20.229  18.149  15.353  1.00  0.00    -0.550 OA
ATOM      8  O   UNL     1      20.218  17.007  17.339  1.00  0.00    -0.550 OA
ENDBRANCH   5   6
ENDBRANCH   4   5
ENDBRANCH   3   4
ENDBRANCH   2   3
ENDBRANCH   1   2
BRANCH   1   9
ATOM      9  C   UNL     1      14.468  17.030  17.421  1.00  0.00     0.000 C 
BRANCH   9  10
ATOM     10  C   UNL     1      13.864  18.434  17.539  1.00  0.00    -0.000 C 
BRANCH  10  11
ATOM     11  C   UNL     1      12.652  18.591  16.609  1.00  0.00    -0.000 C 
BRANCH  11  12
ATOM     12  C   UNL     1      11.430  17.778  17.074  1.00  0.00    -0.000 C 
BRANCH  12  13
ATOM     13  C   UNL     1      11.019  16.632  16.131  1.00  0.00    -0.003 C 
ATOM     14  C   UNL     1      11.171  15.251  16.767  1.00  0.00     0.004 C 
ENDBRANCH  12  13
ENDBRANCH  11  12
ENDBRANCH  10  11
ENDBRANCH   9  10
ENDBRANCH   1   9
TORSDOF 10
ENDMDL
MODEL 6
REMARK VINA RESULT:    -3.555      3.368      6.472
REMARK INTER + INTRA:          -6.814
REMARK INTER:                  -6.132
REMARK INTRA:                  -0.682
REMARK UNBOUND:                -1.181
REMARK SMILES CCCCCCCCCCCC(=O)[O-]
REMARK SMILES IDX 7 1 8 2 9 3 10 4 11 5 12 6 13 7 14 8 6 9 5 10 4 11 3 12 2 13
REMARK SMILES IDX 1 14
REMARK H PARENT
REMARK Flexibility Score: inf
ROOT
ATOM      1  C   UNL     1      10.873  18.406  14.127  1.00  0.00     0.000 C 
ENDROOT
BRANCH   1   2
ATOM      2  C   UNL     1      11.502  17.050  14.478  1.00  0.00     0.000 C 
BRANCH   2   3
ATOM      3  C   UNL     1      10.921  16.432  15.762  1.00  0.00     0.000 C 
BRANCH   3   4
ATOM      4  C   UNL     1      11.918  16.293  16.930  1.00  0.00     0.006 C 
BRANCH   4   5
ATOM      5  C   UNL     1      12.859  17.494  17.112  1.00  0.00     0.053 C 
BRANCH   5   6
ATOM      6  C   UNL     1      14.301  17.093  17.050  1.00  0.00     0.041 C 
ATOM      7  O   UNL     1      14.683  16.232  16.214  1.00  0.00    -0.550 OA
ATOM      8  O   UNL     1      15.216  17.641  17.940  1.00  0.00    -0.550 OA
ENDBRANCH   5   6
ENDBRANCH   4   5
ENDBRANCH   3   4
ENDBRANCH   2   3
ENDBRANCH   1   2
BRANCH   1   9
ATOM      9  C   UNL     1      10.009  18.302  12.866  1.00  0.00     0.000 C 
BRANCH   9  10
ATOM     10  C   UNL     1      10.200  16.947  12.176  1.00  0.00    -0.000 C 
BRANCH  10  11
ATOM     11  C   UNL     1       8.847  16.302  11.844  1.00  0.00    -0.000 C 
BRANCH  11  12
ATOM     12  C   UNL     1       8.700  15.952  10.351  1.00  0.00    -0.000 C 
BRANCH  12  13
ATOM     13  C   UNL     1       8.217  17.111   9.461  1.00  0.00    -0.003 C 
ATOM     14  C   UNL     1       7.037  17.876  10.061  1.00  0.00     0.004 C 
ENDBRANCH  12  13
ENDBRANCH  11  12
ENDBRANCH  10  11
ENDBRANCH   9  10
ENDBRANCH   1   9
TORSDOF 10
ENDMDL
MODEL 7
REMARK VINA RESULT:    -3.546      4.986      6.765
REMARK INTER + INTRA:          -6.800
REMARK INTER:                  -5.794
REMARK INTRA:                  -1.006
REMARK UNBOUND:                -1.181
REMARK SMILES CCCCCCCCCCCC(=O)[O-]
REMARK SMILES IDX 7 1 8 2 9 3 10 4 11 5 12 6 13 7 14 8 6 9 5 10 4 11 3 12 2 13
REMARK SMILES IDX 1 14
REMARK H PARENT
REMARK Flexibility Score: inf
ROOT
ATOM      1  C   UNL     1      14.854  17.372  17.388  1.00  0.00     0.000 C 
ENDROOT
BRANCH   1   2
ATOM      2  C   UNL     1      15.321  16.818  16.033  1.00  0.00     0.000 C 
BRANCH   2   3
ATOM      3  C   UNL     1      15.553  17.919  14.983  1.00  0.00     0.000 C 
BRANCH   3   4
ATOM      4  C   UNL     1      16.921  17.868  14.274  1.00  0.00     0.006 C 
BRANCH   4   5
ATOM      5  C   UNL     1      17.954  18.873  14.809  1.00  0.00     0.053 C 
BRANCH   5   6
ATOM      6  C   UNL     1      18.995  18.211  15.658  1.00  0.00     0.041 C 
ATOM      7  O   UNL     1      18.668  17.637  16.729  1.00  0.00    -0.550 OA
ATOM      8  O   UNL     1      20.333  18.259  15.284  1.00  0.00    -0.550 OA
ENDBRANCH   5   6
ENDBRANCH   4   5
ENDBRANCH   3   4
ENDBRANCH   2   3
ENDBRANCH   1   2
BRANCH   1   9
ATOM      9  C   UNL     1      13.358  17.111  17.602  1.00  0.00     0.000 C 
BRANCH   9  10
ATOM     10  C   UNL     1      13.031  15.621  17.455  1.00  0.00    -0.000 C 
BRANCH  10  11
ATOM     11  C   UNL     1      11.660  15.422  16.793  1.00  0.00    -0.000 C 
BRANCH  11  12
ATOM     12  C   UNL     1      11.035  16.741  16.300  1.00  0.00    -0.000 C 
BRANCH  12  13
ATOM     13  C   UNL     1      11.136  16.977  14.783  1.00  0.00    -0.003 C 
ATOM     14  C   UNL     1      11.870  18.271  14.426  1.00  0.00     0.004 C 
ENDBRANCH  12  13
ENDBRANCH  11  12
ENDBRANCH  10  11
ENDBRANCH   9  10
ENDBRANCH   1   9
TORSDOF 10
ENDMDL
MODEL 8
REMARK VINA RESULT:    -3.531      3.759      6.065
REMARK INTER + INTRA:          -6.775
REMARK INTER:                  -5.355
REMARK INTRA:                  -1.420
REMARK UNBOUND:                -1.181
REMARK SMILES CCCCCCCCCCCC(=O)[O-]
REMARK SMILES IDX 7 1 8 2 9 3 10 4 11 5 12 6 13 7 14 8 6 9 5 10 4 11 3 12 2 13
REMARK SMILES IDX 1 14
REMARK H PARENT
REMARK Flexibility Score: inf
ROOT
ATOM      1  C   UNL     1      11.292  15.560  16.553  1.00  0.00     0.000 C 
ENDROOT
BRANCH   1   2
ATOM      2  C   UNL     1      12.640  15.513  17.288  1.00  0.00     0.000 C 
BRANCH   2   3
ATOM      3  C   UNL     1      13.252  16.907  17.508  1.00  0.00     0.000 C 
BRANCH   3   4
ATOM      4  C   UNL     1      14.767  17.006  17.239  1.00  0.00     0.006 C 
BRANCH   4   5
ATOM      5  C   UNL     1      15.180  16.696  15.792  1.00  0.00     0.053 C 
BRANCH   5   6
ATOM      6  C   UNL     1      16.506  17.301  15.444  1.00  0.00     0.041 C 
ATOM      7  O   UNL     1      17.336  17.572  16.351  1.00  0.00    -0.550 OA
ATOM      8  O   UNL     1      16.810  17.599  14.122  1.00  0.00    -0.550 OA
ENDBRANCH   5   6
ENDBRANCH   4   5
ENDBRANCH   3   4
ENDBRANCH   2   3
ENDBRANCH   1   2
BRANCH   1   9
ATOM      9  C   UNL     1      11.022  16.958  15.986  1.00  0.00     0.000 C 
BRANCH   9  10
ATOM     10  C   UNL     1      11.033  16.944  14.453  1.00  0.00    -0.000 C 
BRANCH  10  11
ATOM     11  C   UNL     1      11.386  18.329  13.893  1.00  0.00    -0.000 C 
BRANCH  11  12
ATOM     12  C   UNL     1      12.191  19.189  14.885  1.00  0.00    -0.000 C 
BRANCH  12  13
ATOM     13  C   UNL     1      13.534  19.712  14.346  1.00  0.00    -0.003 C 
ATOM     14  C   UNL     1      14.391  20.381  15.421  1.00  0.00     0.004 C 
ENDBRANCH  12  13
ENDBRANCH  11  12
ENDBRANCH  10  11
ENDBRANCH   9  10
ENDBRANCH   1   9
TORSDOF 10
ENDMDL
MODEL 9
REMARK VINA RESULT:    -3.514      2.680      5.700
REMARK INTER + INTRA:          -6.749
REMARK INTER:                  -5.908
REMARK INTRA:                  -0.840
REMARK UNBOUND:                -1.181
REMARK SMILES CCCCCCCCCCCC(=O)[O-]
REMARK SMILES IDX 7 1 8 2 9 3 10 4 11 5 12 6 13 7 14 8 6 9 5 10 4 11 3 12 2 13
REMARK SMILES IDX 1 14
REMARK H PARENT
REMARK Flexibility Score: inf
ROOT
ATOM      1  C   UNL     1      10.299  19.383  13.892  1.00  0.00     0.000 C 
ENDROOT
BRANCH   1   2
ATOM      2  C   UNL     1      11.814  19.561  13.712  1.00  0.00     0.000 C 
BRANCH   2   3
ATOM      3  C   UNL     1      12.639  18.701  14.684  1.00  0.00     0.000 C 
BRANCH   3   4
ATOM      4  C   UNL     1      11.944  17.412  15.168  1.00  0.00     0.006 C 
BRANCH   4   5
ATOM      5  C   UNL     1      12.890  16.372  15.790  1.00  0.00     0.053 C 
BRANCH   5   6
ATOM      6  C   UNL     1      12.242  15.627  16.916  1.00  0.00     0.041 C 
ATOM      7  O   UNL     1      11.008  15.382  16.886  1.00  0.00    -0.550 OA
ATOM      8  O   UNL     1      12.996  15.233  18.015  1.00  0.00    -0.550 OA
ENDBRANCH   5   6
ENDBRANCH   4   5
ENDBRANCH   3   4
ENDBRANCH   2   3
ENDBRANCH   1   2
BRANCH   1   9
ATOM      9  C   UNL     1       9.607  19.157  12.543  1.00  0.00     0.000 C 
BRANCH   9  10
ATOM     10  C   UNL     1      10.323  18.073  11.730  1.00  0.00    -0.000 C 
BRANCH  10  11
ATOM     11  C   UNL     1       9.927  16.671  12.213  1.00  0.00    -0.000 C 
BRANCH  11  12
ATOM     12  C   UNL     1       8.581  16.195  11.632  1.00  0.00    -0.000 C 
BRANCH  12  13
ATOM     13  C   UNL     1       8.476  16.274  10.099  1.00  0.00    -0.003 C 
ATOM     14  C   UNL     1       7.507  17.357   9.621  1.00  0.00     0.004 C 
ENDBRANCH  12  13
ENDBRANCH  11  12
ENDBRANCH  10  11
ENDBRANCH   9  10
ENDBRANCH   1   9
TORSDOF 10
ENDMDL
