MODEL 1
REMARK VINA RESULT:    -5.282      0.000      0.000
REMARK INTER + INTRA:          -8.434
REMARK INTER:                  -7.289
REMARK INTRA:                  -1.145
REMARK UNBOUND:                -1.145
REMARK SMILES CC[C@@H](CC[C@H](C)[C@H]1CC[C@@H]2[C@H]3CC=C4C[C@H](O)CC[C@@]4(C)[C@H]3CC[C@@]21C)C(C)C
REMARK SMILES IDX 5 1 4 2 3 3 2 4 1 5 28 6 29 7 30 8 6 9 7 10 8 11 9 12 26 13
REMARK SMILES IDX 10 14 11 15 25 16 27 17 12 18 24 19 23 20 13 21 21 22 14 23
REMARK SMILES IDX 15 24 20 25 22 26 16 27 19 28 17 29 18 30
REMARK H PARENT 18 31
REMARK Flexibility Score: inf
ROOT
ATOM      1  C   UNL     1     -25.294  -0.495   8.168  1.00  0.00     0.004 C 
ENDROOT
BRANCH   1   2
ATOM      2  C   UNL     1     -26.015   0.303   9.272  1.00  0.00     0.004 C 
BRANCH   2   3
ATOM      3  C   UNL     1     -27.070   1.284   8.697  1.00  0.00    -0.009 C 
BRANCH   3   4
ATOM      4  C   UNL     1     -27.014   2.656   9.440  1.00  0.00     0.000 C 
ATOM      5  C   UNL     1     -27.356   3.832   8.522  1.00  0.00     0.004 C 
ENDBRANCH   3   4
BRANCH   3   6
ATOM      6  C   UNL     1     -28.493   0.633   8.683  1.00  0.00    -0.014 C 
ATOM      7  C   UNL     1     -28.820  -0.137   7.390  1.00  0.00     0.007 C 
ATOM      8  C   UNL     1     -28.737  -0.254   9.911  1.00  0.00     0.007 C 
ENDBRANCH   3   6
ENDBRANCH   2   3
ENDBRANCH   1   2
BRANCH   1   9
ATOM      9  C   UNL     1     -24.995  -1.961   8.594  1.00  0.00    -0.011 C 
ATOM     10  C   UNL     1     -25.811  -2.295   9.865  1.00  0.00     0.008 C 
BRANCH   9  11
ATOM     11  C   UNL     1     -23.448  -2.210   8.735  1.00  0.00    -0.002 C 
ATOM     12  C   UNL     1     -22.946  -2.572  10.125  1.00  0.00     0.005 C 
ATOM     13  C   UNL     1     -22.797  -3.266   7.795  1.00  0.00    -0.026 C 
ATOM     14  C   UNL     1     -21.501  -2.990   9.897  1.00  0.00     0.005 C 
ATOM     15  C   UNL     1     -21.394  -3.520   8.441  1.00  0.00    -0.001 C 
ATOM     16  C   UNL     1     -22.685  -2.720   6.346  1.00  0.00     0.007 C 
ATOM     17  C   UNL     1     -23.594  -4.602   7.783  1.00  0.00     0.012 C 
ATOM     18  C   UNL     1     -20.201  -2.857   7.664  1.00  0.00     0.000 C 
ATOM     19  C   UNL     1     -21.604  -3.460   5.562  1.00  0.00     0.005 C 
ATOM     20  C   UNL     1     -20.177  -3.194   6.116  1.00  0.00     0.003 C 
ATOM     21  C   UNL     1     -18.852  -3.191   8.341  1.00  0.00     0.031 C 
ATOM     22  C   UNL     1     -19.061  -4.259   5.660  1.00  0.00    -0.008 C 
ATOM     23  C   UNL     1     -18.489  -4.617   8.070  1.00  0.00    -0.027 C 
ATOM     24  C   UNL     1     -18.672  -5.166   6.853  1.00  0.00    -0.065 C 
ATOM     25  C   UNL     1     -19.463  -5.094   4.379  1.00  0.00     0.014 C 
ATOM     26  C   UNL     1     -17.779  -3.479   5.238  1.00  0.00     0.016 C 
ATOM     27  C   UNL     1     -18.579  -6.684   6.786  1.00  0.00     0.063 C 
ATOM     28  C   UNL     1     -19.941  -6.519   4.665  1.00  0.00     0.033 C 
ATOM     29  C   UNL     1     -18.863  -7.303   5.409  1.00  0.00     0.118 C 
BRANCH  29  30
ATOM     30  O   UNL     1     -17.695  -7.436   4.631  1.00  0.00    -0.393 OA
ATOM     31  H   UNL     1     -17.686  -6.718   3.947  1.00  0.00     0.210 HD
ENDBRANCH  29  30
ENDBRANCH   9  11
ENDBRANCH   1   9
TORSDOF 7
ENDMDL
MODEL 2
REMARK VINA RESULT:    -5.125      6.982     13.791
REMARK INTER + INTRA:          -8.217
REMARK INTER:                  -7.149
REMARK INTRA:                  -1.069
REMARK UNBOUND:                -1.145
REMARK SMILES CC[C@@H](CC[C@H](C)[C@H]1CC[C@@H]2[C@H]3CC=C4C[C@H](O)CC[C@@]4(C)[C@H]3CC[C@@]21C)C(C)C
REMARK SMILES IDX 5 1 4 2 3 3 2 4 1 5 28 6 29 7 30 8 6 9 7 10 8 11 9 12 26 13
REMARK SMILES IDX 10 14 11 15 25 16 27 17 12 18 24 19 23 20 13 21 21 22 14 23
REMARK SMILES IDX 15 24 20 25 22 26 16 27 19 28 17 29 18 30
REMARK H PARENT 18 31
REMARK Flexibility Score: inf
ROOT
ATOM      1  C   UNL     1     -29.068   0.367   8.207  1.00  0.00     0.004 C 
ENDROOT
BRANCH   1   2
ATOM      2  C   UNL     1     -28.265  -0.432   9.251  1.00  0.00     0.004 C 
BRANCH   2   3
ATOM      3  C   UNL     1     -27.243  -1.397   8.595  1.00  0.00    -0.009 C 
BRANCH   3   4
ATOM      4  C   UNL     1     -27.223  -2.772   9.336  1.00  0.00     0.000 C 
ATOM      5  C   UNL     1     -26.954  -3.943   8.389  1.00  0.00     0.004 C 
ENDBRANCH   3   4
BRANCH   3   6
ATOM      6  C   UNL     1     -25.834  -0.727   8.475  1.00  0.00    -0.014 C 
ATOM      7  C   UNL     1     -25.782   0.457   7.492  1.00  0.00     0.007 C 
ATOM      8  C   UNL     1     -25.271  -0.313   9.842  1.00  0.00     0.007 C 
ENDBRANCH   3   6
ENDBRANCH   2   3
ENDBRANCH   1   2
BRANCH   1   9
ATOM      9  C   UNL     1     -29.246   1.859   8.611  1.00  0.00    -0.011 C 
ATOM     10  C   UNL     1     -28.373   2.155   9.853  1.00  0.00     0.008 C 
BRANCH   9  11
ATOM     11  C   UNL     1     -30.766   2.224   8.786  1.00  0.00    -0.002 C 
ATOM     12  C   UNL     1     -31.165   2.829  10.125  1.00  0.00     0.005 C 
ATOM     13  C   UNL     1     -31.412   3.162   7.725  1.00  0.00    -0.026 C 
ATOM     14  C   UNL     1     -32.596   3.297   9.906  1.00  0.00     0.005 C 
ATOM     15  C   UNL     1     -32.758   3.602   8.392  1.00  0.00    -0.001 C 
ATOM     16  C   UNL     1     -31.639   2.406   6.388  1.00  0.00     0.007 C 
ATOM     17  C   UNL     1     -30.544   4.427   7.463  1.00  0.00     0.012 C 
ATOM     18  C   UNL     1     -34.030   2.904   7.789  1.00  0.00     0.000 C 
ATOM     19  C   UNL     1     -32.722   3.084   5.551  1.00  0.00     0.005 C 
ATOM     20  C   UNL     1     -34.126   2.999   6.210  1.00  0.00     0.003 C 
ATOM     21  C   UNL     1     -35.316   3.424   8.470  1.00  0.00     0.031 C 
ATOM     22  C   UNL     1     -35.207   4.049   5.647  1.00  0.00    -0.008 C 
ATOM     23  C   UNL     1     -35.616   4.812   7.996  1.00  0.00    -0.027 C 
ATOM     24  C   UNL     1     -35.474   5.152   6.700  1.00  0.00    -0.065 C 
ATOM     25  C   UNL     1     -34.835   4.648   4.232  1.00  0.00     0.014 C 
ATOM     26  C   UNL     1     -36.552   3.297   5.417  1.00  0.00     0.016 C 
ATOM     27  C   UNL     1     -35.486   6.645   6.399  1.00  0.00     0.063 C 
ATOM     28  C   UNL     1     -34.263   6.067   4.266  1.00  0.00     0.033 C 
ATOM     29  C   UNL     1     -35.251   7.023   4.928  1.00  0.00     0.118 C 
BRANCH  29  30
ATOM     30  O   UNL     1     -36.453   7.109   4.198  1.00  0.00    -0.393 OA
ATOM     31  H   UNL     1     -36.678   8.066   4.068  1.00  0.00     0.210 HD
ENDBRANCH  29  30
ENDBRANCH   9  11
ENDBRANCH   1   9
TORSDOF 7
ENDMDL
MODEL 3
REMARK VINA RESULT:    -4.052      3.119      8.398
REMARK INTER + INTRA:          -6.737
REMARK INTER:                  -4.748
REMARK INTRA:                  -1.988
REMARK UNBOUND:                -1.145
REMARK SMILES CC[C@@H](CC[C@H](C)[C@H]1CC[C@@H]2[C@H]3CC=C4C[C@H](O)CC[C@@]4(C)[C@H]3CC[C@@]21C)C(C)C
REMARK SMILES IDX 5 1 4 2 3 3 2 4 1 5 28 6 29 7 30 8 6 9 7 10 8 11 9 12 26 13
REMARK SMILES IDX 10 14 11 15 25 16 27 17 12 18 24 19 23 20 13 21 21 22 14 23
REMARK SMILES IDX 15 24 20 25 22 26 16 27 19 28 17 29 18 30
REMARK H PARENT 18 31
REMARK Flexibility Score: inf
ROOT
ATOM      1  C   UNL     1     -17.382  -4.030   3.333  1.00  0.00     0.004 C 
ENDROOT
BRANCH   1   2
ATOM      2  C   UNL     1     -16.875  -5.008   4.413  1.00  0.00     0.004 C 
BRANCH   2   3
ATOM      3  C   UNL     1     -17.577  -6.389   4.332  1.00  0.00    -0.009 C 
BRANCH   3   4
ATOM      4  C   UNL     1     -18.737  -6.361   3.287  1.00  0.00     0.000 C 
ATOM      5  C   UNL     1     -20.117  -6.335   3.947  1.00  0.00     0.004 C 
ENDBRANCH   3   4
BRANCH   3   6
ATOM      6  C   UNL     1     -18.020  -6.877   5.751  1.00  0.00    -0.014 C 
ATOM      7  C   UNL     1     -17.664  -8.345   6.050  1.00  0.00     0.007 C 
ATOM      8  C   UNL     1     -17.501  -5.961   6.868  1.00  0.00     0.007 C 
ENDBRANCH   3   6
ENDBRANCH   2   3
ENDBRANCH   1   2
BRANCH   1   9
ATOM      9  C   UNL     1     -17.949  -2.716   3.943  1.00  0.00    -0.011 C 
ATOM     10  C   UNL     1     -16.954  -1.563   3.676  1.00  0.00     0.008 C 
BRANCH   9  11
ATOM     11  C   UNL     1     -18.327  -2.908   5.458  1.00  0.00    -0.002 C 
ATOM     12  C   UNL     1     -17.545  -2.070   6.460  1.00  0.00     0.005 C 
ATOM     13  C   UNL     1     -19.817  -2.712   5.863  1.00  0.00    -0.026 C 
ATOM     14  C   UNL     1     -18.287  -2.277   7.772  1.00  0.00     0.005 C 
ATOM     15  C   UNL     1     -19.764  -2.604   7.424  1.00  0.00    -0.001 C 
ATOM     16  C   UNL     1     -20.678  -3.914   5.387  1.00  0.00     0.007 C 
ATOM     17  C   UNL     1     -20.407  -1.393   5.287  1.00  0.00     0.012 C 
ATOM     18  C   UNL     1     -20.270  -3.889   8.173  1.00  0.00     0.000 C 
ATOM     19  C   UNL     1     -21.962  -4.027   6.206  1.00  0.00     0.005 C 
ATOM     20  C   UNL     1     -21.693  -4.394   7.691  1.00  0.00     0.003 C 
ATOM     21  C   UNL     1     -20.228  -3.684   9.704  1.00  0.00     0.031 C 
ATOM     22  C   UNL     1     -22.910  -4.090   8.699  1.00  0.00    -0.008 C 
ATOM     23  C   UNL     1     -21.334  -2.768  10.124  1.00  0.00    -0.027 C 
ATOM     24  C   UNL     1     -22.568  -2.874   9.593  1.00  0.00    -0.065 C 
ATOM     25  C   UNL     1     -24.308  -3.930   7.978  1.00  0.00     0.014 C 
ATOM     26  C   UNL     1     -23.088  -5.319   9.640  1.00  0.00     0.016 C 
ATOM     27  C   UNL     1     -23.505  -1.701   9.846  1.00  0.00     0.063 C 
ATOM     28  C   UNL     1     -24.784  -2.485   7.814  1.00  0.00     0.033 C 
ATOM     29  C   UNL     1     -24.883  -1.800   9.175  1.00  0.00     0.118 C 
BRANCH  29  30
ATOM     30  O   UNL     1     -25.837  -2.430  10.000  1.00  0.00    -0.393 OA
ATOM     31  H   UNL     1     -26.128  -3.271   9.563  1.00  0.00     0.210 HD
ENDBRANCH  29  30
ENDBRANCH   9  11
ENDBRANCH   1   9
TORSDOF 7
ENDMDL
MODEL 4
REMARK VINA RESULT:    -3.980      9.751     13.944
REMARK INTER + INTRA:          -6.637
REMARK INTER:                  -4.678
REMARK INTRA:                  -1.959
REMARK UNBOUND:                -1.145
REMARK SMILES CC[C@@H](CC[C@H](C)[C@H]1CC[C@@H]2[C@H]3CC=C4C[C@H](O)CC[C@@]4(C)[C@H]3CC[C@@]21C)C(C)C
REMARK SMILES IDX 5 1 4 2 3 3 2 4 1 5 28 6 29 7 30 8 6 9 7 10 8 11 9 12 26 13
REMARK SMILES IDX 10 14 11 15 25 16 27 17 12 18 24 19 23 20 13 21 21 22 14 23
REMARK SMILES IDX 15 24 20 25 22 26 16 27 19 28 17 29 18 30
REMARK H PARENT 18 31
REMARK Flexibility Score: inf
ROOT
ATOM      1  C   UNL     1     -36.984   4.207   3.349  1.00  0.00     0.004 C 
ENDROOT
BRANCH   1   2
ATOM      2  C   UNL     1     -37.058   5.328   4.404  1.00  0.00     0.004 C 
BRANCH   2   3
ATOM      3  C   UNL     1     -36.400   6.644   3.912  1.00  0.00    -0.009 C 
BRANCH   3   4
ATOM      4  C   UNL     1     -35.212   6.342   2.944  1.00  0.00     0.000 C 
ATOM      5  C   UNL     1     -33.852   6.638   3.579  1.00  0.00     0.004 C 
ENDBRANCH   3   4
BRANCH   3   6
ATOM      6  C   UNL     1     -36.012   7.563   5.117  1.00  0.00    -0.014 C 
ATOM      7  C   UNL     1     -36.851   8.850   5.223  1.00  0.00     0.007 C 
ATOM      8  C   UNL     1     -36.022   6.805   6.451  1.00  0.00     0.007 C 
ENDBRANCH   3   6
ENDBRANCH   2   3
ENDBRANCH   1   2
BRANCH   1   9
ATOM      9  C   UNL     1     -36.133   2.996   3.830  1.00  0.00    -0.011 C 
ATOM     10  C   UNL     1     -36.836   1.684   3.410  1.00  0.00     0.008 C 
BRANCH   9  11
ATOM     11  C   UNL     1     -35.816   3.097   5.368  1.00  0.00    -0.002 C 
ATOM     12  C   UNL     1     -36.562   2.129   6.275  1.00  0.00     0.005 C 
ATOM     13  C   UNL     1     -34.328   2.980   5.809  1.00  0.00    -0.026 C 
ATOM     14  C   UNL     1     -35.877   2.288   7.624  1.00  0.00     0.005 C 
ATOM     15  C   UNL     1     -34.419   2.748   7.354  1.00  0.00    -0.001 C 
ATOM     16  C   UNL     1     -33.546   4.274   5.455  1.00  0.00     0.007 C 
ATOM     17  C   UNL     1     -33.623   1.756   5.157  1.00  0.00     0.012 C 
ATOM     18  C   UNL     1     -34.034   4.004   8.216  1.00  0.00     0.000 C 
ATOM     19  C   UNL     1     -32.299   4.417   6.325  1.00  0.00     0.005 C 
ATOM     20  C   UNL     1     -32.640   4.648   7.824  1.00  0.00     0.003 C 
ATOM     21  C   UNL     1     -34.107   3.679   9.724  1.00  0.00     0.031 C 
ATOM     22  C   UNL     1     -31.434   4.357   8.848  1.00  0.00    -0.008 C 
ATOM     23  C   UNL     1     -32.947   2.816  10.114  1.00  0.00    -0.027 C 
ATOM     24  C   UNL     1     -31.710   3.053   9.636  1.00  0.00    -0.065 C 
ATOM     25  C   UNL     1     -30.007   4.355   8.168  1.00  0.00     0.014 C 
ATOM     26  C   UNL     1     -31.377   5.519   9.885  1.00  0.00     0.016 C 
ATOM     27  C   UNL     1     -30.695   1.935   9.834  1.00  0.00     0.063 C 
ATOM     28  C   UNL     1     -29.418   2.966   7.913  1.00  0.00     0.033 C 
ATOM     29  C   UNL     1     -29.308   2.187   9.221  1.00  0.00     0.118 C 
BRANCH  29  30
ATOM     30  O   UNL     1     -28.431   2.819  10.125  1.00  0.00    -0.393 OA
ATOM     31  H   UNL     1     -28.304   2.227  10.910  1.00  0.00     0.210 HD
ENDBRANCH  29  30
ENDBRANCH   9  11
ENDBRANCH   1   9
TORSDOF 7
ENDMDL
MODEL 5
REMARK VINA RESULT:    -3.020      5.928      9.428
REMARK INTER + INTRA:          -5.312
REMARK INTER:                  -4.570
REMARK INTRA:                  -0.742
REMARK UNBOUND:                -1.145
REMARK SMILES CC[C@@H](CC[C@H](C)[C@H]1CC[C@@H]2[C@H]3CC=C4C[C@H](O)CC[C@@]4(C)[C@H]3CC[C@@]21C)C(C)C
REMARK SMILES IDX 5 1 4 2 3 3 2 4 1 5 28 6 29 7 30 8 6 9 7 10 8 11 9 12 26 13
REMARK SMILES IDX 10 14 11 15 25 16 27 17 12 18 24 19 23 20 13 21 21 22 14 23
REMARK SMILES IDX 15 24 20 25 22 26 16 27 19 28 17 29 18 30
REMARK H PARENT 18 31
REMARK Flexibility Score: inf
ROOT
ATOM      1  C   UNL     1     -33.118   3.501   7.453  1.00  0.00     0.004 C 
ENDROOT
BRANCH   1   2
ATOM      2  C   UNL     1     -33.834   4.584   6.623  1.00  0.00     0.004 C 
BRANCH   2   3
ATOM      3  C   UNL     1     -33.917   4.214   5.119  1.00  0.00    -0.009 C 
BRANCH   3   4
ATOM      4  C   UNL     1     -33.575   5.448   4.225  1.00  0.00     0.000 C 
ATOM      5  C   UNL     1     -34.815   6.053   3.564  1.00  0.00     0.004 C 
ENDBRANCH   3   4
BRANCH   3   6
ATOM      6  C   UNL     1     -35.293   3.553   4.778  1.00  0.00    -0.014 C 
ATOM      7  C   UNL     1     -35.220   2.034   4.540  1.00  0.00     0.007 C 
ATOM      8  C   UNL     1     -36.369   3.880   5.824  1.00  0.00     0.007 C 
ENDBRANCH   3   6
ENDBRANCH   2   3
ENDBRANCH   1   2
BRANCH   1   9
ATOM      9  C   UNL     1     -32.438   4.082   8.726  1.00  0.00    -0.011 C 
ATOM     10  C   UNL     1     -32.953   5.521   8.963  1.00  0.00     0.008 C 
BRANCH   9  11
ATOM     11  C   UNL     1     -30.872   3.961   8.642  1.00  0.00    -0.002 C 
ATOM     12  C   UNL     1     -30.073   4.880   9.555  1.00  0.00     0.005 C 
ATOM     13  C   UNL     1     -30.242   2.554   8.855  1.00  0.00    -0.026 C 
ATOM     14  C   UNL     1     -28.646   4.366   9.438  1.00  0.00     0.005 C 
ATOM     15  C   UNL     1     -28.723   2.858   9.076  1.00  0.00    -0.001 C 
ATOM     16  C   UNL     1     -30.485   1.649   7.616  1.00  0.00     0.007 C 
ATOM     17  C   UNL     1     -30.804   1.852  10.125  1.00  0.00     0.012 C 
ATOM     18  C   UNL     1     -27.813   2.506   7.845  1.00  0.00     0.000 C 
ATOM     19  C   UNL     1     -29.461   0.518   7.553  1.00  0.00     0.005 C 
ATOM     20  C   UNL     1     -28.018   1.034   7.296  1.00  0.00     0.003 C 
ATOM     21  C   UNL     1     -26.328   2.794   8.160  1.00  0.00     0.031 C 
ATOM     22  C   UNL     1     -26.848  -0.008   7.663  1.00  0.00    -0.008 C 
ATOM     23  C   UNL     1     -25.796   1.754   9.096  1.00  0.00    -0.027 C 
ATOM     24  C   UNL     1     -26.109   0.452   8.943  1.00  0.00    -0.065 C 
ATOM     25  C   UNL     1     -27.338  -1.508   7.760  1.00  0.00     0.014 C 
ATOM     26  C   UNL     1     -25.806  -0.007   6.504  1.00  0.00     0.016 C 
ATOM     27  C   UNL     1     -25.788  -0.453  10.124  1.00  0.00     0.063 C 
ATOM     28  C   UNL     1     -27.522  -2.032   9.186  1.00  0.00     0.033 C 
ATOM     29  C   UNL     1     -26.216  -1.920   9.967  1.00  0.00     0.118 C 
BRANCH  29  30
ATOM     30  O   UNL     1     -25.203  -2.714   9.391  1.00  0.00    -0.393 OA
ATOM     31  H   UNL     1     -25.620  -3.343   8.748  1.00  0.00     0.210 HD
ENDBRANCH  29  30
ENDBRANCH   9  11
ENDBRANCH   1   9
TORSDOF 7
ENDMDL
MODEL 6
REMARK VINA RESULT:    -2.928      3.251      8.727
REMARK INTER + INTRA:          -5.186
REMARK INTER:                  -3.887
REMARK INTRA:                  -1.299
REMARK UNBOUND:                -1.145
REMARK SMILES CC[C@@H](CC[C@H](C)[C@H]1CC[C@@H]2[C@H]3CC=C4C[C@H](O)CC[C@@]4(C)[C@H]3CC[C@@]21C)C(C)C
REMARK SMILES IDX 5 1 4 2 3 3 2 4 1 5 28 6 29 7 30 8 6 9 7 10 8 11 9 12 26 13
REMARK SMILES IDX 10 14 11 15 25 16 27 17 12 18 24 19 23 20 13 21 21 22 14 23
REMARK SMILES IDX 15 24 20 25 22 26 16 27 19 28 17 29 18 30
REMARK H PARENT 18 31
REMARK Flexibility Score: inf
ROOT
ATOM      1  C   UNL     1     -20.809  -4.817   7.252  1.00  0.00     0.004 C 
ENDROOT
BRANCH   1   2
ATOM      2  C   UNL     1     -19.385  -4.236   7.157  1.00  0.00     0.004 C 
BRANCH   2   3
ATOM      3  C   UNL     1     -19.388  -2.728   6.791  1.00  0.00    -0.009 C 
BRANCH   3   4
ATOM      4  C   UNL     1     -19.106  -2.527   5.268  1.00  0.00     0.000 C 
ATOM      5  C   UNL     1     -18.365  -3.714   4.648  1.00  0.00     0.004 C 
ENDBRANCH   3   4
BRANCH   3   6
ATOM      6  C   UNL     1     -18.421  -1.922   7.721  1.00  0.00    -0.014 C 
ATOM      7  C   UNL     1     -17.295  -2.769   8.343  1.00  0.00     0.007 C 
ATOM      8  C   UNL     1     -17.838  -0.687   7.021  1.00  0.00     0.007 C 
ENDBRANCH   3   6
ENDBRANCH   2   3
ENDBRANCH   1   2
BRANCH   1   9
ATOM      9  C   UNL     1     -21.444  -4.602   8.657  1.00  0.00    -0.011 C 
ATOM     10  C   UNL     1     -20.965  -5.726   9.605  1.00  0.00     0.008 C 
BRANCH   9  11
ATOM     11  C   UNL     1     -23.008  -4.461   8.559  1.00  0.00    -0.002 C 
ATOM     12  C   UNL     1     -23.827  -5.398   9.436  1.00  0.00     0.005 C 
ATOM     13  C   UNL     1     -23.624  -3.053   8.809  1.00  0.00    -0.026 C 
ATOM     14  C   UNL     1     -25.247  -4.864   9.319  1.00  0.00     0.005 C 
ATOM     15  C   UNL     1     -25.149  -3.347   9.004  1.00  0.00    -0.001 C 
ATOM     16  C   UNL     1     -23.357  -2.114   7.601  1.00  0.00     0.007 C 
ATOM     17  C   UNL     1     -23.068  -2.398  10.105  1.00  0.00     0.012 C 
ATOM     18  C   UNL     1     -26.042  -2.947   7.775  1.00  0.00     0.000 C 
ATOM     19  C   UNL     1     -24.368  -0.970   7.562  1.00  0.00     0.005 C 
ATOM     20  C   UNL     1     -25.814  -1.461   7.274  1.00  0.00     0.003 C 
ATOM     21  C   UNL     1     -27.533  -3.227   8.066  1.00  0.00     0.031 C 
ATOM     22  C   UNL     1     -26.976  -0.417   7.660  1.00  0.00    -0.008 C 
ATOM     23  C   UNL     1     -28.063  -2.210   9.027  1.00  0.00    -0.027 C 
ATOM     24  C   UNL     1     -27.734  -0.908   8.917  1.00  0.00    -0.065 C 
ATOM     25  C   UNL     1     -26.470   1.073   7.809  1.00  0.00     0.014 C 
ATOM     26  C   UNL     1     -28.005  -0.371   6.491  1.00  0.00     0.016 C 
ATOM     27  C   UNL     1     -28.057  -0.036  10.123  1.00  0.00     0.063 C 
ATOM     28  C   UNL     1     -26.295   1.551   9.252  1.00  0.00     0.033 C 
ATOM     29  C   UNL     1     -27.612   1.431  10.015  1.00  0.00     0.118 C 
BRANCH  29  30
ATOM     30  O   UNL     1     -28.610   2.253   9.453  1.00  0.00    -0.393 OA
ATOM     31  H   UNL     1     -28.187   2.856   8.789  1.00  0.00     0.210 HD
ENDBRANCH  29  30
ENDBRANCH   9  11
ENDBRANCH   1   9
TORSDOF 7
ENDMDL
MODEL 7
REMARK VINA RESULT:    -2.769      7.046     14.333
REMARK INTER + INTRA:          -4.966
REMARK INTER:                  -4.770
REMARK INTRA:                  -0.195
REMARK UNBOUND:                -1.145
REMARK SMILES CC[C@@H](CC[C@H](C)[C@H]1CC[C@@H]2[C@H]3CC=C4C[C@H](O)CC[C@@]4(C)[C@H]3CC[C@@]21C)C(C)C
REMARK SMILES IDX 5 1 4 2 3 3 2 4 1 5 28 6 29 7 30 8 6 9 7 10 8 11 9 12 26 13
REMARK SMILES IDX 10 14 11 15 25 16 27 17 12 18 24 19 23 20 13 21 21 22 14 23
REMARK SMILES IDX 15 24 20 25 22 26 16 27 19 28 17 29 18 30
REMARK H PARENT 18 31
REMARK Flexibility Score: inf
ROOT
ATOM      1  C   UNL     1     -27.661   2.834   9.290  1.00  0.00     0.004 C 
ENDROOT
BRANCH   1   2
ATOM      2  C   UNL     1     -26.621   1.962  10.022  1.00  0.00     0.004 C 
BRANCH   2   3
ATOM      3  C   UNL     1     -26.586   0.509   9.480  1.00  0.00    -0.009 C 
BRANCH   3   4
ATOM      4  C   UNL     1     -25.155  -0.101   9.618  1.00  0.00     0.000 C 
ATOM      5  C   UNL     1     -25.182  -1.549  10.110  1.00  0.00     0.004 C 
ENDBRANCH   3   4
BRANCH   3   6
ATOM      6  C   UNL     1     -27.163   0.437   8.027  1.00  0.00    -0.014 C 
ATOM      7  C   UNL     1     -26.089   0.344   6.928  1.00  0.00     0.007 C 
ATOM      8  C   UNL     1     -28.192  -0.692   7.867  1.00  0.00     0.007 C 
ENDBRANCH   3   6
ENDBRANCH   2   3
ENDBRANCH   1   2
BRANCH   1   9
ATOM      9  C   UNL     1     -28.959   3.033  10.125  1.00  0.00    -0.011 C 
ATOM     10  C   UNL     1     -29.992   1.956   9.718  1.00  0.00     0.008 C 
BRANCH   9  11
ATOM     11  C   UNL     1     -29.486   4.511  10.013  1.00  0.00    -0.002 C 
ATOM     12  C   UNL     1     -28.526   5.527   9.412  1.00  0.00     0.005 C 
ATOM     13  C   UNL     1     -30.827   4.746   9.258  1.00  0.00    -0.026 C 
ATOM     14  C   UNL     1     -29.383   6.767   9.206  1.00  0.00     0.005 C 
ATOM     15  C   UNL     1     -30.849   6.292   9.018  1.00  0.00    -0.001 C 
ATOM     16  C   UNL     1     -32.031   4.268  10.114  1.00  0.00     0.007 C 
ATOM     17  C   UNL     1     -30.853   4.022   7.882  1.00  0.00     0.012 C 
ATOM     18  C   UNL     1     -31.840   7.073   9.953  1.00  0.00     0.000 C 
ATOM     19  C   UNL     1     -33.323   4.956   9.677  1.00  0.00     0.005 C 
ATOM     20  C   UNL     1     -33.311   6.484   9.963  1.00  0.00     0.003 C 
ATOM     21  C   UNL     1     -31.834   8.582   9.622  1.00  0.00     0.031 C 
ATOM     22  C   UNL     1     -34.402   7.337   9.144  1.00  0.00    -0.008 C 
ATOM     23  C   UNL     1     -32.557   8.822   8.333  1.00  0.00    -0.027 C 
ATOM     24  C   UNL     1     -33.704   8.176   8.046  1.00  0.00    -0.065 C 
ATOM     25  C   UNL     1     -35.590   6.468   8.569  1.00  0.00     0.014 C 
ATOM     26  C   UNL     1     -35.082   8.339  10.125  1.00  0.00     0.016 C 
ATOM     27  C   UNL     1     -34.163   8.249   6.596  1.00  0.00     0.063 C 
ATOM     28  C   UNL     1     -35.494   6.155   7.074  1.00  0.00     0.033 C 
ATOM     29  C   UNL     1     -35.432   7.448   6.264  1.00  0.00     0.118 C 
BRANCH  29  30
ATOM     30  O   UNL     1     -36.605   8.213   6.424  1.00  0.00    -0.393 OA
ATOM     31  H   UNL     1     -37.177   7.776   7.107  1.00  0.00     0.210 HD
ENDBRANCH  29  30
ENDBRANCH   9  11
ENDBRANCH   1   9
TORSDOF 7
ENDMDL
