MODEL 1
REMARK VINA RESULT:    -3.104      0.000      0.000
REMARK INTER + INTRA:          -8.952
REMARK INTER:                  -6.008
REMARK INTRA:                  -2.944
REMARK UNBOUND:                -2.944
REMARK SMILES CCCCCCCCCCCCCCCCCC(=O)[O-]
REMARK SMILES IDX 10 1 11 2 12 3 13 4 14 5 15 6 16 7 17 8 18 9 19 10 20 11
REMARK SMILES IDX 9 12 8 13 7 14 6 15 5 16 4 17 3 18 2 19 1 20
REMARK H PARENT
REMARK Flexibility Score: inf
ROOT
ATOM      1  C   UNL     1      -5.846  -0.538  36.878  1.00  0.00     0.000 C 
ENDROOT
BRANCH   1   2
ATOM      2  C   UNL     1      -6.962   0.515  36.948  1.00  0.00     0.000 C 
BRANCH   2   3
ATOM      3  C   UNL     1      -7.262   0.968  38.387  1.00  0.00     0.000 C 
BRANCH   3   4
ATOM      4  C   UNL     1      -7.097   2.486  38.574  1.00  0.00     0.000 C 
BRANCH   4   5
ATOM      5  C   UNL     1      -6.896   3.225  37.241  1.00  0.00     0.000 C 
BRANCH   5   6
ATOM      6  C   UNL     1      -7.158   4.736  37.353  1.00  0.00     0.000 C 
BRANCH   6   7
ATOM      7  C   UNL     1      -8.640   5.076  37.598  1.00  0.00     0.006 C 
BRANCH   7   8
ATOM      8  C   UNL     1      -9.580   4.602  36.476  1.00  0.00     0.053 C 
BRANCH   8   9
ATOM      9  C   UNL     1     -10.710   3.757  36.984  1.00  0.00     0.041 C 
ATOM     10  O   UNL     1     -11.820   3.757  36.391  1.00  0.00    -0.550 OA
ATOM     11  O   UNL     1     -10.525   2.945  38.097  1.00  0.00    -0.550 OA
ENDBRANCH   8   9
ENDBRANCH   7   8
ENDBRANCH   6   7
ENDBRANCH   5   6
ENDBRANCH   4   5
ENDBRANCH   3   4
ENDBRANCH   2   3
ENDBRANCH   1   2
BRANCH   1  12
ATOM     12  C   UNL     1      -4.985  -0.508  38.147  1.00  0.00     0.000 C 
BRANCH  12  13
ATOM     13  C   UNL     1      -3.651   0.210  37.889  1.00  0.00    -0.000 C 
BRANCH  13  14
ATOM     14  C   UNL     1      -3.520   1.518  38.686  1.00  0.00    -0.000 C 
BRANCH  14  15
ATOM     15  C   UNL     1      -3.436   2.758  37.778  1.00  0.00    -0.000 C 
BRANCH  15  16
ATOM     16  C   UNL     1      -2.854   2.440  36.392  1.00  0.00    -0.000 C 
BRANCH  16  17
ATOM     17  C   UNL     1      -3.807   2.825  35.248  1.00  0.00    -0.000 C 
BRANCH  17  18
ATOM     18  C   UNL     1      -4.286   1.606  34.444  1.00  0.00    -0.000 C 
BRANCH  18  19
ATOM     19  C   UNL     1      -3.130   0.851  33.768  1.00  0.00    -0.003 C 
ATOM     20  C   UNL     1      -3.047  -0.587  34.270  1.00  0.00     0.004 C 
ENDBRANCH  18  19
ENDBRANCH  17  18
ENDBRANCH  16  17
ENDBRANCH  15  16
ENDBRANCH  14  15
ENDBRANCH  13  14
ENDBRANCH  12  13
ENDBRANCH   1  12
TORSDOF 16
ENDMDL
MODEL 2
REMARK VINA RESULT:    -3.086      4.721      6.928
REMARK INTER + INTRA:          -8.917
REMARK INTER:                  -5.895
REMARK INTRA:                  -3.022
REMARK UNBOUND:                -2.944
REMARK SMILES CCCCCCCCCCCCCCCCCC(=O)[O-]
REMARK SMILES IDX 10 1 11 2 12 3 13 4 14 5 15 6 16 7 17 8 18 9 19 10 20 11
REMARK SMILES IDX 9 12 8 13 7 14 6 15 5 16 4 17 3 18 2 19 1 20
REMARK H PARENT
REMARK Flexibility Score: inf
ROOT
ATOM      1  C   UNL     1     -10.330   2.486  38.667  1.00  0.00     0.000 C 
ENDROOT
BRANCH   1   2
ATOM      2  C   UNL     1      -9.525   2.805  37.399  1.00  0.00     0.000 C 
BRANCH   2   3
ATOM      3  C   UNL     1      -8.778   4.146  37.491  1.00  0.00     0.000 C 
BRANCH   3   4
ATOM      4  C   UNL     1      -9.490   5.273  36.724  1.00  0.00     0.000 C 
BRANCH   4   5
ATOM      5  C   UNL     1     -10.516   4.739  35.712  1.00  0.00     0.000 C 
BRANCH   5   6
ATOM      6  C   UNL     1     -10.252   5.234  34.280  1.00  0.00     0.000 C 
BRANCH   6   7
ATOM      7  C   UNL     1     -11.494   5.150  33.374  1.00  0.00     0.006 C 
BRANCH   7   8
ATOM      8  C   UNL     1     -11.193   4.648  31.951  1.00  0.00     0.053 C 
BRANCH   8   9
ATOM      9  C   UNL     1     -12.232   5.069  30.955  1.00  0.00     0.041 C 
ATOM     10  O   UNL     1     -13.211   4.319  30.701  1.00  0.00    -0.550 OA
ATOM     11  O   UNL     1     -12.135   6.306  30.330  1.00  0.00    -0.550 OA
ENDBRANCH   8   9
ENDBRANCH   7   8
ENDBRANCH   6   7
ENDBRANCH   5   6
ENDBRANCH   4   5
ENDBRANCH   3   4
ENDBRANCH   2   3
ENDBRANCH   1   2
BRANCH   1  12
ATOM     12  C   UNL     1     -11.723   1.952  38.312  1.00  0.00     0.000 C 
BRANCH  12  13
ATOM     13  C   UNL     1     -12.744   3.097  38.223  1.00  0.00    -0.000 C 
BRANCH  13  14
ATOM     14  C   UNL     1     -13.452   3.153  36.861  1.00  0.00    -0.000 C 
BRANCH  14  15
ATOM     15  C   UNL     1     -13.198   1.897  36.009  1.00  0.00    -0.000 C 
BRANCH  15  16
ATOM     16  C   UNL     1     -13.131   2.204  34.504  1.00  0.00    -0.000 C 
BRANCH  16  17
ATOM     17  C   UNL     1     -12.134   1.299  33.760  1.00  0.00    -0.000 C 
BRANCH  17  18
ATOM     18  C   UNL     1     -10.737   1.309  34.401  1.00  0.00    -0.000 C 
BRANCH  18  19
ATOM     19  C   UNL     1      -9.608   1.344  33.359  1.00  0.00    -0.003 C 
ATOM     20  C   UNL     1      -8.416   2.149  33.869  1.00  0.00     0.004 C 
ENDBRANCH  18  19
ENDBRANCH  17  18
ENDBRANCH  16  17
ENDBRANCH  15  16
ENDBRANCH  14  15
ENDBRANCH  13  14
ENDBRANCH  12  13
ENDBRANCH   1  12
TORSDOF 16
ENDMDL
MODEL 3
REMARK VINA RESULT:    -3.084      2.788      6.953
REMARK INTER + INTRA:          -8.914
REMARK INTER:                  -5.706
REMARK INTRA:                  -3.208
REMARK UNBOUND:                -2.944
REMARK SMILES CCCCCCCCCCCCCCCCCC(=O)[O-]
REMARK SMILES IDX 10 1 11 2 12 3 13 4 14 5 15 6 16 7 17 8 18 9 19 10 20 11
REMARK SMILES IDX 9 12 8 13 7 14 6 15 5 16 4 17 3 18 2 19 1 20
REMARK H PARENT
REMARK Flexibility Score: inf
ROOT
ATOM      1  C   UNL     1     -10.225   5.432  34.846  1.00  0.00     0.000 C 
ENDROOT
BRANCH   1   2
ATOM      2  C   UNL     1     -10.938   4.279  34.124  1.00  0.00     0.000 C 
BRANCH   2   3
ATOM      3  C   UNL     1     -10.031   3.053  33.923  1.00  0.00     0.000 C 
BRANCH   3   4
ATOM      4  C   UNL     1      -8.571   3.440  33.628  1.00  0.00     0.000 C 
BRANCH   4   5
ATOM      5  C   UNL     1      -7.572   2.696  34.530  1.00  0.00     0.000 C 
BRANCH   5   6
ATOM      6  C   UNL     1      -6.391   3.580  34.964  1.00  0.00     0.000 C 
BRANCH   6   7
ATOM      7  C   UNL     1      -5.603   2.994  36.150  1.00  0.00     0.006 C 
BRANCH   7   8
ATOM      8  C   UNL     1      -6.145   1.644  36.651  1.00  0.00     0.053 C 
BRANCH   8   9
ATOM      9  C   UNL     1      -5.973   1.462  38.129  1.00  0.00     0.041 C 
ATOM     10  O   UNL     1      -4.876   1.743  38.681  1.00  0.00    -0.550 OA
ATOM     11  O   UNL     1      -7.036   1.012  38.903  1.00  0.00    -0.550 OA
ENDBRANCH   8   9
ENDBRANCH   7   8
ENDBRANCH   6   7
ENDBRANCH   5   6
ENDBRANCH   4   5
ENDBRANCH   3   4
ENDBRANCH   2   3
ENDBRANCH   1   2
BRANCH   1  12
ATOM     12  C   UNL     1     -10.340   5.280  36.368  1.00  0.00     0.000 C 
BRANCH  12  13
ATOM     13  C   UNL     1      -8.951   5.249  37.024  1.00  0.00    -0.000 C 
BRANCH  13  14
ATOM     14  C   UNL     1      -8.753   4.024  37.929  1.00  0.00    -0.000 C 
BRANCH  14  15
ATOM     15  C   UNL     1      -9.713   2.871  37.584  1.00  0.00    -0.000 C 
BRANCH  15  16
ATOM     16  C   UNL     1     -10.481   2.351  38.809  1.00  0.00    -0.000 C 
BRANCH  16  17
ATOM     17  C   UNL     1     -11.953   2.035  38.493  1.00  0.00    -0.000 C 
BRANCH  17  18
ATOM     18  C   UNL     1     -12.763   3.292  38.137  1.00  0.00    -0.000 C 
BRANCH  18  19
ATOM     19  C   UNL     1     -13.523   3.149  36.810  1.00  0.00    -0.003 C 
ATOM     20  C   UNL     1     -13.062   1.913  36.043  1.00  0.00     0.004 C 
ENDBRANCH  18  19
ENDBRANCH  17  18
ENDBRANCH  16  17
ENDBRANCH  15  16
ENDBRANCH  14  15
ENDBRANCH  13  14
ENDBRANCH  12  13
ENDBRANCH   1  12
TORSDOF 16
ENDMDL
MODEL 4
REMARK VINA RESULT:    -3.077      1.500      2.677
REMARK INTER + INTRA:          -8.900
REMARK INTER:                  -5.718
REMARK INTRA:                  -3.182
REMARK UNBOUND:                -2.944
REMARK SMILES CCCCCCCCCCCCCCCCCC(=O)[O-]
REMARK SMILES IDX 10 1 11 2 12 3 13 4 14 5 15 6 16 7 17 8 18 9 19 10 20 11
REMARK SMILES IDX 9 12 8 13 7 14 6 15 5 16 4 17 3 18 2 19 1 20
REMARK H PARENT
REMARK Flexibility Score: inf
ROOT
ATOM      1  C   UNL     1      -3.720   0.439  38.281  1.00  0.00     0.000 C 
ENDROOT
BRANCH   1   2
ATOM      2  C   UNL     1      -5.155  -0.090  38.425  1.00  0.00     0.000 C 
BRANCH   2   3
ATOM      3  C   UNL     1      -5.640  -0.841  37.173  1.00  0.00     0.000 C 
BRANCH   3   4
ATOM      4  C   UNL     1      -7.104  -0.525  36.824  1.00  0.00     0.000 C 
BRANCH   4   5
ATOM      5  C   UNL     1      -7.815   0.267  37.932  1.00  0.00     0.000 C 
BRANCH   5   6
ATOM      6  C   UNL     1      -8.933   1.174  37.392  1.00  0.00     0.000 C 
BRANCH   6   7
ATOM      7  C   UNL     1      -9.116   2.463  38.215  1.00  0.00     0.006 C 
BRANCH   7   8
ATOM      8  C   UNL     1     -10.012   3.513  37.536  1.00  0.00     0.053 C 
BRANCH   8   9
ATOM      9  C   UNL     1      -9.227   4.572  36.823  1.00  0.00     0.041 C 
ATOM     10  O   UNL     1      -8.638   5.474  37.475  1.00  0.00    -0.550 OA
ATOM     11  O   UNL     1      -9.118   4.544  35.438  1.00  0.00    -0.550 OA
ENDBRANCH   8   9
ENDBRANCH   7   8
ENDBRANCH   6   7
ENDBRANCH   5   6
ENDBRANCH   4   5
ENDBRANCH   3   4
ENDBRANCH   2   3
ENDBRANCH   1   2
BRANCH   1  12
ATOM     12  C   UNL     1      -3.685   1.967  38.407  1.00  0.00     0.000 C 
BRANCH  12  13
ATOM     13  C   UNL     1      -5.090   2.530  38.669  1.00  0.00    -0.000 C 
BRANCH  13  14
ATOM     14  C   UNL     1      -5.559   3.487  37.563  1.00  0.00    -0.000 C 
BRANCH  14  15
ATOM     15  C   UNL     1      -4.843   3.240  36.223  1.00  0.00    -0.000 C 
BRANCH  15  16
ATOM     16  C   UNL     1      -5.676   2.386  35.254  1.00  0.00    -0.000 C 
BRANCH  16  17
ATOM     17  C   UNL     1      -4.806   1.476  34.371  1.00  0.00    -0.000 C 
BRANCH  17  18
ATOM     18  C   UNL     1      -3.311   1.574  34.715  1.00  0.00    -0.000 C 
BRANCH  18  19
ATOM     19  C   UNL     1      -2.664   0.199  34.939  1.00  0.00    -0.003 C 
ATOM     20  C   UNL     1      -3.079  -0.787  33.851  1.00  0.00     0.004 C 
ENDBRANCH  18  19
ENDBRANCH  17  18
ENDBRANCH  16  17
ENDBRANCH  15  16
ENDBRANCH  14  15
ENDBRANCH  13  14
ENDBRANCH  12  13
ENDBRANCH   1  12
TORSDOF 16
ENDMDL
MODEL 5
REMARK VINA RESULT:    -3.043      1.521      2.835
REMARK INTER + INTRA:          -8.834
REMARK INTER:                  -5.832
REMARK INTRA:                  -3.002
REMARK UNBOUND:                -2.944
REMARK SMILES CCCCCCCCCCCCCCCCCC(=O)[O-]
REMARK SMILES IDX 10 1 11 2 12 3 13 4 14 5 15 6 16 7 17 8 18 9 19 10 20 11
REMARK SMILES IDX 9 12 8 13 7 14 6 15 5 16 4 17 3 18 2 19 1 20
REMARK H PARENT
REMARK Flexibility Score: inf
ROOT
ATOM      1  C   UNL     1      -3.521   2.522  37.695  1.00  0.00     0.000 C 
ENDROOT
BRANCH   1   2
ATOM      2  C   UNL     1      -4.891   3.217  37.729  1.00  0.00     0.000 C 
BRANCH   2   3
ATOM      3  C   UNL     1      -5.412   3.436  39.159  1.00  0.00     0.000 C 
BRANCH   3   4
ATOM      4  C   UNL     1      -6.830   2.876  39.363  1.00  0.00     0.000 C 
BRANCH   4   5
ATOM      5  C   UNL     1      -7.867   3.557  38.456  1.00  0.00     0.000 C 
BRANCH   5   6
ATOM      6  C   UNL     1      -9.241   2.868  38.503  1.00  0.00     0.000 C 
BRANCH   6   7
ATOM      7  C   UNL     1      -9.988   2.918  37.157  1.00  0.00     0.006 C 
BRANCH   7   8
ATOM      8  C   UNL     1     -10.358   4.341  36.703  1.00  0.00     0.053 C 
BRANCH   8   9
ATOM      9  C   UNL     1      -9.802   4.684  35.355  1.00  0.00     0.041 C 
ATOM     10  O   UNL     1     -10.350   5.568  34.646  1.00  0.00    -0.550 OA
ATOM     11  O   UNL     1      -8.656   4.047  34.893  1.00  0.00    -0.550 OA
ENDBRANCH   8   9
ENDBRANCH   7   8
ENDBRANCH   6   7
ENDBRANCH   5   6
ENDBRANCH   4   5
ENDBRANCH   3   4
ENDBRANCH   2   3
ENDBRANCH   1   2
BRANCH   1  12
ATOM     12  C   UNL     1      -3.497   1.315  38.641  1.00  0.00     0.000 C 
BRANCH  12  13
ATOM     13  C   UNL     1      -3.876   0.025  37.896  1.00  0.00    -0.000 C 
BRANCH  13  14
ATOM     14  C   UNL     1      -5.267  -0.496  38.288  1.00  0.00    -0.000 C 
BRANCH  14  15
ATOM     15  C   UNL     1      -6.146  -0.816  37.065  1.00  0.00    -0.000 C 
BRANCH  15  16
ATOM     16  C   UNL     1      -7.121   0.322  36.721  1.00  0.00    -0.000 C 
BRANCH  16  17
ATOM     17  C   UNL     1      -6.762   1.029  35.403  1.00  0.00    -0.000 C 
BRANCH  17  18
ATOM     18  C   UNL     1      -5.641   0.311  34.635  1.00  0.00    -0.000 C 
BRANCH  18  19
ATOM     19  C   UNL     1      -4.433   1.220  34.361  1.00  0.00    -0.003 C 
ATOM     20  C   UNL     1      -3.139   0.414  34.316  1.00  0.00     0.004 C 
ENDBRANCH  18  19
ENDBRANCH  17  18
ENDBRANCH  16  17
ENDBRANCH  15  16
ENDBRANCH  14  15
ENDBRANCH  13  14
ENDBRANCH  12  13
ENDBRANCH   1  12
TORSDOF 16
ENDMDL
MODEL 6
REMARK VINA RESULT:    -3.041      2.763      7.120
REMARK INTER + INTRA:          -8.830
REMARK INTER:                  -6.528
REMARK INTRA:                  -2.302
REMARK UNBOUND:                -2.944
REMARK SMILES CCCCCCCCCCCCCCCCCC(=O)[O-]
REMARK SMILES IDX 10 1 11 2 12 3 13 4 14 5 15 6 16 7 17 8 18 9 19 10 20 11
REMARK SMILES IDX 9 12 8 13 7 14 6 15 5 16 4 17 3 18 2 19 1 20
REMARK H PARENT
REMARK Flexibility Score: inf
ROOT
ATOM      1  C   UNL     1      -8.770   4.135  38.089  1.00  0.00     0.000 C 
ENDROOT
BRANCH   1   2
ATOM      2  C   UNL     1      -8.478   2.650  37.822  1.00  0.00     0.000 C 
BRANCH   2   3
ATOM      3  C   UNL     1      -7.464   2.056  38.815  1.00  0.00     0.000 C 
BRANCH   3   4
ATOM      4  C   UNL     1      -6.793   3.130  39.687  1.00  0.00     0.000 C 
BRANCH   4   5
ATOM      5  C   UNL     1      -5.273   3.200  39.470  1.00  0.00     0.000 C 
BRANCH   5   6
ATOM      6  C   UNL     1      -4.822   2.481  38.187  1.00  0.00     0.000 C 
BRANCH   6   7
ATOM      7  C   UNL     1      -3.777   1.380  38.447  1.00  0.00     0.006 C 
BRANCH   7   8
ATOM      8  C   UNL     1      -4.290  -0.044  38.170  1.00  0.00     0.053 C 
BRANCH   8   9
ATOM      9  C   UNL     1      -4.923  -0.180  36.819  1.00  0.00     0.041 C 
ATOM     10  O   UNL     1      -4.241   0.000  35.776  1.00  0.00    -0.550 OA
ATOM     11  O   UNL     1      -6.261  -0.538  36.710  1.00  0.00    -0.550 OA
ENDBRANCH   8   9
ENDBRANCH   7   8
ENDBRANCH   6   7
ENDBRANCH   5   6
ENDBRANCH   4   5
ENDBRANCH   3   4
ENDBRANCH   2   3
ENDBRANCH   1   2
BRANCH   1  12
ATOM     12  C   UNL     1      -8.662   4.955  36.798  1.00  0.00     0.000 C 
BRANCH  12  13
ATOM     13  C   UNL     1     -10.047   5.432  36.332  1.00  0.00    -0.000 C 
BRANCH  13  14
ATOM     14  C   UNL     1     -10.252   5.260  34.819  1.00  0.00    -0.000 C 
BRANCH  14  15
ATOM     15  C   UNL     1     -11.314   4.198  34.483  1.00  0.00    -0.000 C 
BRANCH  15  16
ATOM     16  C   UNL     1     -10.919   2.792  34.962  1.00  0.00    -0.000 C 
BRANCH  16  17
ATOM     17  C   UNL     1     -11.974   2.167  35.891  1.00  0.00    -0.000 C 
BRANCH  17  18
ATOM     18  C   UNL     1     -13.003   3.194  36.391  1.00  0.00    -0.000 C 
BRANCH  18  19
ATOM     19  C   UNL     1     -12.876   3.475  37.896  1.00  0.00    -0.003 C 
ATOM     20  C   UNL     1     -12.003   2.426  38.578  1.00  0.00     0.004 C 
ENDBRANCH  18  19
ENDBRANCH  17  18
ENDBRANCH  16  17
ENDBRANCH  15  16
ENDBRANCH  14  15
ENDBRANCH  13  14
ENDBRANCH  12  13
ENDBRANCH   1  12
TORSDOF 16
ENDMDL
MODEL 7
REMARK VINA RESULT:    -3.022      2.553      5.807
REMARK INTER + INTRA:          -8.793
REMARK INTER:                  -6.274
REMARK INTRA:                  -2.519
REMARK UNBOUND:                -2.944
REMARK SMILES CCCCCCCCCCCCCCCCCC(=O)[O-]
REMARK SMILES IDX 10 1 11 2 12 3 13 4 14 5 15 6 16 7 17 8 18 9 19 10 20 11
REMARK SMILES IDX 9 12 8 13 7 14 6 15 5 16 4 17 3 18 2 19 1 20
REMARK H PARENT
REMARK Flexibility Score: inf
ROOT
ATOM      1  C   UNL     1      -7.719   0.488  39.006  1.00  0.00     0.000 C 
ENDROOT
BRANCH   1   2
ATOM      2  C   UNL     1      -6.501   0.723  38.101  1.00  0.00     0.000 C 
BRANCH   2   3
ATOM      3  C   UNL     1      -5.421  -0.360  38.265  1.00  0.00     0.000 C 
BRANCH   3   4
ATOM      4  C   UNL     1      -4.020   0.138  37.874  1.00  0.00     0.000 C 
BRANCH   4   5
ATOM      5  C   UNL     1      -3.591   1.379  38.675  1.00  0.00     0.000 C 
BRANCH   5   6
ATOM      6  C   UNL     1      -3.630   2.669  37.839  1.00  0.00     0.000 C 
BRANCH   6   7
ATOM      7  C   UNL     1      -3.294   2.438  36.354  1.00  0.00     0.006 C 
BRANCH   7   8
ATOM      8  C   UNL     1      -3.066   3.734  35.558  1.00  0.00     0.053 C 
BRANCH   8   9
ATOM      9  C   UNL     1      -4.312   4.555  35.416  1.00  0.00     0.041 C 
ATOM     10  O   UNL     1      -5.246   4.169  34.666  1.00  0.00    -0.550 OA
ATOM     11  O   UNL     1      -4.454   5.734  36.139  1.00  0.00    -0.550 OA
ENDBRANCH   8   9
ENDBRANCH   7   8
ENDBRANCH   6   7
ENDBRANCH   5   6
ENDBRANCH   4   5
ENDBRANCH   3   4
ENDBRANCH   2   3
ENDBRANCH   1   2
BRANCH   1  12
ATOM     12  C   UNL     1      -7.820   1.574  40.084  1.00  0.00     0.000 C 
BRANCH  12  13
ATOM     13  C   UNL     1      -6.860   2.736  39.784  1.00  0.00    -0.000 C 
BRANCH  13  14
ATOM     14  C   UNL     1      -7.597   4.054  39.502  1.00  0.00    -0.000 C 
BRANCH  14  15
ATOM     15  C   UNL     1      -7.197   4.679  38.153  1.00  0.00    -0.000 C 
BRANCH  15  16
ATOM     16  C   UNL     1      -7.947   4.055  36.965  1.00  0.00    -0.000 C 
BRANCH  16  17
ATOM     17  C   UNL     1      -9.474   4.101  37.140  1.00  0.00    -0.000 C 
BRANCH  17  18
ATOM     18  C   UNL     1     -10.108   2.701  37.161  1.00  0.00    -0.000 C 
BRANCH  18  19
ATOM     19  C   UNL     1     -11.081   2.508  38.333  1.00  0.00    -0.003 C 
ATOM     20  C   UNL     1     -12.431   3.157  38.038  1.00  0.00     0.004 C 
ENDBRANCH  18  19
ENDBRANCH  17  18
ENDBRANCH  16  17
ENDBRANCH  15  16
ENDBRANCH  14  15
ENDBRANCH  13  14
ENDBRANCH  12  13
ENDBRANCH   1  12
TORSDOF 16
ENDMDL
MODEL 8
REMARK VINA RESULT:    -3.021      3.209      6.821
REMARK INTER + INTRA:          -8.791
REMARK INTER:                  -7.025
REMARK INTRA:                  -1.766
REMARK UNBOUND:                -2.944
REMARK SMILES CCCCCCCCCCCCCCCCCC(=O)[O-]
REMARK SMILES IDX 10 1 11 2 12 3 13 4 14 5 15 6 16 7 17 8 18 9 19 10 20 11
REMARK SMILES IDX 9 12 8 13 7 14 6 15 5 16 4 17 3 18 2 19 1 20
REMARK H PARENT
REMARK Flexibility Score: inf
ROOT
ATOM      1  C   UNL     1      -6.996   2.500  39.787  1.00  0.00     0.000 C 
ENDROOT
BRANCH   1   2
ATOM      2  C   UNL     1      -7.865   1.235  39.739  1.00  0.00     0.000 C 
BRANCH   2   3
ATOM      3  C   UNL     1      -7.815   0.530  38.372  1.00  0.00     0.000 C 
BRANCH   3   4
ATOM      4  C   UNL     1      -7.256  -0.900  38.464  1.00  0.00     0.000 C 
BRANCH   4   5
ATOM      5  C   UNL     1      -5.742  -0.924  38.727  1.00  0.00     0.000 C 
BRANCH   5   6
ATOM      6  C   UNL     1      -4.933  -0.253  37.604  1.00  0.00     0.000 C 
BRANCH   6   7
ATOM      7  C   UNL     1      -3.595   0.334  38.092  1.00  0.00     0.006 C 
BRANCH   7   8
ATOM      8  C   UNL     1      -3.696   1.787  38.587  1.00  0.00     0.053 C 
BRANCH   8   9
ATOM      9  C   UNL     1      -3.134   2.774  37.609  1.00  0.00     0.041 C 
ATOM     10  O   UNL     1      -3.040   2.477  36.389  1.00  0.00    -0.550 OA
ATOM     11  O   UNL     1      -2.741   4.035  38.041  1.00  0.00    -0.550 OA
ENDBRANCH   8   9
ENDBRANCH   7   8
ENDBRANCH   6   7
ENDBRANCH   5   6
ENDBRANCH   4   5
ENDBRANCH   3   4
ENDBRANCH   2   3
ENDBRANCH   1   2
BRANCH   1  12
ATOM     12  C   UNL     1      -7.863   3.763  39.723  1.00  0.00     0.000 C 
BRANCH  12  13
ATOM     13  C   UNL     1      -7.151   4.880  38.943  1.00  0.00    -0.000 C 
BRANCH  13  14
ATOM     14  C   UNL     1      -8.045   5.511  37.865  1.00  0.00    -0.000 C 
BRANCH  14  15
ATOM     15  C   UNL     1      -8.580   4.475  36.859  1.00  0.00    -0.000 C 
BRANCH  15  16
ATOM     16  C   UNL     1     -10.064   4.688  36.522  1.00  0.00    -0.000 C 
BRANCH  16  17
ATOM     17  C   UNL     1     -10.831   3.364  36.367  1.00  0.00    -0.000 C 
BRANCH  17  18
ATOM     18  C   UNL     1     -11.182   2.723  37.719  1.00  0.00    -0.000 C 
BRANCH  18  19
ATOM     19  C   UNL     1     -12.613   3.050  38.175  1.00  0.00    -0.003 C 
ATOM     20  C   UNL     1     -13.543   3.227  36.978  1.00  0.00     0.004 C 
ENDBRANCH  18  19
ENDBRANCH  17  18
ENDBRANCH  16  17
ENDBRANCH  15  16
ENDBRANCH  14  15
ENDBRANCH  13  14
ENDBRANCH  12  13
ENDBRANCH   1  12
TORSDOF 16
ENDMDL
MODEL 9
REMARK VINA RESULT:    -2.954      8.597     11.248
REMARK INTER + INTRA:          -8.662
REMARK INTER:                  -5.694
REMARK INTRA:                  -2.968
REMARK UNBOUND:                -2.944
REMARK SMILES CCCCCCCCCCCCCCCCCC(=O)[O-]
REMARK SMILES IDX 10 1 11 2 12 3 13 4 14 5 15 6 16 7 17 8 18 9 19 10 20 11
REMARK SMILES IDX 9 12 8 13 7 14 6 15 5 16 4 17 3 18 2 19 1 20
REMARK H PARENT
REMARK Flexibility Score: inf
ROOT
ATOM      1  C   UNL     1     -10.321   3.687  28.241  1.00  0.00     0.000 C 
ENDROOT
BRANCH   1   2
ATOM      2  C   UNL     1      -9.426   4.337  27.175  1.00  0.00     0.000 C 
BRANCH   2   3
ATOM      3  C   UNL     1      -8.724   5.607  27.684  1.00  0.00     0.000 C 
BRANCH   3   4
ATOM      4  C   UNL     1      -9.480   6.276  28.844  1.00  0.00     0.000 C 
BRANCH   4   5
ATOM      5  C   UNL     1      -9.918   7.712  28.511  1.00  0.00     0.000 C 
BRANCH   5   6
ATOM      6  C   UNL     1     -11.442   7.903  28.592  1.00  0.00     0.000 C 
BRANCH   6   7
ATOM      7  C   UNL     1     -12.127   7.887  27.213  1.00  0.00     0.006 C 
BRANCH   7   8
ATOM      8  C   UNL     1     -12.874   6.578  26.903  1.00  0.00     0.053 C 
BRANCH   8   9
ATOM      9  C   UNL     1     -12.407   5.929  25.636  1.00  0.00     0.041 C 
ATOM     10  O   UNL     1     -13.019   4.934  25.168  1.00  0.00    -0.550 OA
ATOM     11  O   UNL     1     -11.311   6.444  24.953  1.00  0.00    -0.550 OA
ENDBRANCH   8   9
ENDBRANCH   7   8
ENDBRANCH   6   7
ENDBRANCH   5   6
ENDBRANCH   4   5
ENDBRANCH   3   4
ENDBRANCH   2   3
ENDBRANCH   1   2
BRANCH   1  12
ATOM     12  C   UNL     1     -11.496   2.945  27.591  1.00  0.00     0.000 C 
BRANCH  12  13
ATOM     13  C   UNL     1     -12.788   3.148  28.397  1.00  0.00    -0.000 C 
BRANCH  13  14
ATOM     14  C   UNL     1     -12.521   3.651  29.824  1.00  0.00    -0.000 C 
BRANCH  14  15
ATOM     15  C   UNL     1     -13.231   4.983  30.125  1.00  0.00    -0.000 C 
BRANCH  15  16
ATOM     16  C   UNL     1     -12.519   5.803  31.212  1.00  0.00    -0.000 C 
BRANCH  16  17
ATOM     17  C   UNL     1     -11.386   5.019  31.895  1.00  0.00    -0.000 C 
BRANCH  17  18
ATOM     18  C   UNL     1     -11.624   4.830  33.402  1.00  0.00    -0.000 C 
BRANCH  18  19
ATOM     19  C   UNL     1     -12.916   4.057  33.706  1.00  0.00    -0.003 C 
ATOM     20  C   UNL     1     -12.763   2.578  33.362  1.00  0.00     0.004 C 
ENDBRANCH  18  19
ENDBRANCH  17  18
ENDBRANCH  16  17
ENDBRANCH  15  16
ENDBRANCH  14  15
ENDBRANCH  13  14
ENDBRANCH  12  13
ENDBRANCH   1  12
TORSDOF 16
ENDMDL
