MODEL 1
REMARK VINA RESULT:    85.048      0.000      0.000
REMARK INTER + INTRA:          87.533
REMARK INTER:                  87.533
REMARK INTRA:                   0.000
REMARK UNBOUND:                 0.000
REMARK SMILES CC1(C)CC[C@]2(C)CC[C@]3(C)C(=CC[C@H]4[C@]5(C)CC[C@H](O)C(C)(C)[C@@H]5CC[C@]43C)[C@H]2C1
REMARK SMILES IDX 1 1 2 2 4 3 5 4 6 5 8 6 9 7 10 8 12 9 13 10 14 11 15 12
REMARK SMILES IDX 28 13 27 14 26 15 25 16 16 17 18 18 19 19 20 20 22 21 23 22
REMARK SMILES IDX 24 23 17 24 29 25 30 26 31 27 11 28 7 29 3 30 21 31
REMARK H PARENT 21 32
REMARK Flexibility Score: inf
ROOT
ATOM      1  C   UNL     1     -26.475  25.441   8.900  1.00  0.00     0.011 C 
ATOM      2  C   UNL     1     -27.070  24.900   7.582  1.00  0.00    -0.035 C 
ATOM      3  C   UNL     1     -26.301  23.607   7.184  1.00  0.00     0.007 C 
ATOM      4  C   UNL     1     -26.992  22.780   6.078  1.00  0.00     0.008 C 
ATOM      5  C   UNL     1     -28.486  22.467   6.373  1.00  0.00    -0.026 C 
ATOM      6  C   UNL     1     -29.130  21.739   5.133  1.00  0.00     0.008 C 
ATOM      7  C   UNL     1     -30.304  22.489   4.444  1.00  0.00     0.012 C 
ATOM      8  C   UNL     1     -31.402  23.120   5.399  1.00  0.00    -0.006 C 
ATOM      9  C   UNL     1     -30.720  23.590   6.683  1.00  0.00    -0.064 C 
ATOM     10  C   UNL     1     -31.464  23.879   7.761  1.00  0.00    -0.027 C 
ATOM     11  C   UNL     1     -32.957  23.793   7.711  1.00  0.00     0.032 C 
ATOM     12  C   UNL     1     -33.441  22.461   7.068  1.00  0.00     0.006 C 
ATOM     13  C   UNL     1     -32.640  22.108   5.723  1.00  0.00    -0.020 C 
ATOM     14  C   UNL     1     -33.604  22.021   4.500  1.00  0.00     0.008 C 
ATOM     15  C   UNL     1     -34.783  23.004   4.486  1.00  0.00     0.005 C 
ATOM     16  C   UNL     1     -35.616  23.183   5.807  1.00  0.00     0.003 C 
ATOM     17  C   UNL     1     -35.039  22.340   7.012  1.00  0.00    -0.025 C 
ATOM     18  C   UNL     1     -35.504  20.850   6.883  1.00  0.00     0.010 C 
ATOM     19  C   UNL     1     -37.019  20.672   6.655  1.00  0.00     0.033 C 
ATOM     20  C   UNL     1     -37.558  21.497   5.469  1.00  0.00     0.120 C 
ATOM     21  C   UNL     1     -37.187  23.014   5.563  1.00  0.00    -0.006 C 
ATOM     22  C   UNL     1     -37.649  23.755   4.265  1.00  0.00     0.014 C 
ATOM     23  C   UNL     1     -38.021  23.692   6.698  1.00  0.00     0.014 C 
ATOM     24  C   UNL     1     -35.580  22.843   8.392  1.00  0.00     0.012 C 
ATOM     25  C   UNL     1     -32.084  20.664   5.924  1.00  0.00     0.012 C 
ATOM     26  C   UNL     1     -29.211  23.811   6.639  1.00  0.00     0.022 C 
ATOM     27  C   UNL     1     -28.583  24.606   7.809  1.00  0.00     0.015 C 
ATOM     28  C   UNL     1     -31.873  24.422   4.679  1.00  0.00     0.017 C 
ATOM     29  C   UNL     1     -28.578  21.521   7.605  1.00  0.00     0.012 C 
ATOM     30  C   UNL     1     -26.875  25.988   6.497  1.00  0.00     0.011 C 
ENDROOT
BRANCH  20  31
ATOM     31  O   UNL     1     -37.067  20.925   4.280  1.00  0.00    -0.393 OA
ATOM     32  H   UNL     1     -36.476  20.169   4.532  1.00  0.00     0.210 HD
ENDBRANCH  20  31
TORSDOF 1
ENDMDL
