MODEL 1
REMARK VINA RESULT:    -6.966      0.000      0.000
REMARK INTER + INTRA:          -8.666
REMARK INTER:                  -8.391
REMARK INTRA:                  -0.275
REMARK UNBOUND:                -0.275
REMARK SMILES O=c1c(O)c(-c2ccc(O)c(O)c2)oc2cc(O)cc(O)c12
REMARK SMILES IDX 5 1 3 2 2 3 1 4 22 5 20 6 19 7 17 8 16 9 15 10 14 11 6 12
REMARK SMILES IDX 7 13 8 14 9 15 13 16 11 17 10 18 12 20 4 22 21 24 18 26
REMARK H PARENT 10 19 12 21 4 23 21 25 18 27
REMARK Flexibility Score: inf
ROOT
ATOM      1  C   UNL     1      32.982  43.028  84.588  1.00  0.00     0.180 A 
ATOM      2  C   UNL     1      33.467  43.304  85.878  1.00  0.00     0.208 A 
ATOM      3  C   UNL     1      34.420  42.444  86.446  1.00  0.00     0.238 A 
ATOM      4  O   UNL     1      34.890  42.726  87.579  1.00  0.00    -0.285 OA
ATOM      5  C   UNL     1      34.863  41.309  85.725  1.00  0.00     0.111 A 
ATOM      6  C   UNL     1      35.795  40.348  86.220  1.00  0.00     0.134 A 
ATOM      7  C   UNL     1      36.262  39.337  85.370  1.00  0.00     0.093 A 
ATOM      8  C   UNL     1      35.781  39.214  84.066  1.00  0.00     0.123 A 
ATOM      9  C   UNL     1      34.825  40.113  83.592  1.00  0.00     0.094 A 
ATOM     10  C   UNL     1      34.368  41.154  84.404  1.00  0.00     0.146 A 
ATOM     11  O   UNL     1      33.466  41.993  83.911  1.00  0.00    -0.452 OA
ENDROOT
BRANCH   1  12
ATOM     12  C   UNL     1      31.959  43.875  83.933  1.00  0.00     0.025 A 
ATOM     13  C   UNL     1      32.290  45.117  83.369  1.00  0.00     0.016 A 
ATOM     14  C   UNL     1      31.304  45.910  82.778  1.00  0.00     0.051 A 
ATOM     15  C   UNL     1      29.971  45.487  82.749  1.00  0.00     0.157 A 
ATOM     16  C   UNL     1      30.618  43.459  83.925  1.00  0.00     0.062 A 
ATOM     17  C   UNL     1      29.622  44.247  83.334  1.00  0.00     0.158 A 
BRANCH  15  18
ATOM     18  O   UNL     1      29.034  46.325  82.140  1.00  0.00    -0.504 OA
ATOM     19  H   UNL     1      28.091  46.045  81.912  1.00  0.00     0.293 HD
ENDBRANCH  15  18
BRANCH  17  20
ATOM     20  O   UNL     1      28.312  43.763  83.352  1.00  0.00    -0.504 OA
ATOM     21  H   UNL     1      27.937  43.176  84.082  1.00  0.00     0.293 HD
ENDBRANCH  17  20
ENDBRANCH   1  12
BRANCH   2  22
ATOM     22  O   UNL     1      33.031  44.442  86.564  1.00  0.00    -0.502 OA
ATOM     23  H   UNL     1      33.620  45.255  86.698  1.00  0.00     0.293 HD
ENDBRANCH   2  22
BRANCH   6  24
ATOM     24  O   UNL     1      36.269  40.325  87.534  1.00  0.00    -0.507 OA
ATOM     25  H   UNL     1      37.244  40.307  87.794  1.00  0.00     0.293 HD
ENDBRANCH   6  24
BRANCH   8  26
ATOM     26  O   UNL     1      36.256  38.186  83.254  1.00  0.00    -0.508 OA
ATOM     27  H   UNL     1      36.668  37.348  83.647  1.00  0.00     0.293 HD
ENDBRANCH   8  26
TORSDOF 6
ENDMDL
MODEL 2
REMARK VINA RESULT:    -6.834      1.965      6.962
REMARK INTER + INTRA:          -8.508
REMARK INTER:                  -8.206
REMARK INTRA:                  -0.302
REMARK UNBOUND:                -0.275
REMARK SMILES O=c1c(O)c(-c2ccc(O)c(O)c2)oc2cc(O)cc(O)c12
REMARK SMILES IDX 5 1 3 2 2 3 1 4 22 5 20 6 19 7 17 8 16 9 15 10 14 11 6 12
REMARK SMILES IDX 7 13 8 14 9 15 13 16 11 17 10 18 12 20 4 22 21 24 18 26
REMARK H PARENT 10 19 12 21 4 23 21 25 18 27
REMARK Flexibility Score: inf
ROOT
ATOM      1  C   UNL     1      33.158  43.016  83.602  1.00  0.00     0.180 A 
ATOM      2  C   UNL     1      31.755  43.093  83.648  1.00  0.00     0.208 A 
ATOM      3  C   UNL     1      31.132  44.327  83.403  1.00  0.00     0.238 A 
ATOM      4  O   UNL     1      29.874  44.377  83.392  1.00  0.00    -0.285 OA
ATOM      5  C   UNL     1      31.919  45.472  83.132  1.00  0.00     0.111 A 
ATOM      6  C   UNL     1      31.394  46.781  82.909  1.00  0.00     0.134 A 
ATOM      7  C   UNL     1      32.257  47.813  82.520  1.00  0.00     0.093 A 
ATOM      8  C   UNL     1      33.631  47.601  82.410  1.00  0.00     0.123 A 
ATOM      9  C   UNL     1      34.161  46.339  82.684  1.00  0.00     0.094 A 
ATOM     10  C   UNL     1      33.321  45.280  83.038  1.00  0.00     0.146 A 
ATOM     11  O   UNL     1      33.865  44.094  83.280  1.00  0.00    -0.452 OA
ENDROOT
BRANCH   1  12
ATOM     12  C   UNL     1      33.888  41.757  83.873  1.00  0.00     0.025 A 
ATOM     13  C   UNL     1      34.321  40.924  82.829  1.00  0.00     0.016 A 
ATOM     14  C   UNL     1      34.985  39.728  83.110  1.00  0.00     0.051 A 
ATOM     15  C   UNL     1      35.220  39.335  84.431  1.00  0.00     0.157 A 
ATOM     16  C   UNL     1      34.102  41.353  85.200  1.00  0.00     0.062 A 
ATOM     17  C   UNL     1      34.769  40.157  85.491  1.00  0.00     0.158 A 
BRANCH  15  18
ATOM     18  O   UNL     1      35.894  38.131  84.644  1.00  0.00    -0.504 OA
ATOM     19  H   UNL     1      36.899  38.049  84.707  1.00  0.00     0.293 HD
ENDBRANCH  15  18
BRANCH  17  20
ATOM     20  O   UNL     1      34.958  39.826  86.835  1.00  0.00    -0.504 OA
ATOM     21  H   UNL     1      35.704  39.235  87.171  1.00  0.00     0.293 HD
ENDBRANCH  17  20
ENDBRANCH   1  12
BRANCH   2  22
ATOM     22  O   UNL     1      30.997  41.945  83.896  1.00  0.00    -0.502 OA
ATOM     23  H   UNL     1      30.205  41.681  83.322  1.00  0.00     0.293 HD
ENDBRANCH   2  22
BRANCH   6  24
ATOM     24  O   UNL     1      30.050  47.123  83.081  1.00  0.00    -0.507 OA
ATOM     25  H   UNL     1      29.533  47.009  83.940  1.00  0.00     0.293 HD
ENDBRANCH   6  24
BRANCH   8  26
ATOM     26  O   UNL     1      34.461  48.655  82.036  1.00  0.00    -0.508 OA
ATOM     27  H   UNL     1      35.245  48.515  81.409  1.00  0.00     0.293 HD
ENDBRANCH   8  26
TORSDOF 6
ENDMDL
MODEL 3
REMARK VINA RESULT:    -6.691      2.076      7.174
REMARK INTER + INTRA:          -8.335
REMARK INTER:                  -8.001
REMARK INTRA:                  -0.334
REMARK UNBOUND:                -0.275
REMARK SMILES O=c1c(O)c(-c2ccc(O)c(O)c2)oc2cc(O)cc(O)c12
REMARK SMILES IDX 5 1 3 2 2 3 1 4 22 5 20 6 19 7 17 8 16 9 15 10 14 11 6 12
REMARK SMILES IDX 7 13 8 14 9 15 13 16 11 17 10 18 12 20 4 22 21 24 18 26
REMARK H PARENT 10 19 12 21 4 23 21 25 18 27
REMARK Flexibility Score: inf
ROOT
ATOM      1  C   UNL     1      33.055  42.268  84.552  1.00  0.00     0.180 A 
ATOM      2  C   UNL     1      32.587  42.718  83.305  1.00  0.00     0.208 A 
ATOM      3  C   UNL     1      31.437  43.521  83.259  1.00  0.00     0.238 A 
ATOM      4  O   UNL     1      31.054  43.965  82.145  1.00  0.00    -0.285 OA
ATOM      5  C   UNL     1      30.760  43.852  84.457  1.00  0.00     0.111 A 
ATOM      6  C   UNL     1      29.562  44.626  84.524  1.00  0.00     0.134 A 
ATOM      7  C   UNL     1      29.052  45.002  85.773  1.00  0.00     0.093 A 
ATOM      8  C   UNL     1      29.657  44.577  86.956  1.00  0.00     0.123 A 
ATOM      9  C   UNL     1      30.794  43.770  86.901  1.00  0.00     0.094 A 
ATOM     10  C   UNL     1      31.348  43.409  85.670  1.00  0.00     0.146 A 
ATOM     11  O   UNL     1      32.436  42.649  85.663  1.00  0.00    -0.452 OA
ENDROOT
BRANCH   1  12
ATOM     12  C   UNL     1      34.246  41.398  84.679  1.00  0.00     0.025 A 
ATOM     13  C   UNL     1      34.142  40.000  84.606  1.00  0.00     0.016 A 
ATOM     14  C   UNL     1      35.276  39.199  84.753  1.00  0.00     0.051 A 
ATOM     15  C   UNL     1      36.530  39.772  84.988  1.00  0.00     0.157 A 
ATOM     16  C   UNL     1      35.500  41.974  84.937  1.00  0.00     0.062 A 
ATOM     17  C   UNL     1      36.643  41.179  85.085  1.00  0.00     0.158 A 
BRANCH  15  18
ATOM     18  O   UNL     1      37.624  38.915  85.122  1.00  0.00    -0.504 OA
ATOM     19  H   UNL     1      38.098  38.479  84.344  1.00  0.00     0.293 HD
ENDBRANCH  15  18
BRANCH  17  20
ATOM     20  O   UNL     1      37.859  41.823  85.327  1.00  0.00    -0.504 OA
ATOM     21  H   UNL     1      38.722  41.595  84.856  1.00  0.00     0.293 HD
ENDBRANCH  17  20
ENDBRANCH   1  12
BRANCH   2  22
ATOM     22  O   UNL     1      33.283  42.397  82.135  1.00  0.00    -0.502 OA
ATOM     23  H   UNL     1      34.294  42.330  82.105  1.00  0.00     0.293 HD
ENDBRANCH   2  22
BRANCH   6  24
ATOM     24  O   UNL     1      28.827  45.025  83.405  1.00  0.00    -0.507 OA
ATOM     25  H   UNL     1      29.029  45.838  82.844  1.00  0.00     0.293 HD
ENDBRANCH   6  24
BRANCH   8  26
ATOM     26  O   UNL     1      29.113  44.957  88.181  1.00  0.00    -0.508 OA
ATOM     27  H   UNL     1      28.237  45.464  88.237  1.00  0.00     0.293 HD
ENDBRANCH   8  26
TORSDOF 6
ENDMDL
MODEL 4
REMARK VINA RESULT:    -6.687      1.866      6.509
REMARK INTER + INTRA:          -8.330
REMARK INTER:                  -8.002
REMARK INTRA:                  -0.329
REMARK UNBOUND:                -0.275
REMARK SMILES O=c1c(O)c(-c2ccc(O)c(O)c2)oc2cc(O)cc(O)c12
REMARK SMILES IDX 5 1 3 2 2 3 1 4 22 5 20 6 19 7 17 8 16 9 15 10 14 11 6 12
REMARK SMILES IDX 7 13 8 14 9 15 13 16 11 17 10 18 12 20 4 22 21 24 18 26
REMARK H PARENT 10 19 12 21 4 23 21 25 18 27
REMARK Flexibility Score: inf
ROOT
ATOM      1  C   UNL     1      33.378  42.289  85.651  1.00  0.00     0.180 A 
ATOM      2  C   UNL     1      33.191  42.673  86.990  1.00  0.00     0.208 A 
ATOM      3  C   UNL     1      31.997  43.317  87.354  1.00  0.00     0.238 A 
ATOM      4  O   UNL     1      31.814  43.609  88.564  1.00  0.00    -0.285 OA
ATOM      5  C   UNL     1      31.013  43.584  86.372  1.00  0.00     0.111 A 
ATOM      6  C   UNL     1      29.784  44.266  86.621  1.00  0.00     0.134 A 
ATOM      7  C   UNL     1      28.827  44.359  85.603  1.00  0.00     0.093 A 
ATOM      8  C   UNL     1      29.080  43.852  84.328  1.00  0.00     0.123 A 
ATOM      9  C   UNL     1      30.303  43.236  84.058  1.00  0.00     0.094 A 
ATOM     10  C   UNL     1      31.263  43.096  85.063  1.00  0.00     0.146 A 
ATOM     11  O   UNL     1      32.408  42.494  84.767  1.00  0.00    -0.452 OA
ENDROOT
BRANCH   1  12
ATOM     12  C   UNL     1      34.618  41.628  85.186  1.00  0.00     0.025 A 
ATOM     13  C   UNL     1      35.749  42.373  84.816  1.00  0.00     0.016 A 
ATOM     14  C   UNL     1      36.900  41.729  84.358  1.00  0.00     0.051 A 
ATOM     15  C   UNL     1      36.942  40.335  84.247  1.00  0.00     0.157 A 
ATOM     16  C   UNL     1      34.650  40.231  85.055  1.00  0.00     0.062 A 
ATOM     17  C   UNL     1      35.800  39.576  84.596  1.00  0.00     0.158 A 
BRANCH  15  18
ATOM     18  O   UNL     1      38.124  39.752  83.786  1.00  0.00    -0.504 OA
ATOM     19  H   UNL     1      38.621  39.020  84.274  1.00  0.00     0.293 HD
ENDBRANCH  15  18
BRANCH  17  20
ATOM     20  O   UNL     1      35.764  38.182  84.504  1.00  0.00    -0.504 OA
ATOM     21  H   UNL     1      35.422  37.679  83.698  1.00  0.00     0.293 HD
ENDBRANCH  17  20
ENDBRANCH   1  12
BRANCH   2  22
ATOM     22  O   UNL     1      34.167  42.380  87.948  1.00  0.00    -0.502 OA
ATOM     23  H   UNL     1      35.156  42.507  87.772  1.00  0.00     0.293 HD
ENDBRANCH   2  22
BRANCH   6  24
ATOM     24  O   UNL     1      29.469  44.889  87.832  1.00  0.00    -0.507 OA
ATOM     25  H   UNL     1      28.709  44.618  88.437  1.00  0.00     0.293 HD
ENDBRANCH   6  24
BRANCH   8  26
ATOM     26  O   UNL     1      28.111  43.976  83.335  1.00  0.00    -0.508 OA
ATOM     27  H   UNL     1      28.280  43.658  82.388  1.00  0.00     0.293 HD
ENDBRANCH   8  26
TORSDOF 6
ENDMDL
MODEL 5
REMARK VINA RESULT:    -6.643      6.767      9.354
REMARK INTER + INTRA:          -8.277
REMARK INTER:                  -8.176
REMARK INTRA:                  -0.102
REMARK UNBOUND:                -0.275
REMARK SMILES O=c1c(O)c(-c2ccc(O)c(O)c2)oc2cc(O)cc(O)c12
REMARK SMILES IDX 5 1 3 2 2 3 1 4 22 5 20 6 19 7 17 8 16 9 15 10 14 11 6 12
REMARK SMILES IDX 7 13 8 14 9 15 13 16 11 17 10 18 12 20 4 22 21 24 18 26
REMARK H PARENT 10 19 12 21 4 23 21 25 18 27
REMARK Flexibility Score: inf
ROOT
ATOM      1  C   UNL     1      25.497  44.594  84.059  1.00  0.00     0.180 A 
ATOM      2  C   UNL     1      25.053  45.275  85.206  1.00  0.00     0.208 A 
ATOM      3  C   UNL     1      24.146  44.638  86.068  1.00  0.00     0.238 A 
ATOM      4  O   UNL     1      23.795  45.232  87.121  1.00  0.00    -0.285 OA
ATOM      5  C   UNL     1      23.682  43.336  85.764  1.00  0.00     0.111 A 
ATOM      6  C   UNL     1      22.731  42.612  86.546  1.00  0.00     0.134 A 
ATOM      7  C   UNL     1      22.443  41.280  86.223  1.00  0.00     0.093 A 
ATOM      8  C   UNL     1      23.020  40.668  85.111  1.00  0.00     0.123 A 
ATOM      9  C   UNL     1      23.904  41.386  84.305  1.00  0.00     0.094 A 
ATOM     10  C   UNL     1      24.239  42.705  84.623  1.00  0.00     0.146 A 
ATOM     11  O   UNL     1      25.093  43.349  83.836  1.00  0.00    -0.452 OA
ENDROOT
BRANCH   1  12
ATOM     12  C   UNL     1      26.433  45.209  83.090  1.00  0.00     0.025 A 
ATOM     13  C   UNL     1      26.138  46.429  82.462  1.00  0.00     0.016 A 
ATOM     14  C   UNL     1      27.025  46.978  81.533  1.00  0.00     0.051 A 
ATOM     15  C   UNL     1      28.213  46.317  81.204  1.00  0.00     0.157 A 
ATOM     16  C   UNL     1      27.613  44.533  82.745  1.00  0.00     0.062 A 
ATOM     17  C   UNL     1      28.509  45.075  81.815  1.00  0.00     0.158 A 
BRANCH  15  18
ATOM     18  O   UNL     1      29.059  46.921  80.272  1.00  0.00    -0.504 OA
ATOM     19  H   UNL     1      28.895  46.916  79.275  1.00  0.00     0.293 HD
ENDBRANCH  15  18
BRANCH  17  20
ATOM     20  O   UNL     1      29.671  44.353  81.530  1.00  0.00    -0.504 OA
ATOM     21  H   UNL     1      30.271  43.950  82.234  1.00  0.00     0.293 HD
ENDBRANCH  17  20
ENDBRANCH   1  12
BRANCH   2  22
ATOM     22  O   UNL     1      25.542  46.552  85.498  1.00  0.00    -0.502 OA
ATOM     23  H   UNL     1      26.117  47.076  84.849  1.00  0.00     0.293 HD
ENDBRANCH   2  22
BRANCH   6  24
ATOM     24  O   UNL     1      22.029  43.158  87.623  1.00  0.00    -0.507 OA
ATOM     25  H   UNL     1      21.312  42.677  88.146  1.00  0.00     0.293 HD
ENDBRANCH   6  24
BRANCH   8  26
ATOM     26  O   UNL     1      22.697  39.346  84.810  1.00  0.00    -0.508 OA
ATOM     27  H   UNL     1      21.742  39.062  84.630  1.00  0.00     0.293 HD
ENDBRANCH   8  26
TORSDOF 6
ENDMDL
MODEL 6
REMARK VINA RESULT:    -6.620      1.808      3.050
REMARK INTER + INTRA:          -8.250
REMARK INTER:                  -7.919
REMARK INTRA:                  -0.331
REMARK UNBOUND:                -0.275
REMARK SMILES O=c1c(O)c(-c2ccc(O)c(O)c2)oc2cc(O)cc(O)c12
REMARK SMILES IDX 5 1 3 2 2 3 1 4 22 5 20 6 19 7 17 8 16 9 15 10 14 11 6 12
REMARK SMILES IDX 7 13 8 14 9 15 13 16 11 17 10 18 12 20 4 22 21 24 18 26
REMARK H PARENT 10 19 12 21 4 23 21 25 18 27
REMARK Flexibility Score: inf
ROOT
ATOM      1  C   UNL     1      32.183  43.119  84.551  1.00  0.00     0.180 A 
ATOM      2  C   UNL     1      32.303  42.441  83.325  1.00  0.00     0.208 A 
ATOM      3  C   UNL     1      33.280  41.441  83.192  1.00  0.00     0.238 A 
ATOM      4  O   UNL     1      33.346  40.801  82.110  1.00  0.00    -0.285 OA
ATOM      5  C   UNL     1      34.136  41.143  84.279  1.00  0.00     0.111 A 
ATOM      6  C   UNL     1      35.187  40.178  84.242  1.00  0.00     0.134 A 
ATOM      7  C   UNL     1      35.885  39.872  85.417  1.00  0.00     0.093 A 
ATOM      8  C   UNL     1      35.616  40.542  86.610  1.00  0.00     0.123 A 
ATOM      9  C   UNL     1      34.631  41.531  86.643  1.00  0.00     0.094 A 
ATOM     10  C   UNL     1      33.892  41.832  85.496  1.00  0.00     0.146 A 
ATOM     11  O   UNL     1      32.957  42.771  85.573  1.00  0.00    -0.452 OA
ENDROOT
BRANCH   1  12
ATOM     12  C   UNL     1      31.194  44.200  84.760  1.00  0.00     0.025 A 
ATOM     13  C   UNL     1      31.483  45.531  84.417  1.00  0.00     0.016 A 
ATOM     14  C   UNL     1      30.543  46.538  84.647  1.00  0.00     0.051 A 
ATOM     15  C   UNL     1      29.308  46.242  85.232  1.00  0.00     0.157 A 
ATOM     16  C   UNL     1      29.964  43.905  85.368  1.00  0.00     0.062 A 
ATOM     17  C   UNL     1      29.015  44.908  85.601  1.00  0.00     0.158 A 
BRANCH  15  18
ATOM     18  O   UNL     1      28.411  47.295  85.430  1.00  0.00    -0.504 OA
ATOM     19  H   UNL     1      28.668  48.271  85.387  1.00  0.00     0.293 HD
ENDBRANCH  15  18
BRANCH  17  20
ATOM     20  O   UNL     1      27.808  44.538  86.198  1.00  0.00    -0.504 OA
ATOM     21  H   UNL     1      26.926  44.496  85.708  1.00  0.00     0.293 HD
ENDBRANCH  17  20
ENDBRANCH   1  12
BRANCH   2  22
ATOM     22  O   UNL     1      31.433  42.736  82.271  1.00  0.00    -0.502 OA
ATOM     23  H   UNL     1      31.322  43.673  81.904  1.00  0.00     0.293 HD
ENDBRANCH   2  22
BRANCH   6  24
ATOM     24  O   UNL     1      35.599  39.517  83.082  1.00  0.00    -0.507 OA
ATOM     25  H   UNL     1      36.264  38.759  83.058  1.00  0.00     0.293 HD
ENDBRANCH   6  24
BRANCH   8  26
ATOM     26  O   UNL     1      36.342  40.223  87.756  1.00  0.00    -0.508 OA
ATOM     27  H   UNL     1      37.315  39.946  87.706  1.00  0.00     0.293 HD
ENDBRANCH   8  26
TORSDOF 6
ENDMDL
MODEL 7
REMARK VINA RESULT:    -6.598      2.835      4.583
REMARK INTER + INTRA:          -8.223
REMARK INTER:                  -7.922
REMARK INTRA:                  -0.301
REMARK UNBOUND:                -0.275
REMARK SMILES O=c1c(O)c(-c2ccc(O)c(O)c2)oc2cc(O)cc(O)c12
REMARK SMILES IDX 5 1 3 2 2 3 1 4 22 5 20 6 19 7 17 8 16 9 15 10 14 11 6 12
REMARK SMILES IDX 7 13 8 14 9 15 13 16 11 17 10 18 12 20 4 22 21 24 18 26
REMARK H PARENT 10 19 12 21 4 23 21 25 18 27
REMARK Flexibility Score: inf
ROOT
ATOM      1  C   UNL     1      32.435  42.807  86.289  1.00  0.00     0.180 A 
ATOM      2  C   UNL     1      31.984  43.210  85.020  1.00  0.00     0.208 A 
ATOM      3  C   UNL     1      32.497  42.572  83.880  1.00  0.00     0.238 A 
ATOM      4  O   UNL     1      32.049  42.901  82.750  1.00  0.00    -0.285 OA
ATOM      5  C   UNL     1      33.468  41.552  84.020  1.00  0.00     0.111 A 
ATOM      6  C   UNL     1      34.086  40.865  82.932  1.00  0.00     0.134 A 
ATOM      7  C   UNL     1      34.936  39.783  83.191  1.00  0.00     0.093 A 
ATOM      8  C   UNL     1      35.241  39.404  84.498  1.00  0.00     0.123 A 
ATOM      9  C   UNL     1      34.689  40.106  85.570  1.00  0.00     0.094 A 
ATOM     10  C   UNL     1      33.808  41.167  85.343  1.00  0.00     0.146 A 
ATOM     11  O   UNL     1      33.297  41.802  86.391  1.00  0.00    -0.452 OA
ENDROOT
BRANCH   1  12
ATOM     12  C   UNL     1      31.958  43.448  87.535  1.00  0.00     0.025 A 
ATOM     13  C   UNL     1      32.462  44.689  87.958  1.00  0.00     0.016 A 
ATOM     14  C   UNL     1      32.015  45.262  89.150  1.00  0.00     0.051 A 
ATOM     15  C   UNL     1      31.071  44.608  89.947  1.00  0.00     0.157 A 
ATOM     16  C   UNL     1      31.028  42.779  88.345  1.00  0.00     0.062 A 
ATOM     17  C   UNL     1      30.573  43.347  89.542  1.00  0.00     0.158 A 
BRANCH  15  18
ATOM     18  O   UNL     1      30.662  45.237  91.125  1.00  0.00    -0.504 OA
ATOM     19  H   UNL     1      29.739  45.146  91.523  1.00  0.00     0.293 HD
ENDBRANCH  15  18
BRANCH  17  20
ATOM     20  O   UNL     1      29.636  42.629  90.290  1.00  0.00    -0.504 OA
ATOM     21  H   UNL     1      28.725  42.363  89.947  1.00  0.00     0.293 HD
ENDBRANCH  17  20
ENDBRANCH   1  12
BRANCH   2  22
ATOM     22  O   UNL     1      31.008  44.206  84.905  1.00  0.00    -0.502 OA
ATOM     23  H   UNL     1      30.496  44.369  84.046  1.00  0.00     0.293 HD
ENDBRANCH   2  22
BRANCH   6  24
ATOM     24  O   UNL     1      33.922  41.222  81.590  1.00  0.00    -0.507 OA
ATOM     25  H   UNL     1      33.699  40.577  80.847  1.00  0.00     0.293 HD
ENDBRANCH   6  24
BRANCH   8  26
ATOM     26  O   UNL     1      36.103  38.332  84.719  1.00  0.00    -0.508 OA
ATOM     27  H   UNL     1      36.812  38.363  85.442  1.00  0.00     0.293 HD
ENDBRANCH   8  26
TORSDOF 6
ENDMDL
MODEL 8
REMARK VINA RESULT:    -6.518      1.693      2.398
REMARK INTER + INTRA:          -8.127
REMARK INTER:                  -7.797
REMARK INTRA:                  -0.330
REMARK UNBOUND:                -0.275
REMARK SMILES O=c1c(O)c(-c2ccc(O)c(O)c2)oc2cc(O)cc(O)c12
REMARK SMILES IDX 5 1 3 2 2 3 1 4 22 5 20 6 19 7 17 8 16 9 15 10 14 11 6 12
REMARK SMILES IDX 7 13 8 14 9 15 13 16 11 17 10 18 12 20 4 22 21 24 18 26
REMARK H PARENT 10 19 12 21 4 23 21 25 18 27
REMARK Flexibility Score: inf
ROOT
ATOM      1  C   UNL     1      34.121  43.773  84.573  1.00  0.00     0.180 A 
ATOM      2  C   UNL     1      34.504  43.842  85.924  1.00  0.00     0.208 A 
ATOM      3  C   UNL     1      35.135  42.734  86.511  1.00  0.00     0.238 A 
ATOM      4  O   UNL     1      35.524  42.822  87.705  1.00  0.00    -0.285 OA
ATOM      5  C   UNL     1      35.360  41.565  85.745  1.00  0.00     0.111 A 
ATOM      6  C   UNL     1      35.955  40.368  86.249  1.00  0.00     0.134 A 
ATOM      7  C   UNL     1      36.248  39.320  85.369  1.00  0.00     0.093 A 
ATOM      8  C   UNL     1      35.910  39.397  84.018  1.00  0.00     0.123 A 
ATOM      9  C   UNL     1      35.274  40.538  83.527  1.00  0.00     0.094 A 
ATOM     10  C   UNL     1      35.002  41.616  84.373  1.00  0.00     0.146 A 
ATOM     11  O   UNL     1      34.405  42.687  83.864  1.00  0.00    -0.452 OA
ENDROOT
BRANCH   1  12
ATOM     12  C   UNL     1      33.430  44.891  83.892  1.00  0.00     0.025 A 
ATOM     13  C   UNL     1      32.029  44.977  83.864  1.00  0.00     0.016 A 
ATOM     14  C   UNL     1      31.399  46.028  83.194  1.00  0.00     0.051 A 
ATOM     15  C   UNL     1      32.150  47.003  82.530  1.00  0.00     0.157 A 
ATOM     16  C   UNL     1      34.184  45.856  83.207  1.00  0.00     0.062 A 
ATOM     17  C   UNL     1      33.562  46.914  82.533  1.00  0.00     0.158 A 
BRANCH  15  18
ATOM     18  O   UNL     1      31.459  48.030  81.883  1.00  0.00    -0.504 OA
ATOM     19  H   UNL     1      31.884  48.895  81.583  1.00  0.00     0.293 HD
ENDBRANCH  15  18
BRANCH  17  20
ATOM     20  O   UNL     1      34.377  47.845  81.884  1.00  0.00    -0.504 OA
ATOM     21  H   UNL     1      34.344  48.030  80.893  1.00  0.00     0.293 HD
ENDBRANCH  17  20
ENDBRANCH   1  12
BRANCH   2  22
ATOM     22  O   UNL     1      34.291  45.015  86.655  1.00  0.00    -0.502 OA
ATOM     23  H   UNL     1      33.398  45.493  86.670  1.00  0.00     0.293 HD
ENDBRANCH   2  22
BRANCH   6  24
ATOM     24  O   UNL     1      36.248  40.151  87.598  1.00  0.00    -0.507 OA
ATOM     25  H   UNL     1      35.945  40.745  88.355  1.00  0.00     0.293 HD
ENDBRANCH   6  24
BRANCH   8  26
ATOM     26  O   UNL     1      36.203  38.328  83.174  1.00  0.00    -0.508 OA
ATOM     27  H   UNL     1      36.980  37.704  83.360  1.00  0.00     0.293 HD
ENDBRANCH   8  26
TORSDOF 6
ENDMDL
MODEL 9
REMARK VINA RESULT:    -6.441      1.587      7.008
REMARK INTER + INTRA:          -8.034
REMARK INTER:                  -7.733
REMARK INTRA:                  -0.301
REMARK UNBOUND:                -0.275
REMARK SMILES O=c1c(O)c(-c2ccc(O)c(O)c2)oc2cc(O)cc(O)c12
REMARK SMILES IDX 5 1 3 2 2 3 1 4 22 5 20 6 19 7 17 8 16 9 15 10 14 11 6 12
REMARK SMILES IDX 7 13 8 14 9 15 13 16 11 17 10 18 12 20 4 22 21 24 18 26
REMARK H PARENT 10 19 12 21 4 23 21 25 18 27
REMARK Flexibility Score: inf
ROOT
ATOM      1  C   UNL     1      33.019  42.893  83.724  1.00  0.00     0.180 A 
ATOM      2  C   UNL     1      33.601  44.095  83.285  1.00  0.00     0.208 A 
ATOM      3  C   UNL     1      32.777  45.211  83.067  1.00  0.00     0.238 A 
ATOM      4  O   UNL     1      33.312  46.298  82.726  1.00  0.00    -0.285 OA
ATOM      5  C   UNL     1      31.381  45.107  83.275  1.00  0.00     0.111 A 
ATOM      6  C   UNL     1      30.448  46.163  83.046  1.00  0.00     0.134 A 
ATOM      7  C   UNL     1      29.107  45.989  83.411  1.00  0.00     0.093 A 
ATOM      8  C   UNL     1      28.653  44.778  83.933  1.00  0.00     0.123 A 
ATOM      9  C   UNL     1      29.546  43.719  84.104  1.00  0.00     0.094 A 
ATOM     10  C   UNL     1      30.897  43.874  83.785  1.00  0.00     0.146 A 
ATOM     11  O   UNL     1      31.715  42.846  83.973  1.00  0.00    -0.452 OA
ENDROOT
BRANCH   1  12
ATOM     12  C   UNL     1      33.818  41.667  83.952  1.00  0.00     0.025 A 
ATOM     13  C   UNL     1      34.232  40.855  82.884  1.00  0.00     0.016 A 
ATOM     14  C   UNL     1      34.964  39.691  83.126  1.00  0.00     0.051 A 
ATOM     15  C   UNL     1      35.286  39.308  84.432  1.00  0.00     0.157 A 
ATOM     16  C   UNL     1      34.120  41.273  85.265  1.00  0.00     0.062 A 
ATOM     17  C   UNL     1      34.855  40.107  85.517  1.00  0.00     0.158 A 
BRANCH  15  18
ATOM     18  O   UNL     1      36.024  38.135  84.604  1.00  0.00    -0.504 OA
ATOM     19  H   UNL     1      36.648  37.969  85.381  1.00  0.00     0.293 HD
ENDBRANCH  15  18
BRANCH  17  20
ATOM     20  O   UNL     1      35.129  39.784  86.848  1.00  0.00    -0.504 OA
ATOM     21  H   UNL     1      34.727  38.994  87.331  1.00  0.00     0.293 HD
ENDBRANCH  17  20
ENDBRANCH   1  12
BRANCH   2  22
ATOM     22  O   UNL     1      34.985  44.181  83.107  1.00  0.00    -0.502 OA
ATOM     23  H   UNL     1      35.596  44.612  83.790  1.00  0.00     0.293 HD
ENDBRANCH   2  22
BRANCH   6  24
ATOM     24  O   UNL     1      30.778  47.380  82.445  1.00  0.00    -0.507 OA
ATOM     25  H   UNL     1      30.770  47.551  81.451  1.00  0.00     0.293 HD
ENDBRANCH   6  24
BRANCH   8  26
ATOM     26  O   UNL     1      27.308  44.636  84.270  1.00  0.00    -0.508 OA
ATOM     27  H   UNL     1      26.890  45.175  85.019  1.00  0.00     0.293 HD
ENDBRANCH   8  26
TORSDOF 6
ENDMDL
