MODEL 1
REMARK VINA RESULT:    29.355      0.000      0.000
REMARK INTER + INTRA:          35.232
REMARK INTER:                  35.362
REMARK INTRA:                  -0.130
REMARK UNBOUND:                -0.130
REMARK SMILES Oc1cc(O)c2cc(O)c(-c3ccc(O)c(O)c3)[o+]c2c1
REMARK SMILES IDX 10 1 19 2 20 3 21 4 2 5 3 6 4 7 6 8 7 9 8 10 11 11 12 12
REMARK SMILES IDX 13 13 14 14 18 15 16 16 15 17 17 19 9 21 1 23 5 25
REMARK H PARENT 15 18 17 20 9 22 1 24 5 26
REMARK Flexibility Score: inf
ROOT
ATOM      1  C   UNL     1      17.580  96.877   9.180  1.00  0.00     0.402 A 
ATOM      2  O   UNL     1      18.445  95.893   9.424  1.00  0.00    -0.202 OA
ATOM      3  C   UNL     1      18.086  94.616   9.519  1.00  0.00     0.368 A 
ATOM      4  C   UNL     1      19.056  93.642   9.773  1.00  0.00     0.162 A 
ATOM      5  C   UNL     1      18.692  92.293   9.873  1.00  0.00     0.128 A 
ATOM      6  C   UNL     1      17.353  91.919   9.719  1.00  0.00     0.093 A 
ATOM      7  C   UNL     1      16.367  92.886   9.466  1.00  0.00     0.136 A 
ATOM      8  C   UNL     1      16.733  94.241   9.365  1.00  0.00     0.125 A 
ATOM      9  C   UNL     1      15.793  95.250   9.122  1.00  0.00     0.078 A 
ATOM     10  C   UNL     1      16.209  96.581   9.038  1.00  0.00     0.223 A 
ENDROOT
BRANCH   1  11
ATOM     11  C   UNL     1      18.101  98.259   9.086  1.00  0.00     0.087 A 
ATOM     12  C   UNL     1      18.896  98.770  10.124  1.00  0.00     0.022 A 
ATOM     13  C   UNL     1      19.415 100.064  10.048  1.00  0.00     0.051 A 
ATOM     14  C   UNL     1      19.161 100.863   8.926  1.00  0.00     0.157 A 
ATOM     15  C   UNL     1      17.864  99.057   7.952  1.00  0.00     0.068 A 
ATOM     16  C   UNL     1      18.386 100.354   7.871  1.00  0.00     0.158 A 
BRANCH  14  17
ATOM     17  O   UNL     1      19.678 102.156   8.853  1.00  0.00    -0.504 OA
ATOM     18  H   UNL     1      19.605 102.709   8.007  1.00  0.00     0.293 HD
ENDBRANCH  14  17
BRANCH  16  19
ATOM     19  O   UNL     1      18.126 101.118   6.733  1.00  0.00    -0.504 OA
ATOM     20  H   UNL     1      18.723 101.887   6.454  1.00  0.00     0.293 HD
ENDBRANCH  16  19
ENDBRANCH   1  11
BRANCH  10  21
ATOM     21  O   UNL     1      15.271  97.595   8.846  1.00  0.00    -0.500 OA
ATOM     22  H   UNL     1      15.516  98.468   8.393  1.00  0.00     0.294 HD
ENDBRANCH  10  21
BRANCH   5  23
ATOM     23  O   UNL     1      19.652  91.316  10.125  1.00  0.00    -0.507 OA
ATOM     24  H   UNL     1      19.793  90.938  11.054  1.00  0.00     0.293 HD
ENDBRANCH   5  23
BRANCH   7  25
ATOM     25  O   UNL     1      15.035  92.500   9.316  1.00  0.00    -0.507 OA
ATOM     26  H   UNL     1      14.641  91.732   9.847  1.00  0.00     0.293 HD
ENDBRANCH   7  25
TORSDOF 6
ENDMDL
MODEL 2
REMARK VINA RESULT:    29.683      0.632      1.415
REMARK INTER + INTRA:          35.626
REMARK INTER:                  35.302
REMARK INTRA:                   0.325
REMARK UNBOUND:                -0.130
REMARK SMILES Oc1cc(O)c2cc(O)c(-c3ccc(O)c(O)c3)[o+]c2c1
REMARK SMILES IDX 10 1 19 2 20 3 21 4 2 5 3 6 4 7 6 8 7 9 8 10 11 11 12 12
REMARK SMILES IDX 13 13 14 14 18 15 16 16 15 17 17 19 9 21 1 23 5 25
REMARK H PARENT 15 18 17 20 9 22 1 24 5 26
REMARK Flexibility Score: inf
ROOT
ATOM      1  C   UNL     1      17.543  96.857   9.109  1.00  0.00     0.402 A 
ATOM      2  O   UNL     1      18.419  95.883   9.356  1.00  0.00    -0.202 OA
ATOM      3  C   UNL     1      18.071  94.607   9.483  1.00  0.00     0.368 A 
ATOM      4  C   UNL     1      19.053  93.644   9.739  1.00  0.00     0.162 A 
ATOM      5  C   UNL     1      18.700  92.296   9.872  1.00  0.00     0.128 A 
ATOM      6  C   UNL     1      17.361  91.910   9.750  1.00  0.00     0.093 A 
ATOM      7  C   UNL     1      16.365  92.864   9.496  1.00  0.00     0.136 A 
ATOM      8  C   UNL     1      16.719  94.220   9.362  1.00  0.00     0.125 A 
ATOM      9  C   UNL     1      15.767  95.216   9.116  1.00  0.00     0.078 A 
ATOM     10  C   UNL     1      16.171  96.549   8.998  1.00  0.00     0.223 A 
ENDROOT
BRANCH   1  11
ATOM     11  C   UNL     1      18.052  98.241   8.978  1.00  0.00     0.087 A 
ATOM     12  C   UNL     1      17.304  99.186   8.259  1.00  0.00     0.022 A 
ATOM     13  C   UNL     1      17.754 100.503   8.139  1.00  0.00     0.051 A 
ATOM     14  C   UNL     1      18.950 100.900   8.749  1.00  0.00     0.157 A 
ATOM     15  C   UNL     1      19.243  98.647   9.606  1.00  0.00     0.068 A 
ATOM     16  C   UNL     1      19.695  99.967   9.491  1.00  0.00     0.158 A 
BRANCH  14  17
ATOM     17  O   UNL     1      19.399 102.213   8.626  1.00  0.00    -0.504 OA
ATOM     18  H   UNL     1      18.798 102.949   8.274  1.00  0.00     0.293 HD
ENDBRANCH  14  17
BRANCH  16  19
ATOM     19  O   UNL     1      20.883 100.333  10.123  1.00  0.00    -0.504 OA
ATOM     20  H   UNL     1      21.665 100.726   9.613  1.00  0.00     0.293 HD
ENDBRANCH  16  19
ENDBRANCH   1  11
BRANCH  10  21
ATOM     21  O   UNL     1      15.223  97.552   8.803  1.00  0.00    -0.500 OA
ATOM     22  H   UNL     1      14.355  97.375   8.311  1.00  0.00     0.294 HD
ENDBRANCH  10  21
BRANCH   5  23
ATOM     23  O   UNL     1      19.672  91.331  10.125  1.00  0.00    -0.507 OA
ATOM     24  H   UNL     1      20.318  91.419  10.900  1.00  0.00     0.293 HD
ENDBRANCH   5  23
BRANCH   7  25
ATOM     25  O   UNL     1      15.032  92.466   9.378  1.00  0.00    -0.507 OA
ATOM     26  H   UNL     1      14.774  91.489   9.310  1.00  0.00     0.293 HD
ENDBRANCH   7  25
TORSDOF 6
ENDMDL
MODEL 3
REMARK VINA RESULT:    30.381      2.084      3.408
REMARK INTER + INTRA:          36.467
REMARK INTER:                  36.572
REMARK INTRA:                  -0.105
REMARK UNBOUND:                -0.130
REMARK SMILES Oc1cc(O)c2cc(O)c(-c3ccc(O)c(O)c3)[o+]c2c1
REMARK SMILES IDX 10 1 19 2 20 3 21 4 2 5 3 6 4 7 6 8 7 9 8 10 11 11 12 12
REMARK SMILES IDX 13 13 14 14 18 15 16 16 15 17 17 19 9 21 1 23 5 25
REMARK H PARENT 15 18 17 20 9 22 1 24 5 26
REMARK Flexibility Score: inf
ROOT
ATOM      1  C   UNL     1      17.910  97.628   9.027  1.00  0.00     0.402 A 
ATOM      2  O   UNL     1      16.649  97.703   9.449  1.00  0.00    -0.202 OA
ATOM      3  C   UNL     1      15.777  96.709   9.313  1.00  0.00     0.368 A 
ATOM      4  C   UNL     1      14.470  96.864   9.787  1.00  0.00     0.162 A 
ATOM      5  C   UNL     1      13.543  95.824   9.654  1.00  0.00     0.128 A 
ATOM      6  C   UNL     1      13.924  94.624   9.044  1.00  0.00     0.093 A 
ATOM      7  C   UNL     1      15.230  94.454   8.561  1.00  0.00     0.136 A 
ATOM      8  C   UNL     1      16.163  95.499   8.695  1.00  0.00     0.125 A 
ATOM      9  C   UNL     1      17.477  95.389   8.226  1.00  0.00     0.078 A 
ATOM     10  C   UNL     1      18.361  96.460   8.378  1.00  0.00     0.223 A 
ENDROOT
BRANCH   1  11
ATOM     11  C   UNL     1      18.791  98.798   9.242  1.00  0.00     0.087 A 
ATOM     12  C   UNL     1      20.006  98.631   9.925  1.00  0.00     0.022 A 
ATOM     13  C   UNL     1      20.863  99.716  10.123  1.00  0.00     0.051 A 
ATOM     14  C   UNL     1      20.527 100.982   9.627  1.00  0.00     0.157 A 
ATOM     15  C   UNL     1      18.466 100.067   8.728  1.00  0.00     0.068 A 
ATOM     16  C   UNL     1      19.324 101.156   8.922  1.00  0.00     0.158 A 
BRANCH  14  17
ATOM     17  O   UNL     1      21.381 102.065   9.828  1.00  0.00    -0.504 OA
ATOM     18  H   UNL     1      21.729 102.617   9.052  1.00  0.00     0.293 HD
ENDBRANCH  14  17
BRANCH  16  19
ATOM     19  O   UNL     1      18.966 102.400   8.403  1.00  0.00    -0.504 OA
ATOM     20  H   UNL     1      18.349 103.032   8.897  1.00  0.00     0.293 HD
ENDBRANCH  16  19
ENDBRANCH   1  11
BRANCH  10  21
ATOM     21  O   UNL     1      19.656  96.375   7.868  1.00  0.00    -0.500 OA
ATOM     22  H   UNL     1      20.307  97.149   7.937  1.00  0.00     0.294 HD
ENDBRANCH  10  21
BRANCH   5  23
ATOM     23  O   UNL     1      12.240  95.970  10.125  1.00  0.00    -0.507 OA
ATOM     24  H   UNL     1      11.714  95.182  10.482  1.00  0.00     0.293 HD
ENDBRANCH   5  23
BRANCH   7  25
ATOM     25  O   UNL     1      15.597  93.252   7.953  1.00  0.00    -0.507 OA
ATOM     26  H   UNL     1      14.907  92.561   7.683  1.00  0.00     0.293 HD
ENDBRANCH   7  25
TORSDOF 6
ENDMDL
MODEL 4
REMARK VINA RESULT:    30.641      2.533      6.465
REMARK INTER + INTRA:          36.781
REMARK INTER:                  37.125
REMARK INTRA:                  -0.344
REMARK UNBOUND:                -0.130
REMARK SMILES Oc1cc(O)c2cc(O)c(-c3ccc(O)c(O)c3)[o+]c2c1
REMARK SMILES IDX 10 1 19 2 20 3 21 4 2 5 3 6 4 7 6 8 7 9 8 10 11 11 12 12
REMARK SMILES IDX 13 13 14 14 18 15 16 16 15 17 17 19 9 21 1 23 5 25
REMARK H PARENT 15 18 17 20 9 22 1 24 5 26
REMARK Flexibility Score: inf
ROOT
ATOM      1  C   UNL     1      17.470  95.386   8.767  1.00  0.00     0.402 A 
ATOM      2  O   UNL     1      16.194  95.103   9.023  1.00  0.00    -0.202 OA
ATOM      3  C   UNL     1      15.288  96.031   9.315  1.00  0.00     0.368 A 
ATOM      4  C   UNL     1      13.965  95.652   9.568  1.00  0.00     0.162 A 
ATOM      5  C   UNL     1      13.001  96.620   9.873  1.00  0.00     0.128 A 
ATOM      6  C   UNL     1      13.360  97.970   9.926  1.00  0.00     0.093 A 
ATOM      7  C   UNL     1      14.683  98.366   9.677  1.00  0.00     0.136 A 
ATOM      8  C   UNL     1      15.653  97.394   9.370  1.00  0.00     0.125 A 
ATOM      9  C   UNL     1      16.989  97.729   9.120  1.00  0.00     0.078 A 
ATOM     10  C   UNL     1      17.914  96.723   8.826  1.00  0.00     0.223 A 
ENDROOT
BRANCH   1  11
ATOM     11  C   UNL     1      18.385  94.267   8.445  1.00  0.00     0.087 A 
ATOM     12  C   UNL     1      18.526  93.853   7.111  1.00  0.00     0.022 A 
ATOM     13  C   UNL     1      19.398  92.813   6.780  1.00  0.00     0.051 A 
ATOM     14  C   UNL     1      20.154  92.182   7.775  1.00  0.00     0.157 A 
ATOM     15  C   UNL     1      19.161  93.644   9.439  1.00  0.00     0.068 A 
ATOM     16  C   UNL     1      20.038  92.604   9.110  1.00  0.00     0.158 A 
BRANCH  14  17
ATOM     17  O   UNL     1      21.022  91.142   7.444  1.00  0.00    -0.504 OA
ATOM     18  H   UNL     1      22.009  91.184   7.669  1.00  0.00     0.293 HD
ENDBRANCH  14  17
BRANCH  16  19
ATOM     19  O   UNL     1      20.787  92.005  10.123  1.00  0.00    -0.504 OA
ATOM     20  H   UNL     1      21.223  91.099  10.006  1.00  0.00     0.293 HD
ENDBRANCH  16  19
ENDBRANCH   1  11
BRANCH  10  21
ATOM     21  O   UNL     1      19.256  97.045   8.626  1.00  0.00    -0.500 OA
ATOM     22  H   UNL     1      19.885  97.209   9.403  1.00  0.00     0.294 HD
ENDBRANCH  10  21
BRANCH   5  23
ATOM     23  O   UNL     1      11.681  96.250  10.125  1.00  0.00    -0.507 OA
ATOM     24  H   UNL     1      11.005  96.156   9.376  1.00  0.00     0.293 HD
ENDBRANCH   5  23
BRANCH   7  25
ATOM     25  O   UNL     1      15.028  99.717   9.735  1.00  0.00    -0.507 OA
ATOM     26  H   UNL     1      14.439 100.397  10.200  1.00  0.00     0.293 HD
ENDBRANCH   7  25
TORSDOF 6
ENDMDL
