MODEL 1
REMARK VINA RESULT:    -7.613      0.000      0.000
REMARK INTER + INTRA:          -9.215
REMARK INTER:                  -8.948
REMARK INTRA:                  -0.267
REMARK UNBOUND:                -0.267
REMARK SMILES O=c1cc(-c2ccc(O)c(O)c2)oc2cc(O)cc(O)c12
REMARK SMILES IDX 4 1 3 2 2 3 1 4 21 5 19 6 18 7 16 8 15 9 14 10 13 11 5 12
REMARK SMILES IDX 6 13 7 14 8 15 12 16 10 17 9 18 11 20 20 22 17 24
REMARK H PARENT 9 19 11 21 20 23 17 25
REMARK Flexibility Score: inf
ROOT
ATOM      1  C   UNL     1      10.575  39.158  22.591  1.00  0.00     0.138 A 
ATOM      2  C   UNL     1       9.538  38.545  23.308  1.00  0.00     0.100 A 
ATOM      3  C   UNL     1       9.813  37.929  24.529  1.00  0.00     0.197 A 
ATOM      4  O   UNL     1       8.875  37.333  25.120  1.00  0.00    -0.289 OA
ATOM      5  C   UNL     1      11.130  37.954  25.050  1.00  0.00     0.107 A 
ATOM      6  C   UNL     1      11.519  37.395  26.303  1.00  0.00     0.134 A 
ATOM      7  C   UNL     1      12.873  37.379  26.661  1.00  0.00     0.093 A 
ATOM      8  C   UNL     1      13.843  37.956  25.836  1.00  0.00     0.123 A 
ATOM      9  C   UNL     1      13.466  38.551  24.636  1.00  0.00     0.094 A 
ATOM     10  C   UNL     1      12.127  38.554  24.235  1.00  0.00     0.146 A 
ATOM     11  O   UNL     1      11.812  39.120  23.076  1.00  0.00    -0.456 OA
ENDROOT
BRANCH   1  12
ATOM     12  C   UNL     1      10.337  39.828  21.288  1.00  0.00     0.021 A 
ATOM     13  C   UNL     1       9.752  41.107  21.263  1.00  0.00     0.016 A 
ATOM     14  C   UNL     1       9.511  41.755  20.050  1.00  0.00     0.051 A 
ATOM     15  C   UNL     1       9.840  41.133  18.840  1.00  0.00     0.157 A 
ATOM     16  C   UNL     1      10.652  39.203  20.065  1.00  0.00     0.062 A 
ATOM     17  C   UNL     1      10.408  39.853  18.847  1.00  0.00     0.158 A 
BRANCH  15  18
ATOM     18  O   UNL     1       9.602  41.777  17.627  1.00  0.00    -0.504 OA
ATOM     19  H   UNL     1       8.679  42.109  17.376  1.00  0.00     0.293 HD
ENDBRANCH  15  18
BRANCH  17  20
ATOM     20  O   UNL     1      10.724  39.232  17.640  1.00  0.00    -0.504 OA
ATOM     21  H   UNL     1      10.916  39.768  16.802  1.00  0.00     0.293 HD
ENDBRANCH  17  20
ENDBRANCH   1  12
BRANCH   6  22
ATOM     22  O   UNL     1      10.621  36.871  27.237  1.00  0.00    -0.507 OA
ATOM     23  H   UNL     1      10.242  35.936  27.211  1.00  0.00     0.293 HD
ENDBRANCH   6  22
BRANCH   8  24
ATOM     24  O   UNL     1      15.186  37.947  26.208  1.00  0.00    -0.508 OA
ATOM     25  H   UNL     1      15.582  37.187  26.748  1.00  0.00     0.293 HD
ENDBRANCH   8  24
TORSDOF 5
ENDMDL
MODEL 2
REMARK VINA RESULT:    -7.588      1.582      3.106
REMARK INTER + INTRA:          -9.186
REMARK INTER:                  -8.898
REMARK INTRA:                  -0.288
REMARK UNBOUND:                -0.267
REMARK SMILES O=c1cc(-c2ccc(O)c(O)c2)oc2cc(O)cc(O)c12
REMARK SMILES IDX 4 1 3 2 2 3 1 4 21 5 19 6 18 7 16 8 15 9 14 10 13 11 5 12
REMARK SMILES IDX 6 13 7 14 8 15 12 16 10 17 9 18 11 20 20 22 17 24
REMARK H PARENT 9 19 11 21 20 23 17 25
REMARK Flexibility Score: inf
ROOT
ATOM      1  C   UNL     1      11.163  38.322  23.692  1.00  0.00     0.138 A 
ATOM      2  C   UNL     1      12.513  38.390  24.063  1.00  0.00     0.100 A 
ATOM      3  C   UNL     1      12.918  37.876  25.295  1.00  0.00     0.197 A 
ATOM      4  O   UNL     1      14.124  38.006  25.627  1.00  0.00    -0.289 OA
ATOM      5  C   UNL     1      11.968  37.261  26.147  1.00  0.00     0.107 A 
ATOM      6  C   UNL     1      12.273  36.666  27.408  1.00  0.00     0.134 A 
ATOM      7  C   UNL     1      11.232  36.192  28.216  1.00  0.00     0.093 A 
ATOM      8  C   UNL     1       9.904  36.237  27.781  1.00  0.00     0.123 A 
ATOM      9  C   UNL     1       9.603  36.767  26.530  1.00  0.00     0.094 A 
ATOM     10  C   UNL     1      10.615  37.280  25.715  1.00  0.00     0.146 A 
ATOM     11  O   UNL     1      10.283  37.790  24.534  1.00  0.00    -0.456 OA
ENDROOT
BRANCH   1  12
ATOM     12  C   UNL     1      10.679  38.854  22.393  1.00  0.00     0.021 A 
ATOM     13  C   UNL     1       9.357  39.320  22.285  1.00  0.00     0.016 A 
ATOM     14  C   UNL     1       8.875  39.817  21.072  1.00  0.00     0.051 A 
ATOM     15  C   UNL     1       9.702  39.848  19.944  1.00  0.00     0.157 A 
ATOM     16  C   UNL     1      11.501  38.875  21.249  1.00  0.00     0.062 A 
ATOM     17  C   UNL     1      11.017  39.373  20.031  1.00  0.00     0.158 A 
BRANCH  15  18
ATOM     18  O   UNL     1       9.225  40.345  18.731  1.00  0.00    -0.504 OA
ATOM     19  H   UNL     1       9.126  41.339  18.569  1.00  0.00     0.293 HD
ENDBRANCH  15  18
BRANCH  17  20
ATOM     20  O   UNL     1      11.834  39.395  18.902  1.00  0.00    -0.504 OA
ATOM     21  H   UNL     1      12.084  38.545  18.412  1.00  0.00     0.293 HD
ENDBRANCH  17  20
ENDBRANCH   1  12
BRANCH   6  22
ATOM     22  O   UNL     1      13.570  36.495  27.898  1.00  0.00    -0.507 OA
ATOM     23  H   UNL     1      13.799  36.097  28.796  1.00  0.00     0.293 HD
ENDBRANCH   6  22
BRANCH   8  24
ATOM     24  O   UNL     1       8.877  35.749  28.587  1.00  0.00    -0.508 OA
ATOM     25  H   UNL     1       7.959  36.179  28.595  1.00  0.00     0.293 HD
ENDBRANCH   8  24
TORSDOF 5
ENDMDL
MODEL 3
REMARK VINA RESULT:    -7.374      2.230      6.617
REMARK INTER + INTRA:          -8.935
REMARK INTER:                  -8.652
REMARK INTRA:                  -0.283
REMARK UNBOUND:                -0.267
REMARK SMILES O=c1cc(-c2ccc(O)c(O)c2)oc2cc(O)cc(O)c12
REMARK SMILES IDX 4 1 3 2 2 3 1 4 21 5 19 6 18 7 16 8 15 9 14 10 13 11 5 12
REMARK SMILES IDX 6 13 7 14 8 15 12 16 10 17 9 18 11 20 20 22 17 24
REMARK H PARENT 9 19 11 21 20 23 17 25
REMARK Flexibility Score: inf
ROOT
ATOM      1  C   UNL     1      10.337  39.085  22.660  1.00  0.00     0.138 A 
ATOM      2  C   UNL     1       9.376  39.345  21.674  1.00  0.00     0.100 A 
ATOM      3  C   UNL     1       9.768  39.909  20.459  1.00  0.00     0.197 A 
ATOM      4  O   UNL     1       8.876  40.188  19.617  1.00  0.00    -0.289 OA
ATOM      5  C   UNL     1      11.136  40.186  20.221  1.00  0.00     0.107 A 
ATOM      6  C   UNL     1      11.657  40.723  19.006  1.00  0.00     0.134 A 
ATOM      7  C   UNL     1      13.013  41.063  18.927  1.00  0.00     0.093 A 
ATOM      8  C   UNL     1      13.878  40.830  20.000  1.00  0.00     0.123 A 
ATOM      9  C   UNL     1      13.389  40.257  21.171  1.00  0.00     0.094 A 
ATOM     10  C   UNL     1      12.035  39.937  21.293  1.00  0.00     0.146 A 
ATOM     11  O   UNL     1      11.607  39.406  22.432  1.00  0.00    -0.456 OA
ENDROOT
BRANCH   1  12
ATOM     12  C   UNL     1       9.975  38.486  23.969  1.00  0.00     0.021 A 
ATOM     13  C   UNL     1       9.266  37.272  24.002  1.00  0.00     0.016 A 
ATOM     14  C   UNL     1       8.906  36.691  25.220  1.00  0.00     0.051 A 
ATOM     15  C   UNL     1       9.238  37.319  26.426  1.00  0.00     0.157 A 
ATOM     16  C   UNL     1      10.293  39.118  25.187  1.00  0.00     0.062 A 
ATOM     17  C   UNL     1       9.930  38.536  26.410  1.00  0.00     0.158 A 
BRANCH  15  18
ATOM     18  O   UNL     1       8.882  36.742  27.645  1.00  0.00    -0.504 OA
ATOM     19  H   UNL     1       9.519  36.141  28.152  1.00  0.00     0.293 HD
ENDBRANCH  15  18
BRANCH  17  20
ATOM     20  O   UNL     1      10.250  39.164  27.613  1.00  0.00    -0.504 OA
ATOM     21  H   UNL     1      11.204  39.413  27.843  1.00  0.00     0.293 HD
ENDBRANCH  17  20
ENDBRANCH   1  12
BRANCH   6  22
ATOM     22  O   UNL     1      10.898  40.916  17.848  1.00  0.00    -0.507 OA
ATOM     23  H   UNL     1      11.176  41.488  17.065  1.00  0.00     0.293 HD
ENDBRANCH   6  22
BRANCH   8  24
ATOM     24  O   UNL     1      15.229  41.159  19.907  1.00  0.00    -0.508 OA
ATOM     25  H   UNL     1      15.932  40.460  19.698  1.00  0.00     0.293 HD
ENDBRANCH   8  24
TORSDOF 5
ENDMDL
MODEL 4
REMARK VINA RESULT:    -7.359      2.184      7.182
REMARK INTER + INTRA:          -8.917
REMARK INTER:                  -8.650
REMARK INTRA:                  -0.267
REMARK UNBOUND:                -0.267
REMARK SMILES O=c1cc(-c2ccc(O)c(O)c2)oc2cc(O)cc(O)c12
REMARK SMILES IDX 4 1 3 2 2 3 1 4 21 5 19 6 18 7 16 8 15 9 14 10 13 11 5 12
REMARK SMILES IDX 6 13 7 14 8 15 12 16 10 17 9 18 11 20 20 22 17 24
REMARK H PARENT 9 19 11 21 20 23 17 25
REMARK Flexibility Score: inf
ROOT
ATOM      1  C   UNL     1      10.680  38.927  22.770  1.00  0.00     0.138 A 
ATOM      2  C   UNL     1      11.798  38.386  22.120  1.00  0.00     0.100 A 
ATOM      3  C   UNL     1      12.166  38.868  20.863  1.00  0.00     0.197 A 
ATOM      4  O   UNL     1      13.136  38.322  20.278  1.00  0.00    -0.289 OA
ATOM      5  C   UNL     1      11.427  39.919  20.268  1.00  0.00     0.107 A 
ATOM      6  C   UNL     1      11.734  40.517  19.010  1.00  0.00     0.134 A 
ATOM      7  C   UNL     1      10.863  41.471  18.469  1.00  0.00     0.093 A 
ATOM      8  C   UNL     1       9.728  41.891  19.169  1.00  0.00     0.123 A 
ATOM      9  C   UNL     1       9.450  41.351  20.422  1.00  0.00     0.094 A 
ATOM     10  C   UNL     1      10.281  40.373  20.974  1.00  0.00     0.146 A 
ATOM     11  O   UNL     1       9.970  39.875  22.165  1.00  0.00    -0.456 OA
ENDROOT
BRANCH   1  12
ATOM     12  C   UNL     1      10.245  38.452  24.108  1.00  0.00     0.021 A 
ATOM     13  C   UNL     1       9.504  37.261  24.212  1.00  0.00     0.016 A 
ATOM     14  C   UNL     1       9.076  36.797  25.458  1.00  0.00     0.051 A 
ATOM     15  C   UNL     1       9.372  37.519  26.620  1.00  0.00     0.157 A 
ATOM     16  C   UNL     1      10.527  39.180  25.280  1.00  0.00     0.062 A 
ATOM     17  C   UNL     1      10.096  38.714  26.531  1.00  0.00     0.158 A 
BRANCH  15  18
ATOM     18  O   UNL     1       8.948  37.058  27.865  1.00  0.00    -0.504 OA
ATOM     19  H   UNL     1       8.239  37.547  28.397  1.00  0.00     0.293 HD
ENDBRANCH  15  18
BRANCH  17  20
ATOM     20  O   UNL     1      10.379  39.437  27.689  1.00  0.00    -0.504 OA
ATOM     21  H   UNL     1       9.979  40.352  27.854  1.00  0.00     0.293 HD
ENDBRANCH  17  20
ENDBRANCH   1  12
BRANCH   6  22
ATOM     22  O   UNL     1      12.884  40.232  18.269  1.00  0.00    -0.507 OA
ATOM     23  H   UNL     1      13.466  40.923  17.819  1.00  0.00     0.293 HD
ENDBRANCH   6  22
BRANCH   8  24
ATOM     24  O   UNL     1       8.875  42.851  18.628  1.00  0.00    -0.508 OA
ATOM     25  H   UNL     1       9.161  43.438  17.853  1.00  0.00     0.293 HD
ENDBRANCH   8  24
TORSDOF 5
ENDMDL
MODEL 5
REMARK VINA RESULT:    -7.267      5.675      7.132
REMARK INTER + INTRA:          -8.809
REMARK INTER:                  -8.523
REMARK INTRA:                  -0.285
REMARK UNBOUND:                -0.267
REMARK SMILES O=c1cc(-c2ccc(O)c(O)c2)oc2cc(O)cc(O)c12
REMARK SMILES IDX 4 1 3 2 2 3 1 4 21 5 19 6 18 7 16 8 15 9 14 10 13 11 5 12
REMARK SMILES IDX 6 13 7 14 8 15 12 16 10 17 9 18 11 20 20 22 17 24
REMARK H PARENT 9 19 11 21 20 23 17 25
REMARK Flexibility Score: inf
ROOT
ATOM      1  C   UNL     1      13.278  43.537  21.044  1.00  0.00     0.138 A 
ATOM      2  C   UNL     1      12.583  44.736  21.250  1.00  0.00     0.100 A 
ATOM      3  C   UNL     1      13.225  45.808  21.871  1.00  0.00     0.197 A 
ATOM      4  O   UNL     1      12.557  46.850  22.098  1.00  0.00    -0.289 OA
ATOM      5  C   UNL     1      14.581  45.687  22.260  1.00  0.00     0.107 A 
ATOM      6  C   UNL     1      15.348  46.727  22.864  1.00  0.00     0.134 A 
ATOM      7  C   UNL     1      16.647  46.455  23.311  1.00  0.00     0.093 A 
ATOM      8  C   UNL     1      17.226  45.196  23.122  1.00  0.00     0.123 A 
ATOM      9  C   UNL     1      16.503  44.191  22.486  1.00  0.00     0.094 A 
ATOM     10  C   UNL     1      15.193  44.421  22.058  1.00  0.00     0.146 A 
ATOM     11  O   UNL     1      14.534  43.431  21.468  1.00  0.00    -0.456 OA
ENDROOT
BRANCH   1  12
ATOM     12  C   UNL     1      12.644  42.365  20.388  1.00  0.00     0.021 A 
ATOM     13  C   UNL     1      13.007  41.067  20.788  1.00  0.00     0.016 A 
ATOM     14  C   UNL     1      12.430  39.949  20.181  1.00  0.00     0.051 A 
ATOM     15  C   UNL     1      11.490  40.108  19.157  1.00  0.00     0.157 A 
ATOM     16  C   UNL     1      11.706  42.517  19.347  1.00  0.00     0.062 A 
ATOM     17  C   UNL     1      11.129  41.394  18.737  1.00  0.00     0.158 A 
BRANCH  15  18
ATOM     18  O   UNL     1      10.911  38.995  18.550  1.00  0.00    -0.504 OA
ATOM     19  H   UNL     1       9.919  38.807  18.624  1.00  0.00     0.293 HD
ENDBRANCH  15  18
BRANCH  17  20
ATOM     20  O   UNL     1      10.200  41.549  17.709  1.00  0.00    -0.504 OA
ATOM     21  H   UNL     1       9.776  40.750  17.253  1.00  0.00     0.293 HD
ENDBRANCH  17  20
ENDBRANCH   1  12
BRANCH   6  22
ATOM     22  O   UNL     1      14.897  48.040  23.023  1.00  0.00    -0.507 OA
ATOM     23  H   UNL     1      14.966  48.574  23.877  1.00  0.00     0.293 HD
ENDBRANCH   6  22
BRANCH   8  24
ATOM     24  O   UNL     1      18.524  44.939  23.558  1.00  0.00    -0.508 OA
ATOM     25  H   UNL     1      19.006  44.082  23.314  1.00  0.00     0.293 HD
ENDBRANCH   8  24
TORSDOF 5
ENDMDL
MODEL 6
REMARK VINA RESULT:    -7.231      4.844      6.983
REMARK INTER + INTRA:          -8.766
REMARK INTER:                  -8.453
REMARK INTRA:                  -0.313
REMARK UNBOUND:                -0.267
REMARK SMILES O=c1cc(-c2ccc(O)c(O)c2)oc2cc(O)cc(O)c12
REMARK SMILES IDX 4 1 3 2 2 3 1 4 21 5 19 6 18 7 16 8 15 9 14 10 13 11 5 12
REMARK SMILES IDX 6 13 7 14 8 15 12 16 10 17 9 18 11 20 20 22 17 24
REMARK H PARENT 9 19 11 21 20 23 17 25
REMARK Flexibility Score: inf
ROOT
ATOM      1  C   UNL     1      13.015  43.230  21.159  1.00  0.00     0.138 A 
ATOM      2  C   UNL     1      11.901  43.549  20.372  1.00  0.00     0.100 A 
ATOM      3  C   UNL     1      11.108  42.525  19.851  1.00  0.00     0.197 A 
ATOM      4  O   UNL     1      10.150  42.839  19.098  1.00  0.00    -0.289 OA
ATOM      5  C   UNL     1      11.417  41.175  20.148  1.00  0.00     0.107 A 
ATOM      6  C   UNL     1      10.656  40.052  19.706  1.00  0.00     0.134 A 
ATOM      7  C   UNL     1      11.124  38.757  19.964  1.00  0.00     0.093 A 
ATOM      8  C   UNL     1      12.294  38.547  20.701  1.00  0.00     0.123 A 
ATOM      9  C   UNL     1      13.014  39.638  21.181  1.00  0.00     0.094 A 
ATOM     10  C   UNL     1      12.592  40.942  20.911  1.00  0.00     0.146 A 
ATOM     11  O   UNL     1      13.316  41.953  21.376  1.00  0.00    -0.456 OA
ENDROOT
BRANCH   1  12
ATOM     12  C   UNL     1      13.892  44.280  21.737  1.00  0.00     0.021 A 
ATOM     13  C   UNL     1      13.419  45.600  21.834  1.00  0.00     0.016 A 
ATOM     14  C   UNL     1      14.227  46.608  22.367  1.00  0.00     0.051 A 
ATOM     15  C   UNL     1      15.524  46.315  22.802  1.00  0.00     0.157 A 
ATOM     16  C   UNL     1      15.204  43.996  22.165  1.00  0.00     0.062 A 
ATOM     17  C   UNL     1      16.015  45.008  22.698  1.00  0.00     0.158 A 
BRANCH  15  18
ATOM     18  O   UNL     1      16.333  47.317  23.336  1.00  0.00    -0.504 OA
ATOM     19  H   UNL     1      17.296  47.432  23.044  1.00  0.00     0.293 HD
ENDBRANCH  15  18
BRANCH  17  20
ATOM     20  O   UNL     1      17.312  44.722  23.123  1.00  0.00    -0.504 OA
ATOM     21  H   UNL     1      17.504  44.410  24.067  1.00  0.00     0.293 HD
ENDBRANCH  17  20
ENDBRANCH   1  12
BRANCH   6  22
ATOM     22  O   UNL     1       9.432  40.150  19.038  1.00  0.00    -0.507 OA
ATOM     23  H   UNL     1       9.296  39.971  18.054  1.00  0.00     0.293 HD
ENDBRANCH   6  22
BRANCH   8  24
ATOM     24  O   UNL     1      12.744  37.255  20.965  1.00  0.00    -0.508 OA
ATOM     25  H   UNL     1      13.487  37.078  21.631  1.00  0.00     0.293 HD
ENDBRANCH   8  24
TORSDOF 5
ENDMDL
MODEL 7
REMARK VINA RESULT:    -6.886      8.496     13.648
REMARK INTER + INTRA:          -8.361
REMARK INTER:                  -8.052
REMARK INTRA:                  -0.309
REMARK UNBOUND:                -0.267
REMARK SMILES O=c1cc(-c2ccc(O)c(O)c2)oc2cc(O)cc(O)c12
REMARK SMILES IDX 4 1 3 2 2 3 1 4 21 5 19 6 18 7 16 8 15 9 14 10 13 11 5 12
REMARK SMILES IDX 6 13 7 14 8 15 12 16 10 17 9 18 11 20 20 22 17 24
REMARK H PARENT 9 19 11 21 20 23 17 25
REMARK Flexibility Score: inf
ROOT
ATOM      1  C   UNL     1      14.458  30.589  31.090  1.00  0.00     0.138 A 
ATOM      2  C   UNL     1      14.374  29.657  30.046  1.00  0.00     0.100 A 
ATOM      3  C   UNL     1      13.762  30.020  28.845  1.00  0.00     0.197 A 
ATOM      4  O   UNL     1      13.646  29.145  27.949  1.00  0.00    -0.289 OA
ATOM      5  C   UNL     1      13.260  31.334  28.680  1.00  0.00     0.107 A 
ATOM      6  C   UNL     1      12.654  31.827  27.486  1.00  0.00     0.134 A 
ATOM      7  C   UNL     1      12.090  33.109  27.479  1.00  0.00     0.093 A 
ATOM      8  C   UNL     1      12.164  33.936  28.603  1.00  0.00     0.123 A 
ATOM      9  C   UNL     1      12.801  33.483  29.755  1.00  0.00     0.094 A 
ATOM     10  C   UNL     1      13.344  32.196  29.805  1.00  0.00     0.146 A 
ATOM     11  O   UNL     1      13.930  31.798  30.929  1.00  0.00    -0.456 OA
ENDROOT
BRANCH   1  12
ATOM     12  C   UNL     1      15.099  30.255  32.388  1.00  0.00     0.021 A 
ATOM     13  C   UNL     1      15.161  28.913  32.804  1.00  0.00     0.016 A 
ATOM     14  C   UNL     1      15.752  28.574  34.024  1.00  0.00     0.051 A 
ATOM     15  C   UNL     1      16.279  29.570  34.853  1.00  0.00     0.157 A 
ATOM     16  C   UNL     1      15.619  31.253  33.235  1.00  0.00     0.062 A 
ATOM     17  C   UNL     1      16.210  30.912  34.460  1.00  0.00     0.158 A 
BRANCH  15  18
ATOM     18  O   UNL     1      16.870  29.236  36.071  1.00  0.00    -0.504 OA
ATOM     19  H   UNL     1      17.426  29.904  36.591  1.00  0.00     0.293 HD
ENDBRANCH  15  18
BRANCH  17  20
ATOM     20  O   UNL     1      16.727  31.903  35.294  1.00  0.00    -0.504 OA
ATOM     21  H   UNL     1      16.359  32.057  36.225  1.00  0.00     0.293 HD
ENDBRANCH  17  20
ENDBRANCH   1  12
BRANCH   6  22
ATOM     22  O   UNL     1      12.602  31.117  26.284  1.00  0.00    -0.507 OA
ATOM     23  H   UNL     1      13.109  30.265  26.096  1.00  0.00     0.293 HD
ENDBRANCH   6  22
BRANCH   8  24
ATOM     24  O   UNL     1      11.612  35.216  28.581  1.00  0.00    -0.508 OA
ATOM     25  H   UNL     1      12.121  36.006  28.203  1.00  0.00     0.293 HD
ENDBRANCH   8  24
TORSDOF 5
ENDMDL
MODEL 8
REMARK VINA RESULT:    -6.606      4.517      9.203
REMARK INTER + INTRA:          -8.032
REMARK INTER:                  -7.756
REMARK INTRA:                  -0.276
REMARK UNBOUND:                -0.267
REMARK SMILES O=c1cc(-c2ccc(O)c(O)c2)oc2cc(O)cc(O)c12
REMARK SMILES IDX 4 1 3 2 2 3 1 4 21 5 19 6 18 7 16 8 15 9 14 10 13 11 5 12
REMARK SMILES IDX 6 13 7 14 8 15 12 16 10 17 9 18 11 20 20 22 17 24
REMARK H PARENT 9 19 11 21 20 23 17 25
REMARK Flexibility Score: inf
ROOT
ATOM      1  C   UNL     1      12.501  34.753  28.067  1.00  0.00     0.138 A 
ATOM      2  C   UNL     1      11.165  35.083  28.330  1.00  0.00     0.100 A 
ATOM      3  C   UNL     1      10.629  36.261  27.808  1.00  0.00     0.197 A 
ATOM      4  O   UNL     1       9.446  36.562  28.112  1.00  0.00    -0.289 OA
ATOM      5  C   UNL     1      11.429  37.098  26.993  1.00  0.00     0.107 A 
ATOM      6  C   UNL     1      10.977  38.301  26.374  1.00  0.00     0.134 A 
ATOM      7  C   UNL     1      11.892  39.107  25.684  1.00  0.00     0.093 A 
ATOM      8  C   UNL     1      13.228  38.722  25.541  1.00  0.00     0.123 A 
ATOM      9  C   UNL     1      13.665  37.522  26.096  1.00  0.00     0.094 A 
ATOM     10  C   UNL     1      12.785  36.713  26.819  1.00  0.00     0.146 A 
ATOM     11  O   UNL     1      13.247  35.584  27.344  1.00  0.00    -0.456 OA
ENDROOT
BRANCH   1  12
ATOM     12  C   UNL     1      13.121  33.512  28.596  1.00  0.00     0.021 A 
ATOM     13  C   UNL     1      13.888  32.702  27.740  1.00  0.00     0.016 A 
ATOM     14  C   UNL     1      14.475  31.525  28.212  1.00  0.00     0.051 A 
ATOM     15  C   UNL     1      14.297  31.133  29.544  1.00  0.00     0.157 A 
ATOM     16  C   UNL     1      12.936  33.103  29.932  1.00  0.00     0.062 A 
ATOM     17  C   UNL     1      13.524  31.921  30.404  1.00  0.00     0.158 A 
BRANCH  15  18
ATOM     18  O   UNL     1      14.882  29.960  30.019  1.00  0.00    -0.504 OA
ATOM     19  H   UNL     1      15.083  29.182  29.403  1.00  0.00     0.293 HD
ENDBRANCH  15  18
BRANCH  17  20
ATOM     20  O   UNL     1      13.340  31.522  31.727  1.00  0.00    -0.504 OA
ATOM     21  H   UNL     1      12.505  31.768  32.244  1.00  0.00     0.293 HD
ENDBRANCH  17  20
ENDBRANCH   1  12
BRANCH   6  22
ATOM     22  O   UNL     1       9.649  38.735  26.384  1.00  0.00    -0.507 OA
ATOM     23  H   UNL     1       9.330  39.625  26.032  1.00  0.00     0.293 HD
ENDBRANCH   6  22
BRANCH   8  24
ATOM     24  O   UNL     1      14.127  39.524  24.840  1.00  0.00    -0.508 OA
ATOM     25  H   UNL     1      14.927  39.129  24.359  1.00  0.00     0.293 HD
ENDBRANCH   8  24
TORSDOF 5
ENDMDL
