MODEL 1
REMARK VINA RESULT:    -5.475      0.000      0.000
REMARK INTER + INTRA:          -6.561
REMARK INTER:                  -6.435
REMARK INTRA:                  -0.126
REMARK UNBOUND:                -0.126
REMARK SMILES O=C([O-])C=Cc1ccc(O)c(O)c1
REMARK SMILES IDX 6 1 13 2 7 3 11 4 8 5 9 6 5 7 4 8 2 9 1 10 3 11 12 12 10 14
REMARK H PARENT 12 13 10 15
REMARK Flexibility Score: inf
ROOT
ATOM      1  C   UNL     1       8.650  15.699 -21.632  1.00  0.00    -0.022 A 
ATOM      2  C   UNL     1       8.305  16.980 -21.167  1.00  0.00     0.058 A 
ATOM      3  C   UNL     1       8.807  14.657 -20.698  1.00  0.00     0.012 A 
ATOM      4  C   UNL     1       8.145  17.227 -19.799  1.00  0.00     0.157 A 
ATOM      5  C   UNL     1       8.645  14.901 -19.332  1.00  0.00     0.051 A 
ATOM      6  C   UNL     1       8.318  16.184 -18.875  1.00  0.00     0.157 A 
ENDROOT
BRANCH   1   7
ATOM      7  C   UNL     1       8.799  15.491 -23.094  1.00  0.00     0.010 C 
ATOM      8  C   UNL     1       9.774  16.042 -23.829  1.00  0.00     0.025 C 
BRANCH   8   9
ATOM      9  C   UNL     1       9.877  15.817 -25.280  1.00  0.00     0.064 C 
ATOM     10  O   UNL     1      10.977  15.464 -25.778  1.00  0.00    -0.545 OA
ATOM     11  O   UNL     1       8.775  15.986 -26.112  1.00  0.00    -0.545 OA
ENDBRANCH   8   9
ENDBRANCH   1   7
BRANCH   4  12
ATOM     12  O   UNL     1       7.812  18.514 -19.378  1.00  0.00    -0.504 OA
ATOM     13  H   UNL     1       8.504  19.155 -19.007  1.00  0.00     0.293 HD
ENDBRANCH   4  12
BRANCH   6  14
ATOM     14  O   UNL     1       8.160  16.424 -17.511  1.00  0.00    -0.504 OA
ATOM     15  H   UNL     1       8.833  16.088 -16.832  1.00  0.00     0.293 HD
ENDBRANCH   6  14
TORSDOF 4
ENDMDL
MODEL 2
REMARK VINA RESULT:    -5.372      0.927      1.964
REMARK INTER + INTRA:          -6.440
REMARK INTER:                  -6.312
REMARK INTRA:                  -0.128
REMARK UNBOUND:                -0.126
REMARK SMILES O=C([O-])C=Cc1ccc(O)c(O)c1
REMARK SMILES IDX 6 1 13 2 7 3 11 4 8 5 9 6 5 7 4 8 2 9 1 10 3 11 12 12 10 14
REMARK H PARENT 12 13 10 15
REMARK Flexibility Score: inf
ROOT
ATOM      1  C   UNL     1       8.676  15.822 -21.713  1.00  0.00    -0.022 A 
ATOM      2  C   UNL     1       8.887  14.678 -20.924  1.00  0.00     0.058 A 
ATOM      3  C   UNL     1       8.428  17.052 -21.075  1.00  0.00     0.012 A 
ATOM      4  C   UNL     1       8.827  14.750 -19.527  1.00  0.00     0.157 A 
ATOM      5  C   UNL     1       8.369  17.126 -19.681  1.00  0.00     0.051 A 
ATOM      6  C   UNL     1       8.563  15.979 -18.901  1.00  0.00     0.157 A 
ENDROOT
BRANCH   1   7
ATOM      7  C   UNL     1       8.762  15.690 -23.189  1.00  0.00     0.010 C 
ATOM      8  C   UNL     1       9.888  15.880 -23.890  1.00  0.00     0.025 C 
BRANCH   8   9
ATOM      9  C   UNL     1       9.924  15.751 -25.355  1.00  0.00     0.064 C 
ATOM     10  O   UNL     1      11.003  15.446 -25.926  1.00  0.00    -0.545 OA
ATOM     11  O   UNL     1       8.782  15.958 -26.122  1.00  0.00    -0.545 OA
ENDBRANCH   8   9
ENDBRANCH   1   7
BRANCH   4  12
ATOM     12  O   UNL     1       9.031  13.590 -18.780  1.00  0.00    -0.504 OA
ATOM     13  H   UNL     1       8.367  12.826 -18.779  1.00  0.00     0.293 HD
ENDBRANCH   4  12
BRANCH   6  14
ATOM     14  O   UNL     1       8.501  16.057 -17.510  1.00  0.00    -0.504 OA
ATOM     15  H   UNL     1       8.588  15.231 -16.929  1.00  0.00     0.293 HD
ENDBRANCH   6  14
TORSDOF 4
ENDMDL
MODEL 3
REMARK VINA RESULT:    -5.341     10.516     13.903
REMARK INTER + INTRA:          -6.404
REMARK INTER:                  -6.274
REMARK INTRA:                  -0.129
REMARK UNBOUND:                -0.126
REMARK SMILES O=C([O-])C=Cc1ccc(O)c(O)c1
REMARK SMILES IDX 6 1 13 2 7 3 11 4 8 5 9 6 5 7 4 8 2 9 1 10 3 11 12 12 10 14
REMARK H PARENT 12 13 10 15
REMARK Flexibility Score: inf
ROOT
ATOM      1  C   UNL     1       6.970   8.649 -11.702  1.00  0.00    -0.022 A 
ATOM      2  C   UNL     1       6.680   9.847 -12.377  1.00  0.00     0.058 A 
ATOM      3  C   UNL     1       6.977   7.443 -12.430  1.00  0.00     0.012 A 
ATOM      4  C   UNL     1       6.377   9.844 -13.743  1.00  0.00     0.157 A 
ATOM      5  C   UNL     1       6.675   7.439 -13.794  1.00  0.00     0.051 A 
ATOM      6  C   UNL     1       6.371   8.635 -14.457  1.00  0.00     0.157 A 
ENDROOT
BRANCH   1   7
ATOM      7  C   UNL     1       7.294   8.710 -10.255  1.00  0.00     0.010 C 
ATOM      8  C   UNL     1       6.462   8.303  -9.287  1.00  0.00     0.025 C 
BRANCH   8   9
ATOM      9  C   UNL     1       6.821   8.393  -7.863  1.00  0.00     0.064 C 
ATOM     10  O   UNL     1       8.000   8.684  -7.536  1.00  0.00    -0.545 OA
ATOM     11  O   UNL     1       5.875   8.164  -6.869  1.00  0.00    -0.545 OA
ENDBRANCH   8   9
ENDBRANCH   1   7
BRANCH   4  12
ATOM     12  O   UNL     1       6.084  11.054 -14.374  1.00  0.00    -0.504 OA
ATOM     13  H   UNL     1       5.314  11.642 -14.080  1.00  0.00     0.293 HD
ENDBRANCH   4  12
BRANCH   6  14
ATOM     14  O   UNL     1       6.069   8.626 -15.818  1.00  0.00    -0.504 OA
ATOM     15  H   UNL     1       6.783   8.783 -16.520  1.00  0.00     0.293 HD
ENDBRANCH   6  14
TORSDOF 4
ENDMDL
MODEL 4
REMARK VINA RESULT:    -4.998      2.609      3.640
REMARK INTER + INTRA:          -6.001
REMARK INTER:                  -5.871
REMARK INTRA:                  -0.130
REMARK UNBOUND:                -0.126
REMARK SMILES O=C([O-])C=Cc1ccc(O)c(O)c1
REMARK SMILES IDX 6 1 13 2 7 3 11 4 8 5 9 6 5 7 4 8 2 9 1 10 3 11 12 12 10 14
REMARK H PARENT 12 13 10 15
REMARK Flexibility Score: inf
ROOT
ATOM      1  C   UNL     1       8.923  14.715 -20.120  1.00  0.00    -0.022 A 
ATOM      2  C   UNL     1       8.894  13.319 -20.275  1.00  0.00     0.058 A 
ATOM      3  C   UNL     1       9.381  15.255 -18.903  1.00  0.00     0.012 A 
ATOM      4  C   UNL     1       9.289  12.474 -19.232  1.00  0.00     0.157 A 
ATOM      5  C   UNL     1       9.777  14.412 -17.861  1.00  0.00     0.051 A 
ATOM      6  C   UNL     1       9.730  13.022 -18.016  1.00  0.00     0.157 A 
ENDROOT
BRANCH   1   7
ATOM      7  C   UNL     1       8.502  15.564 -21.262  1.00  0.00     0.010 C 
ATOM      8  C   UNL     1       9.047  15.492 -22.484  1.00  0.00     0.025 C 
BRANCH   8   9
ATOM      9  C   UNL     1       8.606  16.363 -23.586  1.00  0.00     0.064 C 
ATOM     10  O   UNL     1       8.119  17.494 -23.327  1.00  0.00    -0.545 OA
ATOM     11  O   UNL     1       8.721  15.957 -24.911  1.00  0.00    -0.545 OA
ENDBRANCH   8   9
ENDBRANCH   1   7
BRANCH   4  12
ATOM     12  O   UNL     1       9.236  11.093 -19.422  1.00  0.00    -0.504 OA
ATOM     13  H   UNL     1       8.842  10.679 -20.258  1.00  0.00     0.293 HD
ENDBRANCH   4  12
BRANCH   6  14
ATOM     14  O   UNL     1      10.124  12.185 -16.973  1.00  0.00    -0.504 OA
ATOM     15  H   UNL     1      10.037  12.468 -16.004  1.00  0.00     0.293 HD
ENDBRANCH   6  14
TORSDOF 4
ENDMDL
MODEL 5
REMARK VINA RESULT:    -4.919      3.345      5.630
REMARK INTER + INTRA:          -5.907
REMARK INTER:                  -5.773
REMARK INTRA:                  -0.135
REMARK UNBOUND:                -0.126
REMARK SMILES O=C([O-])C=Cc1ccc(O)c(O)c1
REMARK SMILES IDX 6 1 13 2 7 3 11 4 8 5 9 6 5 7 4 8 2 9 1 10 3 11 12 12 10 14
REMARK H PARENT 12 13 10 15
REMARK Flexibility Score: inf
ROOT
ATOM      1  C   UNL     1       8.940  16.049 -19.415  1.00  0.00    -0.022 A 
ATOM      2  C   UNL     1       9.320  14.982 -18.582  1.00  0.00     0.058 A 
ATOM      3  C   UNL     1       8.538  15.770 -20.735  1.00  0.00     0.012 A 
ATOM      4  C   UNL     1       9.325  13.667 -19.059  1.00  0.00     0.157 A 
ATOM      5  C   UNL     1       8.542  14.457 -21.213  1.00  0.00     0.051 A 
ATOM      6  C   UNL     1       8.937  13.401 -20.382  1.00  0.00     0.157 A 
ENDROOT
BRANCH   1   7
ATOM      7  C   UNL     1       8.943  17.423 -18.854  1.00  0.00     0.010 C 
ATOM      8  C   UNL     1       7.875  18.231 -18.858  1.00  0.00     0.025 C 
BRANCH   8   9
ATOM      9  C   UNL     1       7.927  19.592 -18.301  1.00  0.00     0.064 C 
ATOM     10  O   UNL     1       9.026  20.203 -18.252  1.00  0.00    -0.545 OA
ATOM     11  O   UNL     1       6.778  20.218 -17.828  1.00  0.00    -0.545 OA
ENDBRANCH   8   9
ENDBRANCH   1   7
BRANCH   4  12
ATOM     12  O   UNL     1       9.718  12.638 -18.204  1.00  0.00    -0.504 OA
ATOM     13  H   UNL     1      10.122  12.819 -17.293  1.00  0.00     0.293 HD
ENDBRANCH   4  12
BRANCH   6  14
ATOM     14  O   UNL     1       8.941  12.092 -20.864  1.00  0.00    -0.504 OA
ATOM     15  H   UNL     1       9.159  11.307 -20.261  1.00  0.00     0.293 HD
ENDBRANCH   6  14
TORSDOF 4
ENDMDL
MODEL 6
REMARK VINA RESULT:    -4.861      8.876     12.290
REMARK INTER + INTRA:          -5.839
REMARK INTER:                  -5.705
REMARK INTRA:                  -0.134
REMARK UNBOUND:                -0.126
REMARK SMILES O=C([O-])C=Cc1ccc(O)c(O)c1
REMARK SMILES IDX 6 1 13 2 7 3 11 4 8 5 9 6 5 7 4 8 2 9 1 10 3 11 12 12 10 14
REMARK H PARENT 12 13 10 15
REMARK Flexibility Score: inf
ROOT
ATOM      1  C   UNL     1       8.063   8.711 -13.513  1.00  0.00    -0.022 A 
ATOM      2  C   UNL     1       7.933  10.099 -13.690  1.00  0.00     0.058 A 
ATOM      3  C   UNL     1       8.937   7.998 -14.355  1.00  0.00     0.012 A 
ATOM      4  C   UNL     1       8.638  10.762 -14.701  1.00  0.00     0.157 A 
ATOM      5  C   UNL     1       9.643   8.658 -15.365  1.00  0.00     0.051 A 
ATOM      6  C   UNL     1       9.496  10.039 -15.545  1.00  0.00     0.157 A 
ENDROOT
BRANCH   1   7
ATOM      7  C   UNL     1       7.300   8.061 -12.419  1.00  0.00     0.010 C 
ATOM      8  C   UNL     1       6.991   8.666 -11.264  1.00  0.00     0.025 C 
BRANCH   8   9
ATOM      9  C   UNL     1       6.241   7.978 -10.201  1.00  0.00     0.064 C 
ATOM     10  O   UNL     1       5.875   6.786 -10.370  1.00  0.00    -0.545 OA
ATOM     11  O   UNL     1       5.931   8.624  -9.009  1.00  0.00    -0.545 OA
ENDBRANCH   8   9
ENDBRANCH   1   7
BRANCH   4  12
ATOM     12  O   UNL     1       8.473  12.139 -14.850  1.00  0.00    -0.504 OA
ATOM     13  H   UNL     1       8.139  12.727 -14.095  1.00  0.00     0.293 HD
ENDBRANCH   4  12
BRANCH   6  14
ATOM     14  O   UNL     1      10.200  10.694 -16.554  1.00  0.00    -0.504 OA
ATOM     15  H   UNL     1      10.532  11.645 -16.438  1.00  0.00     0.293 HD
ENDBRANCH   6  14
TORSDOF 4
ENDMDL
MODEL 7
REMARK VINA RESULT:    -4.838      2.697      5.647
REMARK INTER + INTRA:          -5.813
REMARK INTER:                  -5.685
REMARK INTRA:                  -0.128
REMARK UNBOUND:                -0.126
REMARK SMILES O=C([O-])C=Cc1ccc(O)c(O)c1
REMARK SMILES IDX 6 1 13 2 7 3 11 4 8 5 9 6 5 7 4 8 2 9 1 10 3 11 12 12 10 14
REMARK H PARENT 12 13 10 15
REMARK Flexibility Score: inf
ROOT
ATOM      1  C   UNL     1       8.925  16.628 -19.266  1.00  0.00    -0.022 A 
ATOM      2  C   UNL     1       8.540  16.481 -20.609  1.00  0.00     0.058 A 
ATOM      3  C   UNL     1       9.355  15.491 -18.554  1.00  0.00     0.012 A 
ATOM      4  C   UNL     1       8.557  15.225 -21.226  1.00  0.00     0.157 A 
ATOM      5  C   UNL     1       9.374  14.237 -19.169  1.00  0.00     0.051 A 
ATOM      6  C   UNL     1       8.973  14.095 -20.504  1.00  0.00     0.157 A 
ENDROOT
BRANCH   1   7
ATOM      7  C   UNL     1       8.897  17.984 -18.664  1.00  0.00     0.010 C 
ATOM      8  C   UNL     1       7.779  18.704 -18.503  1.00  0.00     0.025 C 
BRANCH   8   9
ATOM      9  C   UNL     1       7.799  20.051 -17.911  1.00  0.00     0.064 C 
ATOM     10  O   UNL     1       8.809  20.785 -18.070  1.00  0.00    -0.545 OA
ATOM     11  O   UNL     1       6.718  20.530 -17.178  1.00  0.00    -0.545 OA
ENDBRANCH   8   9
ENDBRANCH   1   7
BRANCH   4  12
ATOM     12  O   UNL     1       8.157  15.120 -22.559  1.00  0.00    -0.504 OA
ATOM     13  H   UNL     1       8.738  14.680 -23.262  1.00  0.00     0.293 HD
ENDBRANCH   4  12
BRANCH   6  14
ATOM     14  O   UNL     1       8.991  12.842 -21.113  1.00  0.00    -0.504 OA
ATOM     15  H   UNL     1       8.226  12.526 -21.698  1.00  0.00     0.293 HD
ENDBRANCH   6  14
TORSDOF 4
ENDMDL
MODEL 8
REMARK VINA RESULT:    -4.786      9.501     11.469
REMARK INTER + INTRA:          -5.751
REMARK INTER:                  -5.616
REMARK INTRA:                  -0.135
REMARK UNBOUND:                -0.126
REMARK SMILES O=C([O-])C=Cc1ccc(O)c(O)c1
REMARK SMILES IDX 6 1 13 2 7 3 11 4 8 5 9 6 5 7 4 8 2 9 1 10 3 11 12 12 10 14
REMARK H PARENT 12 13 10 15
REMARK Flexibility Score: inf
ROOT
ATOM      1  C   UNL     1       7.757   8.370 -13.914  1.00  0.00    -0.022 A 
ATOM      2  C   UNL     1       8.498   9.363 -14.577  1.00  0.00     0.058 A 
ATOM      3  C   UNL     1       6.999   8.727 -12.783  1.00  0.00     0.012 A 
ATOM      4  C   UNL     1       8.506  10.682 -14.109  1.00  0.00     0.157 A 
ATOM      5  C   UNL     1       7.005  10.044 -12.315  1.00  0.00     0.051 A 
ATOM      6  C   UNL     1       7.758  11.026 -12.971  1.00  0.00     0.157 A 
ENDROOT
BRANCH   1   7
ATOM      7  C   UNL     1       7.777   6.989 -14.459  1.00  0.00     0.010 C 
ATOM      8  C   UNL     1       6.674   6.305 -14.794  1.00  0.00     0.025 C 
BRANCH   8   9
ATOM      9  C   UNL     1       6.740   4.932 -15.320  1.00  0.00     0.064 C 
ATOM     10  O   UNL     1       5.875   4.541 -16.146  1.00  0.00    -0.545 OA
ATOM     11  O   UNL     1       7.745   4.058 -14.920  1.00  0.00    -0.545 OA
ENDBRANCH   8   9
ENDBRANCH   1   7
BRANCH   4  12
ATOM     12  O   UNL     1       9.262  11.637 -14.789  1.00  0.00    -0.504 OA
ATOM     13  H   UNL     1       9.527  12.517 -14.364  1.00  0.00     0.293 HD
ENDBRANCH   4  12
BRANCH   6  14
ATOM     14  O   UNL     1       7.763  12.338 -12.500  1.00  0.00    -0.504 OA
ATOM     15  H   UNL     1       7.585  13.123 -13.117  1.00  0.00     0.293 HD
ENDBRANCH   6  14
TORSDOF 4
ENDMDL
