MODEL 1
REMARK VINA RESULT:    -5.694      0.000      0.000
REMARK INTER + INTRA:         -10.965
REMARK INTER:                  -9.689
REMARK INTRA:                  -1.276
REMARK UNBOUND:                -1.276
REMARK SMILES CCCCCCCCCCCCCC(=O)[O-]
REMARK SMILES IDX 8 1 9 2 10 3 11 4 12 5 13 6 14 7 15 8 16 9 7 10 6 11 5 12
REMARK SMILES IDX 4 13 3 14 2 15 1 16
REMARK H PARENT
REMARK Flexibility Score: inf
ROOT
ATOM      1  C   UNL     1     -17.855   0.998 -17.756  1.00  0.00     0.000 C 
ENDROOT
BRANCH   1   2
ATOM      2  C   UNL     1     -17.099   0.496 -16.513  1.00  0.00     0.000 C 
BRANCH   2   3
ATOM      3  C   UNL     1     -16.289   1.608 -15.828  1.00  0.00     0.000 C 
BRANCH   3   4
ATOM      4  C   UNL     1     -15.458   1.086 -14.642  1.00  0.00     0.000 C 
BRANCH   4   5
ATOM      5  C   UNL     1     -14.642   2.195 -13.954  1.00  0.00     0.006 C 
BRANCH   5   6
ATOM      6  C   UNL     1     -15.419   2.980 -12.886  1.00  0.00     0.053 C 
BRANCH   6   7
ATOM      7  C   UNL     1     -15.912   2.090 -11.786  1.00  0.00     0.041 C 
ATOM      8  O   UNL     1     -15.190   1.152 -11.358  1.00  0.00    -0.550 OA
ATOM      9  O   UNL     1     -17.183   2.277 -11.256  1.00  0.00    -0.550 OA
ENDBRANCH   6   7
ENDBRANCH   5   6
ENDBRANCH   4   5
ENDBRANCH   3   4
ENDBRANCH   2   3
ENDBRANCH   1   2
BRANCH   1  10
ATOM     10  C   UNL     1     -17.604   0.125 -18.996  1.00  0.00     0.000 C 
BRANCH  10  11
ATOM     11  C   UNL     1     -16.115  -0.200 -19.197  1.00  0.00    -0.000 C 
BRANCH  11  12
ATOM     12  C   UNL     1     -15.502   0.530 -20.404  1.00  0.00    -0.000 C 
BRANCH  12  13
ATOM     13  C   UNL     1     -14.664   1.768 -20.019  1.00  0.00    -0.000 C 
BRANCH  13  14
ATOM     14  C   UNL     1     -14.015   1.617 -18.632  1.00  0.00    -0.000 C 
BRANCH  14  15
ATOM     15  C   UNL     1     -13.277   2.888 -18.186  1.00  0.00    -0.003 C 
ATOM     16  C   UNL     1     -14.222   3.951 -17.622  1.00  0.00     0.004 C 
ENDBRANCH  14  15
ENDBRANCH  13  14
ENDBRANCH  12  13
ENDBRANCH  11  12
ENDBRANCH  10  11
ENDBRANCH   1  10
TORSDOF 12
ENDMDL
MODEL 2
REMARK VINA RESULT:    -5.642      2.584      5.732
REMARK INTER + INTRA:         -10.876
REMARK INTER:                 -10.100
REMARK INTRA:                  -0.777
REMARK UNBOUND:                -1.276
REMARK SMILES CCCCCCCCCCCCCC(=O)[O-]
REMARK SMILES IDX 8 1 9 2 10 3 11 4 12 5 13 6 14 7 15 8 16 9 7 10 6 11 5 12
REMARK SMILES IDX 4 13 3 14 2 15 1 16
REMARK H PARENT
REMARK Flexibility Score: inf
ROOT
ATOM      1  C   UNL     1     -13.945   1.919 -18.795  1.00  0.00     0.000 C 
ENDROOT
BRANCH   1   2
ATOM      2  C   UNL     1     -14.666   1.705 -20.137  1.00  0.00     0.000 C 
BRANCH   2   3
ATOM      3  C   UNL     1     -15.679   0.550 -20.084  1.00  0.00     0.000 C 
BRANCH   3   4
ATOM      4  C   UNL     1     -16.673   0.693 -18.917  1.00  0.00     0.000 C 
BRANCH   4   5
ATOM      5  C   UNL     1     -17.714  -0.441 -18.881  1.00  0.00     0.006 C 
BRANCH   5   6
ATOM      6  C   UNL     1     -17.111  -1.847 -18.744  1.00  0.00     0.053 C 
BRANCH   6   7
ATOM      7  C   UNL     1     -16.176  -1.944 -17.577  1.00  0.00     0.041 C 
ATOM      8  O   UNL     1     -14.959  -2.208 -17.760  1.00  0.00    -0.550 OA
ATOM      9  O   UNL     1     -16.656  -1.773 -16.285  1.00  0.00    -0.550 OA
ENDBRANCH   6   7
ENDBRANCH   5   6
ENDBRANCH   4   5
ENDBRANCH   3   4
ENDBRANCH   2   3
ENDBRANCH   1   2
BRANCH   1  10
ATOM     10  C   UNL     1     -13.598   3.394 -18.536  1.00  0.00     0.000 C 
BRANCH  10  11
ATOM     11  C   UNL     1     -13.383   3.696 -17.044  1.00  0.00    -0.000 C 
BRANCH  11  12
ATOM     12  C   UNL     1     -13.633   2.472 -16.146  1.00  0.00    -0.000 C 
BRANCH  12  13
ATOM     13  C   UNL     1     -14.891   2.601 -15.258  1.00  0.00    -0.000 C 
BRANCH  13  14
ATOM     14  C   UNL     1     -14.657   2.048 -13.842  1.00  0.00    -0.000 C 
BRANCH  14  15
ATOM     15  C   UNL     1     -15.335   2.899 -12.758  1.00  0.00    -0.003 C 
ATOM     16  C   UNL     1     -15.795   2.068 -11.559  1.00  0.00     0.004 C 
ENDBRANCH  14  15
ENDBRANCH  13  14
ENDBRANCH  12  13
ENDBRANCH  11  12
ENDBRANCH  10  11
ENDBRANCH   1  10
TORSDOF 12
ENDMDL
MODEL 3
REMARK VINA RESULT:    -5.640      1.224      3.036
REMARK INTER + INTRA:         -10.872
REMARK INTER:                  -9.608
REMARK INTRA:                  -1.265
REMARK UNBOUND:                -1.276
REMARK SMILES CCCCCCCCCCCCCC(=O)[O-]
REMARK SMILES IDX 8 1 9 2 10 3 11 4 12 5 13 6 14 7 15 8 16 9 7 10 6 11 5 12
REMARK SMILES IDX 4 13 3 14 2 15 1 16
REMARK H PARENT
REMARK Flexibility Score: inf
ROOT
ATOM      1  C   UNL     1     -15.289   2.752 -16.643  1.00  0.00     0.000 C 
ENDROOT
BRANCH   1   2
ATOM      2  C   UNL     1     -15.680   1.441 -15.938  1.00  0.00     0.000 C 
BRANCH   2   3
ATOM      3  C   UNL     1     -15.258   1.420 -14.460  1.00  0.00     0.000 C 
BRANCH   3   4
ATOM      4  C   UNL     1     -15.508   2.766 -13.756  1.00  0.00     0.000 C 
BRANCH   4   5
ATOM      5  C   UNL     1     -15.613   2.627 -12.227  1.00  0.00     0.006 C 
BRANCH   5   6
ATOM      6  C   UNL     1     -15.818   1.185 -11.737  1.00  0.00     0.053 C 
BRANCH   6   7
ATOM      7  C   UNL     1     -17.222   0.947 -11.271  1.00  0.00     0.041 C 
ATOM      8  O   UNL     1     -18.131   0.690 -12.103  1.00  0.00    -0.550 OA
ATOM      9  O   UNL     1     -17.532   1.042  -9.920  1.00  0.00    -0.550 OA
ENDBRANCH   6   7
ENDBRANCH   5   6
ENDBRANCH   4   5
ENDBRANCH   3   4
ENDBRANCH   2   3
ENDBRANCH   1   2
BRANCH   1  10
ATOM     10  C   UNL     1     -13.877   2.701 -17.249  1.00  0.00     0.000 C 
BRANCH  10  11
ATOM     11  C   UNL     1     -13.741   1.626 -18.339  1.00  0.00    -0.000 C 
BRANCH  11  12
ATOM     12  C   UNL     1     -14.547   1.957 -19.607  1.00  0.00    -0.000 C 
BRANCH  12  13
ATOM     13  C   UNL     1     -15.235   0.730 -20.242  1.00  0.00    -0.000 C 
BRANCH  13  14
ATOM     14  C   UNL     1     -15.278  -0.470 -19.279  1.00  0.00    -0.000 C 
BRANCH  14  15
ATOM     15  C   UNL     1     -16.701  -1.015 -19.080  1.00  0.00    -0.003 C 
ATOM     16  C   UNL     1     -17.753   0.093 -19.025  1.00  0.00     0.004 C 
ENDBRANCH  14  15
ENDBRANCH  13  14
ENDBRANCH  12  13
ENDBRANCH  11  12
ENDBRANCH  10  11
ENDBRANCH   1  10
TORSDOF 12
ENDMDL
MODEL 4
REMARK VINA RESULT:    -5.623      2.687      6.574
REMARK INTER + INTRA:         -10.843
REMARK INTER:                  -9.739
REMARK INTRA:                  -1.104
REMARK UNBOUND:                -1.276
REMARK SMILES CCCCCCCCCCCCCC(=O)[O-]
REMARK SMILES IDX 8 1 9 2 10 3 11 4 12 5 13 6 14 7 15 8 16 9 7 10 6 11 5 12
REMARK SMILES IDX 4 13 3 14 2 15 1 16
REMARK H PARENT
REMARK Flexibility Score: inf
ROOT
ATOM      1  C   UNL     1     -14.628   2.577 -15.518  1.00  0.00     0.000 C 
ENDROOT
BRANCH   1   2
ATOM      2  C   UNL     1     -13.304   3.035 -16.155  1.00  0.00     0.000 C 
BRANCH   2   3
ATOM      3  C   UNL     1     -13.412   3.210 -17.678  1.00  0.00     0.000 C 
BRANCH   3   4
ATOM      4  C   UNL     1     -13.602   1.870 -18.413  1.00  0.00     0.000 C 
BRANCH   4   5
ATOM      5  C   UNL     1     -14.658   1.949 -19.529  1.00  0.00     0.006 C 
BRANCH   5   6
ATOM      6  C   UNL     1     -15.667   0.790 -19.525  1.00  0.00     0.053 C 
BRANCH   6   7
ATOM      7  C   UNL     1     -16.316   0.618 -18.187  1.00  0.00     0.041 C 
ATOM      8  O   UNL     1     -17.126   1.483 -17.759  1.00  0.00    -0.550 OA
ATOM      9  O   UNL     1     -16.003  -0.480 -17.397  1.00  0.00    -0.550 OA
ENDBRANCH   6   7
ENDBRANCH   5   6
ENDBRANCH   4   5
ENDBRANCH   3   4
ENDBRANCH   2   3
ENDBRANCH   1   2
BRANCH   1  10
ATOM     10  C   UNL     1     -14.482   2.228 -14.028  1.00  0.00     0.000 C 
BRANCH  10  11
ATOM     11  C   UNL     1     -15.544   2.916 -13.155  1.00  0.00    -0.000 C 
BRANCH  11  12
ATOM     12  C   UNL     1     -15.698   2.258 -11.773  1.00  0.00    -0.000 C 
BRANCH  12  13
ATOM     13  C   UNL     1     -17.152   1.867 -11.431  1.00  0.00    -0.000 C 
BRANCH  13  14
ATOM     14  C   UNL     1     -17.397   0.357 -11.592  1.00  0.00    -0.000 C 
BRANCH  14  15
ATOM     15  C   UNL     1     -18.073   0.008 -12.927  1.00  0.00    -0.003 C 
ATOM     16  C   UNL     1     -17.074  -0.451 -13.990  1.00  0.00     0.004 C 
ENDBRANCH  14  15
ENDBRANCH  13  14
ENDBRANCH  12  13
ENDBRANCH  11  12
ENDBRANCH  10  11
ENDBRANCH   1  10
TORSDOF 12
ENDMDL
MODEL 5
REMARK VINA RESULT:    -5.615      3.308      6.622
REMARK INTER + INTRA:         -10.830
REMARK INTER:                  -9.567
REMARK INTRA:                  -1.262
REMARK UNBOUND:                -1.276
REMARK SMILES CCCCCCCCCCCCCC(=O)[O-]
REMARK SMILES IDX 8 1 9 2 10 3 11 4 12 5 13 6 14 7 15 8 16 9 7 10 6 11 5 12
REMARK SMILES IDX 4 13 3 14 2 15 1 16
REMARK H PARENT
REMARK Flexibility Score: inf
ROOT
ATOM      1  C   UNL     1     -15.138   2.967 -13.414  1.00  0.00     0.000 C 
ENDROOT
BRANCH   1   2
ATOM      2  C   UNL     1     -15.246   2.603 -14.905  1.00  0.00     0.000 C 
BRANCH   2   3
ATOM      3  C   UNL     1     -13.894   2.193 -15.510  1.00  0.00     0.000 C 
BRANCH   3   4
ATOM      4  C   UNL     1     -13.232   3.334 -16.303  1.00  0.00     0.000 C 
BRANCH   4   5
ATOM      5  C   UNL     1     -13.550   3.275 -17.808  1.00  0.00     0.006 C 
BRANCH   5   6
ATOM      6  C   UNL     1     -13.611   1.851 -18.384  1.00  0.00     0.053 C 
BRANCH   6   7
ATOM      7  C   UNL     1     -14.867   1.619 -19.167  1.00  0.00     0.041 C 
ATOM      8  O   UNL     1     -14.841   1.634 -20.426  1.00  0.00    -0.550 OA
ATOM      9  O   UNL     1     -16.072   1.419 -18.507  1.00  0.00    -0.550 OA
ENDBRANCH   6   7
ENDBRANCH   5   6
ENDBRANCH   4   5
ENDBRANCH   3   4
ENDBRANCH   2   3
ENDBRANCH   1   2
BRANCH   1  10
ATOM     10  C   UNL     1     -15.148   1.731 -12.499  1.00  0.00     0.000 C 
BRANCH  10  11
ATOM     11  C   UNL     1     -16.141   1.869 -11.333  1.00  0.00    -0.000 C 
BRANCH  11  12
ATOM     12  C   UNL     1     -17.125   0.690 -11.244  1.00  0.00    -0.000 C 
BRANCH  12  13
ATOM     13  C   UNL     1     -18.050   0.561 -12.474  1.00  0.00    -0.000 C 
BRANCH  13  14
ATOM     14  C   UNL     1     -17.884  -0.795 -13.182  1.00  0.00    -0.000 C 
BRANCH  14  15
ATOM     15  C   UNL     1     -17.089  -0.682 -14.492  1.00  0.00    -0.003 C 
ATOM     16  C   UNL     1     -17.852   0.073 -15.581  1.00  0.00     0.004 C 
ENDBRANCH  14  15
ENDBRANCH  13  14
ENDBRANCH  12  13
ENDBRANCH  11  12
ENDBRANCH  10  11
ENDBRANCH   1  10
TORSDOF 12
ENDMDL
MODEL 6
REMARK VINA RESULT:    -5.585      1.987      2.495
REMARK INTER + INTRA:         -10.779
REMARK INTER:                  -9.151
REMARK INTRA:                  -1.628
REMARK UNBOUND:                -1.276
REMARK SMILES CCCCCCCCCCCCCC(=O)[O-]
REMARK SMILES IDX 8 1 9 2 10 3 11 4 12 5 13 6 14 7 15 8 16 9 7 10 6 11 5 12
REMARK SMILES IDX 4 13 3 14 2 15 1 16
REMARK H PARENT
REMARK Flexibility Score: inf
ROOT
ATOM      1  C   UNL     1     -17.509  -0.031 -19.218  1.00  0.00     0.000 C 
ENDROOT
BRANCH   1   2
ATOM      2  C   UNL     1     -18.040   0.320 -17.818  1.00  0.00     0.000 C 
BRANCH   2   3
ATOM      3  C   UNL     1     -17.372   1.575 -17.232  1.00  0.00     0.000 C 
BRANCH   3   4
ATOM      4  C   UNL     1     -16.426   1.247 -16.063  1.00  0.00     0.000 C 
BRANCH   4   5
ATOM      5  C   UNL     1     -16.587  -0.196 -15.554  1.00  0.00     0.006 C 
BRANCH   5   6
ATOM      6  C   UNL     1     -16.644  -0.323 -14.023  1.00  0.00     0.053 C 
BRANCH   6   7
ATOM      7  C   UNL     1     -18.052  -0.291 -13.512  1.00  0.00     0.041 C 
ATOM      8  O   UNL     1     -18.329   0.333 -12.455  1.00  0.00    -0.550 OA
ATOM      9  O   UNL     1     -19.053  -0.980 -14.187  1.00  0.00    -0.550 OA
ENDBRANCH   6   7
ENDBRANCH   5   6
ENDBRANCH   4   5
ENDBRANCH   3   4
ENDBRANCH   2   3
ENDBRANCH   1   2
BRANCH   1  10
ATOM     10  C   UNL     1     -16.510  -1.199 -19.199  1.00  0.00     0.000 C 
BRANCH  10  11
ATOM     11  C   UNL     1     -15.066  -0.734 -18.946  1.00  0.00    -0.000 C 
BRANCH  11  12
ATOM     12  C   UNL     1     -14.760   0.635 -19.577  1.00  0.00    -0.000 C 
BRANCH  12  13
ATOM     13  C   UNL     1     -13.669   1.432 -18.829  1.00  0.00    -0.000 C 
BRANCH  13  14
ATOM     14  C   UNL     1     -14.010   2.929 -18.735  1.00  0.00    -0.000 C 
BRANCH  14  15
ATOM     15  C   UNL     1     -13.073   3.688 -17.782  1.00  0.00    -0.003 C 
ATOM     16  C   UNL     1     -13.160   3.179 -16.343  1.00  0.00     0.004 C 
ENDBRANCH  14  15
ENDBRANCH  13  14
ENDBRANCH  12  13
ENDBRANCH  11  12
ENDBRANCH  10  11
ENDBRANCH   1  10
TORSDOF 12
ENDMDL
MODEL 7
REMARK VINA RESULT:    -5.578      2.742      6.149
REMARK INTER + INTRA:         -10.766
REMARK INTER:                  -9.748
REMARK INTRA:                  -1.019
REMARK UNBOUND:                -1.276
REMARK SMILES CCCCCCCCCCCCCC(=O)[O-]
REMARK SMILES IDX 8 1 9 2 10 3 11 4 12 5 13 6 14 7 15 8 16 9 7 10 6 11 5 12
REMARK SMILES IDX 4 13 3 14 2 15 1 16
REMARK H PARENT
REMARK Flexibility Score: inf
ROOT
ATOM      1  C   UNL     1     -13.196   3.469 -17.375  1.00  0.00     0.000 C 
ENDROOT
BRANCH   1   2
ATOM      2  C   UNL     1     -14.016   3.098 -18.622  1.00  0.00     0.000 C 
BRANCH   2   3
ATOM      3  C   UNL     1     -13.910   1.606 -18.974  1.00  0.00     0.000 C 
BRANCH   3   4
ATOM      4  C   UNL     1     -14.819   1.212 -20.153  1.00  0.00     0.000 C 
BRANCH   4   5
ATOM      5  C   UNL     1     -15.620  -0.073 -19.882  1.00  0.00     0.006 C 
BRANCH   5   6
ATOM      6  C   UNL     1     -16.039  -0.258 -18.415  1.00  0.00     0.053 C 
BRANCH   6   7
ATOM      7  C   UNL     1     -15.494  -1.527 -17.835  1.00  0.00     0.041 C 
ATOM      8  O   UNL     1     -14.323  -1.899 -18.109  1.00  0.00    -0.550 OA
ATOM      9  O   UNL     1     -16.292  -2.317 -17.016  1.00  0.00    -0.550 OA
ENDBRANCH   6   7
ENDBRANCH   5   6
ENDBRANCH   4   5
ENDBRANCH   3   4
ENDBRANCH   2   3
ENDBRANCH   1   2
BRANCH   1  10
ATOM     10  C   UNL     1     -13.617   2.674 -16.128  1.00  0.00     0.000 C 
BRANCH  10  11
ATOM     11  C   UNL     1     -15.114   2.827 -15.810  1.00  0.00    -0.000 C 
BRANCH  11  12
ATOM     12  C   UNL     1     -15.720   1.566 -15.171  1.00  0.00    -0.000 C 
BRANCH  12  13
ATOM     13  C   UNL     1     -15.212   1.292 -13.739  1.00  0.00    -0.000 C 
BRANCH  13  14
ATOM     14  C   UNL     1     -15.461   2.485 -12.799  1.00  0.00    -0.000 C 
BRANCH  14  15
ATOM     15  C   UNL     1     -15.832   2.046 -11.375  1.00  0.00    -0.003 C 
ATOM     16  C   UNL     1     -17.336   1.829 -11.199  1.00  0.00     0.004 C 
ENDBRANCH  14  15
ENDBRANCH  13  14
ENDBRANCH  12  13
ENDBRANCH  11  12
ENDBRANCH  10  11
ENDBRANCH   1  10
TORSDOF 12
ENDMDL
MODEL 8
REMARK VINA RESULT:    -5.567      1.932      3.967
REMARK INTER + INTRA:         -10.749
REMARK INTER:                  -9.085
REMARK INTRA:                  -1.663
REMARK UNBOUND:                -1.276
REMARK SMILES CCCCCCCCCCCCCC(=O)[O-]
REMARK SMILES IDX 8 1 9 2 10 3 11 4 12 5 13 6 14 7 15 8 16 9 7 10 6 11 5 12
REMARK SMILES IDX 4 13 3 14 2 15 1 16
REMARK H PARENT
REMARK Flexibility Score: inf
ROOT
ATOM      1  C   UNL     1     -14.509   3.780 -17.376  1.00  0.00     0.000 C 
ENDROOT
BRANCH   1   2
ATOM      2  C   UNL     1     -15.529   2.974 -16.553  1.00  0.00     0.000 C 
BRANCH   2   3
ATOM      3  C   UNL     1     -15.025   2.661 -15.135  1.00  0.00     0.000 C 
BRANCH   3   4
ATOM      4  C   UNL     1     -15.562   1.321 -14.601  1.00  0.00     0.000 C 
BRANCH   4   5
ATOM      5  C   UNL     1     -16.336   0.524 -15.666  1.00  0.00     0.006 C 
BRANCH   5   6
ATOM      6  C   UNL     1     -17.075  -0.708 -15.119  1.00  0.00     0.053 C 
BRANCH   6   7
ATOM      7  C   UNL     1     -18.353  -0.335 -14.433  1.00  0.00     0.041 C 
ATOM      8  O   UNL     1     -19.397  -0.127 -15.106  1.00  0.00    -0.550 OA
ATOM      9  O   UNL     1     -18.384  -0.185 -13.053  1.00  0.00    -0.550 OA
ENDBRANCH   6   7
ENDBRANCH   5   6
ENDBRANCH   4   5
ENDBRANCH   3   4
ENDBRANCH   2   3
ENDBRANCH   1   2
BRANCH   1  10
ATOM     10  C   UNL     1     -13.408   2.897 -17.986  1.00  0.00     0.000 C 
BRANCH  10  11
ATOM     11  C   UNL     1     -13.957   1.902 -19.021  1.00  0.00    -0.000 C 
BRANCH  11  12
ATOM     12  C   UNL     1     -13.919   0.445 -18.527  1.00  0.00    -0.000 C 
BRANCH  12  13
ATOM     13  C   UNL     1     -14.999  -0.454 -19.167  1.00  0.00    -0.000 C 
BRANCH  13  14
ATOM     14  C   UNL     1     -16.247   0.346 -19.579  1.00  0.00    -0.000 C 
BRANCH  14  15
ATOM     15  C   UNL     1     -17.548  -0.284 -19.060  1.00  0.00    -0.003 C 
ATOM     16  C   UNL     1     -17.397  -1.774 -18.748  1.00  0.00     0.004 C 
ENDBRANCH  14  15
ENDBRANCH  13  14
ENDBRANCH  12  13
ENDBRANCH  11  12
ENDBRANCH  10  11
ENDBRANCH   1  10
TORSDOF 12
ENDMDL
MODEL 9
REMARK VINA RESULT:    -5.552      1.456      1.987
REMARK INTER + INTRA:         -10.723
REMARK INTER:                  -8.842
REMARK INTRA:                  -1.881
REMARK UNBOUND:                -1.276
REMARK SMILES CCCCCCCCCCCCCC(=O)[O-]
REMARK SMILES IDX 8 1 9 2 10 3 11 4 12 5 13 6 14 7 15 8 16 9 7 10 6 11 5 12
REMARK SMILES IDX 4 13 3 14 2 15 1 16
REMARK H PARENT
REMARK Flexibility Score: inf
ROOT
ATOM      1  C   UNL     1     -17.423  -2.074 -17.109  1.00  0.00     0.000 C 
ENDROOT
BRANCH   1   2
ATOM      2  C   UNL     1     -17.162  -1.098 -15.949  1.00  0.00     0.000 C 
BRANCH   2   3
ATOM      3  C   UNL     1     -17.845   0.263 -16.160  1.00  0.00     0.000 C 
BRANCH   3   4
ATOM      4  C   UNL     1     -16.833   1.405 -16.363  1.00  0.00     0.000 C 
BRANCH   4   5
ATOM      5  C   UNL     1     -15.504   1.159 -15.628  1.00  0.00     0.006 C 
BRANCH   5   6
ATOM      6  C   UNL     1     -14.993   2.367 -14.827  1.00  0.00     0.053 C 
BRANCH   6   7
ATOM      7  C   UNL     1     -15.003   2.105 -13.353  1.00  0.00     0.041 C 
ATOM      8  O   UNL     1     -14.811   0.941 -12.914  1.00  0.00    -0.550 OA
ATOM      9  O   UNL     1     -15.257   3.142 -12.463  1.00  0.00    -0.550 OA
ENDBRANCH   6   7
ENDBRANCH   5   6
ENDBRANCH   4   5
ENDBRANCH   3   4
ENDBRANCH   2   3
ENDBRANCH   1   2
BRANCH   1  10
ATOM     10  C   UNL     1     -16.593  -1.744 -18.360  1.00  0.00     0.000 C 
BRANCH  10  11
ATOM     11  C   UNL     1     -15.089  -1.639 -18.059  1.00  0.00    -0.000 C 
BRANCH  11  12
ATOM     12  C   UNL     1     -14.374  -0.600 -18.941  1.00  0.00    -0.000 C 
BRANCH  12  13
ATOM     13  C   UNL     1     -15.330   0.424 -19.589  1.00  0.00    -0.000 C 
BRANCH  13  14
ATOM     14  C   UNL     1     -14.760   1.853 -19.549  1.00  0.00    -0.000 C 
BRANCH  14  15
ATOM     15  C   UNL     1     -13.624   2.005 -18.527  1.00  0.00    -0.003 C 
ATOM     16  C   UNL     1     -13.344   3.466 -18.172  1.00  0.00     0.004 C 
ENDBRANCH  14  15
ENDBRANCH  13  14
ENDBRANCH  12  13
ENDBRANCH  11  12
ENDBRANCH  10  11
ENDBRANCH   1  10
TORSDOF 12
ENDMDL
