MODEL 1
REMARK VINA RESULT:    -4.719      0.000      0.000
REMARK INTER + INTRA:         -18.280
REMARK INTER:                 -12.444
REMARK INTRA:                  -5.836
REMARK UNBOUND:                -5.836
REMARK SMILES CCCCCCCCCCCCCCCCCCCCCCCCCCCCCC(=O)[O-]
REMARK SMILES IDX 16 1 17 2 18 3 19 4 20 5 21 6 22 7 23 8 24 9 25 10 26 11
REMARK SMILES IDX 27 12 28 13 29 14 30 15 31 16 32 17 15 18 14 19 13 20 12 21
REMARK SMILES IDX 11 22 10 23 9 24 8 25 7 26 6 27 5 28 4 29 3 30 2 31 1 32
REMARK H PARENT
REMARK Flexibility Score: inf
ROOT
ATOM      1  C   UNL     1    -102.159 -83.860  35.235  1.00  0.00     0.000 C 
ENDROOT
BRANCH   1   2
ATOM      2  C   UNL     1    -101.562 -84.444  33.939  1.00  0.00     0.000 C 
BRANCH   2   3
ATOM      3  C   UNL     1    -101.928 -83.683  32.651  1.00  0.00     0.000 C 
BRANCH   3   4
ATOM      4  C   UNL     1    -103.081 -84.341  31.878  1.00  0.00     0.000 C 
BRANCH   4   5
ATOM      5  C   UNL     1    -104.188 -83.322  31.566  1.00  0.00     0.000 C 
BRANCH   5   6
ATOM      6  C   UNL     1    -104.158 -82.106  32.517  1.00  0.00     0.000 C 
BRANCH   6   7
ATOM      7  C   UNL     1    -104.938 -80.886  31.996  1.00  0.00     0.000 C 
BRANCH   7   8
ATOM      8  C   UNL     1    -106.370 -80.743  32.543  1.00  0.00     0.000 C 
BRANCH   8   9
ATOM      9  C   UNL     1    -106.820 -81.867  33.493  1.00  0.00     0.000 C 
BRANCH   9  10
ATOM     10  C   UNL     1    -108.205 -82.431  33.143  1.00  0.00     0.000 C 
BRANCH  10  11
ATOM     11  C   UNL     1    -108.085 -83.592  32.144  1.00  0.00     0.000 C 
BRANCH  11  12
ATOM     12  C   UNL     1    -108.386 -83.176  30.693  1.00  0.00     0.000 C 
BRANCH  12  13
ATOM     13  C   UNL     1    -107.227 -83.392  29.702  1.00  0.00     0.006 C 
BRANCH  13  14
ATOM     14  C   UNL     1    -106.808 -82.105  28.978  1.00  0.00     0.053 C 
BRANCH  14  15
ATOM     15  C   UNL     1    -105.827 -82.405  27.889  1.00  0.00     0.041 C 
ATOM     16  O   UNL     1    -106.006 -81.944  26.729  1.00  0.00    -0.550 OA
ATOM     17  O   UNL     1    -104.711 -83.189  28.153  1.00  0.00    -0.550 OA
ENDBRANCH  14  15
ENDBRANCH  13  14
ENDBRANCH  12  13
ENDBRANCH  11  12
ENDBRANCH  10  11
ENDBRANCH   9  10
ENDBRANCH   8   9
ENDBRANCH   7   8
ENDBRANCH   6   7
ENDBRANCH   5   6
ENDBRANCH   4   5
ENDBRANCH   3   4
ENDBRANCH   2   3
ENDBRANCH   1   2
BRANCH   1  18
ATOM     18  C   UNL     1    -103.319 -84.672  35.849  1.00  0.00     0.000 C 
BRANCH  18  19
ATOM     19  C   UNL     1    -104.725 -84.109  35.577  1.00  0.00     0.000 C 
BRANCH  19  20
ATOM     20  C   UNL     1    -105.533 -84.982  34.602  1.00  0.00     0.000 C 
BRANCH  20  21
ATOM     21  C   UNL     1    -104.968 -86.405  34.465  1.00  0.00     0.000 C 
BRANCH  21  22
ATOM     22  C   UNL     1    -105.752 -87.440  35.289  1.00  0.00     0.000 C 
BRANCH  22  23
ATOM     23  C   UNL     1    -104.952 -87.974  36.493  1.00  0.00     0.000 C 
BRANCH  23  24
ATOM     24  C   UNL     1    -105.067 -87.133  37.780  1.00  0.00    -0.000 C 
BRANCH  24  25
ATOM     25  C   UNL     1    -103.774 -87.028  38.612  1.00  0.00    -0.000 C 
BRANCH  25  26
ATOM     26  C   UNL     1    -103.647 -85.746  39.459  1.00  0.00    -0.000 C 
BRANCH  26  27
ATOM     27  C   UNL     1    -104.986 -85.087  39.839  1.00  0.00    -0.000 C 
BRANCH  27  28
ATOM     28  C   UNL     1    -105.135 -83.668  39.263  1.00  0.00    -0.000 C 
BRANCH  28  29
ATOM     29  C   UNL     1    -103.779 -82.940  39.141  1.00  0.00    -0.000 C 
BRANCH  29  30
ATOM     30  C   UNL     1    -103.915 -81.427  38.898  1.00  0.00    -0.000 C 
BRANCH  30  31
ATOM     31  C   UNL     1    -103.693 -81.037  37.429  1.00  0.00    -0.003 C 
ATOM     32  C   UNL     1    -105.011 -80.678  36.752  1.00  0.00     0.004 C 
ENDBRANCH  30  31
ENDBRANCH  29  30
ENDBRANCH  28  29
ENDBRANCH  27  28
ENDBRANCH  26  27
ENDBRANCH  25  26
ENDBRANCH  24  25
ENDBRANCH  23  24
ENDBRANCH  22  23
ENDBRANCH  21  22
ENDBRANCH  20  21
ENDBRANCH  19  20
ENDBRANCH  18  19
ENDBRANCH   1  18
TORSDOF 28
ENDMDL
MODEL 2
REMARK VINA RESULT:    -4.634      2.033      5.183
REMARK INTER + INTRA:         -18.056
REMARK INTER:                 -12.240
REMARK INTRA:                  -5.816
REMARK UNBOUND:                -5.836
REMARK SMILES CCCCCCCCCCCCCCCCCCCCCCCCCCCCCC(=O)[O-]
REMARK SMILES IDX 16 1 17 2 18 3 19 4 20 5 21 6 22 7 23 8 24 9 25 10 26 11
REMARK SMILES IDX 27 12 28 13 29 14 30 15 31 16 32 17 15 18 14 19 13 20 12 21
REMARK SMILES IDX 11 22 10 23 9 24 8 25 7 26 6 27 5 28 4 29 3 30 2 31 1 32
REMARK H PARENT
REMARK Flexibility Score: inf
ROOT
ATOM      1  C   UNL     1    -105.125 -86.881  37.660  1.00  0.00     0.000 C 
ENDROOT
BRANCH   1   2
ATOM      2  C   UNL     1    -105.049 -87.881  36.489  1.00  0.00     0.000 C 
BRANCH   2   3
ATOM      3  C   UNL     1    -105.761 -87.431  35.200  1.00  0.00     0.000 C 
BRANCH   3   4
ATOM      4  C   UNL     1    -104.982 -86.348  34.437  1.00  0.00     0.000 C 
BRANCH   4   5
ATOM      5  C   UNL     1    -105.426 -84.942  34.870  1.00  0.00     0.000 C 
BRANCH   5   6
ATOM      6  C   UNL     1    -104.257 -84.094  35.415  1.00  0.00     0.000 C 
BRANCH   6   7
ATOM      7  C   UNL     1    -102.913 -84.843  35.469  1.00  0.00     0.000 C 
BRANCH   7   8
ATOM      8  C   UNL     1    -101.894 -84.437  34.389  1.00  0.00     0.000 C 
BRANCH   8   9
ATOM      9  C   UNL     1    -102.396 -83.388  33.380  1.00  0.00     0.000 C 
BRANCH   9  10
ATOM     10  C   UNL     1    -102.532 -83.942  31.955  1.00  0.00     0.000 C 
BRANCH  10  11
ATOM     11  C   UNL     1    -104.004 -83.959  31.514  1.00  0.00     0.000 C 
BRANCH  11  12
ATOM     12  C   UNL     1    -104.796 -82.732  32.001  1.00  0.00     0.000 C 
BRANCH  12  13
ATOM     13  C   UNL     1    -106.320 -82.822  31.799  1.00  0.00     0.006 C 
BRANCH  13  14
ATOM     14  C   UNL     1    -107.111 -82.609  33.097  1.00  0.00     0.053 C 
BRANCH  14  15
ATOM     15  C   UNL     1    -107.822 -81.293  33.075  1.00  0.00     0.041 C 
ATOM     16  O   UNL     1    -108.849 -81.114  33.784  1.00  0.00    -0.550 OA
ATOM     17  O   UNL     1    -107.349 -80.259  32.276  1.00  0.00    -0.550 OA
ENDBRANCH  14  15
ENDBRANCH  13  14
ENDBRANCH  12  13
ENDBRANCH  11  12
ENDBRANCH  10  11
ENDBRANCH   9  10
ENDBRANCH   8   9
ENDBRANCH   7   8
ENDBRANCH   6   7
ENDBRANCH   5   6
ENDBRANCH   4   5
ENDBRANCH   3   4
ENDBRANCH   2   3
ENDBRANCH   1   2
BRANCH   1  18
ATOM     18  C   UNL     1    -103.862 -86.804  38.543  1.00  0.00     0.000 C 
BRANCH  18  19
ATOM     19  C   UNL     1    -103.919 -85.761  39.673  1.00  0.00     0.000 C 
BRANCH  19  20
ATOM     20  C   UNL     1    -105.173 -84.874  39.596  1.00  0.00     0.000 C 
BRANCH  20  21
ATOM     21  C   UNL     1    -104.845 -83.398  39.312  1.00  0.00     0.000 C 
BRANCH  21  22
ATOM     22  C   UNL     1    -103.378 -83.181  38.905  1.00  0.00     0.000 C 
BRANCH  22  23
ATOM     23  C   UNL     1    -102.612 -82.281  39.892  1.00  0.00     0.000 C 
BRANCH  23  24
ATOM     24  C   UNL     1    -103.403 -81.068  40.424  1.00  0.00    -0.000 C 
BRANCH  24  25
ATOM     25  C   UNL     1    -103.309 -79.795  39.561  1.00  0.00    -0.000 C 
BRANCH  25  26
ATOM     26  C   UNL     1    -104.654 -79.093  39.289  1.00  0.00    -0.000 C 
BRANCH  26  27
ATOM     27  C   UNL     1    -105.724 -79.979  38.626  1.00  0.00    -0.000 C 
BRANCH  27  28
ATOM     28  C   UNL     1    -106.654 -79.188  37.688  1.00  0.00    -0.000 C 
BRANCH  28  29
ATOM     29  C   UNL     1    -106.564 -79.676  36.226  1.00  0.00    -0.000 C 
BRANCH  29  30
ATOM     30  C   UNL     1    -105.545 -80.810  36.020  1.00  0.00    -0.000 C 
BRANCH  30  31
ATOM     31  C   UNL     1    -104.386 -80.409  35.095  1.00  0.00    -0.003 C 
ATOM     32  C   UNL     1    -103.043 -80.565  35.801  1.00  0.00     0.004 C 
ENDBRANCH  30  31
ENDBRANCH  29  30
ENDBRANCH  28  29
ENDBRANCH  27  28
ENDBRANCH  26  27
ENDBRANCH  25  26
ENDBRANCH  24  25
ENDBRANCH  23  24
ENDBRANCH  22  23
ENDBRANCH  21  22
ENDBRANCH  20  21
ENDBRANCH  19  20
ENDBRANCH  18  19
ENDBRANCH   1  18
TORSDOF 28
ENDMDL
MODEL 3
REMARK VINA RESULT:    -4.630      3.106      8.263
REMARK INTER + INTRA:         -18.045
REMARK INTER:                 -12.736
REMARK INTRA:                  -5.309
REMARK UNBOUND:                -5.836
REMARK SMILES CCCCCCCCCCCCCCCCCCCCCCCCCCCCCC(=O)[O-]
REMARK SMILES IDX 16 1 17 2 18 3 19 4 20 5 21 6 22 7 23 8 24 9 25 10 26 11
REMARK SMILES IDX 27 12 28 13 29 14 30 15 31 16 32 17 15 18 14 19 13 20 12 21
REMARK SMILES IDX 11 22 10 23 9 24 8 25 7 26 6 27 5 28 4 29 3 30 2 31 1 32
REMARK H PARENT
REMARK Flexibility Score: inf
ROOT
ATOM      1  C   UNL     1    -102.557 -84.487  36.154  1.00  0.00     0.000 C 
ENDROOT
BRANCH   1   2
ATOM      2  C   UNL     1    -103.977 -83.894  36.065  1.00  0.00     0.000 C 
BRANCH   2   3
ATOM      3  C   UNL     1    -105.121 -84.908  36.248  1.00  0.00     0.000 C 
BRANCH   3   4
ATOM      4  C   UNL     1    -105.059 -86.064  35.237  1.00  0.00     0.000 C 
BRANCH   4   5
ATOM      5  C   UNL     1    -104.852 -87.409  35.951  1.00  0.00     0.000 C 
BRANCH   5   6
ATOM      6  C   UNL     1    -105.122 -87.322  37.468  1.00  0.00     0.000 C 
BRANCH   6   7
ATOM      7  C   UNL     1    -103.873 -87.545  38.340  1.00  0.00     0.000 C 
BRANCH   7   8
ATOM      8  C   UNL     1    -103.600 -86.447  39.385  1.00  0.00     0.000 C 
BRANCH   8   9
ATOM      9  C   UNL     1    -104.793 -85.522  39.686  1.00  0.00     0.000 C 
BRANCH   9  10
ATOM     10  C   UNL     1    -104.394 -84.044  39.801  1.00  0.00     0.000 C 
BRANCH  10  11
ATOM     11  C   UNL     1    -102.867 -83.896  39.886  1.00  0.00     0.000 C 
BRANCH  11  12
ATOM     12  C   UNL     1    -102.382 -82.460  39.619  1.00  0.00     0.000 C 
BRANCH  12  13
ATOM     13  C   UNL     1    -103.317 -81.352  40.140  1.00  0.00     0.006 C 
BRANCH  13  14
ATOM     14  C   UNL     1    -103.642 -80.293  39.079  1.00  0.00     0.053 C 
BRANCH  14  15
ATOM     15  C   UNL     1    -105.122 -80.130  38.930  1.00  0.00     0.041 C 
ATOM     16  O   UNL     1    -105.848 -81.130  38.681  1.00  0.00    -0.550 OA
ATOM     17  O   UNL     1    -105.703 -78.876  39.071  1.00  0.00    -0.550 OA
ENDBRANCH  14  15
ENDBRANCH  13  14
ENDBRANCH  12  13
ENDBRANCH  11  12
ENDBRANCH  10  11
ENDBRANCH   9  10
ENDBRANCH   8   9
ENDBRANCH   7   8
ENDBRANCH   6   7
ENDBRANCH   5   6
ENDBRANCH   4   5
ENDBRANCH   3   4
ENDBRANCH   2   3
ENDBRANCH   1   2
BRANCH   1  18
ATOM     18  C   UNL     1    -101.773 -84.522  34.826  1.00  0.00     0.000 C 
BRANCH  18  19
ATOM     19  C   UNL     1    -102.331 -83.612  33.716  1.00  0.00     0.000 C 
BRANCH  19  20
ATOM     20  C   UNL     1    -102.945 -84.408  32.552  1.00  0.00     0.000 C 
BRANCH  20  21
ATOM     21  C   UNL     1    -104.429 -84.079  32.319  1.00  0.00     0.000 C 
BRANCH  21  22
ATOM     22  C   UNL     1    -104.780 -82.625  32.677  1.00  0.00     0.000 C 
BRANCH  22  23
ATOM     23  C   UNL     1    -106.196 -82.481  33.265  1.00  0.00     0.000 C 
BRANCH  23  24
ATOM     24  C   UNL     1    -107.053 -83.762  33.232  1.00  0.00    -0.000 C 
BRANCH  24  25
ATOM     25  C   UNL     1    -108.239 -83.732  32.249  1.00  0.00    -0.000 C 
BRANCH  25  26
ATOM     26  C   UNL     1    -108.180 -82.610  31.193  1.00  0.00    -0.000 C 
BRANCH  26  27
ATOM     27  C   UNL     1    -107.917 -83.090  29.753  1.00  0.00    -0.000 C 
BRANCH  27  28
ATOM     28  C   UNL     1    -106.571 -82.593  29.197  1.00  0.00    -0.000 C 
BRANCH  28  29
ATOM     29  C   UNL     1    -105.511 -83.715  29.139  1.00  0.00    -0.000 C 
BRANCH  29  30
ATOM     30  C   UNL     1    -104.207 -83.290  28.443  1.00  0.00    -0.000 C 
BRANCH  30  31
ATOM     31  C   UNL     1    -103.371 -82.318  29.287  1.00  0.00    -0.003 C 
ATOM     32  C   UNL     1    -102.355 -81.576  28.425  1.00  0.00     0.004 C 
ENDBRANCH  30  31
ENDBRANCH  29  30
ENDBRANCH  28  29
ENDBRANCH  27  28
ENDBRANCH  26  27
ENDBRANCH  25  26
ENDBRANCH  24  25
ENDBRANCH  23  24
ENDBRANCH  22  23
ENDBRANCH  21  22
ENDBRANCH  20  21
ENDBRANCH  19  20
ENDBRANCH  18  19
ENDBRANCH   1  18
TORSDOF 28
ENDMDL
MODEL 4
REMARK VINA RESULT:    -4.626      2.723      7.811
REMARK INTER + INTRA:         -18.033
REMARK INTER:                 -13.116
REMARK INTRA:                  -4.917
REMARK UNBOUND:                -5.836
REMARK SMILES CCCCCCCCCCCCCCCCCCCCCCCCCCCCCC(=O)[O-]
REMARK SMILES IDX 16 1 17 2 18 3 19 4 20 5 21 6 22 7 23 8 24 9 25 10 26 11
REMARK SMILES IDX 27 12 28 13 29 14 30 15 31 16 32 17 15 18 14 19 13 20 12 21
REMARK SMILES IDX 11 22 10 23 9 24 8 25 7 26 6 27 5 28 4 29 3 30 2 31 1 32
REMARK H PARENT
REMARK Flexibility Score: inf
ROOT
ATOM      1  C   UNL     1    -105.504 -84.817  34.607  1.00  0.00     0.000 C 
ENDROOT
BRANCH   1   2
ATOM      2  C   UNL     1    -105.144 -86.287  34.311  1.00  0.00     0.000 C 
BRANCH   2   3
ATOM      3  C   UNL     1    -105.883 -87.326  35.175  1.00  0.00     0.000 C 
BRANCH   3   4
ATOM      4  C   UNL     1    -105.019 -87.866  36.325  1.00  0.00     0.000 C 
BRANCH   4   5
ATOM      5  C   UNL     1    -105.156 -86.986  37.578  1.00  0.00     0.000 C 
BRANCH   5   6
ATOM      6  C   UNL     1    -103.867 -86.959  38.427  1.00  0.00     0.000 C 
BRANCH   6   7
ATOM      7  C   UNL     1    -103.909 -85.957  39.595  1.00  0.00     0.000 C 
BRANCH   7   8
ATOM      8  C   UNL     1    -105.110 -84.993  39.588  1.00  0.00     0.000 C 
BRANCH   8   9
ATOM      9  C   UNL     1    -104.747 -83.500  39.511  1.00  0.00     0.000 C 
BRANCH   9  10
ATOM     10  C   UNL     1    -103.259 -83.258  39.219  1.00  0.00     0.000 C 
BRANCH  10  11
ATOM     11  C   UNL     1    -102.669 -82.231  40.197  1.00  0.00     0.000 C 
BRANCH  11  12
ATOM     12  C   UNL     1    -103.663 -81.119  40.579  1.00  0.00     0.000 C 
BRANCH  12  13
ATOM     13  C   UNL     1    -103.687 -79.912  39.622  1.00  0.00     0.006 C 
BRANCH  13  14
ATOM     14  C   UNL     1    -105.098 -79.358  39.389  1.00  0.00     0.053 C 
BRANCH  14  15
ATOM     15  C   UNL     1    -105.723 -79.987  38.184  1.00  0.00     0.041 C 
ATOM     16  O   UNL     1    -106.945 -79.806  37.935  1.00  0.00    -0.550 OA
ATOM     17  O   UNL     1    -104.954 -80.767  37.329  1.00  0.00    -0.550 OA
ENDBRANCH  14  15
ENDBRANCH  13  14
ENDBRANCH  12  13
ENDBRANCH  11  12
ENDBRANCH  10  11
ENDBRANCH   9  10
ENDBRANCH   8   9
ENDBRANCH   7   8
ENDBRANCH   6   7
ENDBRANCH   5   6
ENDBRANCH   4   5
ENDBRANCH   3   4
ENDBRANCH   2   3
ENDBRANCH   1   2
BRANCH   1  18
ATOM     18  C   UNL     1    -104.374 -83.979  35.241  1.00  0.00     0.000 C 
BRANCH  18  19
ATOM     19  C   UNL     1    -103.044 -84.726  35.444  1.00  0.00     0.000 C 
BRANCH  19  20
ATOM     20  C   UNL     1    -102.028 -84.439  34.324  1.00  0.00     0.000 C 
BRANCH  20  21
ATOM     21  C   UNL     1    -102.595 -83.529  33.221  1.00  0.00     0.000 C 
BRANCH  21  22
ATOM     22  C   UNL     1    -102.819 -84.271  31.893  1.00  0.00     0.000 C 
BRANCH  22  23
ATOM     23  C   UNL     1    -104.183 -83.950  31.253  1.00  0.00     0.000 C 
BRANCH  23  24
ATOM     24  C   UNL     1    -104.511 -82.448  31.129  1.00  0.00    -0.000 C 
BRANCH  24  25
ATOM     25  C   UNL     1    -105.631 -82.102  30.129  1.00  0.00    -0.000 C 
BRANCH  25  26
ATOM     26  C   UNL     1    -106.693 -83.203  29.935  1.00  0.00    -0.000 C 
BRANCH  26  27
ATOM     27  C   UNL     1    -108.015 -82.967  30.688  1.00  0.00    -0.000 C 
BRANCH  27  28
ATOM     28  C   UNL     1    -107.989 -83.522  32.123  1.00  0.00    -0.000 C 
BRANCH  28  29
ATOM     29  C   UNL     1    -108.193 -82.417  33.183  1.00  0.00    -0.000 C 
BRANCH  29  30
ATOM     30  C   UNL     1    -108.172 -80.995  32.597  1.00  0.00    -0.000 C 
BRANCH  30  31
ATOM     31  C   UNL     1    -106.963 -80.175  33.067  1.00  0.00    -0.003 C 
ATOM     32  C   UNL     1    -106.152 -80.940  34.109  1.00  0.00     0.004 C 
ENDBRANCH  30  31
ENDBRANCH  29  30
ENDBRANCH  28  29
ENDBRANCH  27  28
ENDBRANCH  26  27
ENDBRANCH  25  26
ENDBRANCH  24  25
ENDBRANCH  23  24
ENDBRANCH  22  23
ENDBRANCH  21  22
ENDBRANCH  20  21
ENDBRANCH  19  20
ENDBRANCH  18  19
ENDBRANCH   1  18
TORSDOF 28
ENDMDL
MODEL 5
REMARK VINA RESULT:    -4.616      1.735      4.431
REMARK INTER + INTRA:         -18.006
REMARK INTER:                 -12.814
REMARK INTRA:                  -5.193
REMARK UNBOUND:                -5.836
REMARK SMILES CCCCCCCCCCCCCCCCCCCCCCCCCCCCCC(=O)[O-]
REMARK SMILES IDX 16 1 17 2 18 3 19 4 20 5 21 6 22 7 23 8 24 9 25 10 26 11
REMARK SMILES IDX 27 12 28 13 29 14 30 15 31 16 32 17 15 18 14 19 13 20 12 21
REMARK SMILES IDX 11 22 10 23 9 24 8 25 7 26 6 27 5 28 4 29 3 30 2 31 1 32
REMARK H PARENT
REMARK Flexibility Score: inf
ROOT
ATOM      1  C   UNL     1    -104.353 -85.681  34.555  1.00  0.00     0.000 C 
ENDROOT
BRANCH   1   2
ATOM      2  C   UNL     1    -105.870 -85.408  34.512  1.00  0.00     0.000 C 
BRANCH   2   3
ATOM      3  C   UNL     1    -106.284 -84.145  33.733  1.00  0.00     0.000 C 
BRANCH   3   4
ATOM      4  C   UNL     1    -105.320 -83.813  32.583  1.00  0.00     0.000 C 
BRANCH   4   5
ATOM      5  C   UNL     1    -104.783 -82.379  32.711  1.00  0.00     0.000 C 
BRANCH   5   6
ATOM      6  C   UNL     1    -103.415 -82.196  32.018  1.00  0.00     0.000 C 
BRANCH   6   7
ATOM      7  C   UNL     1    -102.708 -83.517  31.670  1.00  0.00     0.000 C 
BRANCH   7   8
ATOM      8  C   UNL     1    -102.421 -83.732  30.172  1.00  0.00     0.000 C 
BRANCH   8   9
ATOM      9  C   UNL     1    -103.656 -84.056  29.312  1.00  0.00     0.000 C 
BRANCH   9  10
ATOM     10  C   UNL     1    -104.035 -82.920  28.352  1.00  0.00     0.000 C 
BRANCH  10  11
ATOM     11  C   UNL     1    -105.532 -82.592  28.456  1.00  0.00     0.000 C 
BRANCH  11  12
ATOM     12  C   UNL     1    -106.282 -83.497  29.449  1.00  0.00     0.000 C 
BRANCH  12  13
ATOM     13  C   UNL     1    -107.596 -82.911  29.998  1.00  0.00     0.006 C 
BRANCH  13  14
ATOM     14  C   UNL     1    -108.845 -83.560  29.387  1.00  0.00     0.053 C 
BRANCH  14  15
ATOM     15  C   UNL     1    -109.411 -82.702  28.301  1.00  0.00     0.041 C 
ATOM     16  O   UNL     1    -110.080 -83.220  27.366  1.00  0.00    -0.550 OA
ATOM     17  O   UNL     1    -109.208 -81.327  28.321  1.00  0.00    -0.550 OA
ENDBRANCH  14  15
ENDBRANCH  13  14
ENDBRANCH  12  13
ENDBRANCH  11  12
ENDBRANCH  10  11
ENDBRANCH   9  10
ENDBRANCH   8   9
ENDBRANCH   7   8
ENDBRANCH   6   7
ENDBRANCH   5   6
ENDBRANCH   4   5
ENDBRANCH   3   4
ENDBRANCH   2   3
ENDBRANCH   1   2
BRANCH   1  18
ATOM     18  C   UNL     1    -103.604 -85.041  35.743  1.00  0.00     0.000 C 
BRANCH  18  19
ATOM     19  C   UNL     1    -102.543 -83.995  35.356  1.00  0.00     0.000 C 
BRANCH  19  20
ATOM     20  C   UNL     1    -102.918 -82.576  35.816  1.00  0.00     0.000 C 
BRANCH  20  21
ATOM     21  C   UNL     1    -104.345 -82.488  36.382  1.00  0.00     0.000 C 
BRANCH  21  22
ATOM     22  C   UNL     1    -104.944 -81.076  36.272  1.00  0.00     0.000 C 
BRANCH  22  23
ATOM     23  C   UNL     1    -104.895 -80.302  37.602  1.00  0.00     0.000 C 
BRANCH  23  24
ATOM     24  C   UNL     1    -105.316 -81.110  38.846  1.00  0.00    -0.000 C 
BRANCH  24  25
ATOM     25  C   UNL     1    -104.300 -81.107  40.005  1.00  0.00    -0.000 C 
BRANCH  25  26
ATOM     26  C   UNL     1    -102.873 -81.545  39.619  1.00  0.00    -0.000 C 
BRANCH  26  27
ATOM     27  C   UNL     1    -102.430 -82.897  40.208  1.00  0.00    -0.000 C 
BRANCH  27  28
ATOM     28  C   UNL     1    -102.694 -84.077  39.255  1.00  0.00    -0.000 C 
BRANCH  28  29
ATOM     29  C   UNL     1    -104.128 -84.632  39.392  1.00  0.00    -0.000 C 
BRANCH  29  30
ATOM     30  C   UNL     1    -104.177 -86.089  39.882  1.00  0.00    -0.000 C 
BRANCH  30  31
ATOM     31  C   UNL     1    -103.478 -87.064  38.924  1.00  0.00    -0.003 C 
ATOM     32  C   UNL     1    -104.461 -87.632  37.907  1.00  0.00     0.004 C 
ENDBRANCH  30  31
ENDBRANCH  29  30
ENDBRANCH  28  29
ENDBRANCH  27  28
ENDBRANCH  26  27
ENDBRANCH  25  26
ENDBRANCH  24  25
ENDBRANCH  23  24
ENDBRANCH  22  23
ENDBRANCH  21  22
ENDBRANCH  20  21
ENDBRANCH  19  20
ENDBRANCH  18  19
ENDBRANCH   1  18
TORSDOF 28
ENDMDL
MODEL 6
REMARK VINA RESULT:    -4.599      2.471      7.647
REMARK INTER + INTRA:         -17.964
REMARK INTER:                 -13.054
REMARK INTRA:                  -4.910
REMARK UNBOUND:                -5.836
REMARK SMILES CCCCCCCCCCCCCCCCCCCCCCCCCCCCCC(=O)[O-]
REMARK SMILES IDX 16 1 17 2 18 3 19 4 20 5 21 6 22 7 23 8 24 9 25 10 26 11
REMARK SMILES IDX 27 12 28 13 29 14 30 15 31 16 32 17 15 18 14 19 13 20 12 21
REMARK SMILES IDX 11 22 10 23 9 24 8 25 7 26 6 27 5 28 4 29 3 30 2 31 1 32
REMARK H PARENT
REMARK Flexibility Score: inf
ROOT
ATOM      1  C   UNL     1    -105.858 -85.082  34.196  1.00  0.00     0.000 C 
ENDROOT
BRANCH   1   2
ATOM      2  C   UNL     1    -105.052 -86.320  34.639  1.00  0.00     0.000 C 
BRANCH   2   3
ATOM      3  C   UNL     1    -105.821 -87.315  35.528  1.00  0.00     0.000 C 
BRANCH   3   4
ATOM      4  C   UNL     1    -104.979 -87.838  36.702  1.00  0.00     0.000 C 
BRANCH   4   5
ATOM      5  C   UNL     1    -104.239 -86.689  37.404  1.00  0.00     0.000 C 
BRANCH   5   6
ATOM      6  C   UNL     1    -103.826 -87.047  38.848  1.00  0.00     0.000 C 
BRANCH   6   7
ATOM      7  C   UNL     1    -103.880 -85.859  39.826  1.00  0.00     0.000 C 
BRANCH   7   8
ATOM      8  C   UNL     1    -105.124 -84.960  39.695  1.00  0.00     0.000 C 
BRANCH   8   9
ATOM      9  C   UNL     1    -104.828 -83.466  39.475  1.00  0.00     0.000 C 
BRANCH   9  10
ATOM     10  C   UNL     1    -103.336 -83.124  39.607  1.00  0.00     0.000 C 
BRANCH  10  11
ATOM     11  C   UNL     1    -103.135 -81.609  39.764  1.00  0.00     0.000 C 
BRANCH  11  12
ATOM     12  C   UNL     1    -104.459 -80.831  39.874  1.00  0.00     0.000 C 
BRANCH  12  13
ATOM     13  C   UNL     1    -104.677 -79.763  38.786  1.00  0.00     0.006 C 
BRANCH  13  14
ATOM     14  C   UNL     1    -104.782 -80.356  37.375  1.00  0.00     0.053 C 
BRANCH  14  15
ATOM     15  C   UNL     1    -106.144 -80.123  36.802  1.00  0.00     0.041 C 
ATOM     16  O   UNL     1    -106.375 -80.377  35.589  1.00  0.00    -0.550 OA
ATOM     17  O   UNL     1    -107.164 -79.630  37.608  1.00  0.00    -0.550 OA
ENDBRANCH  14  15
ENDBRANCH  13  14
ENDBRANCH  12  13
ENDBRANCH  11  12
ENDBRANCH  10  11
ENDBRANCH   9  10
ENDBRANCH   8   9
ENDBRANCH   7   8
ENDBRANCH   6   7
ENDBRANCH   5   6
ENDBRANCH   4   5
ENDBRANCH   3   4
ENDBRANCH   2   3
ENDBRANCH   1   2
BRANCH   1  18
ATOM     18  C   UNL     1    -105.313 -83.729  34.698  1.00  0.00     0.000 C 
BRANCH  18  19
ATOM     19  C   UNL     1    -104.382 -83.814  35.921  1.00  0.00     0.000 C 
BRANCH  19  20
ATOM     20  C   UNL     1    -102.963 -83.304  35.619  1.00  0.00     0.000 C 
BRANCH  20  21
ATOM     21  C   UNL     1    -101.961 -84.442  35.359  1.00  0.00     0.000 C 
BRANCH  21  22
ATOM     22  C   UNL     1    -101.383 -84.412  33.935  1.00  0.00     0.000 C 
BRANCH  22  23
ATOM     23  C   UNL     1    -102.280 -83.649  32.943  1.00  0.00     0.000 C 
BRANCH  23  24
ATOM     24  C   UNL     1    -103.017 -84.530  31.913  1.00  0.00    -0.000 C 
BRANCH  24  25
ATOM     25  C   UNL     1    -104.075 -83.799  31.065  1.00  0.00    -0.000 C 
BRANCH  25  26
ATOM     26  C   UNL     1    -104.252 -82.303  31.392  1.00  0.00    -0.000 C 
BRANCH  26  27
ATOM     27  C   UNL     1    -105.397 -81.606  30.634  1.00  0.00    -0.000 C 
BRANCH  27  28
ATOM     28  C   UNL     1    -106.330 -82.600  29.920  1.00  0.00    -0.000 C 
BRANCH  28  29
ATOM     29  C   UNL     1    -107.808 -82.410  30.324  1.00  0.00    -0.000 C 
BRANCH  29  30
ATOM     30  C   UNL     1    -108.455 -83.682  30.899  1.00  0.00    -0.000 C 
BRANCH  30  31
ATOM     31  C   UNL     1    -108.406 -83.733  32.433  1.00  0.00    -0.003 C 
ATOM     32  C   UNL     1    -108.224 -82.339  33.023  1.00  0.00     0.004 C 
ENDBRANCH  30  31
ENDBRANCH  29  30
ENDBRANCH  28  29
ENDBRANCH  27  28
ENDBRANCH  26  27
ENDBRANCH  25  26
ENDBRANCH  24  25
ENDBRANCH  23  24
ENDBRANCH  22  23
ENDBRANCH  21  22
ENDBRANCH  20  21
ENDBRANCH  19  20
ENDBRANCH  18  19
ENDBRANCH   1  18
TORSDOF 28
ENDMDL
MODEL 7
REMARK VINA RESULT:    -4.528      1.438      4.987
REMARK INTER + INTRA:         -17.775
REMARK INTER:                 -12.244
REMARK INTRA:                  -5.531
REMARK UNBOUND:                -5.836
REMARK SMILES CCCCCCCCCCCCCCCCCCCCCCCCCCCCCC(=O)[O-]
REMARK SMILES IDX 16 1 17 2 18 3 19 4 20 5 21 6 22 7 23 8 24 9 25 10 26 11
REMARK SMILES IDX 27 12 28 13 29 14 30 15 31 16 32 17 15 18 14 19 13 20 12 21
REMARK SMILES IDX 11 22 10 23 9 24 8 25 7 26 6 27 5 28 4 29 3 30 2 31 1 32
REMARK H PARENT
REMARK Flexibility Score: inf
ROOT
ATOM      1  C   UNL     1    -105.127 -86.650  37.494  1.00  0.00     0.000 C 
ENDROOT
BRANCH   1   2
ATOM      2  C   UNL     1    -105.427 -86.908  36.004  1.00  0.00     0.000 C 
BRANCH   2   3
ATOM      3  C   UNL     1    -104.769 -85.918  35.025  1.00  0.00     0.000 C 
BRANCH   3   4
ATOM      4  C   UNL     1    -104.502 -84.544  35.658  1.00  0.00     0.000 C 
BRANCH   4   5
ATOM      5  C   UNL     1    -102.995 -84.304  35.840  1.00  0.00     0.000 C 
BRANCH   5   6
ATOM      6  C   UNL     1    -102.410 -83.366  34.762  1.00  0.00     0.000 C 
BRANCH   6   7
ATOM      7  C   UNL     1    -101.813 -84.103  33.550  1.00  0.00     0.000 C 
BRANCH   7   8
ATOM      8  C   UNL     1    -102.427 -83.729  32.188  1.00  0.00     0.000 C 
BRANCH   8   9
ATOM      9  C   UNL     1    -103.783 -84.390  31.881  1.00  0.00     0.000 C 
BRANCH   9  10
ATOM     10  C   UNL     1    -104.396 -83.915  30.555  1.00  0.00     0.000 C 
BRANCH  10  11
ATOM     11  C   UNL     1    -104.801 -82.436  30.640  1.00  0.00     0.000 C 
BRANCH  11  12
ATOM     12  C   UNL     1    -105.824 -82.026  29.564  1.00  0.00     0.000 C 
BRANCH  12  13
ATOM     13  C   UNL     1    -106.988 -83.015  29.365  1.00  0.00     0.006 C 
BRANCH  13  14
ATOM     14  C   UNL     1    -108.342 -82.447  29.809  1.00  0.00     0.053 C 
BRANCH  14  15
ATOM     15  C   UNL     1    -109.008 -81.724  28.681  1.00  0.00     0.041 C 
ATOM     16  O   UNL     1    -109.296 -82.336  27.617  1.00  0.00    -0.550 OA
ATOM     17  O   UNL     1    -109.319 -80.376  28.804  1.00  0.00    -0.550 OA
ENDBRANCH  14  15
ENDBRANCH  13  14
ENDBRANCH  12  13
ENDBRANCH  11  12
ENDBRANCH  10  11
ENDBRANCH   9  10
ENDBRANCH   8   9
ENDBRANCH   7   8
ENDBRANCH   6   7
ENDBRANCH   5   6
ENDBRANCH   4   5
ENDBRANCH   3   4
ENDBRANCH   2   3
ENDBRANCH   1   2
BRANCH   1  18
ATOM     18  C   UNL     1    -103.991 -87.505  38.093  1.00  0.00     0.000 C 
BRANCH  18  19
ATOM     19  C   UNL     1    -103.291 -86.892  39.319  1.00  0.00     0.000 C 
BRANCH  19  20
ATOM     20  C   UNL     1    -103.833 -85.497  39.673  1.00  0.00     0.000 C 
BRANCH  20  21
ATOM     21  C   UNL     1    -102.777 -84.390  39.526  1.00  0.00     0.000 C 
BRANCH  21  22
ATOM     22  C   UNL     1    -103.335 -82.989  39.827  1.00  0.00     0.000 C 
BRANCH  22  23
ATOM     23  C   UNL     1    -104.809 -82.832  39.408  1.00  0.00     0.000 C 
BRANCH  23  24
ATOM     24  C   UNL     1    -105.080 -81.726  38.368  1.00  0.00    -0.000 C 
BRANCH  24  25
ATOM     25  C   UNL     1    -103.826 -81.145  37.687  1.00  0.00    -0.000 C 
BRANCH  25  26
ATOM     26  C   UNL     1    -104.073 -80.501  36.309  1.00  0.00    -0.000 C 
BRANCH  26  27
ATOM     27  C   UNL     1    -105.453 -80.799  35.693  1.00  0.00    -0.000 C 
BRANCH  27  28
ATOM     28  C   UNL     1    -105.367 -81.215  34.214  1.00  0.00    -0.000 C 
BRANCH  28  29
ATOM     29  C   UNL     1    -106.620 -80.797  33.414  1.00  0.00    -0.000 C 
BRANCH  29  30
ATOM     30  C   UNL     1    -107.702 -81.888  33.356  1.00  0.00    -0.000 C 
BRANCH  30  31
ATOM     31  C   UNL     1    -107.116 -83.304  33.267  1.00  0.00    -0.003 C 
ATOM     32  C   UNL     1    -108.183 -84.314  32.858  1.00  0.00     0.004 C 
ENDBRANCH  30  31
ENDBRANCH  29  30
ENDBRANCH  28  29
ENDBRANCH  27  28
ENDBRANCH  26  27
ENDBRANCH  25  26
ENDBRANCH  24  25
ENDBRANCH  23  24
ENDBRANCH  22  23
ENDBRANCH  21  22
ENDBRANCH  20  21
ENDBRANCH  19  20
ENDBRANCH  18  19
ENDBRANCH   1  18
TORSDOF 28
ENDMDL
MODEL 8
REMARK VINA RESULT:    -4.524      1.462      4.905
REMARK INTER + INTRA:         -17.765
REMARK INTER:                 -12.333
REMARK INTRA:                  -5.432
REMARK UNBOUND:                -5.836
REMARK SMILES CCCCCCCCCCCCCCCCCCCCCCCCCCCCCC(=O)[O-]
REMARK SMILES IDX 16 1 17 2 18 3 19 4 20 5 21 6 22 7 23 8 24 9 25 10 26 11
REMARK SMILES IDX 27 12 28 13 29 14 30 15 31 16 32 17 15 18 14 19 13 20 12 21
REMARK SMILES IDX 11 22 10 23 9 24 8 25 7 26 6 27 5 28 4 29 3 30 2 31 1 32
REMARK H PARENT
REMARK Flexibility Score: inf
ROOT
ATOM      1  C   UNL     1    -105.135 -86.997  37.743  1.00  0.00     0.000 C 
ENDROOT
BRANCH   1   2
ATOM      2  C   UNL     1    -104.977 -87.830  36.455  1.00  0.00     0.000 C 
BRANCH   2   3
ATOM      3  C   UNL     1    -105.857 -87.378  35.274  1.00  0.00     0.000 C 
BRANCH   3   4
ATOM      4  C   UNL     1    -105.120 -86.434  34.311  1.00  0.00     0.000 C 
BRANCH   4   5
ATOM      5  C   UNL     1    -105.557 -84.977  34.526  1.00  0.00     0.000 C 
BRANCH   5   6
ATOM      6  C   UNL     1    -104.676 -84.240  35.557  1.00  0.00     0.000 C 
BRANCH   6   7
ATOM      7  C   UNL     1    -103.190 -84.637  35.506  1.00  0.00     0.000 C 
BRANCH   7   8
ATOM      8  C   UNL     1    -102.253 -83.586  34.880  1.00  0.00     0.000 C 
BRANCH   8   9
ATOM      9  C   UNL     1    -102.613 -83.166  33.444  1.00  0.00     0.000 C 
BRANCH   9  10
ATOM     10  C   UNL     1    -101.916 -84.022  32.376  1.00  0.00     0.000 C 
BRANCH  10  11
ATOM     11  C   UNL     1    -102.830 -84.227  31.158  1.00  0.00     0.000 C 
BRANCH  11  12
ATOM     12  C   UNL     1    -104.264 -83.716  31.385  1.00  0.00     0.000 C 
BRANCH  12  13
ATOM     13  C   UNL     1    -104.845 -82.876  30.232  1.00  0.00     0.006 C 
BRANCH  13  14
ATOM     14  C   UNL     1    -105.934 -83.613  29.441  1.00  0.00     0.053 C 
BRANCH  14  15
ATOM     15  C   UNL     1    -107.285 -83.052  29.752  1.00  0.00     0.041 C 
ATOM     16  O   UNL     1    -107.417 -81.827  30.022  1.00  0.00    -0.550 OA
ATOM     17  O   UNL     1    -108.403 -83.877  29.736  1.00  0.00    -0.550 OA
ENDBRANCH  14  15
ENDBRANCH  13  14
ENDBRANCH  12  13
ENDBRANCH  11  12
ENDBRANCH  10  11
ENDBRANCH   9  10
ENDBRANCH   8   9
ENDBRANCH   7   8
ENDBRANCH   6   7
ENDBRANCH   5   6
ENDBRANCH   4   5
ENDBRANCH   3   4
ENDBRANCH   2   3
ENDBRANCH   1   2
BRANCH   1  18
ATOM     18  C   UNL     1    -103.850 -86.833  38.581  1.00  0.00     0.000 C 
BRANCH  18  19
ATOM     19  C   UNL     1    -103.925 -85.767  39.688  1.00  0.00     0.000 C 
BRANCH  19  20
ATOM     20  C   UNL     1    -105.136 -84.832  39.527  1.00  0.00     0.000 C 
BRANCH  20  21
ATOM     21  C   UNL     1    -104.733 -83.375  39.244  1.00  0.00     0.000 C 
BRANCH  21  22
ATOM     22  C   UNL     1    -103.251 -83.230  38.860  1.00  0.00     0.000 C 
BRANCH  22  23
ATOM     23  C   UNL     1    -102.455 -82.377  39.866  1.00  0.00     0.000 C 
BRANCH  23  24
ATOM     24  C   UNL     1    -103.300 -81.401  40.710  1.00  0.00    -0.000 C 
BRANCH  24  25
ATOM     25  C   UNL     1    -103.317 -79.945  40.207  1.00  0.00    -0.000 C 
BRANCH  25  26
ATOM     26  C   UNL     1    -104.620 -79.515  39.504  1.00  0.00    -0.000 C 
BRANCH  26  27
ATOM     27  C   UNL     1    -104.443 -79.040  38.049  1.00  0.00    -0.000 C 
BRANCH  27  28
ATOM     28  C   UNL     1    -103.400 -79.865  37.276  1.00  0.00    -0.000 C 
BRANCH  28  29
ATOM     29  C   UNL     1    -104.008 -80.580  36.051  1.00  0.00    -0.000 C 
BRANCH  29  30
ATOM     30  C   UNL     1    -105.537 -80.730  36.126  1.00  0.00    -0.000 C 
BRANCH  30  31
ATOM     31  C   UNL     1    -106.240 -80.328  34.822  1.00  0.00    -0.003 C 
ATOM     32  C   UNL     1    -105.869 -81.273  33.684  1.00  0.00     0.004 C 
ENDBRANCH  30  31
ENDBRANCH  29  30
ENDBRANCH  28  29
ENDBRANCH  27  28
ENDBRANCH  26  27
ENDBRANCH  25  26
ENDBRANCH  24  25
ENDBRANCH  23  24
ENDBRANCH  22  23
ENDBRANCH  21  22
ENDBRANCH  20  21
ENDBRANCH  19  20
ENDBRANCH  18  19
ENDBRANCH   1  18
TORSDOF 28
ENDMDL
MODEL 9
REMARK VINA RESULT:    -4.507      1.081      3.566
REMARK INTER + INTRA:         -17.721
REMARK INTER:                 -12.339
REMARK INTRA:                  -5.382
REMARK UNBOUND:                -5.836
REMARK SMILES CCCCCCCCCCCCCCCCCCCCCCCCCCCCCC(=O)[O-]
REMARK SMILES IDX 16 1 17 2 18 3 19 4 20 5 21 6 22 7 23 8 24 9 25 10 26 11
REMARK SMILES IDX 27 12 28 13 29 14 30 15 31 16 32 17 15 18 14 19 13 20 12 21
REMARK SMILES IDX 11 22 10 23 9 24 8 25 7 26 6 27 5 28 4 29 3 30 2 31 1 32
REMARK H PARENT
REMARK Flexibility Score: inf
ROOT
ATOM      1  C   UNL     1    -102.439 -84.087  35.807  1.00  0.00     0.000 C 
ENDROOT
BRANCH   1   2
ATOM      2  C   UNL     1    -102.051 -84.487  34.369  1.00  0.00     0.000 C 
BRANCH   2   3
ATOM      3  C   UNL     1    -103.222 -84.546  33.370  1.00  0.00     0.000 C 
BRANCH   3   4
ATOM      4  C   UNL     1    -102.882 -83.902  32.017  1.00  0.00     0.000 C 
BRANCH   4   5
ATOM      5  C   UNL     1    -102.764 -82.376  32.146  1.00  0.00     0.000 C 
BRANCH   5   6
ATOM      6  C   UNL     1    -104.090 -81.651  31.827  1.00  0.00     0.000 C 
BRANCH   6   7
ATOM      7  C   UNL     1    -104.819 -81.106  33.068  1.00  0.00     0.000 C 
BRANCH   7   8
ATOM      8  C   UNL     1    -106.275 -81.580  33.233  1.00  0.00     0.000 C 
BRANCH   8   9
ATOM      9  C   UNL     1    -106.438 -83.061  33.620  1.00  0.00     0.000 C 
BRANCH   9  10
ATOM     10  C   UNL     1    -107.537 -83.774  32.820  1.00  0.00     0.000 C 
BRANCH  10  11
ATOM     11  C   UNL     1    -108.185 -82.816  31.809  1.00  0.00     0.000 C 
BRANCH  11  12
ATOM     12  C   UNL     1    -107.983 -83.253  30.346  1.00  0.00     0.000 C 
BRANCH  12  13
ATOM     13  C   UNL     1    -106.514 -83.356  29.896  1.00  0.00     0.006 C 
BRANCH  13  14
ATOM     14  C   UNL     1    -106.198 -82.486  28.673  1.00  0.00     0.053 C 
BRANCH  14  15
ATOM     15  C   UNL     1    -104.891 -82.885  28.062  1.00  0.00     0.041 C 
ATOM     16  O   UNL     1    -104.523 -82.381  26.967  1.00  0.00    -0.550 OA
ATOM     17  O   UNL     1    -104.075 -83.808  28.704  1.00  0.00    -0.550 OA
ENDBRANCH  14  15
ENDBRANCH  13  14
ENDBRANCH  12  13
ENDBRANCH  11  12
ENDBRANCH  10  11
ENDBRANCH   9  10
ENDBRANCH   8   9
ENDBRANCH   7   8
ENDBRANCH   6   7
ENDBRANCH   5   6
ENDBRANCH   4   5
ENDBRANCH   3   4
ENDBRANCH   2   3
ENDBRANCH   1   2
BRANCH   1  18
ATOM     18  C   UNL     1    -103.755 -83.294  35.936  1.00  0.00     0.000 C 
BRANCH  18  19
ATOM     19  C   UNL     1    -103.603 -81.861  36.477  1.00  0.00     0.000 C 
BRANCH  19  20
ATOM     20  C   UNL     1    -104.906 -81.317  37.086  1.00  0.00     0.000 C 
BRANCH  20  21
ATOM     21  C   UNL     1    -105.169 -81.846  38.506  1.00  0.00     0.000 C 
BRANCH  21  22
ATOM     22  C   UNL     1    -104.412 -81.055  39.586  1.00  0.00     0.000 C 
BRANCH  22  23
ATOM     23  C   UNL     1    -102.927 -81.453  39.686  1.00  0.00     0.000 C 
BRANCH  23  24
ATOM     24  C   UNL     1    -102.658 -82.818  40.352  1.00  0.00    -0.000 C 
BRANCH  24  25
ATOM     25  C   UNL     1    -102.257 -83.950  39.387  1.00  0.00    -0.000 C 
BRANCH  25  26
ATOM     26  C   UNL     1    -102.945 -85.304  39.652  1.00  0.00    -0.000 C 
BRANCH  26  27
ATOM     27  C   UNL     1    -104.481 -85.283  39.542  1.00  0.00    -0.000 C 
BRANCH  27  28
ATOM     28  C   UNL     1    -104.988 -85.809  38.188  1.00  0.00    -0.000 C 
BRANCH  28  29
ATOM     29  C   UNL     1    -104.713 -87.318  38.006  1.00  0.00    -0.000 C 
BRANCH  29  30
ATOM     30  C   UNL     1    -105.014 -87.828  36.586  1.00  0.00    -0.000 C 
BRANCH  30  31
ATOM     31  C   UNL     1    -105.081 -86.698  35.549  1.00  0.00    -0.003 C 
ATOM     32  C   UNL     1    -106.252 -86.901  34.592  1.00  0.00     0.004 C 
ENDBRANCH  30  31
ENDBRANCH  29  30
ENDBRANCH  28  29
ENDBRANCH  27  28
ENDBRANCH  26  27
ENDBRANCH  25  26
ENDBRANCH  24  25
ENDBRANCH  23  24
ENDBRANCH  22  23
ENDBRANCH  21  22
ENDBRANCH  20  21
ENDBRANCH  19  20
ENDBRANCH  18  19
ENDBRANCH   1  18
TORSDOF 28
ENDMDL
