MODEL 1
REMARK VINA RESULT:    -7.182      0.000      0.000
REMARK INTER + INTRA:          -8.984
REMARK INTER:                  -8.652
REMARK INTRA:                  -0.332
REMARK UNBOUND:                -0.332
REMARK SMILES O=c1c(O)c(-c2ccc(O)c(O)c2)oc2cc(O)cc(O)c12
REMARK SMILES IDX 5 1 3 2 2 3 1 4 22 5 20 6 19 7 17 8 16 9 15 10 14 11 6 12
REMARK SMILES IDX 7 13 8 14 9 15 13 16 11 17 10 18 12 20 4 22 21 24 18 26
REMARK H PARENT 10 19 12 21 4 23 21 25 18 27
REMARK Flexibility Score: inf
ROOT
ATOM      1  C   UNL     1     -37.983   4.881  79.583  1.00  0.00     0.180 A 
ATOM      2  C   UNL     1     -38.554   4.955  80.868  1.00  0.00     0.208 A 
ATOM      3  C   UNL     1     -39.853   4.461  81.063  1.00  0.00     0.238 A 
ATOM      4  O   UNL     1     -40.371   4.512  82.212  1.00  0.00    -0.285 OA
ATOM      5  C   UNL     1     -40.565   3.922  79.971  1.00  0.00     0.111 A 
ATOM      6  C   UNL     1     -41.880   3.406  80.082  1.00  0.00     0.134 A 
ATOM      7  C   UNL     1     -42.524   2.896  78.946  1.00  0.00     0.093 A 
ATOM      8  C   UNL     1     -41.883   2.891  77.705  1.00  0.00     0.123 A 
ATOM      9  C   UNL     1     -40.585   3.398  77.589  1.00  0.00     0.094 A 
ATOM     10  C   UNL     1     -39.924   3.910  78.710  1.00  0.00     0.146 A 
ATOM     11  O   UNL     1     -38.689   4.380  78.574  1.00  0.00    -0.452 OA
ENDROOT
BRANCH   1  12
ATOM     12  C   UNL     1     -36.612   5.365  79.302  1.00  0.00     0.025 A 
ATOM     13  C   UNL     1     -36.423   6.678  78.845  1.00  0.00     0.016 A 
ATOM     14  C   UNL     1     -35.139   7.149  78.554  1.00  0.00     0.051 A 
ATOM     15  C   UNL     1     -34.030   6.307  78.701  1.00  0.00     0.157 A 
ATOM     16  C   UNL     1     -35.497   4.517  79.428  1.00  0.00     0.062 A 
ATOM     17  C   UNL     1     -34.208   4.988  79.134  1.00  0.00     0.158 A 
BRANCH  15  18
ATOM     18  O   UNL     1     -32.747   6.773  78.413  1.00  0.00    -0.504 OA
ATOM     19  H   UNL     1     -31.991   6.137  78.185  1.00  0.00     0.293 HD
ENDBRANCH  15  18
BRANCH  17  20
ATOM     20  O   UNL     1     -33.103   4.149  79.265  1.00  0.00    -0.504 OA
ATOM     21  H   UNL     1     -33.047   3.264  78.773  1.00  0.00     0.293 HD
ENDBRANCH  17  20
ENDBRANCH   1  12
BRANCH   2  22
ATOM     22  O   UNL     1     -37.847   5.539  81.922  1.00  0.00    -0.502 OA
ATOM     23  H   UNL     1     -38.305   6.058  82.662  1.00  0.00     0.293 HD
ENDBRANCH   2  22
BRANCH   6  24
ATOM     24  O   UNL     1     -42.547   3.399  81.307  1.00  0.00    -0.507 OA
ATOM     25  H   UNL     1     -43.337   2.788  81.480  1.00  0.00     0.293 HD
ENDBRANCH   6  24
BRANCH   8  26
ATOM     26  O   UNL     1     -42.546   2.378  76.592  1.00  0.00    -0.508 OA
ATOM     27  H   UNL     1     -42.316   2.680  75.652  1.00  0.00     0.293 HD
ENDBRANCH   8  26
TORSDOF 6
ENDMDL
MODEL 2
REMARK VINA RESULT:    -6.487      2.182      7.253
REMARK INTER + INTRA:          -8.147
REMARK INTER:                  -7.822
REMARK INTRA:                  -0.325
REMARK UNBOUND:                -0.332
REMARK SMILES O=c1c(O)c(-c2ccc(O)c(O)c2)oc2cc(O)cc(O)c12
REMARK SMILES IDX 5 1 3 2 2 3 1 4 22 5 20 6 19 7 17 8 16 9 15 10 14 11 6 12
REMARK SMILES IDX 7 13 8 14 9 15 13 16 11 17 10 18 12 20 4 22 21 24 18 26
REMARK H PARENT 10 19 12 21 4 23 21 25 18 27
REMARK Flexibility Score: inf
ROOT
ATOM      1  C   UNL     1     -38.325   6.041  78.258  1.00  0.00     0.180 A 
ATOM      2  C   UNL     1     -38.646   7.278  77.668  1.00  0.00     0.208 A 
ATOM      3  C   UNL     1     -37.610   8.176  77.367  1.00  0.00     0.238 A 
ATOM      4  O   UNL     1     -37.885   9.283  76.829  1.00  0.00    -0.285 OA
ATOM      5  C   UNL     1     -36.278   7.833  77.678  1.00  0.00     0.111 A 
ATOM      6  C   UNL     1     -35.177   8.683  77.411  1.00  0.00     0.134 A 
ATOM      7  C   UNL     1     -33.882   8.272  77.760  1.00  0.00     0.093 A 
ATOM      8  C   UNL     1     -33.666   7.034  78.368  1.00  0.00     0.123 A 
ATOM      9  C   UNL     1     -34.750   6.190  78.634  1.00  0.00     0.094 A 
ATOM     10  C   UNL     1     -36.048   6.580  78.293  1.00  0.00     0.146 A 
ATOM     11  O   UNL     1     -37.059   5.757  78.551  1.00  0.00    -0.452 OA
ENDROOT
BRANCH   1  12
ATOM     12  C   UNL     1     -39.359   5.034  78.588  1.00  0.00     0.025 A 
ATOM     13  C   UNL     1     -39.741   4.093  77.618  1.00  0.00     0.016 A 
ATOM     14  C   UNL     1     -40.731   3.147  77.900  1.00  0.00     0.051 A 
ATOM     15  C   UNL     1     -41.363   3.140  79.150  1.00  0.00     0.157 A 
ATOM     16  C   UNL     1     -40.013   5.036  79.833  1.00  0.00     0.062 A 
ATOM     17  C   UNL     1     -41.007   4.088  80.117  1.00  0.00     0.158 A 
BRANCH  15  18
ATOM     18  O   UNL     1     -42.350   2.197  79.436  1.00  0.00    -0.504 OA
ATOM     19  H   UNL     1     -42.774   2.136  80.355  1.00  0.00     0.293 HD
ENDBRANCH  15  18
BRANCH  17  20
ATOM     20  O   UNL     1     -41.649   4.087  81.354  1.00  0.00    -0.504 OA
ATOM     21  H   UNL     1     -42.311   4.811  81.609  1.00  0.00     0.293 HD
ENDBRANCH  17  20
ENDBRANCH   1  12
BRANCH   2  22
ATOM     22  O   UNL     1     -39.978   7.615  77.415  1.00  0.00    -0.502 OA
ATOM     23  H   UNL     1     -40.404   8.459  77.781  1.00  0.00     0.293 HD
ENDBRANCH   2  22
BRANCH   6  24
ATOM     24  O   UNL     1     -35.359   9.926  76.806  1.00  0.00    -0.507 OA
ATOM     25  H   UNL     1     -35.749  10.713  77.312  1.00  0.00     0.293 HD
ENDBRANCH   6  24
BRANCH   8  26
ATOM     26  O   UNL     1     -32.370   6.650  78.705  1.00  0.00    -0.508 OA
ATOM     27  H   UNL     1     -31.864   5.958  78.164  1.00  0.00     0.293 HD
ENDBRANCH   8  26
TORSDOF 6
ENDMDL
MODEL 3
REMARK VINA RESULT:    -6.438      1.595      6.829
REMARK INTER + INTRA:          -8.088
REMARK INTER:                  -8.164
REMARK INTRA:                   0.076
REMARK UNBOUND:                -0.332
REMARK SMILES O=c1c(O)c(-c2ccc(O)c(O)c2)oc2cc(O)cc(O)c12
REMARK SMILES IDX 5 1 3 2 2 3 1 4 22 5 20 6 19 7 17 8 16 9 15 10 14 11 6 12
REMARK SMILES IDX 7 13 8 14 9 15 13 16 11 17 10 18 12 20 4 22 21 24 18 26
REMARK H PARENT 10 19 12 21 4 23 21 25 18 27
REMARK Flexibility Score: inf
ROOT
ATOM      1  C   UNL     1     -38.018   3.884  79.903  1.00  0.00     0.180 A 
ATOM      2  C   UNL     1     -37.549   3.391  81.136  1.00  0.00     0.208 A 
ATOM      3  C   UNL     1     -36.250   3.723  81.550  1.00  0.00     0.238 A 
ATOM      4  O   UNL     1     -35.823   3.296  82.657  1.00  0.00    -0.285 OA
ATOM      5  C   UNL     1     -35.438   4.524  80.720  1.00  0.00     0.111 A 
ATOM      6  C   UNL     1     -34.116   4.901  81.062  1.00  0.00     0.134 A 
ATOM      7  C   UNL     1     -33.368   5.692  80.177  1.00  0.00     0.093 A 
ATOM      8  C   UNL     1     -33.913   6.110  78.961  1.00  0.00     0.123 A 
ATOM      9  C   UNL     1     -35.217   5.741  78.618  1.00  0.00     0.094 A 
ATOM     10  C   UNL     1     -35.980   4.955  79.487  1.00  0.00     0.146 A 
ATOM     11  O   UNL     1     -37.219   4.623  79.139  1.00  0.00    -0.452 OA
ENDROOT
BRANCH   1  12
ATOM     12  C   UNL     1     -39.382   3.592  79.406  1.00  0.00     0.025 A 
ATOM     13  C   UNL     1     -39.576   3.311  78.045  1.00  0.00     0.016 A 
ATOM     14  C   UNL     1     -40.858   3.054  77.550  1.00  0.00     0.051 A 
ATOM     15  C   UNL     1     -41.964   3.089  78.407  1.00  0.00     0.157 A 
ATOM     16  C   UNL     1     -40.500   3.647  80.259  1.00  0.00     0.062 A 
ATOM     17  C   UNL     1     -41.786   3.390  79.763  1.00  0.00     0.158 A 
BRANCH  15  18
ATOM     18  O   UNL     1     -43.244   2.831  77.919  1.00  0.00    -0.504 OA
ATOM     19  H   UNL     1     -43.436   2.802  76.924  1.00  0.00     0.293 HD
ENDBRANCH  15  18
BRANCH  17  20
ATOM     20  O   UNL     1     -42.892   3.438  80.610  1.00  0.00    -0.504 OA
ATOM     21  H   UNL     1     -43.741   3.926  80.347  1.00  0.00     0.293 HD
ENDBRANCH  17  20
ENDBRANCH   1  12
BRANCH   2  22
ATOM     22  O   UNL     1     -38.356   2.559  81.916  1.00  0.00    -0.502 OA
ATOM     23  H   UNL     1     -38.436   1.564  81.746  1.00  0.00     0.293 HD
ENDBRANCH   2  22
BRANCH   6  24
ATOM     24  O   UNL     1     -33.543   4.498  82.268  1.00  0.00    -0.507 OA
ATOM     25  H   UNL     1     -33.918   4.793  83.162  1.00  0.00     0.293 HD
ENDBRANCH   6  24
BRANCH   8  26
ATOM     26  O   UNL     1     -33.148   6.895  78.100  1.00  0.00    -0.508 OA
ATOM     27  H   UNL     1     -33.471   7.127  77.168  1.00  0.00     0.293 HD
ENDBRANCH   8  26
TORSDOF 6
ENDMDL
MODEL 4
REMARK VINA RESULT:    -6.277      1.781      7.183
REMARK INTER + INTRA:          -7.894
REMARK INTER:                  -7.896
REMARK INTRA:                   0.002
REMARK UNBOUND:                -0.332
REMARK SMILES O=c1c(O)c(-c2ccc(O)c(O)c2)oc2cc(O)cc(O)c12
REMARK SMILES IDX 5 1 3 2 2 3 1 4 22 5 20 6 19 7 17 8 16 9 15 10 14 11 6 12
REMARK SMILES IDX 7 13 8 14 9 15 13 16 11 17 10 18 12 20 4 22 21 24 18 26
REMARK H PARENT 10 19 12 21 4 23 21 25 18 27
REMARK Flexibility Score: inf
ROOT
ATOM      1  C   UNL     1     -38.209   4.288  79.575  1.00  0.00     0.180 A 
ATOM      2  C   UNL     1     -37.649   5.151  78.612  1.00  0.00     0.208 A 
ATOM      3  C   UNL     1     -36.307   5.538  78.746  1.00  0.00     0.238 A 
ATOM      4  O   UNL     1     -35.792   6.301  77.884  1.00  0.00    -0.285 OA
ATOM      5  C   UNL     1     -35.555   5.075  79.845  1.00  0.00     0.111 A 
ATOM      6  C   UNL     1     -34.197   5.421  80.055  1.00  0.00     0.134 A 
ATOM      7  C   UNL     1     -33.520   4.926  81.180  1.00  0.00     0.093 A 
ATOM      8  C   UNL     1     -34.171   4.097  82.096  1.00  0.00     0.123 A 
ATOM      9  C   UNL     1     -35.511   3.751  81.893  1.00  0.00     0.094 A 
ATOM     10  C   UNL     1     -36.203   4.232  80.778  1.00  0.00     0.146 A 
ATOM     11  O   UNL     1     -37.474   3.884  80.606  1.00  0.00    -0.452 OA
ENDROOT
BRANCH   1  12
ATOM     12  C   UNL     1     -39.612   3.821  79.492  1.00  0.00     0.025 A 
ATOM     13  C   UNL     1     -40.083   3.261  78.295  1.00  0.00     0.016 A 
ATOM     14  C   UNL     1     -41.410   2.833  78.187  1.00  0.00     0.051 A 
ATOM     15  C   UNL     1     -42.286   2.975  79.270  1.00  0.00     0.157 A 
ATOM     16  C   UNL     1     -40.501   3.982  80.570  1.00  0.00     0.062 A 
ATOM     17  C   UNL     1     -41.833   3.553  80.462  1.00  0.00     0.158 A 
BRANCH  15  18
ATOM     18  O   UNL     1     -43.609   2.548  79.168  1.00  0.00    -0.504 OA
ATOM     19  H   UNL     1     -44.282   3.039  78.591  1.00  0.00     0.293 HD
ENDBRANCH  15  18
BRANCH  17  20
ATOM     20  O   UNL     1     -42.712   3.706  81.533  1.00  0.00    -0.504 OA
ATOM     21  H   UNL     1     -43.702   3.869  81.388  1.00  0.00     0.293 HD
ENDBRANCH  17  20
ENDBRANCH   1  12
BRANCH   2  22
ATOM     22  O   UNL     1     -38.430   5.635  77.559  1.00  0.00    -0.502 OA
ATOM     23  H   UNL     1     -39.338   6.060  77.707  1.00  0.00     0.293 HD
ENDBRANCH   2  22
BRANCH   6  24
ATOM     24  O   UNL     1     -33.520   6.249  79.160  1.00  0.00    -0.507 OA
ATOM     25  H   UNL     1     -33.499   7.256  79.276  1.00  0.00     0.293 HD
ENDBRANCH   6  24
BRANCH   8  26
ATOM     26  O   UNL     1     -33.475   3.620  83.205  1.00  0.00    -0.508 OA
ATOM     27  H   UNL     1     -32.660   3.026  83.104  1.00  0.00     0.293 HD
ENDBRANCH   8  26
TORSDOF 6
ENDMDL
MODEL 5
REMARK VINA RESULT:    -6.197     10.160     11.648
REMARK INTER + INTRA:          -7.797
REMARK INTER:                  -7.480
REMARK INTRA:                  -0.317
REMARK UNBOUND:                -0.332
REMARK SMILES O=c1c(O)c(-c2ccc(O)c(O)c2)oc2cc(O)cc(O)c12
REMARK SMILES IDX 5 1 3 2 2 3 1 4 22 5 20 6 19 7 17 8 16 9 15 10 14 11 6 12
REMARK SMILES IDX 7 13 8 14 9 15 13 16 11 17 10 18 12 20 4 22 21 24 18 26
REMARK H PARENT 10 19 12 21 4 23 21 25 18 27
REMARK Flexibility Score: inf
ROOT
ATOM      1  C   UNL     1     -46.599   2.209  73.535  1.00  0.00     0.180 A 
ATOM      2  C   UNL     1     -47.123   3.106  74.486  1.00  0.00     0.208 A 
ATOM      3  C   UNL     1     -47.260   4.459  74.139  1.00  0.00     0.238 A 
ATOM      4  O   UNL     1     -47.738   5.270  74.979  1.00  0.00    -0.285 OA
ATOM      5  C   UNL     1     -46.854   4.896  72.861  1.00  0.00     0.111 A 
ATOM      6  C   UNL     1     -46.955   6.243  72.434  1.00  0.00     0.134 A 
ATOM      7  C   UNL     1     -46.520   6.599  71.149  1.00  0.00     0.093 A 
ATOM      8  C   UNL     1     -45.988   5.640  70.286  1.00  0.00     0.123 A 
ATOM      9  C   UNL     1     -45.886   4.308  70.701  1.00  0.00     0.094 A 
ATOM     10  C   UNL     1     -46.315   3.932  71.977  1.00  0.00     0.146 A 
ATOM     11  O   UNL     1     -46.212   2.659  72.345  1.00  0.00    -0.452 OA
ENDROOT
BRANCH   1  12
ATOM     12  C   UNL     1     -46.441   0.765  73.820  1.00  0.00     0.025 A 
ATOM     13  C   UNL     1     -47.537  -0.096  73.651  1.00  0.00     0.016 A 
ATOM     14  C   UNL     1     -47.417  -1.459  73.934  1.00  0.00     0.051 A 
ATOM     15  C   UNL     1     -46.204  -1.977  74.405  1.00  0.00     0.157 A 
ATOM     16  C   UNL     1     -45.231   0.243  74.313  1.00  0.00     0.062 A 
ATOM     17  C   UNL     1     -45.110  -1.125  74.599  1.00  0.00     0.158 A 
BRANCH  15  18
ATOM     18  O   UNL     1     -46.079  -3.337  74.687  1.00  0.00    -0.504 OA
ATOM     19  H   UNL     1     -45.847  -3.667  75.617  1.00  0.00     0.293 HD
ENDBRANCH  15  18
BRANCH  17  20
ATOM     20  O   UNL     1     -43.909  -1.641  75.082  1.00  0.00    -0.504 OA
ATOM     21  H   UNL     1     -43.853  -2.573  75.476  1.00  0.00     0.293 HD
ENDBRANCH  17  20
ENDBRANCH   1  12
BRANCH   2  22
ATOM     22  O   UNL     1     -47.471   2.658  75.763  1.00  0.00    -0.502 OA
ATOM     23  H   UNL     1     -46.799   2.592  76.517  1.00  0.00     0.293 HD
ENDBRANCH   2  22
BRANCH   6  24
ATOM     24  O   UNL     1     -47.480   7.224  73.274  1.00  0.00    -0.507 OA
ATOM     25  H   UNL     1     -48.480   7.362  73.374  1.00  0.00     0.293 HD
ENDBRANCH   6  24
BRANCH   8  26
ATOM     26  O   UNL     1     -45.562   6.020  69.015  1.00  0.00    -0.508 OA
ATOM     27  H   UNL     1     -44.593   5.933  68.732  1.00  0.00     0.293 HD
ENDBRANCH   8  26
TORSDOF 6
ENDMDL
MODEL 6
REMARK VINA RESULT:    -6.188      1.697      3.523
REMARK INTER + INTRA:          -7.786
REMARK INTER:                  -7.454
REMARK INTRA:                  -0.332
REMARK UNBOUND:                -0.332
REMARK SMILES O=c1c(O)c(-c2ccc(O)c(O)c2)oc2cc(O)cc(O)c12
REMARK SMILES IDX 5 1 3 2 2 3 1 4 22 5 20 6 19 7 17 8 16 9 15 10 14 11 6 12
REMARK SMILES IDX 7 13 8 14 9 15 13 16 11 17 10 18 12 20 4 22 21 24 18 26
REMARK H PARENT 10 19 12 21 4 23 21 25 18 27
REMARK Flexibility Score: inf
ROOT
ATOM      1  C   UNL     1     -37.582   4.943  80.169  1.00  0.00     0.180 A 
ATOM      2  C   UNL     1     -38.629   4.826  79.234  1.00  0.00     0.208 A 
ATOM      3  C   UNL     1     -39.886   4.387  79.675  1.00  0.00     0.238 A 
ATOM      4  O   UNL     1     -40.834   4.289  78.850  1.00  0.00    -0.285 OA
ATOM      5  C   UNL     1     -40.071   4.055  81.034  1.00  0.00     0.111 A 
ATOM      6  C   UNL     1     -41.306   3.601  81.559  1.00  0.00     0.134 A 
ATOM      7  C   UNL     1     -41.407   3.281  82.920  1.00  0.00     0.093 A 
ATOM      8  C   UNL     1     -40.302   3.404  83.765  1.00  0.00     0.123 A 
ATOM      9  C   UNL     1     -39.080   3.852  83.253  1.00  0.00     0.094 A 
ATOM     10  C   UNL     1     -38.959   4.178  81.898  1.00  0.00     0.146 A 
ATOM     11  O   UNL     1     -37.788   4.607  81.438  1.00  0.00    -0.452 OA
ENDROOT
BRANCH   1  12
ATOM     12  C   UNL     1     -36.233   5.417  79.783  1.00  0.00     0.025 A 
ATOM     13  C   UNL     1     -35.225   4.479  79.506  1.00  0.00     0.016 A 
ATOM     14  C   UNL     1     -33.939   4.903  79.162  1.00  0.00     0.051 A 
ATOM     15  C   UNL     1     -33.639   6.270  79.105  1.00  0.00     0.157 A 
ATOM     16  C   UNL     1     -35.920   6.788  79.746  1.00  0.00     0.062 A 
ATOM     17  C   UNL     1     -34.629   7.214  79.401  1.00  0.00     0.158 A 
BRANCH  15  18
ATOM     18  O   UNL     1     -32.357   6.698  78.760  1.00  0.00    -0.504 OA
ATOM     19  H   UNL     1     -31.555   6.497  79.346  1.00  0.00     0.293 HD
ENDBRANCH  15  18
BRANCH  17  20
ATOM     20  O   UNL     1     -34.323   8.573  79.358  1.00  0.00    -0.504 OA
ATOM     21  H   UNL     1     -33.366   8.899  79.280  1.00  0.00     0.293 HD
ENDBRANCH  17  20
ENDBRANCH   1  12
BRANCH   2  22
ATOM     22  O   UNL     1     -38.407   5.114  77.885  1.00  0.00    -0.502 OA
ATOM     23  H   UNL     1     -37.962   5.972  77.579  1.00  0.00     0.293 HD
ENDBRANCH   2  22
BRANCH   6  24
ATOM     24  O   UNL     1     -42.428   3.465  80.741  1.00  0.00    -0.507 OA
ATOM     25  H   UNL     1     -43.252   4.042  80.866  1.00  0.00     0.293 HD
ENDBRANCH   6  24
BRANCH   8  26
ATOM     26  O   UNL     1     -40.428   3.079  85.114  1.00  0.00    -0.508 OA
ATOM     27  H   UNL     1     -39.680   2.622  85.622  1.00  0.00     0.293 HD
ENDBRANCH   8  26
TORSDOF 6
ENDMDL
MODEL 7
REMARK VINA RESULT:    -6.170      1.706      6.959
REMARK INTER + INTRA:          -7.765
REMARK INTER:                  -7.434
REMARK INTRA:                  -0.331
REMARK UNBOUND:                -0.332
REMARK SMILES O=c1c(O)c(-c2ccc(O)c(O)c2)oc2cc(O)cc(O)c12
REMARK SMILES IDX 5 1 3 2 2 3 1 4 22 5 20 6 19 7 17 8 16 9 15 10 14 11 6 12
REMARK SMILES IDX 7 13 8 14 9 15 13 16 11 17 10 18 12 20 4 22 21 24 18 26
REMARK H PARENT 10 19 12 21 4 23 21 25 18 27
REMARK Flexibility Score: inf
ROOT
ATOM      1  C   UNL     1     -38.398   4.891  78.671  1.00  0.00     0.180 A 
ATOM      2  C   UNL     1     -37.200   4.260  79.059  1.00  0.00     0.208 A 
ATOM      3  C   UNL     1     -35.989   4.953  78.910  1.00  0.00     0.238 A 
ATOM      4  O   UNL     1     -34.912   4.402  79.264  1.00  0.00    -0.285 OA
ATOM      5  C   UNL     1     -35.993   6.252  78.361  1.00  0.00     0.111 A 
ATOM      6  C   UNL     1     -34.815   7.016  78.174  1.00  0.00     0.134 A 
ATOM      7  C   UNL     1     -34.901   8.298  77.612  1.00  0.00     0.093 A 
ATOM      8  C   UNL     1     -36.136   8.829  77.233  1.00  0.00     0.123 A 
ATOM      9  C   UNL     1     -37.302   8.079  77.415  1.00  0.00     0.094 A 
ATOM     10  C   UNL     1     -37.238   6.800  77.976  1.00  0.00     0.146 A 
ATOM     11  O   UNL     1     -38.362   6.111  78.143  1.00  0.00    -0.452 OA
ENDROOT
BRANCH   1  12
ATOM     12  C   UNL     1     -39.717   4.232  78.814  1.00  0.00     0.025 A 
ATOM     13  C   UNL     1     -40.276   3.561  77.715  1.00  0.00     0.016 A 
ATOM     14  C   UNL     1     -41.528   2.950  77.821  1.00  0.00     0.051 A 
ATOM     15  C   UNL     1     -42.246   3.016  79.022  1.00  0.00     0.157 A 
ATOM     16  C   UNL     1     -40.451   4.314  80.011  1.00  0.00     0.062 A 
ATOM     17  C   UNL     1     -41.708   3.702  80.118  1.00  0.00     0.158 A 
BRANCH  15  18
ATOM     18  O   UNL     1     -43.495   2.407  79.132  1.00  0.00    -0.504 OA
ATOM     19  H   UNL     1     -43.630   1.573  79.693  1.00  0.00     0.293 HD
ENDBRANCH  15  18
BRANCH  17  20
ATOM     20  O   UNL     1     -42.432   3.778  81.307  1.00  0.00    -0.504 OA
ATOM     21  H   UNL     1     -42.016   3.532  82.198  1.00  0.00     0.293 HD
ENDBRANCH  17  20
ENDBRANCH   1  12
BRANCH   2  22
ATOM     22  O   UNL     1     -37.219   2.954  79.555  1.00  0.00    -0.502 OA
ATOM     23  H   UNL     1     -36.437   2.319  79.443  1.00  0.00     0.293 HD
ENDBRANCH   2  22
BRANCH   6  24
ATOM     24  O   UNL     1     -33.567   6.514  78.541  1.00  0.00    -0.507 OA
ATOM     25  H   UNL     1     -32.790   6.488  77.890  1.00  0.00     0.293 HD
ENDBRANCH   6  24
BRANCH   8  26
ATOM     26  O   UNL     1     -36.193  10.105  76.676  1.00  0.00    -0.508 OA
ATOM     27  H   UNL     1     -35.367  10.559  76.305  1.00  0.00     0.293 HD
ENDBRANCH   8  26
TORSDOF 6
ENDMDL
MODEL 8
REMARK VINA RESULT:    -6.039      9.043     10.878
REMARK INTER + INTRA:          -7.607
REMARK INTER:                  -7.275
REMARK INTRA:                  -0.332
REMARK UNBOUND:                -0.332
REMARK SMILES O=c1c(O)c(-c2ccc(O)c(O)c2)oc2cc(O)cc(O)c12
REMARK SMILES IDX 5 1 3 2 2 3 1 4 22 5 20 6 19 7 17 8 16 9 15 10 14 11 6 12
REMARK SMILES IDX 7 13 8 14 9 15 13 16 11 17 10 18 12 20 4 22 21 24 18 26
REMARK H PARENT 10 19 12 21 4 23 21 25 18 27
REMARK Flexibility Score: inf
ROOT
ATOM      1  C   UNL     1     -41.897  -4.689  82.660  1.00  0.00     0.180 A 
ATOM      2  C   UNL     1     -42.434  -5.587  83.604  1.00  0.00     0.208 A 
ATOM      3  C   UNL     1     -43.281  -6.613  83.160  1.00  0.00     0.238 A 
ATOM      4  O   UNL     1     -43.758  -7.429  83.994  1.00  0.00    -0.285 OA
ATOM      5  C   UNL     1     -43.593  -6.714  81.788  1.00  0.00     0.111 A 
ATOM      6  C   UNL     1     -44.441  -7.717  81.259  1.00  0.00     0.134 A 
ATOM      7  C   UNL     1     -44.711  -7.744  79.883  1.00  0.00     0.093 A 
ATOM      8  C   UNL     1     -44.152  -6.792  79.028  1.00  0.00     0.123 A 
ATOM      9  C   UNL     1     -43.312  -5.799  79.545  1.00  0.00     0.094 A 
ATOM     10  C   UNL     1     -43.030  -5.756  80.913  1.00  0.00     0.146 A 
ATOM     11  O   UNL     1     -42.225  -4.806  81.377  1.00  0.00    -0.452 OA
ENDROOT
BRANCH   1  12
ATOM     12  C   UNL     1     -40.982  -3.592  83.050  1.00  0.00     0.025 A 
ATOM     13  C   UNL     1     -41.498  -2.303  83.256  1.00  0.00     0.016 A 
ATOM     14  C   UNL     1     -40.649  -1.248  83.603  1.00  0.00     0.051 A 
ATOM     15  C   UNL     1     -39.272  -1.464  83.732  1.00  0.00     0.157 A 
ATOM     16  C   UNL     1     -39.595  -3.800  83.160  1.00  0.00     0.062 A 
ATOM     17  C   UNL     1     -38.743  -2.741  83.507  1.00  0.00     0.158 A 
BRANCH  15  18
ATOM     18  O   UNL     1     -38.422  -0.415  84.080  1.00  0.00    -0.504 OA
ATOM     19  H   UNL     1     -38.641   0.214  84.844  1.00  0.00     0.293 HD
ENDBRANCH  15  18
BRANCH  17  20
ATOM     20  O   UNL     1     -37.370  -2.949  83.622  1.00  0.00    -0.504 OA
ATOM     21  H   UNL     1     -36.994  -3.772  84.081  1.00  0.00     0.293 HD
ENDBRANCH  17  20
ENDBRANCH   1  12
BRANCH   2  22
ATOM     22  O   UNL     1     -42.149  -5.435  84.964  1.00  0.00    -0.502 OA
ATOM     23  H   UNL     1     -41.339  -4.924  85.295  1.00  0.00     0.293 HD
ENDBRANCH   2  22
BRANCH   6  24
ATOM     24  O   UNL     1     -45.016  -8.681  82.086  1.00  0.00    -0.507 OA
ATOM     25  H   UNL     1     -44.867  -8.682  83.089  1.00  0.00     0.293 HD
ENDBRANCH   6  24
BRANCH   8  26
ATOM     26  O   UNL     1     -44.436  -6.841  77.665  1.00  0.00    -0.508 OA
ATOM     27  H   UNL     1     -45.384  -6.757  77.318  1.00  0.00     0.293 HD
ENDBRANCH   8  26
TORSDOF 6
ENDMDL
MODEL 9
REMARK VINA RESULT:    -5.962      2.090      3.105
REMARK INTER + INTRA:          -7.514
REMARK INTER:                  -7.189
REMARK INTRA:                  -0.325
REMARK UNBOUND:                -0.332
REMARK SMILES O=c1c(O)c(-c2ccc(O)c(O)c2)oc2cc(O)cc(O)c12
REMARK SMILES IDX 5 1 3 2 2 3 1 4 22 5 20 6 19 7 17 8 16 9 15 10 14 11 6 12
REMARK SMILES IDX 7 13 8 14 9 15 13 16 11 17 10 18 12 20 4 22 21 24 18 26
REMARK H PARENT 10 19 12 21 4 23 21 25 18 27
REMARK Flexibility Score: inf
ROOT
ATOM      1  C   UNL     1     -36.877   4.974  81.538  1.00  0.00     0.180 A 
ATOM      2  C   UNL     1     -36.804   4.778  82.930  1.00  0.00     0.208 A 
ATOM      3  C   UNL     1     -37.935   4.297  83.608  1.00  0.00     0.238 A 
ATOM      4  O   UNL     1     -37.878   4.108  84.853  1.00  0.00    -0.285 OA
ATOM      5  C   UNL     1     -39.121   4.040  82.889  1.00  0.00     0.111 A 
ATOM      6  C   UNL     1     -40.306   3.557  83.498  1.00  0.00     0.134 A 
ATOM      7  C   UNL     1     -41.448   3.336  82.715  1.00  0.00     0.093 A 
ATOM      8  C   UNL     1     -41.431   3.586  81.341  1.00  0.00     0.123 A 
ATOM      9  C   UNL     1     -40.263   4.062  80.735  1.00  0.00     0.094 A 
ATOM     10  C   UNL     1     -39.114   4.288  81.497  1.00  0.00     0.146 A 
ATOM     11  O   UNL     1     -38.017   4.735  80.895  1.00  0.00    -0.452 OA
ENDROOT
BRANCH   1  12
ATOM     12  C   UNL     1     -35.721   5.461  80.750  1.00  0.00     0.025 A 
ATOM     13  C   UNL     1     -34.794   4.538  80.243  1.00  0.00     0.016 A 
ATOM     14  C   UNL     1     -33.684   4.977  79.515  1.00  0.00     0.051 A 
ATOM     15  C   UNL     1     -33.479   6.345  79.299  1.00  0.00     0.157 A 
ATOM     16  C   UNL     1     -35.499   6.836  80.549  1.00  0.00     0.062 A 
ATOM     17  C   UNL     1     -34.385   7.277  79.820  1.00  0.00     0.158 A 
BRANCH  15  18
ATOM     18  O   UNL     1     -32.374   6.787  78.572  1.00  0.00    -0.504 OA
ATOM     19  H   UNL     1     -31.434   6.729  78.948  1.00  0.00     0.293 HD
ENDBRANCH  15  18
BRANCH  17  20
ATOM     20  O   UNL     1     -34.170   8.638  79.615  1.00  0.00    -0.504 OA
ATOM     21  H   UNL     1     -33.858   9.245  80.365  1.00  0.00     0.293 HD
ENDBRANCH  17  20
ENDBRANCH   1  12
BRANCH   2  22
ATOM     22  O   UNL     1     -35.633   5.088  83.627  1.00  0.00    -0.502 OA
ATOM     23  H   UNL     1     -35.502   4.850  84.603  1.00  0.00     0.293 HD
ENDBRANCH   2  22
BRANCH   6  24
ATOM     24  O   UNL     1     -40.356   3.299  84.868  1.00  0.00    -0.507 OA
ATOM     25  H   UNL     1     -40.274   2.359  85.237  1.00  0.00     0.293 HD
ENDBRANCH   6  24
BRANCH   8  26
ATOM     26  O   UNL     1     -42.579   3.358  80.587  1.00  0.00    -0.508 OA
ATOM     27  H   UNL     1     -43.488   3.687  80.891  1.00  0.00     0.293 HD
ENDBRANCH   8  26
TORSDOF 6
ENDMDL
