MODEL 1
REMARK VINA RESULT:    -0.934      0.000      0.000
REMARK INTER + INTRA:          -0.996
REMARK INTER:                  -1.098
REMARK INTRA:                   0.102
REMARK UNBOUND:                 0.102
REMARK SMILES O=c1c(O)c(-c2ccc(O)cc2)oc2cc(O)cc(O)c12
REMARK SMILES IDX 5 1 3 2 2 3 1 4 21 5 19 6 18 7 16 8 15 9 14 10 13 11 6 12
REMARK SMILES IDX 7 13 8 14 9 15 12 16 11 17 10 18 4 20 20 22 17 24
REMARK H PARENT 10 19 4 21 20 23 17 25
REMARK Flexibility Score: inf
ROOT
ATOM      1  C   UNL     1     -37.454 -35.531 -34.073  1.00  0.00     0.180 A 
ATOM      2  C   UNL     1     -36.052 -35.513 -34.158  1.00  0.00     0.208 A 
ATOM      3  C   UNL     1     -35.444 -35.628 -35.419  1.00  0.00     0.238 A 
ATOM      4  O   UNL     1     -34.191 -35.536 -35.495  1.00  0.00    -0.285 OA
ATOM      5  C   UNL     1     -36.243 -35.817 -36.572  1.00  0.00     0.111 A 
ATOM      6  C   UNL     1     -35.733 -35.991 -37.895  1.00  0.00     0.134 A 
ATOM      7  C   UNL     1     -36.623 -36.064 -38.974  1.00  0.00     0.093 A 
ATOM      8  C   UNL     1     -38.005 -36.034 -38.772  1.00  0.00     0.123 A 
ATOM      9  C   UNL     1     -38.512 -35.920 -37.482  1.00  0.00     0.094 A 
ATOM     10  C   UNL     1     -37.651 -35.806 -36.387  1.00  0.00     0.146 A 
ATOM     11  O   UNL     1     -38.179 -35.677 -35.176  1.00  0.00    -0.452 OA
ENDROOT
BRANCH   1  12
ATOM     12  C   UNL     1     -38.168 -35.400 -32.783  1.00  0.00     0.021 A 
ATOM     13  C   UNL     1     -39.233 -34.490 -32.671  1.00  0.00     0.016 A 
ATOM     14  C   UNL     1     -39.905 -34.334 -31.456  1.00  0.00     0.047 A 
ATOM     15  C   UNL     1     -39.513 -35.074 -30.333  1.00  0.00     0.115 A 
ATOM     16  C   UNL     1     -37.766 -36.125 -31.646  1.00  0.00     0.016 A 
ATOM     17  C   UNL     1     -38.441 -35.966 -30.431  1.00  0.00     0.047 A 
BRANCH  15  18
ATOM     18  O   UNL     1     -40.176 -34.927 -29.117  1.00  0.00    -0.508 OA
ATOM     19  H   UNL     1     -39.996 -35.548 -28.336  1.00  0.00     0.293 HD
ENDBRANCH  15  18
ENDBRANCH   1  12
BRANCH   2  20
ATOM     20  O   UNL     1     -35.279 -35.402 -32.999  1.00  0.00    -0.502 OA
ATOM     21  H   UNL     1     -34.666 -34.614 -32.828  1.00  0.00     0.293 HD
ENDBRANCH   2  20
BRANCH   6  22
ATOM     22  O   UNL     1     -34.375 -36.123 -38.199  1.00  0.00    -0.507 OA
ATOM     23  H   UNL     1     -33.776 -36.861 -37.861  1.00  0.00     0.293 HD
ENDBRANCH   6  22
BRANCH   8  24
ATOM     24  O   UNL     1     -38.882 -36.124 -39.851  1.00  0.00    -0.508 OA
ATOM     25  H   UNL     1     -38.764 -35.553 -40.680  1.00  0.00     0.293 HD
ENDBRANCH   8  24
TORSDOF 5
ENDMDL
