MODEL 1
REMARK VINA RESULT:    -4.394      0.000      0.000
REMARK INTER + INTRA:         -10.993
REMARK INTER:                  -8.505
REMARK INTRA:                  -2.488
REMARK UNBOUND:                -2.488
REMARK SMILES CCCCCCCCCCCCCCCCCC(=O)[O-]
REMARK SMILES IDX 10 1 11 2 12 3 13 4 14 5 15 6 16 7 17 8 18 9 19 10 20 11
REMARK SMILES IDX 9 12 8 13 7 14 6 15 5 16 4 17 3 18 2 19 1 20
REMARK H PARENT
REMARK Flexibility Score: inf
ROOT
ATOM      1  C   UNL     1       3.697 -19.593  -7.070  1.00  0.00     0.000 C 
ENDROOT
BRANCH   1   2
ATOM      2  C   UNL     1       3.240 -20.956  -7.626  1.00  0.00     0.000 C 
BRANCH   2   3
ATOM      3  C   UNL     1       1.805 -20.979  -8.182  1.00  0.00     0.000 C 
BRANCH   3   4
ATOM      4  C   UNL     1       1.038 -22.254  -7.794  1.00  0.00     0.000 C 
BRANCH   4   5
ATOM      5  C   UNL     1      -0.007 -22.012  -6.691  1.00  0.00     0.000 C 
BRANCH   5   6
ATOM      6  C   UNL     1       0.574 -21.732  -5.291  1.00  0.00     0.000 C 
BRANCH   6   7
ATOM      7  C   UNL     1       0.604 -20.249  -4.873  1.00  0.00     0.006 C 
BRANCH   7   8
ATOM      8  C   UNL     1       0.602 -20.029  -3.349  1.00  0.00     0.053 C 
BRANCH   8   9
ATOM      9  C   UNL     1       1.609 -19.005  -2.919  1.00  0.00     0.041 C 
ATOM     10  O   UNL     1       1.504 -17.811  -3.305  1.00  0.00    -0.550 OA
ATOM     11  O   UNL     1       2.683 -19.377  -2.120  1.00  0.00    -0.550 OA
ENDBRANCH   8   9
ENDBRANCH   7   8
ENDBRANCH   6   7
ENDBRANCH   5   6
ENDBRANCH   4   5
ENDBRANCH   3   4
ENDBRANCH   2   3
ENDBRANCH   1   2
BRANCH   1  12
ATOM     12  C   UNL     1       4.217 -19.616  -5.618  1.00  0.00     0.000 C 
BRANCH  12  13
ATOM     13  C   UNL     1       4.174 -20.993  -4.930  1.00  0.00    -0.000 C 
BRANCH  13  14
ATOM     14  C   UNL     1       5.562 -21.645  -4.817  1.00  0.00    -0.000 C 
BRANCH  14  15
ATOM     15  C   UNL     1       6.700 -20.611  -4.825  1.00  0.00    -0.000 C 
BRANCH  15  16
ATOM     16  C   UNL     1       7.722 -20.861  -5.948  1.00  0.00    -0.000 C 
BRANCH  16  17
ATOM     17  C   UNL     1       7.116 -21.626  -7.136  1.00  0.00    -0.000 C 
BRANCH  17  18
ATOM     18  C   UNL     1       7.659 -21.138  -8.490  1.00  0.00    -0.000 C 
BRANCH  18  19
ATOM     19  C   UNL     1       7.726 -19.606  -8.579  1.00  0.00    -0.003 C 
ATOM     20  C   UNL     1       6.518 -19.004  -9.296  1.00  0.00     0.004 C 
ENDBRANCH  18  19
ENDBRANCH  17  18
ENDBRANCH  16  17
ENDBRANCH  15  16
ENDBRANCH  14  15
ENDBRANCH  13  14
ENDBRANCH  12  13
ENDBRANCH   1  12
TORSDOF 16
ENDMDL
MODEL 2
REMARK VINA RESULT:    -4.336      1.834      4.204
REMARK INTER + INTRA:         -10.881
REMARK INTER:                  -8.605
REMARK INTRA:                  -2.276
REMARK UNBOUND:                -2.488
REMARK SMILES CCCCCCCCCCCCCCCCCC(=O)[O-]
REMARK SMILES IDX 10 1 11 2 12 3 13 4 14 5 15 6 16 7 17 8 18 9 19 10 20 11
REMARK SMILES IDX 9 12 8 13 7 14 6 15 5 16 4 17 3 18 2 19 1 20
REMARK H PARENT
REMARK Flexibility Score: inf
ROOT
ATOM      1  C   UNL     1       1.111 -22.127  -6.218  1.00  0.00     0.000 C 
ENDROOT
BRANCH   1   2
ATOM      2  C   UNL     1       0.129 -21.490  -5.215  1.00  0.00     0.000 C 
BRANCH   2   3
ATOM      3  C   UNL     1       0.681 -20.272  -4.453  1.00  0.00     0.000 C 
BRANCH   3   4
ATOM      4  C   UNL     1       0.676 -20.473  -2.928  1.00  0.00     0.000 C 
BRANCH   4   5
ATOM      5  C   UNL     1       2.009 -20.078  -2.268  1.00  0.00     0.000 C 
BRANCH   5   6
ATOM      6  C   UNL     1       2.540 -18.683  -2.650  1.00  0.00     0.000 C 
BRANCH   6   7
ATOM      7  C   UNL     1       3.001 -17.806  -1.469  1.00  0.00     0.006 C 
BRANCH   7   8
ATOM      8  C   UNL     1       4.242 -16.949  -1.775  1.00  0.00     0.053 C 
BRANCH   8   9
ATOM      9  C   UNL     1       5.353 -17.751  -2.385  1.00  0.00     0.041 C 
ATOM     10  O   UNL     1       5.766 -18.796  -1.817  1.00  0.00    -0.550 OA
ATOM     11  O   UNL     1       5.956 -17.325  -3.562  1.00  0.00    -0.550 OA
ENDBRANCH   8   9
ENDBRANCH   7   8
ENDBRANCH   6   7
ENDBRANCH   5   6
ENDBRANCH   4   5
ENDBRANCH   3   4
ENDBRANCH   2   3
ENDBRANCH   1   2
BRANCH   1  12
ATOM     12  C   UNL     1       0.840 -21.799  -7.701  1.00  0.00     0.000 C 
BRANCH  12  13
ATOM     13  C   UNL     1       1.924 -20.950  -8.391  1.00  0.00    -0.000 C 
BRANCH  13  14
ATOM     14  C   UNL     1       3.215 -20.845  -7.562  1.00  0.00    -0.000 C 
BRANCH  14  15
ATOM     15  C   UNL     1       3.367 -19.476  -6.880  1.00  0.00    -0.000 C 
BRANCH  15  16
ATOM     16  C   UNL     1       4.422 -19.483  -5.761  1.00  0.00    -0.000 C 
BRANCH  16  17
ATOM     17  C   UNL     1       4.442 -20.806  -4.979  1.00  0.00    -0.000 C 
BRANCH  17  18
ATOM     18  C   UNL     1       5.830 -21.469  -4.976  1.00  0.00    -0.000 C 
BRANCH  18  19
ATOM     19  C   UNL     1       6.704 -21.010  -6.153  1.00  0.00    -0.003 C 
ATOM     20  C   UNL     1       6.733 -22.023  -7.297  1.00  0.00     0.004 C 
ENDBRANCH  18  19
ENDBRANCH  17  18
ENDBRANCH  16  17
ENDBRANCH  15  16
ENDBRANCH  14  15
ENDBRANCH  13  14
ENDBRANCH  12  13
ENDBRANCH   1  12
TORSDOF 16
ENDMDL
MODEL 3
REMARK VINA RESULT:    -4.300      1.418      3.144
REMARK INTER + INTRA:         -10.810
REMARK INTER:                  -8.962
REMARK INTRA:                  -1.848
REMARK UNBOUND:                -2.488
REMARK SMILES CCCCCCCCCCCCCCCCCC(=O)[O-]
REMARK SMILES IDX 10 1 11 2 12 3 13 4 14 5 15 6 16 7 17 8 18 9 19 10 20 11
REMARK SMILES IDX 9 12 8 13 7 14 6 15 5 16 4 17 3 18 2 19 1 20
REMARK H PARENT
REMARK Flexibility Score: inf
ROOT
ATOM      1  C   UNL     1       1.174 -22.163  -7.682  1.00  0.00     0.000 C 
ENDROOT
BRANCH   1   2
ATOM      2  C   UNL     1       0.012 -22.025  -6.678  1.00  0.00     0.000 C 
BRANCH   2   3
ATOM      3  C   UNL     1       0.440 -21.702  -5.235  1.00  0.00     0.000 C 
BRANCH   3   4
ATOM      4  C   UNL     1       0.540 -20.190  -4.970  1.00  0.00     0.000 C 
BRANCH   4   5
ATOM      5  C   UNL     1       0.435 -19.837  -3.476  1.00  0.00     0.000 C 
BRANCH   5   6
ATOM      6  C   UNL     1       1.565 -20.399  -2.590  1.00  0.00     0.000 C 
BRANCH   6   7
ATOM      7  C   UNL     1       2.689 -19.403  -2.243  1.00  0.00     0.006 C 
BRANCH   7   8
ATOM      8  C   UNL     1       2.630 -18.090  -3.045  1.00  0.00     0.053 C 
BRANCH   8   9
ATOM      9  C   UNL     1       2.165 -16.934  -2.212  1.00  0.00     0.041 C 
ATOM     10  O   UNL     1       2.694 -16.705  -1.092  1.00  0.00    -0.550 OA
ATOM     11  O   UNL     1       1.124 -16.128  -2.657  1.00  0.00    -0.550 OA
ENDBRANCH   8   9
ENDBRANCH   7   8
ENDBRANCH   6   7
ENDBRANCH   5   6
ENDBRANCH   4   5
ENDBRANCH   3   4
ENDBRANCH   2   3
ENDBRANCH   1   2
BRANCH   1  12
ATOM     12  C   UNL     1       1.668 -20.839  -8.301  1.00  0.00     0.000 C 
BRANCH  12  13
ATOM     13  C   UNL     1       3.002 -20.314  -7.742  1.00  0.00    -0.000 C 
BRANCH  13  14
ATOM     14  C   UNL     1       3.814 -21.402  -7.018  1.00  0.00    -0.000 C 
BRANCH  14  15
ATOM     15  C   UNL     1       4.087 -21.050  -5.546  1.00  0.00    -0.000 C 
BRANCH  15  16
ATOM     16  C   UNL     1       5.432 -20.327  -5.348  1.00  0.00    -0.000 C 
BRANCH  16  17
ATOM     17  C   UNL     1       6.637 -21.253  -5.576  1.00  0.00    -0.000 C 
BRANCH  17  18
ATOM     18  C   UNL     1       7.493 -20.823  -6.779  1.00  0.00    -0.000 C 
BRANCH  18  19
ATOM     19  C   UNL     1       8.290 -21.989  -7.382  1.00  0.00    -0.003 C 
ATOM     20  C   UNL     1       7.415 -22.946  -8.190  1.00  0.00     0.004 C 
ENDBRANCH  18  19
ENDBRANCH  17  18
ENDBRANCH  16  17
ENDBRANCH  15  16
ENDBRANCH  14  15
ENDBRANCH  13  14
ENDBRANCH  12  13
ENDBRANCH   1  12
TORSDOF 16
ENDMDL
MODEL 4
REMARK VINA RESULT:    -4.257      2.321      4.937
REMARK INTER + INTRA:         -10.728
REMARK INTER:                  -8.470
REMARK INTRA:                  -2.258
REMARK UNBOUND:                -2.488
REMARK SMILES CCCCCCCCCCCCCCCCCC(=O)[O-]
REMARK SMILES IDX 10 1 11 2 12 3 13 4 14 5 15 6 16 7 17 8 18 9 19 10 20 11
REMARK SMILES IDX 9 12 8 13 7 14 6 15 5 16 4 17 3 18 2 19 1 20
REMARK H PARENT
REMARK Flexibility Score: inf
ROOT
ATOM      1  C   UNL     1      -0.035 -21.330  -5.644  1.00  0.00     0.000 C 
ENDROOT
BRANCH   1   2
ATOM      2  C   UNL     1       0.567 -21.069  -4.249  1.00  0.00     0.000 C 
BRANCH   2   3
ATOM      3  C   UNL     1       0.380 -19.635  -3.722  1.00  0.00     0.000 C 
BRANCH   3   4
ATOM      4  C   UNL     1       1.701 -18.851  -3.652  1.00  0.00     0.000 C 
BRANCH   4   5
ATOM      5  C   UNL     1       2.478 -19.103  -2.348  1.00  0.00     0.000 C 
BRANCH   5   6
ATOM      6  C   UNL     1       3.364 -17.932  -1.878  1.00  0.00     0.000 C 
BRANCH   6   7
ATOM      7  C   UNL     1       2.910 -16.534  -2.343  1.00  0.00     0.006 C 
BRANCH   7   8
ATOM      8  C   UNL     1       1.947 -15.833  -1.367  1.00  0.00     0.053 C 
BRANCH   8   9
ATOM      9  C   UNL     1       0.716 -15.321  -2.051  1.00  0.00     0.041 C 
ATOM     10  O   UNL     1       0.551 -15.508  -3.286  1.00  0.00    -0.550 OA
ATOM     11  O   UNL     1      -0.234 -14.605  -1.333  1.00  0.00    -0.550 OA
ENDBRANCH   8   9
ENDBRANCH   7   8
ENDBRANCH   6   7
ENDBRANCH   5   6
ENDBRANCH   4   5
ENDBRANCH   3   4
ENDBRANCH   2   3
ENDBRANCH   1   2
BRANCH   1  12
ATOM     12  C   UNL     1       0.459 -22.614  -6.342  1.00  0.00     0.000 C 
BRANCH  12  13
ATOM     13  C   UNL     1       1.002 -22.414  -7.769  1.00  0.00    -0.000 C 
BRANCH  13  14
ATOM     14  C   UNL     1       1.209 -20.932  -8.125  1.00  0.00    -0.000 C 
BRANCH  14  15
ATOM     15  C   UNL     1       2.695 -20.543  -8.185  1.00  0.00    -0.000 C 
BRANCH  15  16
ATOM     16  C   UNL     1       3.272 -20.186  -6.804  1.00  0.00    -0.000 C 
BRANCH  16  17
ATOM     17  C   UNL     1       4.249 -21.250  -6.281  1.00  0.00    -0.000 C 
BRANCH  17  18
ATOM     18  C   UNL     1       4.338 -21.265  -4.745  1.00  0.00    -0.000 C 
BRANCH  18  19
ATOM     19  C   UNL     1       5.765 -21.012  -4.236  1.00  0.00    -0.003 C 
ATOM     20  C   UNL     1       5.808 -20.677  -2.745  1.00  0.00     0.004 C 
ENDBRANCH  18  19
ENDBRANCH  17  18
ENDBRANCH  16  17
ENDBRANCH  15  16
ENDBRANCH  14  15
ENDBRANCH  13  14
ENDBRANCH  12  13
ENDBRANCH   1  12
TORSDOF 16
ENDMDL
MODEL 5
REMARK VINA RESULT:    -4.214      3.257      5.893
REMARK INTER + INTRA:         -10.644
REMARK INTER:                  -8.244
REMARK INTRA:                  -2.399
REMARK UNBOUND:                -2.488
REMARK SMILES CCCCCCCCCCCCCCCCCC(=O)[O-]
REMARK SMILES IDX 10 1 11 2 12 3 13 4 14 5 15 6 16 7 17 8 18 9 19 10 20 11
REMARK SMILES IDX 9 12 8 13 7 14 6 15 5 16 4 17 3 18 2 19 1 20
REMARK H PARENT
REMARK Flexibility Score: inf
ROOT
ATOM      1  C   UNL     1       1.055 -22.171  -6.345  1.00  0.00     0.000 C 
ENDROOT
BRANCH   1   2
ATOM      2  C   UNL     1       0.924 -21.760  -7.825  1.00  0.00     0.000 C 
BRANCH   2   3
ATOM      3  C   UNL     1       2.040 -20.834  -8.342  1.00  0.00     0.000 C 
BRANCH   3   4
ATOM      4  C   UNL     1       3.363 -21.016  -7.579  1.00  0.00     0.000 C 
BRANCH   4   5
ATOM      5  C   UNL     1       4.108 -19.690  -7.349  1.00  0.00     0.000 C 
BRANCH   5   6
ATOM      6  C   UNL     1       5.440 -19.813  -6.582  1.00  0.00     0.000 C 
BRANCH   6   7
ATOM      7  C   UNL     1       5.889 -21.253  -6.267  1.00  0.00     0.006 C 
BRANCH   7   8
ATOM      8  C   UNL     1       7.360 -21.540  -6.621  1.00  0.00     0.053 C 
BRANCH   8   9
ATOM      9  C   UNL     1       7.513 -22.119  -7.995  1.00  0.00     0.041 C 
ATOM     10  O   UNL     1       7.854 -21.384  -8.959  1.00  0.00    -0.550 OA
ATOM     11  O   UNL     1       7.247 -23.464  -8.219  1.00  0.00    -0.550 OA
ENDBRANCH   8   9
ENDBRANCH   7   8
ENDBRANCH   6   7
ENDBRANCH   5   6
ENDBRANCH   4   5
ENDBRANCH   3   4
ENDBRANCH   2   3
ENDBRANCH   1   2
BRANCH   1  12
ATOM     12  C   UNL     1       0.009 -21.554  -5.396  1.00  0.00     0.000 C 
BRANCH  12  13
ATOM     13  C   UNL     1       0.577 -20.604  -4.325  1.00  0.00    -0.000 C 
BRANCH  13  14
ATOM     14  C   UNL     1       1.343 -19.415  -4.930  1.00  0.00    -0.000 C 
BRANCH  14  15
ATOM     15  C   UNL     1       2.543 -18.989  -4.069  1.00  0.00    -0.000 C 
BRANCH  15  16
ATOM     16  C   UNL     1       3.091 -20.138  -3.203  1.00  0.00    -0.000 C 
BRANCH  16  17
ATOM     17  C   UNL     1       4.607 -20.030  -2.973  1.00  0.00    -0.000 C 
BRANCH  17  18
ATOM     18  C   UNL     1       5.138 -18.604  -3.202  1.00  0.00    -0.000 C 
BRANCH  18  19
ATOM     19  C   UNL     1       5.369 -17.844  -1.887  1.00  0.00    -0.003 C 
ATOM     20  C   UNL     1       4.393 -16.684  -1.697  1.00  0.00     0.004 C 
ENDBRANCH  18  19
ENDBRANCH  17  18
ENDBRANCH  16  17
ENDBRANCH  15  16
ENDBRANCH  14  15
ENDBRANCH  13  14
ENDBRANCH  12  13
ENDBRANCH   1  12
TORSDOF 16
ENDMDL
MODEL 6
REMARK VINA RESULT:    -4.165      2.508      5.998
REMARK INTER + INTRA:         -10.549
REMARK INTER:                  -8.205
REMARK INTRA:                  -2.344
REMARK UNBOUND:                -2.488
REMARK SMILES CCCCCCCCCCCCCCCCCC(=O)[O-]
REMARK SMILES IDX 10 1 11 2 12 3 13 4 14 5 15 6 16 7 17 8 18 9 19 10 20 11
REMARK SMILES IDX 9 12 8 13 7 14 6 15 5 16 4 17 3 18 2 19 1 20
REMARK H PARENT
REMARK Flexibility Score: inf
ROOT
ATOM      1  C   UNL     1       1.373 -20.849  -7.939  1.00  0.00     0.000 C 
ENDROOT
BRANCH   1   2
ATOM      2  C   UNL     1       2.904 -20.668  -7.956  1.00  0.00     0.000 C 
BRANCH   2   3
ATOM      3  C   UNL     1       3.509 -20.153  -6.637  1.00  0.00     0.000 C 
BRANCH   3   4
ATOM      4  C   UNL     1       3.872 -21.290  -5.667  1.00  0.00     0.000 C 
BRANCH   4   5
ATOM      5  C   UNL     1       5.385 -21.563  -5.604  1.00  0.00     0.000 C 
BRANCH   5   6
ATOM      6  C   UNL     1       6.007 -22.099  -6.909  1.00  0.00     0.000 C 
BRANCH   6   7
ATOM      7  C   UNL     1       7.458 -21.653  -7.180  1.00  0.00     0.006 C 
BRANCH   7   8
ATOM      8  C   UNL     1       7.603 -20.690  -8.372  1.00  0.00     0.053 C 
BRANCH   8   9
ATOM      9  C   UNL     1       6.854 -19.409  -8.164  1.00  0.00     0.041 C 
ATOM     10  O   UNL     1       6.066 -18.983  -9.050  1.00  0.00    -0.550 OA
ATOM     11  O   UNL     1       7.052 -18.665  -7.007  1.00  0.00    -0.550 OA
ENDBRANCH   8   9
ENDBRANCH   7   8
ENDBRANCH   6   7
ENDBRANCH   5   6
ENDBRANCH   4   5
ENDBRANCH   3   4
ENDBRANCH   2   3
ENDBRANCH   1   2
BRANCH   1  12
ATOM     12  C   UNL     1       0.882 -22.251  -7.526  1.00  0.00     0.000 C 
BRANCH  12  13
ATOM     13  C   UNL     1       0.407 -22.373  -6.066  1.00  0.00    -0.000 C 
BRANCH  13  14
ATOM     14  C   UNL     1       0.147 -21.007  -5.409  1.00  0.00    -0.000 C 
BRANCH  14  15
ATOM     15  C   UNL     1       0.520 -20.991  -3.918  1.00  0.00    -0.000 C 
BRANCH  15  16
ATOM     16  C   UNL     1       1.258 -19.706  -3.504  1.00  0.00    -0.000 C 
BRANCH  16  17
ATOM     17  C   UNL     1       2.207 -19.929  -2.316  1.00  0.00    -0.000 C 
BRANCH  17  18
ATOM     18  C   UNL     1       3.654 -19.508  -2.629  1.00  0.00    -0.000 C 
BRANCH  18  19
ATOM     19  C   UNL     1       3.812 -17.985  -2.744  1.00  0.00    -0.003 C 
ATOM     20  C   UNL     1       4.246 -17.541  -4.141  1.00  0.00     0.004 C 
ENDBRANCH  18  19
ENDBRANCH  17  18
ENDBRANCH  16  17
ENDBRANCH  15  16
ENDBRANCH  14  15
ENDBRANCH  13  14
ENDBRANCH  12  13
ENDBRANCH   1  12
TORSDOF 16
ENDMDL
MODEL 7
REMARK VINA RESULT:    -4.137      2.952      5.068
REMARK INTER + INTRA:         -10.494
REMARK INTER:                  -7.787
REMARK INTRA:                  -2.707
REMARK UNBOUND:                -2.488
REMARK SMILES CCCCCCCCCCCCCCCCCC(=O)[O-]
REMARK SMILES IDX 10 1 11 2 12 3 13 4 14 5 15 6 16 7 17 8 18 9 19 10 20 11
REMARK SMILES IDX 9 12 8 13 7 14 6 15 5 16 4 17 3 18 2 19 1 20
REMARK H PARENT
REMARK Flexibility Score: inf
ROOT
ATOM      1  C   UNL     1       0.137 -21.388  -5.021  1.00  0.00     0.000 C 
ENDROOT
BRANCH   1   2
ATOM      2  C   UNL     1       1.192 -21.783  -6.073  1.00  0.00     0.000 C 
BRANCH   2   3
ATOM      3  C   UNL     1       0.803 -21.470  -7.529  1.00  0.00     0.000 C 
BRANCH   3   4
ATOM      4  C   UNL     1       1.984 -20.939  -8.359  1.00  0.00     0.000 C 
BRANCH   4   5
ATOM      5  C   UNL     1       3.311 -20.944  -7.581  1.00  0.00     0.000 C 
BRANCH   5   6
ATOM      6  C   UNL     1       3.966 -19.561  -7.397  1.00  0.00     0.000 C 
BRANCH   6   7
ATOM      7  C   UNL     1       5.507 -19.551  -7.432  1.00  0.00     0.006 C 
BRANCH   7   8
ATOM      8  C   UNL     1       6.145 -20.944  -7.284  1.00  0.00     0.053 C 
BRANCH   8   9
ATOM      9  C   UNL     1       7.450 -21.055  -8.012  1.00  0.00     0.041 C 
ATOM     10  O   UNL     1       7.636 -20.416  -9.081  1.00  0.00    -0.550 OA
ATOM     11  O   UNL     1       8.449 -21.891  -7.530  1.00  0.00    -0.550 OA
ENDBRANCH   8   9
ENDBRANCH   7   8
ENDBRANCH   6   7
ENDBRANCH   5   6
ENDBRANCH   4   5
ENDBRANCH   3   4
ENDBRANCH   2   3
ENDBRANCH   1   2
BRANCH   1  12
ATOM     12  C   UNL     1       0.555 -20.252  -4.066  1.00  0.00     0.000 C 
BRANCH  12  13
ATOM     13  C   UNL     1       1.375 -19.121  -4.715  1.00  0.00    -0.000 C 
BRANCH  13  14
ATOM     14  C   UNL     1       2.702 -18.855  -3.985  1.00  0.00    -0.000 C 
BRANCH  14  15
ATOM     15  C   UNL     1       3.244 -20.106  -3.275  1.00  0.00    -0.000 C 
BRANCH  15  16
ATOM     16  C   UNL     1       4.489 -20.689  -3.967  1.00  0.00    -0.000 C 
BRANCH  16  17
ATOM     17  C   UNL     1       5.796 -20.063  -3.454  1.00  0.00    -0.000 C 
BRANCH  17  18
ATOM     18  C   UNL     1       6.987 -21.033  -3.537  1.00  0.00    -0.000 C 
BRANCH  18  19
ATOM     19  C   UNL     1       8.197 -20.419  -4.258  1.00  0.00    -0.003 C 
ATOM     20  C   UNL     1       7.966 -18.963  -4.661  1.00  0.00     0.004 C 
ENDBRANCH  18  19
ENDBRANCH  17  18
ENDBRANCH  16  17
ENDBRANCH  15  16
ENDBRANCH  14  15
ENDBRANCH  13  14
ENDBRANCH  12  13
ENDBRANCH   1  12
TORSDOF 16
ENDMDL
MODEL 8
REMARK VINA RESULT:    -4.090      2.950      5.655
REMARK INTER + INTRA:         -10.403
REMARK INTER:                  -8.120
REMARK INTRA:                  -2.283
REMARK UNBOUND:                -2.488
REMARK SMILES CCCCCCCCCCCCCCCCCC(=O)[O-]
REMARK SMILES IDX 10 1 11 2 12 3 13 4 14 5 15 6 16 7 17 8 18 9 19 10 20 11
REMARK SMILES IDX 9 12 8 13 7 14 6 15 5 16 4 17 3 18 2 19 1 20
REMARK H PARENT
REMARK Flexibility Score: inf
ROOT
ATOM      1  C   UNL     1       0.361 -20.508  -3.598  1.00  0.00     0.000 C 
ENDROOT
BRANCH   1   2
ATOM      2  C   UNL     1       0.834 -20.595  -5.063  1.00  0.00     0.000 C 
BRANCH   2   3
ATOM      3  C   UNL     1       0.373 -21.855  -5.817  1.00  0.00     0.000 C 
BRANCH   3   4
ATOM      4  C   UNL     1       0.730 -21.816  -7.312  1.00  0.00     0.000 C 
BRANCH   4   5
ATOM      5  C   UNL     1       1.531 -20.562  -7.704  1.00  0.00     0.000 C 
BRANCH   5   6
ATOM      6  C   UNL     1       3.014 -20.812  -8.040  1.00  0.00     0.000 C 
BRANCH   6   7
ATOM      7  C   UNL     1       3.924 -21.112  -6.832  1.00  0.00     0.006 C 
BRANCH   7   8
ATOM      8  C   UNL     1       5.238 -20.310  -6.826  1.00  0.00     0.053 C 
BRANCH   8   9
ATOM      9  C   UNL     1       6.420 -21.150  -7.207  1.00  0.00     0.041 C 
ATOM     10  O   UNL     1       6.286 -22.388  -7.389  1.00  0.00    -0.550 OA
ATOM     11  O   UNL     1       7.677 -20.571  -7.325  1.00  0.00    -0.550 OA
ENDBRANCH   8   9
ENDBRANCH   7   8
ENDBRANCH   6   7
ENDBRANCH   5   6
ENDBRANCH   4   5
ENDBRANCH   3   4
ENDBRANCH   2   3
ENDBRANCH   1   2
BRANCH   1  12
ATOM     12  C   UNL     1       1.478 -20.285  -2.559  1.00  0.00     0.000 C 
BRANCH  12  13
ATOM     13  C   UNL     1       2.903 -20.209  -3.137  1.00  0.00    -0.000 C 
BRANCH  13  14
ATOM     14  C   UNL     1       3.522 -18.807  -3.012  1.00  0.00    -0.000 C 
BRANCH  14  15
ATOM     15  C   UNL     1       2.965 -18.023  -1.812  1.00  0.00    -0.000 C 
BRANCH  15  16
ATOM     16  C   UNL     1       2.410 -16.644  -2.209  1.00  0.00    -0.000 C 
BRANCH  16  17
ATOM     17  C   UNL     1       1.492 -16.711  -3.441  1.00  0.00    -0.000 C 
BRANCH  17  18
ATOM     18  C   UNL     1       1.744 -15.557  -4.427  1.00  0.00    -0.000 C 
BRANCH  18  19
ATOM     19  C   UNL     1       1.817 -16.035  -5.885  1.00  0.00    -0.003 C 
ATOM     20  C   UNL     1       2.419 -17.433  -6.018  1.00  0.00     0.004 C 
ENDBRANCH  18  19
ENDBRANCH  17  18
ENDBRANCH  16  17
ENDBRANCH  15  16
ENDBRANCH  14  15
ENDBRANCH  13  14
ENDBRANCH  12  13
ENDBRANCH   1  12
TORSDOF 16
ENDMDL
MODEL 9
REMARK VINA RESULT:    -4.055      2.755      6.012
REMARK INTER + INTRA:         -10.336
REMARK INTER:                  -8.188
REMARK INTRA:                  -2.148
REMARK UNBOUND:                -2.488
REMARK SMILES CCCCCCCCCCCCCCCCCC(=O)[O-]
REMARK SMILES IDX 10 1 11 2 12 3 13 4 14 5 15 6 16 7 17 8 18 9 19 10 20 11
REMARK SMILES IDX 9 12 8 13 7 14 6 15 5 16 4 17 3 18 2 19 1 20
REMARK H PARENT
REMARK Flexibility Score: inf
ROOT
ATOM      1  C   UNL     1       0.121 -21.016  -5.456  1.00  0.00     0.000 C 
ENDROOT
BRANCH   1   2
ATOM      2  C   UNL     1       0.438 -22.397  -6.065  1.00  0.00     0.000 C 
BRANCH   2   3
ATOM      3  C   UNL     1       0.892 -22.367  -7.535  1.00  0.00     0.000 C 
BRANCH   3   4
ATOM      4  C   UNL     1       1.286 -20.957  -8.007  1.00  0.00     0.000 C 
BRANCH   4   5
ATOM      5  C   UNL     1       2.806 -20.724  -7.993  1.00  0.00     0.000 C 
BRANCH   5   6
ATOM      6  C   UNL     1       3.359 -20.092  -6.701  1.00  0.00     0.000 C 
BRANCH   6   7
ATOM      7  C   UNL     1       3.862 -21.091  -5.640  1.00  0.00     0.006 C 
BRANCH   7   8
ATOM      8  C   UNL     1       5.276 -20.783  -5.114  1.00  0.00     0.053 C 
BRANCH   8   9
ATOM      9  C   UNL     1       6.347 -21.395  -5.966  1.00  0.00     0.041 C 
ATOM     10  O   UNL     1       7.557 -21.106  -5.771  1.00  0.00    -0.550 OA
ATOM     11  O   UNL     1       6.007 -22.259  -7.000  1.00  0.00    -0.550 OA
ENDBRANCH   8   9
ENDBRANCH   7   8
ENDBRANCH   6   7
ENDBRANCH   5   6
ENDBRANCH   4   5
ENDBRANCH   3   4
ENDBRANCH   2   3
ENDBRANCH   1   2
BRANCH   1  12
ATOM     12  C   UNL     1       0.435 -20.873  -3.953  1.00  0.00     0.000 C 
BRANCH  12  13
ATOM     13  C   UNL     1       0.499 -19.425  -3.434  1.00  0.00    -0.000 C 
BRANCH  13  14
ATOM     14  C   UNL     1       1.915 -18.829  -3.506  1.00  0.00    -0.000 C 
BRANCH  14  15
ATOM     15  C   UNL     1       2.727 -19.085  -2.226  1.00  0.00    -0.000 C 
BRANCH  15  16
ATOM     16  C   UNL     1       3.561 -17.864  -1.798  1.00  0.00    -0.000 C 
BRANCH  16  17
ATOM     17  C   UNL     1       3.248 -16.614  -2.636  1.00  0.00    -0.000 C 
BRANCH  17  18
ATOM     18  C   UNL     1       2.766 -15.433  -1.776  1.00  0.00    -0.000 C 
BRANCH  18  19
ATOM     19  C   UNL     1       1.268 -15.516  -1.448  1.00  0.00    -0.003 C 
ATOM     20  C   UNL     1       0.388 -15.492  -2.698  1.00  0.00     0.004 C 
ENDBRANCH  18  19
ENDBRANCH  17  18
ENDBRANCH  16  17
ENDBRANCH  15  16
ENDBRANCH  14  15
ENDBRANCH  13  14
ENDBRANCH  12  13
ENDBRANCH   1  12
TORSDOF 16
ENDMDL
