MODEL 1
REMARK VINA RESULT:    -4.376      0.000      0.000
REMARK INTER + INTRA:         -14.229
REMARK INTER:                 -10.003
REMARK INTRA:                  -4.225
REMARK UNBOUND:                -4.225
REMARK SMILES CCCCCCCCCCCCCCCCCCCCCCCC(=O)[O-]
REMARK SMILES IDX 13 1 14 2 15 3 16 4 17 5 18 6 19 7 20 8 21 9 22 10 23 11
REMARK SMILES IDX 24 12 25 13 26 14 12 15 11 16 10 17 9 18 8 19 7 20 6 21 5 22
REMARK SMILES IDX 4 23 3 24 2 25 1 26
REMARK H PARENT
REMARK Flexibility Score: inf
ROOT
ATOM      1  C   UNL     1      21.079  -5.626  47.728  1.00  0.00     0.000 C 
ENDROOT
BRANCH   1   2
ATOM      2  C   UNL     1      20.786  -7.128  47.924  1.00  0.00     0.000 C 
BRANCH   2   3
ATOM      3  C   UNL     1      20.046  -7.493  49.228  1.00  0.00     0.000 C 
BRANCH   3   4
ATOM      4  C   UNL     1      20.655  -6.911  50.518  1.00  0.00     0.000 C 
BRANCH   4   5
ATOM      5  C   UNL     1      21.714  -7.830  51.148  1.00  0.00     0.000 C 
BRANCH   5   6
ATOM      6  C   UNL     1      23.035  -7.104  51.463  1.00  0.00     0.000 C 
BRANCH   6   7
ATOM      7  C   UNL     1      23.846  -6.647  50.237  1.00  0.00     0.000 C 
BRANCH   7   8
ATOM      8  C   UNL     1      24.362  -5.204  50.364  1.00  0.00     0.000 C 
BRANCH   8   9
ATOM      9  C   UNL     1      23.236  -4.203  50.677  1.00  0.00     0.000 C 
BRANCH   9  10
ATOM     10  C   UNL     1      23.652  -2.748  50.414  1.00  0.00     0.006 C 
BRANCH  10  11
ATOM     11  C   UNL     1      22.617  -2.030  49.543  1.00  0.00     0.053 C 
BRANCH  11  12
ATOM     12  C   UNL     1      23.129  -1.865  48.146  1.00  0.00     0.041 C 
ATOM     13  O   UNL     1      24.323  -2.155  47.871  1.00  0.00    -0.550 OA
ATOM     14  O   UNL     1      22.305  -1.336  47.160  1.00  0.00    -0.550 OA
ENDBRANCH  11  12
ENDBRANCH  10  11
ENDBRANCH   9  10
ENDBRANCH   8   9
ENDBRANCH   7   8
ENDBRANCH   6   7
ENDBRANCH   5   6
ENDBRANCH   4   5
ENDBRANCH   3   4
ENDBRANCH   2   3
ENDBRANCH   1   2
BRANCH   1  15
ATOM     15  C   UNL     1      22.423  -5.321  47.043  1.00  0.00     0.000 C 
BRANCH  15  16
ATOM     16  C   UNL     1      22.650  -6.180  45.787  1.00  0.00     0.000 C 
BRANCH  16  17
ATOM     17  C   UNL     1      22.721  -5.329  44.507  1.00  0.00     0.000 C 
BRANCH  17  18
ATOM     18  C   UNL     1      22.473  -3.839  44.786  1.00  0.00    -0.000 C 
BRANCH  18  19
ATOM     19  C   UNL     1      21.242  -3.336  44.017  1.00  0.00    -0.000 C 
BRANCH  19  20
ATOM     20  C   UNL     1      19.916  -3.797  44.646  1.00  0.00    -0.000 C 
BRANCH  20  21
ATOM     21  C   UNL     1      18.928  -4.479  43.672  1.00  0.00    -0.000 C 
BRANCH  21  22
ATOM     22  C   UNL     1      19.184  -5.975  43.409  1.00  0.00    -0.000 C 
BRANCH  22  23
ATOM     23  C   UNL     1      19.139  -6.824  44.693  1.00  0.00    -0.000 C 
BRANCH  23  24
ATOM     24  C   UNL     1      19.701  -8.240  44.486  1.00  0.00    -0.000 C 
BRANCH  24  25
ATOM     25  C   UNL     1      20.787  -8.302  43.403  1.00  0.00    -0.003 C 
ATOM     26  C   UNL     1      21.824  -9.375  43.727  1.00  0.00     0.004 C 
ENDBRANCH  24  25
ENDBRANCH  23  24
ENDBRANCH  22  23
ENDBRANCH  21  22
ENDBRANCH  20  21
ENDBRANCH  19  20
ENDBRANCH  18  19
ENDBRANCH  17  18
ENDBRANCH  16  17
ENDBRANCH  15  16
ENDBRANCH   1  15
TORSDOF 22
ENDMDL
MODEL 2
REMARK VINA RESULT:    -4.351      1.187      2.087
REMARK INTER + INTRA:         -14.173
REMARK INTER:                 -10.704
REMARK INTRA:                  -3.469
REMARK UNBOUND:                -4.225
REMARK SMILES CCCCCCCCCCCCCCCCCCCCCCCC(=O)[O-]
REMARK SMILES IDX 13 1 14 2 15 3 16 4 17 5 18 6 19 7 20 8 21 9 22 10 23 11
REMARK SMILES IDX 24 12 25 13 26 14 12 15 11 16 10 17 9 18 8 19 7 20 6 21 5 22
REMARK SMILES IDX 4 23 3 24 2 25 1 26
REMARK H PARENT
REMARK Flexibility Score: inf
ROOT
ATOM      1  C   UNL     1      20.243  -6.128  47.868  1.00  0.00     0.000 C 
ENDROOT
BRANCH   1   2
ATOM      2  C   UNL     1      20.606  -7.404  48.656  1.00  0.00     0.000 C 
BRANCH   2   3
ATOM      3  C   UNL     1      20.559  -7.268  50.193  1.00  0.00     0.000 C 
BRANCH   3   4
ATOM      4  C   UNL     1      21.929  -7.227  50.894  1.00  0.00     0.000 C 
BRANCH   4   5
ATOM      5  C   UNL     1      22.348  -5.808  51.310  1.00  0.00     0.000 C 
BRANCH   5   6
ATOM      6  C   UNL     1      23.378  -5.177  50.355  1.00  0.00     0.000 C 
BRANCH   6   7
ATOM      7  C   UNL     1      23.887  -3.781  50.761  1.00  0.00     0.000 C 
BRANCH   7   8
ATOM      8  C   UNL     1      22.853  -2.671  50.512  1.00  0.00     0.000 C 
BRANCH   8   9
ATOM      9  C   UNL     1      23.420  -1.520  49.664  1.00  0.00     0.000 C 
BRANCH   9  10
ATOM     10  C   UNL     1      22.894  -1.537  48.220  1.00  0.00     0.006 C 
BRANCH  10  11
ATOM     11  C   UNL     1      23.948  -2.096  47.260  1.00  0.00     0.053 C 
BRANCH  11  12
ATOM     12  C   UNL     1      23.944  -1.332  45.972  1.00  0.00     0.041 C 
ATOM     13  O   UNL     1      22.867  -0.865  45.517  1.00  0.00    -0.550 OA
ATOM     14  O   UNL     1      25.119  -1.187  45.245  1.00  0.00    -0.550 OA
ENDBRANCH  11  12
ENDBRANCH  10  11
ENDBRANCH   9  10
ENDBRANCH   8   9
ENDBRANCH   7   8
ENDBRANCH   6   7
ENDBRANCH   5   6
ENDBRANCH   4   5
ENDBRANCH   3   4
ENDBRANCH   2   3
ENDBRANCH   1   2
BRANCH   1  15
ATOM     15  C   UNL     1      21.453  -5.333  47.348  1.00  0.00     0.000 C 
BRANCH  15  16
ATOM     16  C   UNL     1      21.047  -4.209  46.379  1.00  0.00     0.000 C 
BRANCH  16  17
ATOM     17  C   UNL     1      21.800  -4.295  45.041  1.00  0.00     0.000 C 
BRANCH  17  18
ATOM     18  C   UNL     1      20.984  -3.714  43.876  1.00  0.00    -0.000 C 
BRANCH  18  19
ATOM     19  C   UNL     1      19.484  -3.714  44.206  1.00  0.00    -0.000 C 
BRANCH  19  20
ATOM     20  C   UNL     1      18.656  -4.560  43.222  1.00  0.00    -0.000 C 
BRANCH  20  21
ATOM     21  C   UNL     1      19.117  -6.026  43.066  1.00  0.00    -0.000 C 
BRANCH  21  22
ATOM     22  C   UNL     1      18.597  -7.001  44.140  1.00  0.00    -0.000 C 
BRANCH  22  23
ATOM     23  C   UNL     1      19.717  -7.842  44.777  1.00  0.00    -0.000 C 
BRANCH  23  24
ATOM     24  C   UNL     1      21.029  -7.786  43.978  1.00  0.00    -0.000 C 
BRANCH  24  25
ATOM     25  C   UNL     1      21.599  -9.176  43.663  1.00  0.00    -0.003 C 
ATOM     26  C   UNL     1      20.508 -10.111  43.147  1.00  0.00     0.004 C 
ENDBRANCH  24  25
ENDBRANCH  23  24
ENDBRANCH  22  23
ENDBRANCH  21  22
ENDBRANCH  20  21
ENDBRANCH  19  20
ENDBRANCH  18  19
ENDBRANCH  17  18
ENDBRANCH  16  17
ENDBRANCH  15  16
ENDBRANCH   1  15
TORSDOF 22
ENDMDL
MODEL 3
REMARK VINA RESULT:    -4.344      1.465      5.735
REMARK INTER + INTRA:         -14.157
REMARK INTER:                  -9.840
REMARK INTRA:                  -4.317
REMARK UNBOUND:                -4.225
REMARK SMILES CCCCCCCCCCCCCCCCCCCCCCCC(=O)[O-]
REMARK SMILES IDX 13 1 14 2 15 3 16 4 17 5 18 6 19 7 20 8 21 9 22 10 23 11
REMARK SMILES IDX 24 12 25 13 26 14 12 15 11 16 10 17 9 18 8 19 7 20 6 21 5 22
REMARK SMILES IDX 4 23 3 24 2 25 1 26
REMARK H PARENT
REMARK Flexibility Score: inf
ROOT
ATOM      1  C   UNL     1      19.601  -6.484  48.240  1.00  0.00     0.000 C 
ENDROOT
BRANCH   1   2
ATOM      2  C   UNL     1      19.943  -6.521  46.736  1.00  0.00     0.000 C 
BRANCH   2   3
ATOM      3  C   UNL     1      18.843  -7.104  45.822  1.00  0.00     0.000 C 
BRANCH   3   4
ATOM      4  C   UNL     1      19.325  -7.612  44.451  1.00  0.00     0.000 C 
BRANCH   4   5
ATOM      5  C   UNL     1      20.852  -7.550  44.290  1.00  0.00     0.000 C 
BRANCH   5   6
ATOM      6  C   UNL     1      21.315  -6.436  43.334  1.00  0.00     0.000 C 
BRANCH   6   7
ATOM      7  C   UNL     1      20.209  -5.485  42.841  1.00  0.00     0.000 C 
BRANCH   7   8
ATOM      8  C   UNL     1      20.164  -4.162  43.623  1.00  0.00     0.000 C 
BRANCH   8   9
ATOM      9  C   UNL     1      21.484  -3.870  44.358  1.00  0.00     0.000 C 
BRANCH   9  10
ATOM     10  C   UNL     1      21.849  -2.377  44.341  1.00  0.00     0.006 C 
BRANCH  10  11
ATOM     11  C   UNL     1      23.352  -2.177  44.553  1.00  0.00     0.053 C 
BRANCH  11  12
ATOM     12  C   UNL     1      23.654  -1.959  46.004  1.00  0.00     0.041 C 
ATOM     13  O   UNL     1      24.779  -2.277  46.470  1.00  0.00    -0.550 OA
ATOM     14  O   UNL     1      22.673  -1.459  46.851  1.00  0.00    -0.550 OA
ENDBRANCH  11  12
ENDBRANCH  10  11
ENDBRANCH   9  10
ENDBRANCH   8   9
ENDBRANCH   7   8
ENDBRANCH   6   7
ENDBRANCH   5   6
ENDBRANCH   4   5
ENDBRANCH   3   4
ENDBRANCH   2   3
ENDBRANCH   1   2
BRANCH   1  15
ATOM     15  C   UNL     1      20.380  -7.498  49.097  1.00  0.00     0.000 C 
BRANCH  15  16
ATOM     16  C   UNL     1      20.784  -6.923  50.466  1.00  0.00     0.000 C 
BRANCH  16  17
ATOM     17  C   UNL     1      22.053  -7.589  51.024  1.00  0.00     0.000 C 
BRANCH  17  18
ATOM     18  C   UNL     1      23.222  -6.600  51.147  1.00  0.00    -0.000 C 
BRANCH  18  19
ATOM     19  C   UNL     1      22.709  -5.156  51.255  1.00  0.00    -0.000 C 
BRANCH  19  20
ATOM     20  C   UNL     1      23.471  -4.182  50.341  1.00  0.00    -0.000 C 
BRANCH  20  21
ATOM     21  C   UNL     1      24.017  -4.798  49.033  1.00  0.00    -0.000 C 
BRANCH  21  22
ATOM     22  C   UNL     1      22.975  -5.020  47.921  1.00  0.00    -0.000 C 
BRANCH  22  23
ATOM     23  C   UNL     1      23.577  -5.659  46.656  1.00  0.00    -0.000 C 
BRANCH  23  24
ATOM     24  C   UNL     1      24.302  -6.983  46.948  1.00  0.00    -0.000 C 
BRANCH  24  25
ATOM     25  C   UNL     1      23.343  -8.117  47.337  1.00  0.00    -0.003 C 
ATOM     26  C   UNL     1      24.030  -9.125  48.254  1.00  0.00     0.004 C 
ENDBRANCH  24  25
ENDBRANCH  23  24
ENDBRANCH  22  23
ENDBRANCH  21  22
ENDBRANCH  20  21
ENDBRANCH  19  20
ENDBRANCH  18  19
ENDBRANCH  17  18
ENDBRANCH  16  17
ENDBRANCH  15  16
ENDBRANCH   1  15
TORSDOF 22
ENDMDL
MODEL 4
REMARK VINA RESULT:    -4.309      1.575      5.266
REMARK INTER + INTRA:         -14.076
REMARK INTER:                  -9.816
REMARK INTRA:                  -4.260
REMARK UNBOUND:                -4.225
REMARK SMILES CCCCCCCCCCCCCCCCCCCCCCCC(=O)[O-]
REMARK SMILES IDX 13 1 14 2 15 3 16 4 17 5 18 6 19 7 20 8 21 9 22 10 23 11
REMARK SMILES IDX 24 12 25 13 26 14 12 15 11 16 10 17 9 18 8 19 7 20 6 21 5 22
REMARK SMILES IDX 4 23 3 24 2 25 1 26
REMARK H PARENT
REMARK Flexibility Score: inf
ROOT
ATOM      1  C   UNL     1      18.542  -6.073  44.012  1.00  0.00     0.000 C 
ENDROOT
BRANCH   1   2
ATOM      2  C   UNL     1      19.541  -5.708  42.894  1.00  0.00     0.000 C 
BRANCH   2   3
ATOM      3  C   UNL     1      20.368  -4.428  43.140  1.00  0.00     0.000 C 
BRANCH   3   4
ATOM      4  C   UNL     1      19.869  -3.530  44.288  1.00  0.00     0.000 C 
BRANCH   4   5
ATOM      5  C   UNL     1      21.009  -2.992  45.167  1.00  0.00     0.000 C 
BRANCH   5   6
ATOM      6  C   UNL     1      22.100  -2.261  44.363  1.00  0.00     0.000 C 
BRANCH   6   7
ATOM      7  C   UNL     1      23.512  -2.868  44.462  1.00  0.00     0.000 C 
BRANCH   7   8
ATOM      8  C   UNL     1      24.451  -2.053  45.367  1.00  0.00     0.000 C 
BRANCH   8   9
ATOM      9  C   UNL     1      23.740  -1.519  46.622  1.00  0.00     0.000 C 
BRANCH   9  10
ATOM     10  C   UNL     1      23.891  -2.458  47.829  1.00  0.00     0.006 C 
BRANCH  10  11
ATOM     11  C   UNL     1      22.584  -2.544  48.624  1.00  0.00     0.053 C 
BRANCH  11  12
ATOM     12  C   UNL     1      22.831  -2.263  50.074  1.00  0.00     0.041 C 
ATOM     13  O   UNL     1      22.673  -1.101  50.529  1.00  0.00    -0.550 OA
ATOM     14  O   UNL     1      23.292  -3.274  50.909  1.00  0.00    -0.550 OA
ENDBRANCH  11  12
ENDBRANCH  10  11
ENDBRANCH   9  10
ENDBRANCH   8   9
ENDBRANCH   7   8
ENDBRANCH   6   7
ENDBRANCH   5   6
ENDBRANCH   4   5
ENDBRANCH   3   4
ENDBRANCH   2   3
ENDBRANCH   1   2
BRANCH   1  15
ATOM     15  C   UNL     1      18.681  -7.509  44.548  1.00  0.00     0.000 C 
BRANCH  15  16
ATOM     16  C   UNL     1      19.943  -8.214  44.022  1.00  0.00     0.000 C 
BRANCH  16  17
ATOM     17  C   UNL     1      20.669  -9.003  45.124  1.00  0.00     0.000 C 
BRANCH  17  18
ATOM     18  C   UNL     1      22.109  -8.512  45.338  1.00  0.00    -0.000 C 
BRANCH  18  19
ATOM     19  C   UNL     1      22.297  -7.100  44.762  1.00  0.00    -0.000 C 
BRANCH  19  20
ATOM     20  C   UNL     1      22.821  -6.096  45.804  1.00  0.00    -0.000 C 
BRANCH  20  21
ATOM     21  C   UNL     1      22.105  -6.136  47.173  1.00  0.00    -0.000 C 
BRANCH  21  22
ATOM     22  C   UNL     1      20.641  -5.658  47.168  1.00  0.00    -0.000 C 
BRANCH  22  23
ATOM     23  C   UNL     1      19.718  -6.549  48.019  1.00  0.00    -0.000 C 
BRANCH  23  24
ATOM     24  C   UNL     1      20.495  -7.580  48.854  1.00  0.00    -0.000 C 
BRANCH  24  25
ATOM     25  C   UNL     1      20.431  -7.300  50.363  1.00  0.00    -0.003 C 
ATOM     26  C   UNL     1      21.713  -6.629  50.850  1.00  0.00     0.004 C 
ENDBRANCH  24  25
ENDBRANCH  23  24
ENDBRANCH  22  23
ENDBRANCH  21  22
ENDBRANCH  20  21
ENDBRANCH  19  20
ENDBRANCH  18  19
ENDBRANCH  17  18
ENDBRANCH  16  17
ENDBRANCH  15  16
ENDBRANCH   1  15
TORSDOF 22
ENDMDL
MODEL 5
REMARK VINA RESULT:    -4.283      1.671      3.503
REMARK INTER + INTRA:         -14.017
REMARK INTER:                  -9.794
REMARK INTRA:                  -4.223
REMARK UNBOUND:                -4.225
REMARK SMILES CCCCCCCCCCCCCCCCCCCCCCCC(=O)[O-]
REMARK SMILES IDX 13 1 14 2 15 3 16 4 17 5 18 6 19 7 20 8 21 9 22 10 23 11
REMARK SMILES IDX 24 12 25 13 26 14 12 15 11 16 10 17 9 18 8 19 7 20 6 21 5 22
REMARK SMILES IDX 4 23 3 24 2 25 1 26
REMARK H PARENT
REMARK Flexibility Score: inf
ROOT
ATOM      1  C   UNL     1      20.282  -6.746  48.382  1.00  0.00     0.000 C 
ENDROOT
BRANCH   1   2
ATOM      2  C   UNL     1      20.226  -7.200  49.856  1.00  0.00     0.000 C 
BRANCH   2   3
ATOM      3  C   UNL     1      21.430  -6.775  50.724  1.00  0.00     0.000 C 
BRANCH   3   4
ATOM      4  C   UNL     1      22.479  -7.874  50.980  1.00  0.00     0.000 C 
BRANCH   4   5
ATOM      5  C   UNL     1      23.869  -7.515  50.434  1.00  0.00     0.000 C 
BRANCH   5   6
ATOM      6  C   UNL     1      24.030  -6.015  50.125  1.00  0.00     0.000 C 
BRANCH   6   7
ATOM      7  C   UNL     1      24.751  -5.685  48.805  1.00  0.00     0.000 C 
BRANCH   7   8
ATOM      8  C   UNL     1      24.335  -4.326  48.219  1.00  0.00     0.000 C 
BRANCH   8   9
ATOM      9  C   UNL     1      22.822  -4.076  48.334  1.00  0.00     0.000 C 
BRANCH   9  10
ATOM     10  C   UNL     1      22.162  -3.812  46.971  1.00  0.00     0.006 C 
BRANCH  10  11
ATOM     11  C   UNL     1      22.500  -2.409  46.461  1.00  0.00     0.053 C 
BRANCH  11  12
ATOM     12  C   UNL     1      23.037  -2.472  45.065  1.00  0.00     0.041 C 
ATOM     13  O   UNL     1      23.601  -3.519  44.651  1.00  0.00    -0.550 OA
ATOM     14  O   UNL     1      22.968  -1.355  44.241  1.00  0.00    -0.550 OA
ENDBRANCH  11  12
ENDBRANCH  10  11
ENDBRANCH   9  10
ENDBRANCH   8   9
ENDBRANCH   7   8
ENDBRANCH   6   7
ENDBRANCH   5   6
ENDBRANCH   4   5
ENDBRANCH   3   4
ENDBRANCH   2   3
ENDBRANCH   1   2
BRANCH   1  15
ATOM     15  C   UNL     1      20.818  -7.809  47.407  1.00  0.00     0.000 C 
BRANCH  15  16
ATOM     16  C   UNL     1      22.214  -7.459  46.863  1.00  0.00     0.000 C 
BRANCH  16  17
ATOM     17  C   UNL     1      22.961  -8.697  46.340  1.00  0.00     0.000 C 
BRANCH  17  18
ATOM     18  C   UNL     1      22.004  -9.765  45.793  1.00  0.00    -0.000 C 
BRANCH  18  19
ATOM     19  C   UNL     1      22.238  -9.993  44.292  1.00  0.00    -0.000 C 
BRANCH  19  20
ATOM     20  C   UNL     1      21.015  -9.625  43.434  1.00  0.00    -0.000 C 
BRANCH  20  21
ATOM     21  C   UNL     1      20.595  -8.139  43.492  1.00  0.00    -0.000 C 
BRANCH  21  22
ATOM     22  C   UNL     1      19.214  -7.865  44.119  1.00  0.00    -0.000 C 
BRANCH  22  23
ATOM     23  C   UNL     1      18.823  -6.377  44.078  1.00  0.00    -0.000 C 
BRANCH  23  24
ATOM     24  C   UNL     1      19.958  -5.453  44.549  1.00  0.00    -0.000 C 
BRANCH  24  25
ATOM     25  C   UNL     1      20.259  -4.321  43.556  1.00  0.00    -0.003 C 
ATOM     26  C   UNL     1      19.327  -4.389  42.349  1.00  0.00     0.004 C 
ENDBRANCH  24  25
ENDBRANCH  23  24
ENDBRANCH  22  23
ENDBRANCH  21  22
ENDBRANCH  20  21
ENDBRANCH  19  20
ENDBRANCH  18  19
ENDBRANCH  17  18
ENDBRANCH  16  17
ENDBRANCH  15  16
ENDBRANCH   1  15
TORSDOF 22
ENDMDL
MODEL 6
REMARK VINA RESULT:    -4.278      1.226      3.521
REMARK INTER + INTRA:         -14.005
REMARK INTER:                 -10.456
REMARK INTRA:                  -3.550
REMARK UNBOUND:                -4.225
REMARK SMILES CCCCCCCCCCCCCCCCCCCCCCCC(=O)[O-]
REMARK SMILES IDX 13 1 14 2 15 3 16 4 17 5 18 6 19 7 20 8 21 9 22 10 23 11
REMARK SMILES IDX 24 12 25 13 26 14 12 15 11 16 10 17 9 18 8 19 7 20 6 21 5 22
REMARK SMILES IDX 4 23 3 24 2 25 1 26
REMARK H PARENT
REMARK Flexibility Score: inf
ROOT
ATOM      1  C   UNL     1      20.982  -7.997  50.953  1.00  0.00     0.000 C 
ENDROOT
BRANCH   1   2
ATOM      2  C   UNL     1      22.336  -7.455  51.459  1.00  0.00     0.000 C 
BRANCH   2   3
ATOM      3  C   UNL     1      23.501  -7.542  50.450  1.00  0.00     0.000 C 
BRANCH   3   4
ATOM      4  C   UNL     1      24.275  -6.231  50.221  1.00  0.00     0.000 C 
BRANCH   4   5
ATOM      5  C   UNL     1      23.365  -5.059  49.822  1.00  0.00     0.000 C 
BRANCH   5   6
ATOM      6  C   UNL     1      23.246  -3.983  50.917  1.00  0.00     0.000 C 
BRANCH   6   7
ATOM      7  C   UNL     1      23.679  -2.565  50.501  1.00  0.00     0.000 C 
BRANCH   7   8
ATOM      8  C   UNL     1      22.508  -1.569  50.463  1.00  0.00     0.000 C 
BRANCH   8   9
ATOM      9  C   UNL     1      22.203  -1.074  49.039  1.00  0.00     0.000 C 
BRANCH   9  10
ATOM     10  C   UNL     1      23.011  -1.825  47.969  1.00  0.00     0.006 C 
BRANCH  10  11
ATOM     11  C   UNL     1      22.282  -1.812  46.622  1.00  0.00     0.053 C 
BRANCH  11  12
ATOM     12  C   UNL     1      23.244  -2.055  45.501  1.00  0.00     0.041 C 
ATOM     13  O   UNL     1      24.482  -1.930  45.692  1.00  0.00    -0.550 OA
ATOM     14  O   UNL     1      22.770  -2.362  44.232  1.00  0.00    -0.550 OA
ENDBRANCH  11  12
ENDBRANCH  10  11
ENDBRANCH   9  10
ENDBRANCH   8   9
ENDBRANCH   7   8
ENDBRANCH   6   7
ENDBRANCH   5   6
ENDBRANCH   4   5
ENDBRANCH   3   4
ENDBRANCH   2   3
ENDBRANCH   1   2
BRANCH   1  15
ATOM     15  C   UNL     1      20.255  -7.071  49.962  1.00  0.00     0.000 C 
BRANCH  15  16
ATOM     16  C   UNL     1      20.621  -7.371  48.498  1.00  0.00     0.000 C 
BRANCH  16  17
ATOM     17  C   UNL     1      19.841  -6.487  47.511  1.00  0.00     0.000 C 
BRANCH  17  18
ATOM     18  C   UNL     1      20.660  -5.272  47.048  1.00  0.00    -0.000 C 
BRANCH  18  19
ATOM     19  C   UNL     1      22.068  -5.697  46.605  1.00  0.00    -0.000 C 
BRANCH  19  20
ATOM     20  C   UNL     1      22.188  -5.867  45.080  1.00  0.00    -0.000 C 
BRANCH  20  21
ATOM     21  C   UNL     1      21.968  -7.306  44.561  1.00  0.00    -0.000 C 
BRANCH  21  22
ATOM     22  C   UNL     1      20.909  -7.455  43.452  1.00  0.00    -0.000 C 
BRANCH  22  23
ATOM     23  C   UNL     1      19.493  -7.694  44.005  1.00  0.00    -0.000 C 
BRANCH  23  24
ATOM     24  C   UNL     1      18.573  -6.475  43.826  1.00  0.00    -0.000 C 
BRANCH  24  25
ATOM     25  C   UNL     1      19.219  -5.353  43.002  1.00  0.00    -0.003 C 
ATOM     26  C   UNL     1      19.164  -4.023  43.750  1.00  0.00     0.004 C 
ENDBRANCH  24  25
ENDBRANCH  23  24
ENDBRANCH  22  23
ENDBRANCH  21  22
ENDBRANCH  20  21
ENDBRANCH  19  20
ENDBRANCH  18  19
ENDBRANCH  17  18
ENDBRANCH  16  17
ENDBRANCH  15  16
ENDBRANCH   1  15
TORSDOF 22
ENDMDL
MODEL 7
REMARK VINA RESULT:    -4.272      1.225      2.900
REMARK INTER + INTRA:         -13.992
REMARK INTER:                 -10.107
REMARK INTRA:                  -3.885
REMARK UNBOUND:                -4.225
REMARK SMILES CCCCCCCCCCCCCCCCCCCCCCCC(=O)[O-]
REMARK SMILES IDX 13 1 14 2 15 3 16 4 17 5 18 6 19 7 20 8 21 9 22 10 23 11
REMARK SMILES IDX 24 12 25 13 26 14 12 15 11 16 10 17 9 18 8 19 7 20 6 21 5 22
REMARK SMILES IDX 4 23 3 24 2 25 1 26
REMARK H PARENT
REMARK Flexibility Score: inf
ROOT
ATOM      1  C   UNL     1      19.569  -6.601  47.730  1.00  0.00     0.000 C 
ENDROOT
BRANCH   1   2
ATOM      2  C   UNL     1      20.760  -6.866  48.675  1.00  0.00     0.000 C 
BRANCH   2   3
ATOM      3  C   UNL     1      20.384  -7.222  50.129  1.00  0.00     0.000 C 
BRANCH   3   4
ATOM      4  C   UNL     1      21.565  -7.589  51.046  1.00  0.00     0.000 C 
BRANCH   4   5
ATOM      5  C   UNL     1      22.751  -6.620  50.914  1.00  0.00     0.000 C 
BRANCH   5   6
ATOM      6  C   UNL     1      23.964  -7.241  50.197  1.00  0.00     0.000 C 
BRANCH   6   7
ATOM      7  C   UNL     1      25.202  -6.332  50.087  1.00  0.00     0.000 C 
BRANCH   7   8
ATOM      8  C   UNL     1      25.106  -5.327  48.927  1.00  0.00     0.000 C 
BRANCH   8   9
ATOM      9  C   UNL     1      25.299  -3.874  49.392  1.00  0.00     0.000 C 
BRANCH   9  10
ATOM     10  C   UNL     1      24.037  -3.292  50.048  1.00  0.00     0.006 C 
BRANCH  10  11
ATOM     11  C   UNL     1      22.873  -3.248  49.054  1.00  0.00     0.053 C 
BRANCH  11  12
ATOM     12  C   UNL     1      22.468  -1.833  48.781  1.00  0.00     0.041 C 
ATOM     13  O   UNL     1      21.893  -1.157  49.673  1.00  0.00    -0.550 OA
ATOM     14  O   UNL     1      22.672  -1.281  47.522  1.00  0.00    -0.550 OA
ENDBRANCH  11  12
ENDBRANCH  10  11
ENDBRANCH   9  10
ENDBRANCH   8   9
ENDBRANCH   7   8
ENDBRANCH   6   7
ENDBRANCH   5   6
ENDBRANCH   4   5
ENDBRANCH   3   4
ENDBRANCH   2   3
ENDBRANCH   1   2
BRANCH   1  15
ATOM     15  C   UNL     1      19.762  -7.126  46.297  1.00  0.00     0.000 C 
BRANCH  15  16
ATOM     16  C   UNL     1      18.454  -7.122  45.487  1.00  0.00     0.000 C 
BRANCH  16  17
ATOM     17  C   UNL     1      18.707  -7.207  43.973  1.00  0.00     0.000 C 
BRANCH  17  18
ATOM     18  C   UNL     1      20.177  -7.506  43.646  1.00  0.00    -0.000 C 
BRANCH  18  19
ATOM     19  C   UNL     1      20.817  -6.334  42.885  1.00  0.00    -0.000 C 
BRANCH  19  20
ATOM     20  C   UNL     1      19.828  -5.186  42.616  1.00  0.00    -0.000 C 
BRANCH  20  21
ATOM     21  C   UNL     1      20.192  -3.838  43.277  1.00  0.00    -0.000 C 
BRANCH  21  22
ATOM     22  C   UNL     1      19.915  -3.746  44.790  1.00  0.00    -0.000 C 
BRANCH  22  23
ATOM     23  C   UNL     1      21.197  -3.822  45.638  1.00  0.00    -0.000 C 
BRANCH  23  24
ATOM     24  C   UNL     1      22.468  -3.544  44.818  1.00  0.00    -0.000 C 
BRANCH  24  25
ATOM     25  C   UNL     1      23.581  -4.571  45.072  1.00  0.00    -0.003 C 
ATOM     26  C   UNL     1      23.046  -5.780  45.837  1.00  0.00     0.004 C 
ENDBRANCH  24  25
ENDBRANCH  23  24
ENDBRANCH  22  23
ENDBRANCH  21  22
ENDBRANCH  20  21
ENDBRANCH  19  20
ENDBRANCH  18  19
ENDBRANCH  17  18
ENDBRANCH  16  17
ENDBRANCH  15  16
ENDBRANCH   1  15
TORSDOF 22
ENDMDL
MODEL 8
REMARK VINA RESULT:    -4.247      1.341      2.819
REMARK INTER + INTRA:         -13.934
REMARK INTER:                  -9.905
REMARK INTRA:                  -4.029
REMARK UNBOUND:                -4.225
REMARK SMILES CCCCCCCCCCCCCCCCCCCCCCCC(=O)[O-]
REMARK SMILES IDX 13 1 14 2 15 3 16 4 17 5 18 6 19 7 20 8 21 9 22 10 23 11
REMARK SMILES IDX 24 12 25 13 26 14 12 15 11 16 10 17 9 18 8 19 7 20 6 21 5 22
REMARK SMILES IDX 4 23 3 24 2 25 1 26
REMARK H PARENT
REMARK Flexibility Score: inf
ROOT
ATOM      1  C   UNL     1      20.735  -6.275  47.867  1.00  0.00     0.000 C 
ENDROOT
BRANCH   1   2
ATOM      2  C   UNL     1      20.159  -7.372  48.787  1.00  0.00     0.000 C 
BRANCH   2   3
ATOM      3  C   UNL     1      20.160  -7.038  50.294  1.00  0.00     0.000 C 
BRANCH   3   4
ATOM      4  C   UNL     1      21.186  -7.814  51.141  1.00  0.00     0.000 C 
BRANCH   4   5
ATOM      5  C   UNL     1      22.629  -7.329  50.929  1.00  0.00     0.000 C 
BRANCH   5   6
ATOM      6  C   UNL     1      22.772  -5.798  51.022  1.00  0.00     0.000 C 
BRANCH   6   7
ATOM      7  C   UNL     1      24.212  -5.262  50.916  1.00  0.00     0.000 C 
BRANCH   7   8
ATOM      8  C   UNL     1      24.549  -4.726  49.515  1.00  0.00     0.000 C 
BRANCH   8   9
ATOM      9  C   UNL     1      23.367  -3.981  48.870  1.00  0.00     0.000 C 
BRANCH   9  10
ATOM     10  C   UNL     1      23.808  -2.715  48.120  1.00  0.00     0.006 C 
BRANCH  10  11
ATOM     11  C   UNL     1      24.001  -1.544  49.087  1.00  0.00     0.053 C 
BRANCH  11  12
ATOM     12  C   UNL     1      22.703  -1.180  49.739  1.00  0.00     0.041 C 
ATOM     13  O   UNL     1      22.560  -1.318  50.982  1.00  0.00    -0.550 OA
ATOM     14  O   UNL     1      21.634  -0.745  48.966  1.00  0.00    -0.550 OA
ENDBRANCH  11  12
ENDBRANCH  10  11
ENDBRANCH   9  10
ENDBRANCH   8   9
ENDBRANCH   7   8
ENDBRANCH   6   7
ENDBRANCH   5   6
ENDBRANCH   4   5
ENDBRANCH   3   4
ENDBRANCH   2   3
ENDBRANCH   1   2
BRANCH   1  15
ATOM     15  C   UNL     1      21.941  -6.719  47.022  1.00  0.00     0.000 C 
BRANCH  15  16
ATOM     16  C   UNL     1      22.047  -8.250  46.907  1.00  0.00     0.000 C 
BRANCH  16  17
ATOM     17  C   UNL     1      22.241  -8.711  45.452  1.00  0.00     0.000 C 
BRANCH  17  18
ATOM     18  C   UNL     1      21.902  -7.605  44.442  1.00  0.00    -0.000 C 
BRANCH  18  19
ATOM     19  C   UNL     1      20.639  -7.962  43.643  1.00  0.00    -0.000 C 
BRANCH  19  20
ATOM     20  C   UNL     1      19.343  -7.724  44.438  1.00  0.00    -0.000 C 
BRANCH  20  21
ATOM     21  C   UNL     1      18.654  -6.365  44.179  1.00  0.00    -0.000 C 
BRANCH  21  22
ATOM     22  C   UNL     1      19.216  -5.553  42.997  1.00  0.00    -0.000 C 
BRANCH  22  23
ATOM     23  C   UNL     1      19.837  -4.214  43.433  1.00  0.00    -0.000 C 
BRANCH  23  24
ATOM     24  C   UNL     1      20.080  -4.139  44.950  1.00  0.00    -0.000 C 
BRANCH  24  25
ATOM     25  C   UNL     1      21.315  -3.304  45.318  1.00  0.00    -0.003 C 
ATOM     26  C   UNL     1      22.579  -3.893  44.697  1.00  0.00     0.004 C 
ENDBRANCH  24  25
ENDBRANCH  23  24
ENDBRANCH  22  23
ENDBRANCH  21  22
ENDBRANCH  20  21
ENDBRANCH  19  20
ENDBRANCH  18  19
ENDBRANCH  17  18
ENDBRANCH  16  17
ENDBRANCH  15  16
ENDBRANCH   1  15
TORSDOF 22
ENDMDL
MODEL 9
REMARK VINA RESULT:    -4.214      2.242      5.693
REMARK INTER + INTRA:         -13.860
REMARK INTER:                  -9.514
REMARK INTRA:                  -4.347
REMARK UNBOUND:                -4.225
REMARK SMILES CCCCCCCCCCCCCCCCCCCCCCCC(=O)[O-]
REMARK SMILES IDX 13 1 14 2 15 3 16 4 17 5 18 6 19 7 20 8 21 9 22 10 23 11
REMARK SMILES IDX 24 12 25 13 26 14 12 15 11 16 10 17 9 18 8 19 7 20 6 21 5 22
REMARK SMILES IDX 4 23 3 24 2 25 1 26
REMARK H PARENT
REMARK Flexibility Score: inf
ROOT
ATOM      1  C   UNL     1      24.406  -6.960  49.466  1.00  0.00     0.000 C 
ENDROOT
BRANCH   1   2
ATOM      2  C   UNL     1      23.957  -5.625  50.098  1.00  0.00     0.000 C 
BRANCH   2   3
ATOM      3  C   UNL     1      22.671  -5.697  50.949  1.00  0.00     0.000 C 
BRANCH   3   4
ATOM      4  C   UNL     1      21.970  -7.067  50.972  1.00  0.00     0.000 C 
BRANCH   4   5
ATOM      5  C   UNL     1      20.486  -6.989  50.579  1.00  0.00     0.000 C 
BRANCH   5   6
ATOM      6  C   UNL     1      20.220  -7.423  49.126  1.00  0.00     0.000 C 
BRANCH   6   7
ATOM      7  C   UNL     1      20.088  -6.277  48.107  1.00  0.00     0.000 C 
BRANCH   7   8
ATOM      8  C   UNL     1      19.418  -6.717  46.794  1.00  0.00     0.000 C 
BRANCH   8   9
ATOM      9  C   UNL     1      20.360  -7.546  45.904  1.00  0.00     0.000 C 
BRANCH   9  10
ATOM     10  C   UNL     1      19.820  -7.717  44.475  1.00  0.00     0.006 C 
BRANCH  10  11
ATOM     11  C   UNL     1      18.764  -6.654  44.157  1.00  0.00     0.053 C 
BRANCH  11  12
ATOM     12  C   UNL     1      19.359  -5.550  43.340  1.00  0.00     0.041 C 
ATOM     13  O   UNL     1      18.774  -4.438  43.258  1.00  0.00    -0.550 OA
ATOM     14  O   UNL     1      20.528  -5.768  42.621  1.00  0.00    -0.550 OA
ENDBRANCH  11  12
ENDBRANCH  10  11
ENDBRANCH   9  10
ENDBRANCH   8   9
ENDBRANCH   7   8
ENDBRANCH   6   7
ENDBRANCH   5   6
ENDBRANCH   4   5
ENDBRANCH   3   4
ENDBRANCH   2   3
ENDBRANCH   1   2
BRANCH   1  15
ATOM     15  C   UNL     1      23.960  -7.157  48.007  1.00  0.00     0.000 C 
BRANCH  15  16
ATOM     16  C   UNL     1      23.599  -5.830  47.318  1.00  0.00     0.000 C 
BRANCH  16  17
ATOM     17  C   UNL     1      24.253  -5.698  45.933  1.00  0.00     0.000 C 
BRANCH  17  18
ATOM     18  C   UNL     1      23.300  -5.086  44.895  1.00  0.00    -0.000 C 
BRANCH  18  19
ATOM     19  C   UNL     1      22.078  -4.456  45.580  1.00  0.00    -0.000 C 
BRANCH  19  20
ATOM     20  C   UNL     1      21.724  -3.070  45.012  1.00  0.00    -0.000 C 
BRANCH  20  21
ATOM     21  C   UNL     1      22.931  -2.142  44.745  1.00  0.00    -0.000 C 
BRANCH  21  22
ATOM     22  C   UNL     1      23.432  -1.341  45.962  1.00  0.00    -0.000 C 
BRANCH  22  23
ATOM     23  C   UNL     1      24.512  -2.088  46.765  1.00  0.00    -0.000 C 
BRANCH  23  24
ATOM     24  C   UNL     1      24.135  -2.262  48.246  1.00  0.00    -0.000 C 
BRANCH  24  25
ATOM     25  C   UNL     1      22.621  -2.204  48.489  1.00  0.00    -0.003 C 
ATOM     26  C   UNL     1      22.281  -1.217  49.603  1.00  0.00     0.004 C 
ENDBRANCH  24  25
ENDBRANCH  23  24
ENDBRANCH  22  23
ENDBRANCH  21  22
ENDBRANCH  20  21
ENDBRANCH  19  20
ENDBRANCH  18  19
ENDBRANCH  17  18
ENDBRANCH  16  17
ENDBRANCH  15  16
ENDBRANCH   1  15
TORSDOF 22
ENDMDL
