MODEL 1
REMARK VINA RESULT:    -2.291      0.000      0.000
REMARK INTER + INTRA:          -6.798
REMARK INTER:                  -4.970
REMARK INTRA:                  -1.828
REMARK UNBOUND:                -1.828
REMARK SMILES CCCCCCCCCCCCCCCCCCCCCC(=O)[O-]
REMARK SMILES IDX 12 1 11 2 10 3 9 4 8 5 7 6 6 7 5 8 4 9 3 10 2 11 1 12 13 13
REMARK SMILES IDX 14 14 15 15 16 16 17 17 18 18 19 19 20 20 21 21 22 22 23 23
REMARK SMILES IDX 24 24
REMARK H PARENT
REMARK Flexibility Score: inf
ROOT
ATOM      1  C   UNL     1       0.089  21.249   5.286  1.00  0.00     0.000 C 
ENDROOT
BRANCH   1   2
ATOM      2  C   UNL     1      -1.248  21.749   4.727  1.00  0.00     0.000 C 
BRANCH   2   3
ATOM      3  C   UNL     1      -1.420  21.341   3.256  1.00  0.00     0.000 C 
BRANCH   3   4
ATOM      4  C   UNL     1      -2.659  21.998   2.612  1.00  0.00    -0.000 C 
BRANCH   4   5
ATOM      5  C   UNL     1      -3.879  21.065   2.520  1.00  0.00    -0.000 C 
BRANCH   5   6
ATOM      6  C   UNL     1      -4.658  20.968   3.842  1.00  0.00    -0.000 C 
BRANCH   6   7
ATOM      7  C   UNL     1      -6.067  21.584   3.760  1.00  0.00    -0.000 C 
BRANCH   7   8
ATOM      8  C   UNL     1      -6.694  21.624   2.352  1.00  0.00    -0.000 C 
BRANCH   8   9
ATOM      9  C   UNL     1      -8.068  22.314   2.322  1.00  0.00    -0.000 C 
BRANCH   9  10
ATOM     10  C   UNL     1      -9.212  21.391   2.777  1.00  0.00    -0.000 C 
BRANCH  10  11
ATOM     11  C   UNL     1     -10.221  22.032   3.748  1.00  0.00    -0.003 C 
ATOM     12  C   UNL     1      -9.817  21.886   5.214  1.00  0.00     0.004 C 
ENDBRANCH  10  11
ENDBRANCH   9  10
ENDBRANCH   8   9
ENDBRANCH   7   8
ENDBRANCH   6   7
ENDBRANCH   5   6
ENDBRANCH   4   5
ENDBRANCH   3   4
ENDBRANCH   2   3
ENDBRANCH   1   2
BRANCH   1  13
ATOM     13  C   UNL     1       1.029  22.424   5.596  1.00  0.00     0.000 C 
BRANCH  13  14
ATOM     14  C   UNL     1       2.440  22.222   5.021  1.00  0.00     0.000 C 
BRANCH  14  15
ATOM     15  C   UNL     1       2.459  22.209   3.485  1.00  0.00     0.000 C 
BRANCH  15  16
ATOM     16  C   UNL     1       1.864  23.508   2.921  1.00  0.00     0.000 C 
BRANCH  16  17
ATOM     17  C   UNL     1       2.876  24.324   2.096  1.00  0.00     0.000 C 
BRANCH  17  18
ATOM     18  C   UNL     1       3.895  25.128   2.929  1.00  0.00     0.000 C 
BRANCH  18  19
ATOM     19  C   UNL     1       5.365  24.696   2.760  1.00  0.00     0.000 C 
BRANCH  19  20
ATOM     20  C   UNL     1       6.167  24.591   4.073  1.00  0.00     0.006 C 
BRANCH  20  21
ATOM     21  C   UNL     1       5.303  24.546   5.343  1.00  0.00     0.053 C 
BRANCH  21  22
ATOM     22  C   UNL     1       5.755  23.476   6.290  1.00  0.00     0.041 C 
ATOM     23  O   UNL     1       5.737  23.680   7.532  1.00  0.00    -0.550 OA
ATOM     24  O   UNL     1       6.169  22.244   5.799  1.00  0.00    -0.550 OA
ENDBRANCH  21  22
ENDBRANCH  20  21
ENDBRANCH  19  20
ENDBRANCH  18  19
ENDBRANCH  17  18
ENDBRANCH  16  17
ENDBRANCH  15  16
ENDBRANCH  14  15
ENDBRANCH  13  14
ENDBRANCH   1  13
TORSDOF 20
ENDMDL
MODEL 2
REMARK VINA RESULT:    -2.167      2.081      4.618
REMARK INTER + INTRA:          -6.528
REMARK INTER:                  -5.417
REMARK INTRA:                  -1.111
REMARK UNBOUND:                -1.828
REMARK SMILES CCCCCCCCCCCCCCCCCCCCCC(=O)[O-]
REMARK SMILES IDX 12 1 11 2 10 3 9 4 8 5 7 6 6 7 5 8 4 9 3 10 2 11 1 12 13 13
REMARK SMILES IDX 14 14 15 15 16 16 17 17 18 18 19 19 20 20 21 21 22 22 23 23
REMARK SMILES IDX 24 24
REMARK H PARENT
REMARK Flexibility Score: inf
ROOT
ATOM      1  C   UNL     1      -4.876  21.292   3.323  1.00  0.00     0.000 C 
ENDROOT
BRANCH   1   2
ATOM      2  C   UNL     1      -6.152  21.907   2.735  1.00  0.00     0.000 C 
BRANCH   2   3
ATOM      3  C   UNL     1      -7.401  21.150   3.209  1.00  0.00     0.000 C 
BRANCH   3   4
ATOM      4  C   UNL     1      -8.700  21.755   2.637  1.00  0.00    -0.000 C 
BRANCH   4   5
ATOM      5  C   UNL     1      -8.487  23.074   1.875  1.00  0.00    -0.000 C 
BRANCH   5   6
ATOM      6  C   UNL     1      -9.545  24.137   2.213  1.00  0.00    -0.000 C 
BRANCH   6   7
ATOM      7  C   UNL     1     -10.544  23.674   3.291  1.00  0.00    -0.000 C 
BRANCH   7   8
ATOM      8  C   UNL     1     -11.963  24.262   3.177  1.00  0.00    -0.000 C 
BRANCH   8   9
ATOM      9  C   UNL     1     -13.015  23.224   2.750  1.00  0.00    -0.000 C 
BRANCH   9  10
ATOM     10  C   UNL     1     -12.740  21.822   3.322  1.00  0.00    -0.000 C 
BRANCH  10  11
ATOM     11  C   UNL     1     -12.982  21.677   4.836  1.00  0.00    -0.003 C 
ATOM     12  C   UNL     1     -11.785  21.087   5.580  1.00  0.00     0.004 C 
ENDBRANCH  10  11
ENDBRANCH   9  10
ENDBRANCH   8   9
ENDBRANCH   7   8
ENDBRANCH   6   7
ENDBRANCH   5   6
ENDBRANCH   4   5
ENDBRANCH   3   4
ENDBRANCH   2   3
ENDBRANCH   1   2
BRANCH   1  13
ATOM     13  C   UNL     1      -3.643  21.692   2.499  1.00  0.00     0.000 C 
BRANCH  13  14
ATOM     14  C   UNL     1      -2.360  20.992   2.975  1.00  0.00     0.000 C 
BRANCH  14  15
ATOM     15  C   UNL     1      -1.988  21.352   4.421  1.00  0.00     0.000 C 
BRANCH  15  16
ATOM     16  C   UNL     1      -0.481  21.617   4.547  1.00  0.00     0.000 C 
BRANCH  16  17
ATOM     17  C   UNL     1      -0.142  22.649   5.640  1.00  0.00     0.000 C 
BRANCH  17  18
ATOM     18  C   UNL     1       0.936  22.199   6.646  1.00  0.00     0.000 C 
BRANCH  18  19
ATOM     19  C   UNL     1       2.182  23.103   6.719  1.00  0.00     0.000 C 
BRANCH  19  20
ATOM     20  C   UNL     1       3.502  22.426   6.299  1.00  0.00     0.006 C 
BRANCH  20  21
ATOM     21  C   UNL     1       4.748  22.964   7.021  1.00  0.00     0.053 C 
BRANCH  21  22
ATOM     22  C   UNL     1       5.383  24.096   6.272  1.00  0.00     0.041 C 
ATOM     23  O   UNL     1       6.143  24.902   6.867  1.00  0.00    -0.550 OA
ATOM     24  O   UNL     1       5.156  24.240   4.909  1.00  0.00    -0.550 OA
ENDBRANCH  21  22
ENDBRANCH  20  21
ENDBRANCH  19  20
ENDBRANCH  18  19
ENDBRANCH  17  18
ENDBRANCH  16  17
ENDBRANCH  15  16
ENDBRANCH  14  15
ENDBRANCH  13  14
ENDBRANCH   1  13
TORSDOF 20
ENDMDL
MODEL 3
REMARK VINA RESULT:    -2.110      4.902     11.379
REMARK INTER + INTRA:          -6.404
REMARK INTER:                  -4.430
REMARK INTRA:                  -1.974
REMARK UNBOUND:                -1.828
REMARK SMILES CCCCCCCCCCCCCCCCCCCCCC(=O)[O-]
REMARK SMILES IDX 12 1 11 2 10 3 9 4 8 5 7 6 6 7 5 8 4 9 3 10 2 11 1 12 13 13
REMARK SMILES IDX 14 14 15 15 16 16 17 17 18 18 19 19 20 20 21 21 22 22 23 23
REMARK SMILES IDX 24 24
REMARK H PARENT
REMARK Flexibility Score: inf
ROOT
ATOM      1  C   UNL     1       1.833  23.034   4.967  1.00  0.00     0.000 C 
ENDROOT
BRANCH   1   2
ATOM      2  C   UNL     1       2.411  23.050   3.547  1.00  0.00     0.000 C 
BRANCH   2   3
ATOM      3  C   UNL     1       2.983  21.676   3.166  1.00  0.00     0.000 C 
BRANCH   3   4
ATOM      4  C   UNL     1       4.429  21.774   2.637  1.00  0.00    -0.000 C 
BRANCH   4   5
ATOM      5  C   UNL     1       5.495  21.353   3.664  1.00  0.00    -0.000 C 
BRANCH   5   6
ATOM      6  C   UNL     1       6.585  22.418   3.865  1.00  0.00    -0.000 C 
BRANCH   6   7
ATOM      7  C   UNL     1       6.088  23.850   3.588  1.00  0.00    -0.000 C 
BRANCH   7   8
ATOM      8  C   UNL     1       6.239  24.843   4.757  1.00  0.00    -0.000 C 
BRANCH   8   9
ATOM      9  C   UNL     1       6.924  24.228   5.988  1.00  0.00    -0.000 C 
BRANCH   9  10
ATOM     10  C   UNL     1       6.018  24.209   7.232  1.00  0.00    -0.000 C 
BRANCH  10  11
ATOM     11  C   UNL     1       4.752  23.342   7.104  1.00  0.00    -0.003 C 
ATOM     12  C   UNL     1       5.015  21.858   7.352  1.00  0.00     0.004 C 
ENDBRANCH  10  11
ENDBRANCH   9  10
ENDBRANCH   8   9
ENDBRANCH   7   8
ENDBRANCH   6   7
ENDBRANCH   5   6
ENDBRANCH   4   5
ENDBRANCH   3   4
ENDBRANCH   2   3
ENDBRANCH   1   2
BRANCH   1  13
ATOM     13  C   UNL     1       0.594  22.130   5.045  1.00  0.00     0.000 C 
BRANCH  13  14
ATOM     14  C   UNL     1      -0.443  22.450   3.956  1.00  0.00     0.000 C 
BRANCH  14  15
ATOM     15  C   UNL     1      -1.709  21.587   4.069  1.00  0.00     0.000 C 
BRANCH  15  16
ATOM     16  C   UNL     1      -2.199  21.153   2.680  1.00  0.00     0.000 C 
BRANCH  16  17
ATOM     17  C   UNL     1      -3.735  21.102   2.574  1.00  0.00     0.000 C 
BRANCH  17  18
ATOM     18  C   UNL     1      -4.472  20.885   3.911  1.00  0.00     0.000 C 
BRANCH  18  19
ATOM     19  C   UNL     1      -5.779  21.684   4.076  1.00  0.00     0.000 C 
BRANCH  19  20
ATOM     20  C   UNL     1      -7.070  20.875   3.843  1.00  0.00     0.006 C 
BRANCH  20  21
ATOM     21  C   UNL     1      -8.145  21.616   3.031  1.00  0.00     0.053 C 
BRANCH  21  22
ATOM     22  C   UNL     1      -9.504  21.482   3.648  1.00  0.00     0.041 C 
ATOM     23  O   UNL     1     -10.536  21.598   2.939  1.00  0.00    -0.550 OA
ATOM     24  O   UNL     1      -9.626  21.198   5.003  1.00  0.00    -0.550 OA
ENDBRANCH  21  22
ENDBRANCH  20  21
ENDBRANCH  19  20
ENDBRANCH  18  19
ENDBRANCH  17  18
ENDBRANCH  16  17
ENDBRANCH  15  16
ENDBRANCH  14  15
ENDBRANCH  13  14
ENDBRANCH   1  13
TORSDOF 20
ENDMDL
MODEL 4
REMARK VINA RESULT:    -2.089      1.344      2.015
REMARK INTER + INTRA:          -6.360
REMARK INTER:                  -5.146
REMARK INTRA:                  -1.213
REMARK UNBOUND:                -1.828
REMARK SMILES CCCCCCCCCCCCCCCCCCCCCC(=O)[O-]
REMARK SMILES IDX 12 1 11 2 10 3 9 4 8 5 7 6 6 7 5 8 4 9 3 10 2 11 1 12 13 13
REMARK SMILES IDX 14 14 15 15 16 16 17 17 18 18 19 19 20 20 21 21 22 22 23 23
REMARK SMILES IDX 24 24
REMARK H PARENT
REMARK Flexibility Score: inf
ROOT
ATOM      1  C   UNL     1      -0.743  22.529   4.679  1.00  0.00     0.000 C 
ENDROOT
BRANCH   1   2
ATOM      2  C   UNL     1      -1.635  21.308   4.930  1.00  0.00     0.000 C 
BRANCH   2   3
ATOM      3  C   UNL     1      -2.362  20.880   3.647  1.00  0.00     0.000 C 
BRANCH   3   4
ATOM      4  C   UNL     1      -3.896  20.877   3.821  1.00  0.00    -0.000 C 
BRANCH   4   5
ATOM      5  C   UNL     1      -4.628  21.859   2.890  1.00  0.00    -0.000 C 
BRANCH   5   6
ATOM      6  C   UNL     1      -5.673  21.171   1.998  1.00  0.00    -0.000 C 
BRANCH   6   7
ATOM      7  C   UNL     1      -7.081  21.782   2.134  1.00  0.00    -0.000 C 
BRANCH   7   8
ATOM      8  C   UNL     1      -8.133  20.882   2.811  1.00  0.00    -0.000 C 
BRANCH   8   9
ATOM      9  C   UNL     1      -8.794  21.540   4.034  1.00  0.00    -0.000 C 
BRANCH   9  10
ATOM     10  C   UNL     1     -10.295  21.810   3.832  1.00  0.00    -0.000 C 
BRANCH  10  11
ATOM     11  C   UNL     1     -10.691  23.297   3.790  1.00  0.00    -0.003 C 
ATOM     12  C   UNL     1     -12.198  23.519   3.914  1.00  0.00     0.004 C 
ENDBRANCH  10  11
ENDBRANCH   9  10
ENDBRANCH   8   9
ENDBRANCH   7   8
ENDBRANCH   6   7
ENDBRANCH   5   6
ENDBRANCH   4   5
ENDBRANCH   3   4
ENDBRANCH   2   3
ENDBRANCH   1   2
BRANCH   1  13
ATOM     13  C   UNL     1      -0.644  22.838   3.178  1.00  0.00     0.000 C 
BRANCH  13  14
ATOM     14  C   UNL     1      -0.675  24.346   2.880  1.00  0.00     0.000 C 
BRANCH  14  15
ATOM     15  C   UNL     1       0.649  24.864   2.300  1.00  0.00     0.000 C 
BRANCH  15  16
ATOM     16  C   UNL     1       1.732  23.777   2.354  1.00  0.00     0.000 C 
BRANCH  16  17
ATOM     17  C   UNL     1       3.160  24.345   2.257  1.00  0.00     0.000 C 
BRANCH  17  18
ATOM     18  C   UNL     1       4.279  23.362   2.656  1.00  0.00     0.000 C 
BRANCH  18  19
ATOM     19  C   UNL     1       5.328  23.926   3.634  1.00  0.00     0.000 C 
BRANCH  19  20
ATOM     20  C   UNL     1       4.764  24.414   4.983  1.00  0.00     0.006 C 
BRANCH  20  21
ATOM     21  C   UNL     1       4.287  23.290   5.916  1.00  0.00     0.053 C 
BRANCH  21  22
ATOM     22  C   UNL     1       5.103  23.220   7.170  1.00  0.00     0.041 C 
ATOM     23  O   UNL     1       5.866  24.171   7.484  1.00  0.00    -0.550 OA
ATOM     24  O   UNL     1       4.997  22.116   8.007  1.00  0.00    -0.550 OA
ENDBRANCH  21  22
ENDBRANCH  20  21
ENDBRANCH  19  20
ENDBRANCH  18  19
ENDBRANCH  17  18
ENDBRANCH  16  17
ENDBRANCH  15  16
ENDBRANCH  14  15
ENDBRANCH  13  14
ENDBRANCH   1  13
TORSDOF 20
ENDMDL
MODEL 5
REMARK VINA RESULT:    -2.063      3.510      6.775
REMARK INTER + INTRA:          -6.304
REMARK INTER:                  -3.322
REMARK INTRA:                  -2.982
REMARK UNBOUND:                -1.828
REMARK SMILES CCCCCCCCCCCCCCCCCCCCCC(=O)[O-]
REMARK SMILES IDX 12 1 11 2 10 3 9 4 8 5 7 6 6 7 5 8 4 9 3 10 2 11 1 12 13 13
REMARK SMILES IDX 14 14 15 15 16 16 17 17 18 18 19 19 20 20 21 21 22 22 23 23
REMARK SMILES IDX 24 24
REMARK H PARENT
REMARK Flexibility Score: inf
ROOT
ATOM      1  C   UNL     1      -0.397  21.961   5.732  1.00  0.00     0.000 C 
ENDROOT
BRANCH   1   2
ATOM      2  C   UNL     1      -1.521  22.566   4.883  1.00  0.00     0.000 C 
BRANCH   2   3
ATOM      3  C   UNL     1      -2.034  21.558   3.844  1.00  0.00     0.000 C 
BRANCH   3   4
ATOM      4  C   UNL     1      -1.961  22.116   2.407  1.00  0.00    -0.000 C 
BRANCH   4   5
ATOM      5  C   UNL     1      -0.790  23.086   2.176  1.00  0.00    -0.000 C 
BRANCH   5   6
ATOM      6  C   UNL     1       0.580  22.392   2.232  1.00  0.00    -0.000 C 
BRANCH   6   7
ATOM      7  C   UNL     1       1.748  23.332   1.876  1.00  0.00    -0.000 C 
BRANCH   7   8
ATOM      8  C   UNL     1       1.852  24.614   2.724  1.00  0.00    -0.000 C 
BRANCH   8   9
ATOM      9  C   UNL     1       2.311  25.838   1.914  1.00  0.00    -0.000 C 
BRANCH   9  10
ATOM     10  C   UNL     1       3.829  26.076   1.997  1.00  0.00    -0.000 C 
BRANCH  10  11
ATOM     11  C   UNL     1       4.568  25.224   3.044  1.00  0.00    -0.003 C 
ATOM     12  C   UNL     1       5.986  24.847   2.618  1.00  0.00     0.004 C 
ENDBRANCH  10  11
ENDBRANCH   9  10
ENDBRANCH   8   9
ENDBRANCH   7   8
ENDBRANCH   6   7
ENDBRANCH   5   6
ENDBRANCH   4   5
ENDBRANCH   3   4
ENDBRANCH   2   3
ENDBRANCH   1   2
BRANCH   1  13
ATOM     13  C   UNL     1       0.469  23.063   6.361  1.00  0.00     0.000 C 
BRANCH  13  14
ATOM     14  C   UNL     1       1.655  22.499   7.162  1.00  0.00     0.000 C 
BRANCH  14  15
ATOM     15  C   UNL     1       2.427  21.415   6.396  1.00  0.00     0.000 C 
BRANCH  15  16
ATOM     16  C   UNL     1       3.012  21.980   5.093  1.00  0.00     0.000 C 
BRANCH  16  17
ATOM     17  C   UNL     1       3.665  20.900   4.210  1.00  0.00     0.000 C 
BRANCH  17  18
ATOM     18  C   UNL     1       4.936  21.352   3.463  1.00  0.00     0.000 C 
BRANCH  18  19
ATOM     19  C   UNL     1       6.264  21.046   4.184  1.00  0.00     0.000 C 
BRANCH  19  20
ATOM     20  C   UNL     1       6.874  22.233   4.956  1.00  0.00     0.006 C 
BRANCH  20  21
ATOM     21  C   UNL     1       6.672  22.170   6.478  1.00  0.00     0.053 C 
BRANCH  21  22
ATOM     22  C   UNL     1       5.876  23.334   6.984  1.00  0.00     0.041 C 
ATOM     23  O   UNL     1       5.152  23.210   8.006  1.00  0.00    -0.550 OA
ATOM     24  O   UNL     1       5.959  24.564   6.343  1.00  0.00    -0.550 OA
ENDBRANCH  21  22
ENDBRANCH  20  21
ENDBRANCH  19  20
ENDBRANCH  18  19
ENDBRANCH  17  18
ENDBRANCH  16  17
ENDBRANCH  15  16
ENDBRANCH  14  15
ENDBRANCH  13  14
ENDBRANCH   1  13
TORSDOF 20
ENDMDL
MODEL 6
REMARK VINA RESULT:    -1.980      5.162     11.840
REMARK INTER + INTRA:          -6.124
REMARK INTER:                  -5.281
REMARK INTRA:                  -0.843
REMARK UNBOUND:                -1.828
REMARK SMILES CCCCCCCCCCCCCCCCCCCCCC(=O)[O-]
REMARK SMILES IDX 12 1 11 2 10 3 9 4 8 5 7 6 6 7 5 8 4 9 3 10 2 11 1 12 13 13
REMARK SMILES IDX 14 14 15 15 16 16 17 17 18 18 19 19 20 20 21 21 22 22 23 23
REMARK SMILES IDX 24 24
REMARK H PARENT
REMARK Flexibility Score: inf
ROOT
ATOM      1  C   UNL     1      -0.723  22.128   6.418  1.00  0.00     0.000 C 
ENDROOT
BRANCH   1   2
ATOM      2  C   UNL     1      -0.193  21.390   7.653  1.00  0.00     0.000 C 
BRANCH   2   3
ATOM      3  C   UNL     1       1.238  20.883   7.423  1.00  0.00     0.000 C 
BRANCH   3   4
ATOM      4  C   UNL     1       2.168  21.990   6.882  1.00  0.00    -0.000 C 
BRANCH   4   5
ATOM      5  C   UNL     1       3.664  21.707   7.106  1.00  0.00    -0.000 C 
BRANCH   5   6
ATOM      6  C   UNL     1       4.577  22.641   6.295  1.00  0.00    -0.000 C 
BRANCH   6   7
ATOM      7  C   UNL     1       5.387  23.609   7.178  1.00  0.00    -0.000 C 
BRANCH   7   8
ATOM      8  C   UNL     1       6.851  23.831   6.750  1.00  0.00    -0.000 C 
BRANCH   8   9
ATOM      9  C   UNL     1       7.029  25.029   5.803  1.00  0.00    -0.000 C 
BRANCH   9  10
ATOM     10  C   UNL     1       6.926  24.639   4.318  1.00  0.00    -0.000 C 
BRANCH  10  11
ATOM     11  C   UNL     1       5.568  24.937   3.657  1.00  0.00    -0.003 C 
ATOM     12  C   UNL     1       5.108  23.832   2.708  1.00  0.00     0.004 C 
ENDBRANCH  10  11
ENDBRANCH   9  10
ENDBRANCH   8   9
ENDBRANCH   7   8
ENDBRANCH   6   7
ENDBRANCH   5   6
ENDBRANCH   4   5
ENDBRANCH   3   4
ENDBRANCH   2   3
ENDBRANCH   1   2
BRANCH   1  13
ATOM     13  C   UNL     1      -0.612  21.250   5.163  1.00  0.00     0.000 C 
BRANCH  13  14
ATOM     14  C   UNL     1      -1.312  21.868   3.942  1.00  0.00     0.000 C 
BRANCH  14  15
ATOM     15  C   UNL     1      -2.301  20.903   3.273  1.00  0.00     0.000 C 
BRANCH  15  16
ATOM     16  C   UNL     1      -3.710  21.070   3.861  1.00  0.00     0.000 C 
BRANCH  16  17
ATOM     17  C   UNL     1      -4.803  21.177   2.781  1.00  0.00     0.000 C 
BRANCH  17  18
ATOM     18  C   UNL     1      -6.236  21.357   3.321  1.00  0.00     0.000 C 
BRANCH  18  19
ATOM     19  C   UNL     1      -7.189  22.145   2.402  1.00  0.00     0.000 C 
BRANCH  19  20
ATOM     20  C   UNL     1      -8.690  21.922   2.676  1.00  0.00     0.006 C 
BRANCH  20  21
ATOM     21  C   UNL     1      -9.005  21.390   4.083  1.00  0.00     0.053 C 
BRANCH  21  22
ATOM     22  C   UNL     1     -10.469  21.467   4.395  1.00  0.00     0.041 C 
ATOM     23  O   UNL     1     -10.868  22.088   5.414  1.00  0.00    -0.550 OA
ATOM     24  O   UNL     1     -11.393  20.877   3.542  1.00  0.00    -0.550 OA
ENDBRANCH  21  22
ENDBRANCH  20  21
ENDBRANCH  19  20
ENDBRANCH  18  19
ENDBRANCH  17  18
ENDBRANCH  16  17
ENDBRANCH  15  16
ENDBRANCH  14  15
ENDBRANCH  13  14
ENDBRANCH   1  13
TORSDOF 20
ENDMDL
MODEL 7
REMARK VINA RESULT:    -1.934      1.862      2.993
REMARK INTER + INTRA:          -6.022
REMARK INTER:                  -4.313
REMARK INTRA:                  -1.709
REMARK UNBOUND:                -1.828
REMARK SMILES CCCCCCCCCCCCCCCCCCCCCC(=O)[O-]
REMARK SMILES IDX 12 1 11 2 10 3 9 4 8 5 7 6 6 7 5 8 4 9 3 10 2 11 1 12 13 13
REMARK SMILES IDX 14 14 15 15 16 16 17 17 18 18 19 19 20 20 21 21 22 22 23 23
REMARK SMILES IDX 24 24
REMARK H PARENT
REMARK Flexibility Score: inf
ROOT
ATOM      1  C   UNL     1       0.064  24.109   2.833  1.00  0.00     0.000 C 
ENDROOT
BRANCH   1   2
ATOM      2  C   UNL     1      -0.416  22.660   2.968  1.00  0.00     0.000 C 
BRANCH   2   3
ATOM      3  C   UNL     1      -1.915  22.542   2.655  1.00  0.00     0.000 C 
BRANCH   3   4
ATOM      4  C   UNL     1      -2.298  21.127   2.169  1.00  0.00    -0.000 C 
BRANCH   4   5
ATOM      5  C   UNL     1      -3.815  20.875   2.130  1.00  0.00    -0.000 C 
BRANCH   5   6
ATOM      6  C   UNL     1      -4.569  21.586   3.266  1.00  0.00    -0.000 C 
BRANCH   6   7
ATOM      7  C   UNL     1      -6.009  21.072   3.450  1.00  0.00    -0.000 C 
BRANCH   7   8
ATOM      8  C   UNL     1      -7.093  21.837   2.665  1.00  0.00    -0.000 C 
BRANCH   8   9
ATOM      9  C   UNL     1      -8.502  21.249   2.850  1.00  0.00    -0.000 C 
BRANCH   9  10
ATOM     10  C   UNL     1      -9.615  22.200   2.378  1.00  0.00    -0.000 C 
BRANCH  10  11
ATOM     11  C   UNL     1     -10.767  22.405   3.378  1.00  0.00    -0.003 C 
ATOM     12  C   UNL     1     -10.963  23.866   3.777  1.00  0.00     0.004 C 
ENDBRANCH  10  11
ENDBRANCH   9  10
ENDBRANCH   8   9
ENDBRANCH   7   8
ENDBRANCH   6   7
ENDBRANCH   5   6
ENDBRANCH   4   5
ENDBRANCH   3   4
ENDBRANCH   2   3
ENDBRANCH   1   2
BRANCH   1  13
ATOM     13  C   UNL     1       1.591  24.197   2.972  1.00  0.00     0.000 C 
BRANCH  13  14
ATOM     14  C   UNL     1       2.267  22.816   2.975  1.00  0.00     0.000 C 
BRANCH  14  15
ATOM     15  C   UNL     1       3.763  22.888   3.311  1.00  0.00     0.000 C 
BRANCH  15  16
ATOM     16  C   UNL     1       4.121  24.250   3.924  1.00  0.00     0.000 C 
BRANCH  16  17
ATOM     17  C   UNL     1       5.011  24.130   5.175  1.00  0.00     0.000 C 
BRANCH  17  18
ATOM     18  C   UNL     1       5.865  22.848   5.245  1.00  0.00     0.000 C 
BRANCH  18  19
ATOM     19  C   UNL     1       5.540  21.908   6.422  1.00  0.00     0.000 C 
BRANCH  19  20
ATOM     20  C   UNL     1       4.208  22.202   7.140  1.00  0.00     0.006 C 
BRANCH  20  21
ATOM     21  C   UNL     1       3.028  21.338   6.668  1.00  0.00     0.053 C 
BRANCH  21  22
ATOM     22  C   UNL     1       1.754  22.124   6.592  1.00  0.00     0.041 C 
ATOM     23  O   UNL     1       0.656  21.535   6.418  1.00  0.00    -0.550 OA
ATOM     24  O   UNL     1       1.780  23.505   6.743  1.00  0.00    -0.550 OA
ENDBRANCH  21  22
ENDBRANCH  20  21
ENDBRANCH  19  20
ENDBRANCH  18  19
ENDBRANCH  17  18
ENDBRANCH  16  17
ENDBRANCH  15  16
ENDBRANCH  14  15
ENDBRANCH  13  14
ENDBRANCH   1  13
TORSDOF 20
ENDMDL
MODEL 8
REMARK VINA RESULT:    -1.923      4.238      9.366
REMARK INTER + INTRA:          -5.999
REMARK INTER:                  -4.074
REMARK INTRA:                  -1.924
REMARK UNBOUND:                -1.828
REMARK SMILES CCCCCCCCCCCCCCCCCCCCCC(=O)[O-]
REMARK SMILES IDX 12 1 11 2 10 3 9 4 8 5 7 6 6 7 5 8 4 9 3 10 2 11 1 12 13 13
REMARK SMILES IDX 14 14 15 15 16 16 17 17 18 18 19 19 20 20 21 21 22 22 23 23
REMARK SMILES IDX 24 24
REMARK H PARENT
REMARK Flexibility Score: inf
ROOT
ATOM      1  C   UNL     1       1.390  23.260   3.648  1.00  0.00     0.000 C 
ENDROOT
BRANCH   1   2
ATOM      2  C   UNL     1       2.173  24.245   2.772  1.00  0.00     0.000 C 
BRANCH   2   3
ATOM      3  C   UNL     1       3.239  23.518   1.938  1.00  0.00     0.000 C 
BRANCH   3   4
ATOM      4  C   UNL     1       4.627  23.551   2.612  1.00  0.00    -0.000 C 
BRANCH   4   5
ATOM      5  C   UNL     1       5.172  24.971   2.841  1.00  0.00    -0.000 C 
BRANCH   5   6
ATOM      6  C   UNL     1       6.522  24.983   3.576  1.00  0.00    -0.000 C 
BRANCH   6   7
ATOM      7  C   UNL     1       6.553  24.044   4.797  1.00  0.00    -0.000 C 
BRANCH   7   8
ATOM      8  C   UNL     1       5.928  24.610   6.086  1.00  0.00    -0.000 C 
BRANCH   8   9
ATOM      9  C   UNL     1       4.638  23.884   6.503  1.00  0.00    -0.000 C 
BRANCH   9  10
ATOM     10  C   UNL     1       4.892  22.731   7.490  1.00  0.00    -0.000 C 
BRANCH  10  11
ATOM     11  C   UNL     1       4.583  21.325   6.945  1.00  0.00    -0.003 C 
ATOM     12  C   UNL     1       3.994  21.344   5.536  1.00  0.00     0.004 C 
ENDBRANCH  10  11
ENDBRANCH   9  10
ENDBRANCH   8   9
ENDBRANCH   7   8
ENDBRANCH   6   7
ENDBRANCH   5   6
ENDBRANCH   4   5
ENDBRANCH   3   4
ENDBRANCH   2   3
ENDBRANCH   1   2
BRANCH   1  13
ATOM     13  C   UNL     1      -0.041  23.760   3.892  1.00  0.00     0.000 C 
BRANCH  13  14
ATOM     14  C   UNL     1      -1.011  23.351   2.771  1.00  0.00     0.000 C 
BRANCH  14  15
ATOM     15  C   UNL     1      -0.699  21.962   2.194  1.00  0.00     0.000 C 
BRANCH  15  16
ATOM     16  C   UNL     1      -0.868  20.875   3.266  1.00  0.00     0.000 C 
BRANCH  16  17
ATOM     17  C   UNL     1      -2.096  21.105   4.166  1.00  0.00     0.000 C 
BRANCH  17  18
ATOM     18  C   UNL     1      -1.838  20.927   5.676  1.00  0.00     0.000 C 
BRANCH  18  19
ATOM     19  C   UNL     1      -0.503  21.504   6.185  1.00  0.00     0.000 C 
BRANCH  19  20
ATOM     20  C   UNL     1      -0.389  21.630   7.717  1.00  0.00     0.006 C 
BRANCH  20  21
ATOM     21  C   UNL     1      -1.481  20.880   8.497  1.00  0.00     0.053 C 
BRANCH  21  22
ATOM     22  C   UNL     1      -2.030  21.704   9.622  1.00  0.00     0.041 C 
ATOM     23  O   UNL     1      -3.274  21.789   9.797  1.00  0.00    -0.550 OA
ATOM     24  O   UNL     1      -1.165  22.354  10.493  1.00  0.00    -0.550 OA
ENDBRANCH  21  22
ENDBRANCH  20  21
ENDBRANCH  19  20
ENDBRANCH  18  19
ENDBRANCH  17  18
ENDBRANCH  16  17
ENDBRANCH  15  16
ENDBRANCH  14  15
ENDBRANCH  13  14
ENDBRANCH   1  13
TORSDOF 20
ENDMDL
MODEL 9
REMARK VINA RESULT:    -1.847      1.857      3.646
REMARK INTER + INTRA:          -5.835
REMARK INTER:                  -3.964
REMARK INTRA:                  -1.871
REMARK UNBOUND:                -1.828
REMARK SMILES CCCCCCCCCCCCCCCCCCCCCC(=O)[O-]
REMARK SMILES IDX 12 1 11 2 10 3 9 4 8 5 7 6 6 7 5 8 4 9 3 10 2 11 1 12 13 13
REMARK SMILES IDX 14 14 15 15 16 16 17 17 18 18 19 19 20 20 21 21 22 22 23 23
REMARK SMILES IDX 24 24
REMARK H PARENT
REMARK Flexibility Score: inf
ROOT
ATOM      1  C   UNL     1       1.346  23.359   3.732  1.00  0.00     0.000 C 
ENDROOT
BRANCH   1   2
ATOM      2  C   UNL     1       1.811  22.225   4.652  1.00  0.00     0.000 C 
BRANCH   2   3
ATOM      3  C   UNL     1       0.957  22.159   5.927  1.00  0.00     0.000 C 
BRANCH   3   4
ATOM      4  C   UNL     1       0.019  20.932   5.936  1.00  0.00    -0.000 C 
BRANCH   4   5
ATOM      5  C   UNL     1      -1.334  21.181   5.249  1.00  0.00    -0.000 C 
BRANCH   5   6
ATOM      6  C   UNL     1      -1.254  21.079   3.717  1.00  0.00    -0.000 C 
BRANCH   6   7
ATOM      7  C   UNL     1      -1.641  22.389   3.004  1.00  0.00    -0.000 C 
BRANCH   7   8
ATOM      8  C   UNL     1      -2.761  22.267   1.952  1.00  0.00    -0.000 C 
BRANCH   8   9
ATOM      9  C   UNL     1      -3.415  20.875   1.925  1.00  0.00    -0.000 C 
BRANCH   9  10
ATOM     10  C   UNL     1      -4.919  20.913   2.246  1.00  0.00    -0.000 C 
BRANCH  10  11
ATOM     11  C   UNL     1      -5.304  21.761   3.472  1.00  0.00    -0.003 C 
ATOM     12  C   UNL     1      -6.121  20.987   4.504  1.00  0.00     0.004 C 
ENDBRANCH  10  11
ENDBRANCH   9  10
ENDBRANCH   8   9
ENDBRANCH   7   8
ENDBRANCH   6   7
ENDBRANCH   5   6
ENDBRANCH   4   5
ENDBRANCH   3   4
ENDBRANCH   2   3
ENDBRANCH   1   2
BRANCH   1  13
ATOM     13  C   UNL     1       1.910  23.184   2.315  1.00  0.00     0.000 C 
BRANCH  13  14
ATOM     14  C   UNL     1       3.415  23.489   2.234  1.00  0.00     0.000 C 
BRANCH  14  15
ATOM     15  C   UNL     1       3.818  24.712   3.070  1.00  0.00     0.000 C 
BRANCH  15  16
ATOM     16  C   UNL     1       5.339  24.922   3.033  1.00  0.00     0.000 C 
BRANCH  16  17
ATOM     17  C   UNL     1       5.969  25.003   4.436  1.00  0.00     0.000 C 
BRANCH  17  18
ATOM     18  C   UNL     1       6.866  23.807   4.816  1.00  0.00     0.000 C 
BRANCH  18  19
ATOM     19  C   UNL     1       6.538  22.487   4.092  1.00  0.00     0.000 C 
BRANCH  19  20
ATOM     20  C   UNL     1       5.911  21.395   4.982  1.00  0.00     0.006 C 
BRANCH  20  21
ATOM     21  C   UNL     1       4.959  21.929   6.064  1.00  0.00     0.053 C 
BRANCH  21  22
ATOM     22  C   UNL     1       5.307  21.403   7.424  1.00  0.00     0.041 C 
ATOM     23  O   UNL     1       6.493  21.461   7.841  1.00  0.00    -0.550 OA
ATOM     24  O   UNL     1       4.314  20.877   8.240  1.00  0.00    -0.550 OA
ENDBRANCH  21  22
ENDBRANCH  20  21
ENDBRANCH  19  20
ENDBRANCH  18  19
ENDBRANCH  17  18
ENDBRANCH  16  17
ENDBRANCH  15  16
ENDBRANCH  14  15
ENDBRANCH  13  14
ENDBRANCH   1  13
TORSDOF 20
ENDMDL
