MODEL 1
REMARK VINA RESULT:    -7.003      0.000      0.000
REMARK INTER + INTRA:          -7.347
REMARK INTER:                  -7.617
REMARK INTRA:                   0.270
REMARK UNBOUND:                 0.270
REMARK SMILES C[C@H]1[C@H](C)CC[C@]2(C(=O)[O-])CC[C@@]3(C)C(=CC[C@@H]4[C@@]5(C)CC[C@@H](O)C(C)(C)[C@@H]5CC[C@@]43C)[C@@H]12
REMARK SMILES IDX 7 1 6 2 11 3 33 4 5 5 12 6 15 7 2 8 3 9 13 10 16 11 1 12
REMARK SMILES IDX 4 13 14 14 31 15 17 16 18 17 30 18 32 19 19 20 29 21 28 22
REMARK SMILES IDX 21 23 20 24 25 25 22 26 23 27 26 28 27 29 8 30 9 31 10 32
REMARK SMILES IDX 24 33
REMARK H PARENT 24 34
REMARK Flexibility Score: inf
ROOT
ATOM      1  C   UNL     1      55.477  45.206  40.306  1.00  0.00     0.017 C 
ATOM      2  C   UNL     1      55.621  45.630  38.787  1.00  0.00     0.014 C 
ATOM      3  C   UNL     1      55.748  43.662  40.499  1.00  0.00     0.014 C 
ATOM      4  C   UNL     1      54.026  45.555  40.807  1.00  0.00     0.030 C 
ATOM      5  C   UNL     1      54.293  45.997  38.103  1.00  0.00     0.004 C 
ATOM      6  C   UNL     1      54.615  42.870  41.197  1.00  0.00     0.013 C 
ATOM      7  C   UNL     1      53.767  45.033  42.224  1.00  0.00    -0.063 C 
ATOM      8  C   UNL     1      53.553  46.987  40.402  1.00  0.00    -0.003 C 
ATOM      9  C   UNL     1      53.592  47.167  38.841  1.00  0.00    -0.011 C 
ATOM     10  C   UNL     1      54.071  43.550  42.512  1.00  0.00    -0.006 C 
ATOM     11  C   UNL     1      53.086  45.739  43.152  1.00  0.00    -0.027 C 
ATOM     12  C   UNL     1      54.331  48.129  41.086  1.00  0.00     0.008 C 
ATOM     13  C   UNL     1      52.189  47.389  38.263  1.00  0.00     0.008 C 
ATOM     14  C   UNL     1      55.213  43.465  43.583  1.00  0.00     0.017 C 
ATOM     15  C   UNL     1      52.705  42.864  43.040  1.00  0.00    -0.020 C 
ATOM     16  C   UNL     1      52.723  45.109  44.466  1.00  0.00     0.032 C 
ATOM     17  C   UNL     1      52.047  43.729  44.226  1.00  0.00     0.006 C 
ATOM     18  C   UNL     1      52.957  41.378  43.465  1.00  0.00     0.008 C 
ATOM     19  C   UNL     1      51.659  42.801  41.874  1.00  0.00     0.012 C 
ATOM     20  C   UNL     1      51.652  42.929  45.545  1.00  0.00    -0.025 C 
ATOM     21  C   UNL     1      51.787  40.693  44.209  1.00  0.00     0.005 C 
ATOM     22  C   UNL     1      50.887  41.639  45.057  1.00  0.00     0.003 C 
ATOM     23  C   UNL     1      50.689  43.823  46.392  1.00  0.00     0.010 C 
ATOM     24  C   UNL     1      52.892  42.597  46.436  1.00  0.00     0.012 C 
ATOM     25  C   UNL     1      49.976  40.888  46.114  1.00  0.00    -0.006 C 
ATOM     26  C   UNL     1      49.902  43.056  47.466  1.00  0.00     0.033 C 
ATOM     27  C   UNL     1      49.073  41.929  46.855  1.00  0.00     0.120 C 
ATOM     28  C   UNL     1      49.041  39.890  45.377  1.00  0.00     0.014 C 
ATOM     29  C   UNL     1      50.775  40.046  47.148  1.00  0.00     0.014 C 
ENDROOT
BRANCH   1  30
ATOM     30  C   UNL     1      56.549  45.953  41.109  1.00  0.00     0.048 C 
ATOM     31  O   UNL     1      56.785  45.659  42.312  1.00  0.00    -0.550 OA
ATOM     32  O   UNL     1      57.364  46.908  40.489  1.00  0.00    -0.550 OA
ENDBRANCH   1  30
BRANCH  27  33
ATOM     33  O   UNL     1      48.129  42.500  45.977  1.00  0.00    -0.393 OA
ATOM     34  H   UNL     1      48.266  42.093  45.084  1.00  0.00     0.210 HD
ENDBRANCH  27  33
TORSDOF 2
ENDMDL
MODEL 2
REMARK VINA RESULT:    -6.967      2.107      7.835
REMARK INTER + INTRA:          -7.309
REMARK INTER:                  -7.624
REMARK INTRA:                   0.315
REMARK UNBOUND:                 0.270
REMARK SMILES C[C@H]1[C@H](C)CC[C@]2(C(=O)[O-])CC[C@@]3(C)C(=CC[C@@H]4[C@@]5(C)CC[C@@H](O)C(C)(C)[C@@H]5CC[C@@]43C)[C@@H]12
REMARK SMILES IDX 7 1 6 2 11 3 33 4 5 5 12 6 15 7 2 8 3 9 13 10 16 11 1 12
REMARK SMILES IDX 4 13 14 14 31 15 17 16 18 17 30 18 32 19 19 20 29 21 28 22
REMARK SMILES IDX 21 23 20 24 25 25 22 26 23 27 26 28 27 29 8 30 9 31 10 32
REMARK SMILES IDX 24 33
REMARK H PARENT 24 34
REMARK Flexibility Score: inf
ROOT
ATOM      1  C   UNL     1      52.710  41.750  46.401  1.00  0.00     0.017 C 
ATOM      2  C   UNL     1      52.081  41.865  47.850  1.00  0.00     0.014 C 
ATOM      3  C   UNL     1      54.159  42.377  46.353  1.00  0.00     0.014 C 
ATOM      4  C   UNL     1      51.779  42.491  45.372  1.00  0.00     0.030 C 
ATOM      5  C   UNL     1      50.920  42.867  47.959  1.00  0.00     0.004 C 
ATOM      6  C   UNL     1      54.372  43.476  45.283  1.00  0.00     0.013 C 
ATOM      7  C   UNL     1      52.402  42.551  43.973  1.00  0.00    -0.063 C 
ATOM      8  C   UNL     1      50.265  42.147  45.538  1.00  0.00    -0.003 C 
ATOM      9  C   UNL     1      49.770  42.495  46.989  1.00  0.00    -0.011 C 
ATOM     10  C   UNL     1      53.841  43.089  43.849  1.00  0.00    -0.006 C 
ATOM     11  C   UNL     1      51.686  42.373  42.843  1.00  0.00    -0.027 C 
ATOM     12  C   UNL     1      49.904  40.688  45.192  1.00  0.00     0.008 C 
ATOM     13  C   UNL     1      48.712  43.605  46.973  1.00  0.00     0.008 C 
ATOM     14  C   UNL     1      54.765  41.944  43.307  1.00  0.00     0.017 C 
ATOM     15  C   UNL     1      53.806  44.355  42.843  1.00  0.00    -0.020 C 
ATOM     16  C   UNL     1      52.319  42.605  41.501  1.00  0.00     0.032 C 
ATOM     17  C   UNL     1      53.033  43.987  41.482  1.00  0.00     0.006 C 
ATOM     18  C   UNL     1      55.252  44.892  42.574  1.00  0.00     0.008 C 
ATOM     19  C   UNL     1      53.031  45.542  43.513  1.00  0.00     0.012 C 
ATOM     20  C   UNL     1      53.789  44.341  40.126  1.00  0.00    -0.025 C 
ATOM     21  C   UNL     1      55.371  45.942  41.445  1.00  0.00     0.005 C 
ATOM     22  C   UNL     1      54.323  45.815  40.298  1.00  0.00     0.003 C 
ATOM     23  C   UNL     1      52.752  44.291  38.957  1.00  0.00     0.010 C 
ATOM     24  C   UNL     1      54.924  43.321  39.791  1.00  0.00     0.012 C 
ATOM     25  C   UNL     1      54.706  46.611  38.984  1.00  0.00    -0.006 C 
ATOM     26  C   UNL     1      53.216  44.998  37.675  1.00  0.00     0.033 C 
ATOM     27  C   UNL     1      53.555  46.465  37.934  1.00  0.00     0.120 C 
ATOM     28  C   UNL     1      54.853  48.122  39.316  1.00  0.00     0.014 C 
ATOM     29  C   UNL     1      56.059  46.175  38.355  1.00  0.00     0.014 C 
ENDROOT
BRANCH   1  30
ATOM     30  C   UNL     1      52.855  40.261  46.065  1.00  0.00     0.048 C 
ATOM     31  O   UNL     1      53.737  39.858  45.259  1.00  0.00    -0.550 OA
ATOM     32  O   UNL     1      52.078  39.304  46.730  1.00  0.00    -0.550 OA
ENDBRANCH   1  30
BRANCH  27  33
ATOM     33  O   UNL     1      52.384  47.119  38.368  1.00  0.00    -0.393 OA
ATOM     34  H   UNL     1      52.660  47.935  38.856  1.00  0.00     0.210 HD
ENDBRANCH  27  33
TORSDOF 2
ENDMDL
MODEL 3
REMARK VINA RESULT:    -6.925      5.638     11.741
REMARK INTER + INTRA:          -7.262
REMARK INTER:                  -7.556
REMARK INTRA:                   0.294
REMARK UNBOUND:                 0.270
REMARK SMILES C[C@H]1[C@H](C)CC[C@]2(C(=O)[O-])CC[C@@]3(C)C(=CC[C@@H]4[C@@]5(C)CC[C@@H](O)C(C)(C)[C@@H]5CC[C@@]43C)[C@@H]12
REMARK SMILES IDX 7 1 6 2 11 3 33 4 5 5 12 6 15 7 2 8 3 9 13 10 16 11 1 12
REMARK SMILES IDX 4 13 14 14 31 15 17 16 18 17 30 18 32 19 19 20 29 21 28 22
REMARK SMILES IDX 21 23 20 24 25 25 22 26 23 27 26 28 27 29 8 30 9 31 10 32
REMARK SMILES IDX 24 33
REMARK H PARENT 24 34
REMARK Flexibility Score: inf
ROOT
ATOM      1  C   UNL     1      53.387  46.583  38.742  1.00  0.00     0.017 C 
ATOM      2  C   UNL     1      52.117  46.677  39.683  1.00  0.00     0.014 C 
ATOM      3  C   UNL     1      54.410  47.749  39.041  1.00  0.00     0.014 C 
ATOM      4  C   UNL     1      52.925  46.659  37.240  1.00  0.00     0.030 C 
ATOM      5  C   UNL     1      50.823  47.090  38.963  1.00  0.00     0.004 C 
ATOM      6  C   UNL     1      54.797  48.623  37.823  1.00  0.00     0.013 C 
ATOM      7  C   UNL     1      54.114  46.727  36.276  1.00  0.00    -0.063 C 
ATOM      8  C   UNL     1      51.707  45.737  36.913  1.00  0.00    -0.003 C 
ATOM      9  C   UNL     1      50.477  46.094  37.826  1.00  0.00    -0.011 C 
ATOM     10  C   UNL     1      55.193  47.796  36.539  1.00  0.00    -0.006 C 
ATOM     11  C   UNL     1      54.146  46.060  35.103  1.00  0.00    -0.027 C 
ATOM     12  C   UNL     1      52.011  44.228  37.004  1.00  0.00     0.008 C 
ATOM     13  C   UNL     1      49.298  46.624  37.001  1.00  0.00     0.008 C 
ATOM     14  C   UNL     1      56.551  47.078  36.851  1.00  0.00     0.017 C 
ATOM     15  C   UNL     1      55.297  48.722  35.218  1.00  0.00    -0.020 C 
ATOM     16  C   UNL     1      55.264  46.296  34.128  1.00  0.00     0.032 C 
ATOM     17  C   UNL     1      55.453  47.822  33.894  1.00  0.00     0.006 C 
ATOM     18  C   UNL     1      56.454  49.767  35.360  1.00  0.00     0.008 C 
ATOM     19  C   UNL     1      53.984  49.564  35.056  1.00  0.00     0.012 C 
ATOM     20  C   UNL     1      56.643  48.215  32.912  1.00  0.00    -0.025 C 
ATOM     21  C   UNL     1      56.809  50.546  34.072  1.00  0.00     0.005 C 
ATOM     22  C   UNL     1      56.563  49.780  32.737  1.00  0.00     0.003 C 
ATOM     23  C   UNL     1      56.395  47.519  31.535  1.00  0.00     0.010 C 
ATOM     24  C   UNL     1      58.034  47.735  33.438  1.00  0.00     0.012 C 
ATOM     25  C   UNL     1      57.300  50.414  31.486  1.00  0.00    -0.006 C 
ATOM     26  C   UNL     1      57.208  48.113  30.374  1.00  0.00     0.033 C 
ATOM     27  C   UNL     1      56.927  49.604  30.199  1.00  0.00     0.120 C 
ATOM     28  C   UNL     1      56.813  51.875  31.282  1.00  0.00     0.014 C 
ATOM     29  C   UNL     1      58.845  50.491  31.637  1.00  0.00     0.014 C 
ENDROOT
BRANCH   1  30
ATOM     30  C   UNL     1      54.107  45.265  39.049  1.00  0.00     0.048 C 
ATOM     31  O   UNL     1      55.326  45.108  38.768  1.00  0.00    -0.550 OA
ATOM     32  O   UNL     1      53.452  44.243  39.747  1.00  0.00    -0.550 OA
ENDBRANCH   1  30
BRANCH  27  33
ATOM     33  O   UNL     1      55.564  49.762  29.875  1.00  0.00    -0.393 OA
ATOM     34  H   UNL     1      55.045  49.154  30.459  1.00  0.00     0.210 HD
ENDBRANCH  27  33
TORSDOF 2
ENDMDL
MODEL 4
REMARK VINA RESULT:    -6.584      2.647      4.948
REMARK INTER + INTRA:          -6.891
REMARK INTER:                  -7.209
REMARK INTRA:                   0.318
REMARK UNBOUND:                 0.270
REMARK SMILES C[C@H]1[C@H](C)CC[C@]2(C(=O)[O-])CC[C@@]3(C)C(=CC[C@@H]4[C@@]5(C)CC[C@@H](O)C(C)(C)[C@@H]5CC[C@@]43C)[C@@H]12
REMARK SMILES IDX 7 1 6 2 11 3 33 4 5 5 12 6 15 7 2 8 3 9 13 10 16 11 1 12
REMARK SMILES IDX 4 13 14 14 31 15 17 16 18 17 30 18 32 19 19 20 29 21 28 22
REMARK SMILES IDX 21 23 20 24 25 25 22 26 23 27 26 28 27 29 8 30 9 31 10 32
REMARK SMILES IDX 24 33
REMARK H PARENT 24 34
REMARK Flexibility Score: inf
ROOT
ATOM      1  C   UNL     1      54.115  43.891  43.854  1.00  0.00     0.017 C 
ATOM      2  C   UNL     1      55.420  44.334  43.074  1.00  0.00     0.014 C 
ATOM      3  C   UNL     1      54.394  43.742  45.402  1.00  0.00     0.014 C 
ATOM      4  C   UNL     1      53.607  42.518  43.275  1.00  0.00     0.030 C 
ATOM      5  C   UNL     1      56.025  43.242  42.177  1.00  0.00     0.004 C 
ATOM      6  C   UNL     1      54.034  42.366  46.013  1.00  0.00     0.013 C 
ATOM      7  C   UNL     1      52.435  41.953  44.083  1.00  0.00    -0.063 C 
ATOM      8  C   UNL     1      53.574  42.472  41.714  1.00  0.00    -0.003 C 
ATOM      9  C   UNL     1      55.000  42.761  41.118  1.00  0.00    -0.011 C 
ATOM     10  C   UNL     1      52.603  41.839  45.611  1.00  0.00    -0.006 C 
ATOM     11  C   UNL     1      51.371  41.352  43.510  1.00  0.00    -0.027 C 
ATOM     12  C   UNL     1      52.533  43.412  41.074  1.00  0.00     0.008 C 
ATOM     13  C   UNL     1      55.552  41.546  40.363  1.00  0.00     0.008 C 
ATOM     14  C   UNL     1      51.553  42.773  46.307  1.00  0.00     0.017 C 
ATOM     15  C   UNL     1      52.382  40.289  46.014  1.00  0.00    -0.020 C 
ATOM     16  C   UNL     1      50.335  40.673  44.360  1.00  0.00     0.032 C 
ATOM     17  C   UNL     1      51.023  39.715  45.373  1.00  0.00     0.006 C 
ATOM     18  C   UNL     1      52.424  40.106  47.568  1.00  0.00     0.008 C 
ATOM     19  C   UNL     1      53.563  39.423  45.453  1.00  0.00     0.012 C 
ATOM     20  C   UNL     1      50.037  38.963  46.372  1.00  0.00    -0.025 C 
ATOM     21  C   UNL     1      51.988  38.715  48.086  1.00  0.00     0.005 C 
ATOM     22  C   UNL     1      50.937  37.973  47.207  1.00  0.00     0.003 C 
ATOM     23  C   UNL     1      49.006  38.148  45.525  1.00  0.00     0.010 C 
ATOM     24  C   UNL     1      49.229  39.952  47.272  1.00  0.00     0.012 C 
ATOM     25  C   UNL     1      50.212  36.773  47.945  1.00  0.00    -0.006 C 
ATOM     26  C   UNL     1      48.263  37.061  46.316  1.00  0.00     0.033 C 
ATOM     27  C   UNL     1      49.233  36.066  46.949  1.00  0.00     0.120 C 
ATOM     28  C   UNL     1      51.267  35.726  48.395  1.00  0.00     0.014 C 
ATOM     29  C   UNL     1      49.448  37.195  49.232  1.00  0.00     0.014 C 
ENDROOT
BRANCH   1  30
ATOM     30  C   UNL     1      53.068  44.998  43.691  1.00  0.00     0.048 C 
ATOM     31  O   UNL     1      52.165  45.173  44.554  1.00  0.00    -0.550 OA
ATOM     32  O   UNL     1      53.156  45.909  42.631  1.00  0.00    -0.550 OA
ENDBRANCH   1  30
BRANCH  27  33
ATOM     33  O   UNL     1      49.940  35.418  45.915  1.00  0.00    -0.393 OA
ATOM     34  H   UNL     1      50.164  36.100  45.233  1.00  0.00     0.210 HD
ENDBRANCH  27  33
TORSDOF 2
ENDMDL
MODEL 5
REMARK VINA RESULT:    -6.583      3.131      5.710
REMARK INTER + INTRA:          -6.891
REMARK INTER:                  -7.160
REMARK INTRA:                   0.269
REMARK UNBOUND:                 0.270
REMARK SMILES C[C@H]1[C@H](C)CC[C@]2(C(=O)[O-])CC[C@@]3(C)C(=CC[C@@H]4[C@@]5(C)CC[C@@H](O)C(C)(C)[C@@H]5CC[C@@]43C)[C@@H]12
REMARK SMILES IDX 7 1 6 2 11 3 33 4 5 5 12 6 15 7 2 8 3 9 13 10 16 11 1 12
REMARK SMILES IDX 4 13 14 14 31 15 17 16 18 17 30 18 32 19 19 20 29 21 28 22
REMARK SMILES IDX 21 23 20 24 25 25 22 26 23 27 26 28 27 29 8 30 9 31 10 32
REMARK SMILES IDX 24 33
REMARK H PARENT 24 34
REMARK Flexibility Score: inf
ROOT
ATOM      1  C   UNL     1      52.021  47.643  37.237  1.00  0.00     0.017 C 
ATOM      2  C   UNL     1      52.353  48.905  36.340  1.00  0.00     0.014 C 
ATOM      3  C   UNL     1      51.459  48.074  38.649  1.00  0.00     0.014 C 
ATOM      4  C   UNL     1      53.327  46.785  37.427  1.00  0.00     0.030 C 
ATOM      5  C   UNL     1      53.855  49.145  36.114  1.00  0.00     0.004 C 
ATOM      6  C   UNL     1      52.224  47.507  39.870  1.00  0.00     0.013 C 
ATOM      7  C   UNL     1      53.116  45.629  38.411  1.00  0.00    -0.063 C 
ATOM      8  C   UNL     1      54.118  46.548  36.102  1.00  0.00    -0.003 C 
ATOM      9  C   UNL     1      54.521  47.917  35.441  1.00  0.00    -0.011 C 
ATOM     10  C   UNL     1      52.507  45.957  39.788  1.00  0.00    -0.006 C 
ATOM     11  C   UNL     1      53.635  44.398  38.218  1.00  0.00    -0.027 C 
ATOM     12  C   UNL     1      53.386  45.661  35.076  1.00  0.00     0.008 C 
ATOM     13  C   UNL     1      56.043  48.097  35.400  1.00  0.00     0.008 C 
ATOM     14  C   UNL     1      51.126  45.227  39.919  1.00  0.00     0.017 C 
ATOM     15  C   UNL     1      53.554  45.462  40.916  1.00  0.00    -0.020 C 
ATOM     16  C   UNL     1      53.531  43.355  39.294  1.00  0.00     0.032 C 
ATOM     17  C   UNL     1      54.010  43.943  40.652  1.00  0.00     0.006 C 
ATOM     18  C   UNL     1      52.960  45.658  42.352  1.00  0.00     0.008 C 
ATOM     19  C   UNL     1      54.845  46.351  40.868  1.00  0.00     0.012 C 
ATOM     20  C   UNL     1      53.908  42.951  41.893  1.00  0.00    -0.025 C 
ATOM     21  C   UNL     1      53.763  45.002  43.499  1.00  0.00     0.005 C 
ATOM     22  C   UNL     1      54.553  43.715  43.114  1.00  0.00     0.003 C 
ATOM     23  C   UNL     1      54.748  41.672  41.572  1.00  0.00     0.010 C 
ATOM     24  C   UNL     1      52.441  42.493  42.173  1.00  0.00     0.012 C 
ATOM     25  C   UNL     1      55.017  42.848  44.355  1.00  0.00    -0.006 C 
ATOM     26  C   UNL     1      55.089  40.818  42.803  1.00  0.00     0.033 C 
ATOM     27  C   UNL     1      55.853  41.625  43.851  1.00  0.00     0.120 C 
ATOM     28  C   UNL     1      55.936  43.703  45.271  1.00  0.00     0.014 C 
ATOM     29  C   UNL     1      53.848  42.359  45.255  1.00  0.00     0.014 C 
ENDROOT
BRANCH   1  30
ATOM     30  C   UNL     1      50.914  46.845  36.539  1.00  0.00     0.048 C 
ATOM     31  O   UNL     1      50.374  45.852  37.099  1.00  0.00    -0.550 OA
ATOM     32  O   UNL     1      50.404  47.267  35.305  1.00  0.00    -0.550 OA
ENDBRANCH   1  30
BRANCH  27  33
ATOM     33  O   UNL     1      57.074  42.042  43.284  1.00  0.00    -0.393 OA
ATOM     34  H   UNL     1      57.005  41.924  42.302  1.00  0.00     0.210 HD
ENDBRANCH  27  33
TORSDOF 2
ENDMDL
MODEL 6
REMARK VINA RESULT:    -6.526      1.992      8.131
REMARK INTER + INTRA:          -6.829
REMARK INTER:                  -7.156
REMARK INTRA:                   0.328
REMARK UNBOUND:                 0.270
REMARK SMILES C[C@H]1[C@H](C)CC[C@]2(C(=O)[O-])CC[C@@]3(C)C(=CC[C@@H]4[C@@]5(C)CC[C@@H](O)C(C)(C)[C@@H]5CC[C@@]43C)[C@@H]12
REMARK SMILES IDX 7 1 6 2 11 3 33 4 5 5 12 6 15 7 2 8 3 9 13 10 16 11 1 12
REMARK SMILES IDX 4 13 14 14 31 15 17 16 18 17 30 18 32 19 19 20 29 21 28 22
REMARK SMILES IDX 21 23 20 24 25 25 22 26 23 27 26 28 27 29 8 30 9 31 10 32
REMARK SMILES IDX 24 33
REMARK H PARENT 24 34
REMARK Flexibility Score: inf
ROOT
ATOM      1  C   UNL     1      50.036  40.261  46.561  1.00  0.00     0.017 C 
ATOM      2  C   UNL     1      48.682  40.271  47.383  1.00  0.00     0.014 C 
ATOM      3  C   UNL     1      51.207  40.942  47.374  1.00  0.00     0.014 C 
ATOM      4  C   UNL     1      49.822  41.025  45.202  1.00  0.00     0.030 C 
ATOM      5  C   UNL     1      47.610  41.224  46.828  1.00  0.00     0.004 C 
ATOM      6  C   UNL     1      51.928  42.106  46.651  1.00  0.00     0.013 C 
ATOM      7  C   UNL     1      51.131  41.187  44.422  1.00  0.00    -0.063 C 
ATOM      8  C   UNL     1      48.512  40.618  44.455  1.00  0.00    -0.003 C 
ATOM      9  C   UNL     1      47.253  40.865  45.362  1.00  0.00    -0.011 C 
ATOM     10  C   UNL     1      52.343  41.782  45.165  1.00  0.00    -0.006 C 
ATOM     11  C   UNL     1      51.208  41.046  43.081  1.00  0.00    -0.027 C 
ATOM     12  C   UNL     1      48.507  39.169  43.927  1.00  0.00     0.008 C 
ATOM     13  C   UNL     1      46.330  41.936  44.767  1.00  0.00     0.008 C 
ATOM     14  C   UNL     1      53.479  40.703  45.226  1.00  0.00     0.017 C 
ATOM     15  C   UNL     1      52.814  43.100  44.355  1.00  0.00    -0.020 C 
ATOM     16  C   UNL     1      52.481  41.377  42.357  1.00  0.00     0.032 C 
ATOM     17  C   UNL     1      52.989  42.782  42.789  1.00  0.00     0.006 C 
ATOM     18  C   UNL     1      54.116  43.703  44.983  1.00  0.00     0.008 C 
ATOM     19  C   UNL     1      51.723  44.219  44.485  1.00  0.00     0.012 C 
ATOM     20  C   UNL     1      54.363  43.238  42.127  1.00  0.00    -0.025 C 
ATOM     21  C   UNL     1      54.797  44.819  44.157  1.00  0.00     0.005 C 
ATOM     22  C   UNL     1      54.609  44.719  42.614  1.00  0.00     0.003 C 
ATOM     23  C   UNL     1      54.192  43.218  40.573  1.00  0.00     0.010 C 
ATOM     24  C   UNL     1      55.545  42.281  42.483  1.00  0.00     0.012 C 
ATOM     25  C   UNL     1      55.628  45.601  41.782  1.00  0.00    -0.006 C 
ATOM     26  C   UNL     1      55.265  44.012  39.812  1.00  0.00     0.033 C 
ATOM     27  C   UNL     1      55.301  45.473  40.256  1.00  0.00     0.120 C 
ATOM     28  C   UNL     1      55.464  47.095  42.176  1.00  0.00     0.014 C 
ATOM     29  C   UNL     1      57.120  45.250  42.038  1.00  0.00     0.014 C 
ENDROOT
BRANCH   1  30
ATOM     30  C   UNL     1      50.439  38.799  46.333  1.00  0.00     0.048 C 
ATOM     31  O   UNL     1      51.649  38.471  46.193  1.00  0.00    -0.550 OA
ATOM     32  O   UNL     1      49.478  37.781  46.381  1.00  0.00    -0.550 OA
ENDBRANCH   1  30
BRANCH  27  33
ATOM     33  O   UNL     1      54.056  46.059  39.951  1.00  0.00    -0.393 OA
ATOM     34  H   UNL     1      53.406  45.753  40.633  1.00  0.00     0.210 HD
ENDBRANCH  27  33
TORSDOF 2
ENDMDL
MODEL 7
REMARK VINA RESULT:    -6.516      3.052      7.944
REMARK INTER + INTRA:          -6.818
REMARK INTER:                  -7.098
REMARK INTRA:                   0.279
REMARK UNBOUND:                 0.270
REMARK SMILES C[C@H]1[C@H](C)CC[C@]2(C(=O)[O-])CC[C@@]3(C)C(=CC[C@@H]4[C@@]5(C)CC[C@@H](O)C(C)(C)[C@@H]5CC[C@@]43C)[C@@H]12
REMARK SMILES IDX 7 1 6 2 11 3 33 4 5 5 12 6 15 7 2 8 3 9 13 10 16 11 1 12
REMARK SMILES IDX 4 13 14 14 31 15 17 16 18 17 30 18 32 19 19 20 29 21 28 22
REMARK SMILES IDX 21 23 20 24 25 25 22 26 23 27 26 28 27 29 8 30 9 31 10 32
REMARK SMILES IDX 24 33
REMARK H PARENT 24 34
REMARK Flexibility Score: inf
ROOT
ATOM      1  C   UNL     1      54.864  44.641  42.355  1.00  0.00     0.017 C 
ATOM      2  C   UNL     1      54.885  44.234  43.885  1.00  0.00     0.014 C 
ATOM      3  C   UNL     1      54.750  46.207  42.179  1.00  0.00     0.014 C 
ATOM      4  C   UNL     1      53.645  43.940  41.649  1.00  0.00     0.030 C 
ATOM      5  C   UNL     1      53.612  43.520  44.369  1.00  0.00     0.004 C 
ATOM      6  C   UNL     1      53.567  46.694  41.308  1.00  0.00     0.013 C 
ATOM      7  C   UNL     1      53.472  44.410  40.201  1.00  0.00    -0.063 C 
ATOM      8  C   UNL     1      53.504  42.426  42.001  1.00  0.00    -0.003 C 
ATOM      9  C   UNL     1      53.357  42.225  43.554  1.00  0.00    -0.011 C 
ATOM     10  C   UNL     1      53.420  45.927  39.937  1.00  0.00    -0.006 C 
ATOM     11  C   UNL     1      53.144  43.573  39.193  1.00  0.00    -0.027 C 
ATOM     12  C   UNL     1      54.646  41.540  41.461  1.00  0.00     0.008 C 
ATOM     13  C   UNL     1      51.990  41.634  43.919  1.00  0.00     0.008 C 
ATOM     14  C   UNL     1      54.647  46.330  39.048  1.00  0.00     0.017 C 
ATOM     15  C   UNL     1      52.018  46.248  39.199  1.00  0.00    -0.020 C 
ATOM     16  C   UNL     1      52.830  44.118  37.829  1.00  0.00     0.032 C 
ATOM     17  C   UNL     1      51.791  45.270  37.943  1.00  0.00     0.006 C 
ATOM     18  C   UNL     1      51.935  47.758  38.793  1.00  0.00     0.008 C 
ATOM     19  C   UNL     1      50.829  46.011  40.194  1.00  0.00     0.012 C 
ATOM     20  C   UNL     1      51.402  45.970  36.567  1.00  0.00    -0.025 C 
ATOM     21  C   UNL     1      50.752  48.134  37.871  1.00  0.00     0.005 C 
ATOM     22  C   UNL     1      50.264  47.006  36.913  1.00  0.00     0.003 C 
ATOM     23  C   UNL     1      50.842  44.877  35.599  1.00  0.00     0.010 C 
ATOM     24  C   UNL     1      52.631  46.633  35.866  1.00  0.00     0.012 C 
ATOM     25  C   UNL     1      49.358  47.520  35.720  1.00  0.00    -0.006 C 
ATOM     26  C   UNL     1      50.051  45.438  34.408  1.00  0.00     0.033 C 
ATOM     27  C   UNL     1      48.876  46.298  34.869  1.00  0.00     0.120 C 
ATOM     28  C   UNL     1      48.096  48.224  36.292  1.00  0.00     0.014 C 
ATOM     29  C   UNL     1      50.055  48.564  34.804  1.00  0.00     0.014 C 
ENDROOT
BRANCH   1  30
ATOM     30  C   UNL     1      56.200  44.217  41.734  1.00  0.00     0.048 C 
ATOM     31  O   UNL     1      56.466  44.465  40.527  1.00  0.00    -0.550 OA
ATOM     32  O   UNL     1      57.199  43.636  42.526  1.00  0.00    -0.550 OA
ENDBRANCH   1  30
BRANCH  27  33
ATOM     33  O   UNL     1      47.993  45.481  35.606  1.00  0.00    -0.393 OA
ATOM     34  H   UNL     1      47.208  45.294  35.031  1.00  0.00     0.210 HD
ENDBRANCH  27  33
TORSDOF 2
ENDMDL
MODEL 8
REMARK VINA RESULT:    -6.367      3.233      7.637
REMARK INTER + INTRA:          -6.656
REMARK INTER:                  -6.927
REMARK INTRA:                   0.272
REMARK UNBOUND:                 0.270
REMARK SMILES C[C@H]1[C@H](C)CC[C@]2(C(=O)[O-])CC[C@@]3(C)C(=CC[C@@H]4[C@@]5(C)CC[C@@H](O)C(C)(C)[C@@H]5CC[C@@]43C)[C@@H]12
REMARK SMILES IDX 7 1 6 2 11 3 33 4 5 5 12 6 15 7 2 8 3 9 13 10 16 11 1 12
REMARK SMILES IDX 4 13 14 14 31 15 17 16 18 17 30 18 32 19 19 20 29 21 28 22
REMARK SMILES IDX 21 23 20 24 25 25 22 26 23 27 26 28 27 29 8 30 9 31 10 32
REMARK SMILES IDX 24 33
REMARK H PARENT 24 34
REMARK Flexibility Score: inf
ROOT
ATOM      1  C   UNL     1      54.911  42.052  42.838  1.00  0.00     0.017 C 
ATOM      2  C   UNL     1      55.428  40.570  43.050  1.00  0.00     0.014 C 
ATOM      3  C   UNL     1      53.334  42.107  42.782  1.00  0.00     0.014 C 
ATOM      4  C   UNL     1      55.508  42.622  41.498  1.00  0.00     0.030 C 
ATOM      5  C   UNL     1      56.121  39.958  41.821  1.00  0.00     0.004 C 
ATOM      6  C   UNL     1      52.736  42.769  41.516  1.00  0.00     0.013 C 
ATOM      7  C   UNL     1      54.929  43.997  41.151  1.00  0.00    -0.063 C 
ATOM      8  C   UNL     1      57.037  42.353  41.330  1.00  0.00    -0.003 C 
ATOM      9  C   UNL     1      57.341  40.811  41.388  1.00  0.00    -0.011 C 
ATOM     10  C   UNL     1      53.396  44.152  41.142  1.00  0.00    -0.006 C 
ATOM     11  C   UNL     1      55.677  45.000  40.644  1.00  0.00    -0.027 C 
ATOM     12  C   UNL     1      57.928  43.105  42.338  1.00  0.00     0.008 C 
ATOM     13  C   UNL     1      57.900  40.296  40.057  1.00  0.00     0.008 C 
ATOM     14  C   UNL     1      52.983  45.178  42.253  1.00  0.00     0.017 C 
ATOM     15  C   UNL     1      52.965  44.661  39.669  1.00  0.00    -0.020 C 
ATOM     16  C   UNL     1      55.023  46.268  40.172  1.00  0.00     0.032 C 
ATOM     17  C   UNL     1      53.840  45.934  39.220  1.00  0.00     0.006 C 
ATOM     18  C   UNL     1      51.427  44.952  39.608  1.00  0.00     0.008 C 
ATOM     19  C   UNL     1      53.222  43.525  38.619  1.00  0.00     0.012 C 
ATOM     20  C   UNL     1      53.027  47.192  38.681  1.00  0.00    -0.025 C 
ATOM     21  C   UNL     1      50.937  45.671  38.330  1.00  0.00     0.005 C 
ATOM     22  C   UNL     1      51.972  46.622  37.657  1.00  0.00     0.003 C 
ATOM     23  C   UNL     1      54.023  48.139  37.936  1.00  0.00     0.010 C 
ATOM     24  C   UNL     1      52.368  48.016  39.834  1.00  0.00     0.012 C 
ATOM     25  C   UNL     1      51.336  47.638  36.622  1.00  0.00    -0.006 C 
ATOM     26  C   UNL     1      53.345  49.168  37.018  1.00  0.00     0.033 C 
ATOM     27  C   UNL     1      52.473  48.490  35.964  1.00  0.00     0.120 C 
ATOM     28  C   UNL     1      50.622  46.848  35.490  1.00  0.00     0.014 C 
ATOM     29  C   UNL     1      50.259  48.574  37.238  1.00  0.00     0.014 C 
ENDROOT
BRANCH   1  30
ATOM     30  C   UNL     1      55.346  42.882  44.051  1.00  0.00     0.048 C 
ATOM     31  O   UNL     1      54.944  44.067  44.208  1.00  0.00    -0.550 OA
ATOM     32  O   UNL     1      56.115  42.304  45.069  1.00  0.00    -0.550 OA
ENDBRANCH   1  30
BRANCH  27  33
ATOM     33  O   UNL     1      53.302  47.690  35.151  1.00  0.00    -0.393 OA
ATOM     34  H   UNL     1      53.272  46.767  35.509  1.00  0.00     0.210 HD
ENDBRANCH  27  33
TORSDOF 2
ENDMDL
MODEL 9
REMARK VINA RESULT:    -6.079      4.181      6.591
REMARK INTER + INTRA:          -6.343
REMARK INTER:                  -6.630
REMARK INTRA:                   0.287
REMARK UNBOUND:                 0.270
REMARK SMILES C[C@H]1[C@H](C)CC[C@]2(C(=O)[O-])CC[C@@]3(C)C(=CC[C@@H]4[C@@]5(C)CC[C@@H](O)C(C)(C)[C@@H]5CC[C@@]43C)[C@@H]12
REMARK SMILES IDX 7 1 6 2 11 3 33 4 5 5 12 6 15 7 2 8 3 9 13 10 16 11 1 12
REMARK SMILES IDX 4 13 14 14 31 15 17 16 18 17 30 18 32 19 19 20 29 21 28 22
REMARK SMILES IDX 21 23 20 24 25 25 22 26 23 27 26 28 27 29 8 30 9 31 10 32
REMARK SMILES IDX 24 33
REMARK H PARENT 24 34
REMARK Flexibility Score: inf
ROOT
ATOM      1  C   UNL     1      51.420  46.547  37.350  1.00  0.00     0.017 C 
ATOM      2  C   UNL     1      50.603  47.610  36.507  1.00  0.00     0.014 C 
ATOM      3  C   UNL     1      50.720  46.252  38.735  1.00  0.00     0.014 C 
ATOM      4  C   UNL     1      52.875  47.092  37.598  1.00  0.00     0.030 C 
ATOM      5  C   UNL     1      51.287  48.981  36.381  1.00  0.00     0.004 C 
ATOM      6  C   UNL     1      51.608  46.462  39.986  1.00  0.00     0.013 C 
ATOM      7  C   UNL     1      53.676  46.183  38.537  1.00  0.00    -0.063 C 
ATOM      8  C   UNL     1      53.550  47.681  36.319  1.00  0.00    -0.003 C 
ATOM      9  C   UNL     1      52.683  48.848  35.719  1.00  0.00    -0.011 C 
ATOM     10  C   UNL     1      53.033  45.793  39.882  1.00  0.00    -0.006 C 
ATOM     11  C   UNL     1      54.981  45.899  38.346  1.00  0.00    -0.027 C 
ATOM     12  C   UNL     1      53.859  46.637  35.227  1.00  0.00     0.008 C 
ATOM     13  C   UNL     1      53.425  50.188  35.776  1.00  0.00     0.008 C 
ATOM     14  C   UNL     1      52.818  44.240  39.910  1.00  0.00     0.017 C 
ATOM     15  C   UNL     1      54.028  46.279  41.060  1.00  0.00    -0.020 C 
ATOM     16  C   UNL     1      55.751  45.137  39.387  1.00  0.00     0.032 C 
ATOM     17  C   UNL     1      55.532  45.780  40.786  1.00  0.00     0.006 C 
ATOM     18  C   UNL     1      53.500  45.819  42.461  1.00  0.00     0.008 C 
ATOM     19  C   UNL     1      54.060  47.846  41.114  1.00  0.00     0.012 C 
ATOM     20  C   UNL     1      56.259  45.039  41.993  1.00  0.00    -0.025 C 
ATOM     21  C   UNL     1      54.484  46.013  43.638  1.00  0.00     0.005 C 
ATOM     22  C   UNL     1      55.995  45.927  43.270  1.00  0.00     0.003 C 
ATOM     23  C   UNL     1      57.792  44.994  41.692  1.00  0.00     0.010 C 
ATOM     24  C   UNL     1      55.771  43.565  42.170  1.00  0.00     0.012 C 
ATOM     25  C   UNL     1      56.951  45.717  44.515  1.00  0.00    -0.006 C 
ATOM     26  C   UNL     1      58.665  44.692  42.919  1.00  0.00     0.033 C 
ATOM     27  C   UNL     1      58.440  45.713  44.033  1.00  0.00     0.120 C 
ATOM     28  C   UNL     1      56.780  46.900  45.507  1.00  0.00     0.014 C 
ATOM     29  C   UNL     1      56.652  44.427  45.329  1.00  0.00     0.014 C 
ENDROOT
BRANCH   1  30
ATOM     30  C   UNL     1      51.433  45.230  36.565  1.00  0.00     0.048 C 
ATOM     31  O   UNL     1      52.033  44.214  37.008  1.00  0.00    -0.550 OA
ATOM     32  O   UNL     1      50.688  45.098  35.386  1.00  0.00    -0.550 OA
ENDBRANCH   1  30
BRANCH  27  33
ATOM     33  O   UNL     1      58.823  46.983  43.553  1.00  0.00    -0.393 OA
ATOM     34  H   UNL     1      58.011  47.549  43.522  1.00  0.00     0.210 HD
ENDBRANCH  27  33
TORSDOF 2
ENDMDL
