MODEL 1
REMARK VINA RESULT:    -4.155      0.000      0.000
REMARK INTER + INTRA:          -5.469
REMARK INTER:                  -5.126
REMARK INTRA:                  -0.342
REMARK UNBOUND:                -0.342
REMARK SMILES C=CC(=C)CCC=C(C)C
REMARK SMILES IDX 5 1 6 2 7 3 9 4 8 5 10 6 3 7 4 8 2 9 1 10
REMARK H PARENT
REMARK Flexibility Score: inf
ROOT
ATOM      1  C   UNL     1      14.574  15.307  36.317  1.00  0.00     0.039 C 
ENDROOT
BRANCH   1   2
ATOM      2  C   UNL     1      13.896  14.088  36.951  1.00  0.00     0.032 C 
BRANCH   2   3
ATOM      3  C   UNL     1      12.729  14.512  37.806  1.00  0.00    -0.028 C 
ATOM      4  C   UNL     1      11.153  12.875  36.750  1.00  0.00     0.039 C 
ATOM      5  C   UNL     1      11.496  13.959  37.745  1.00  0.00    -0.080 C 
ATOM      6  C   UNL     1      10.437  14.461  38.693  1.00  0.00     0.039 C 
ENDBRANCH   2   3
ENDBRANCH   1   2
BRANCH   1   7
ATOM      7  C   UNL     1      15.980  15.478  36.851  1.00  0.00    -0.055 C 
ATOM      8  C   UNL     1      16.914  14.579  36.522  1.00  0.00     0.012 C 
BRANCH   7   9
ATOM      9  C   UNL     1      16.374  16.638  37.691  1.00  0.00    -0.005 C 
ATOM     10  C   UNL     1      15.618  17.723  37.866  1.00  0.00     0.009 C 
ENDBRANCH   7   9
ENDBRANCH   1   7
TORSDOF 4
ENDMDL
MODEL 2
REMARK VINA RESULT:    -4.094      2.292      3.986
REMARK INTER + INTRA:          -5.394
REMARK INTER:                  -4.790
REMARK INTRA:                  -0.603
REMARK UNBOUND:                -0.342
REMARK SMILES C=CC(=C)CCC=C(C)C
REMARK SMILES IDX 5 1 6 2 7 3 9 4 8 5 10 6 3 7 4 8 2 9 1 10
REMARK H PARENT
REMARK Flexibility Score: inf
ROOT
ATOM      1  C   UNL     1      15.473  15.274  36.187  1.00  0.00     0.039 C 
ENDROOT
BRANCH   1   2
ATOM      2  C   UNL     1      14.786  16.623  36.428  1.00  0.00     0.032 C 
BRANCH   2   3
ATOM      3  C   UNL     1      14.032  17.064  35.199  1.00  0.00    -0.028 C 
ATOM      4  C   UNL     1      11.955  17.633  36.479  1.00  0.00     0.039 C 
ATOM      5  C   UNL     1      12.769  17.544  35.208  1.00  0.00    -0.080 C 
ATOM      6  C   UNL     1      12.158  17.985  33.903  1.00  0.00     0.039 C 
ENDBRANCH   2   3
ENDBRANCH   1   2
BRANCH   1   7
ATOM      7  C   UNL     1      14.601  14.134  36.664  1.00  0.00    -0.055 C 
ATOM      8  C   UNL     1      14.988  12.876  36.426  1.00  0.00     0.012 C 
BRANCH   7   9
ATOM      9  C   UNL     1      13.349  14.360  37.432  1.00  0.00    -0.005 C 
ATOM     10  C   UNL     1      12.211  13.699  37.212  1.00  0.00     0.009 C 
ENDBRANCH   7   9
ENDBRANCH   1   7
TORSDOF 4
ENDMDL
MODEL 3
REMARK VINA RESULT:    -4.042      2.135      4.726
REMARK INTER + INTRA:          -5.330
REMARK INTER:                  -4.668
REMARK INTRA:                  -0.662
REMARK UNBOUND:                -0.342
REMARK SMILES C=CC(=C)CCC=C(C)C
REMARK SMILES IDX 5 1 6 2 7 3 9 4 8 5 10 6 3 7 4 8 2 9 1 10
REMARK H PARENT
REMARK Flexibility Score: inf
ROOT
ATOM      1  C   UNL     1      13.111  14.099  37.507  1.00  0.00     0.039 C 
ENDROOT
BRANCH   1   2
ATOM      2  C   UNL     1      13.389  15.606  37.549  1.00  0.00     0.032 C 
BRANCH   2   3
ATOM      3  C   UNL     1      13.212  16.220  36.184  1.00  0.00    -0.028 C 
ATOM      4  C   UNL     1      11.513  17.883  36.974  1.00  0.00     0.039 C 
ATOM      5  C   UNL     1      12.391  17.261  35.914  1.00  0.00    -0.080 C 
ATOM      6  C   UNL     1      12.348  17.795  34.505  1.00  0.00     0.039 C 
ENDBRANCH   2   3
ENDBRANCH   1   2
BRANCH   1   7
ATOM      7  C   UNL     1      11.623  13.827  37.510  1.00  0.00    -0.055 C 
ATOM      8  C   UNL     1      11.135  12.876  36.706  1.00  0.00     0.012 C 
BRANCH   7   9
ATOM      9  C   UNL     1      10.685  14.547  38.410  1.00  0.00    -0.005 C 
ATOM     10  C   UNL     1      10.527  14.262  39.703  1.00  0.00     0.009 C 
ENDBRANCH   7   9
ENDBRANCH   1   7
TORSDOF 4
ENDMDL
MODEL 4
REMARK VINA RESULT:    -4.009      1.374      4.784
REMARK INTER + INTRA:          -5.288
REMARK INTER:                  -4.822
REMARK INTRA:                  -0.466
REMARK UNBOUND:                -0.342
REMARK SMILES C=CC(=C)CCC=C(C)C
REMARK SMILES IDX 5 1 6 2 7 3 9 4 8 5 10 6 3 7 4 8 2 9 1 10
REMARK H PARENT
REMARK Flexibility Score: inf
ROOT
ATOM      1  C   UNL     1      12.910  15.740  37.937  1.00  0.00     0.039 C 
ENDROOT
BRANCH   1   2
ATOM      2  C   UNL     1      13.533  15.534  36.552  1.00  0.00     0.032 C 
BRANCH   2   3
ATOM      3  C   UNL     1      15.037  15.482  36.646  1.00  0.00    -0.028 C 
ATOM      4  C   UNL     1      15.132  12.997  36.344  1.00  0.00     0.039 C 
ATOM      5  C   UNL     1      15.772  14.353  36.529  1.00  0.00    -0.080 C 
ATOM      6  C   UNL     1      17.273  14.462  36.605  1.00  0.00     0.039 C 
ENDBRANCH   2   3
ENDBRANCH   1   2
BRANCH   1   7
ATOM      7  C   UNL     1      11.975  14.601  38.280  1.00  0.00    -0.055 C 
ATOM      8  C   UNL     1      11.670  13.705  37.335  1.00  0.00     0.012 C 
BRANCH   7   9
ATOM      9  C   UNL     1      11.418  14.414  39.644  1.00  0.00    -0.005 C 
ATOM     10  C   UNL     1      10.117  14.462  39.931  1.00  0.00     0.009 C 
ENDBRANCH   7   9
ENDBRANCH   1   7
TORSDOF 4
ENDMDL
MODEL 5
REMARK VINA RESULT:    -3.990      1.445      2.306
REMARK INTER + INTRA:          -5.265
REMARK INTER:                  -4.704
REMARK INTRA:                  -0.561
REMARK UNBOUND:                -0.342
REMARK SMILES C=CC(=C)CCC=C(C)C
REMARK SMILES IDX 5 1 6 2 7 3 9 4 8 5 10 6 3 7 4 8 2 9 1 10
REMARK H PARENT
REMARK Flexibility Score: inf
ROOT
ATOM      1  C   UNL     1      14.145  16.023  37.172  1.00  0.00     0.039 C 
ENDROOT
BRANCH   1   2
ATOM      2  C   UNL     1      12.656  15.919  36.825  1.00  0.00     0.032 C 
BRANCH   2   3
ATOM      3  C   UNL     1      11.852  15.525  38.038  1.00  0.00    -0.028 C 
ATOM      4  C   UNL     1      11.258  13.274  37.112  1.00  0.00     0.039 C 
ATOM      5  C   UNL     1      11.238  14.330  38.193  1.00  0.00    -0.080 C 
ATOM      6  C   UNL     1      10.502  14.062  39.480  1.00  0.00     0.039 C 
ENDBRANCH   2   3
ENDBRANCH   1   2
BRANCH   1   7
ATOM      7  C   UNL     1      14.988  15.308  36.139  1.00  0.00    -0.055 C 
ATOM      8  C   UNL     1      15.255  15.923  34.981  1.00  0.00     0.012 C 
BRANCH   7   9
ATOM      9  C   UNL     1      15.573  13.965  36.383  1.00  0.00    -0.005 C 
ATOM     10  C   UNL     1      14.851  12.875  36.649  1.00  0.00     0.009 C 
ENDBRANCH   7   9
ENDBRANCH   1   7
TORSDOF 4
ENDMDL
MODEL 6
REMARK VINA RESULT:    -3.941     13.961     14.728
REMARK INTER + INTRA:          -5.205
REMARK INTER:                  -4.726
REMARK INTRA:                  -0.480
REMARK UNBOUND:                -0.342
REMARK SMILES C=CC(=C)CCC=C(C)C
REMARK SMILES IDX 5 1 6 2 7 3 9 4 8 5 10 6 3 7 4 8 2 9 1 10
REMARK H PARENT
REMARK Flexibility Score: inf
ROOT
ATOM      1  C   UNL     1       9.093  20.273  25.136  1.00  0.00     0.039 C 
ENDROOT
BRANCH   1   2
ATOM      2  C   UNL     1       7.917  19.291  25.162  1.00  0.00     0.032 C 
BRANCH   2   3
ATOM      3  C   UNL     1       6.892  19.658  24.119  1.00  0.00    -0.028 C 
ATOM      4  C   UNL     1       7.759  18.004  22.450  1.00  0.00     0.039 C 
ATOM      5  C   UNL     1       6.792  19.072  22.905  1.00  0.00    -0.080 C 
ATOM      6  C   UNL     1       5.688  19.518  21.980  1.00  0.00     0.039 C 
ENDBRANCH   2   3
ENDBRANCH   1   2
BRANCH   1   7
ATOM      7  C   UNL     1      10.411  19.532  25.075  1.00  0.00    -0.055 C 
ATOM      8  C   UNL     1      10.892  19.161  23.883  1.00  0.00     0.012 C 
BRANCH   7   9
ATOM      9  C   UNL     1      11.215  19.241  26.289  1.00  0.00    -0.005 C 
ATOM     10  C   UNL     1      10.753  18.572  27.347  1.00  0.00     0.009 C 
ENDBRANCH   7   9
ENDBRANCH   1   7
TORSDOF 4
ENDMDL
MODEL 7
REMARK VINA RESULT:    -3.928     14.022     15.331
REMARK INTER + INTRA:          -5.189
REMARK INTER:                  -4.763
REMARK INTRA:                  -0.426
REMARK UNBOUND:                -0.342
REMARK SMILES C=CC(=C)CCC=C(C)C
REMARK SMILES IDX 5 1 6 2 7 3 9 4 8 5 10 6 3 7 4 8 2 9 1 10
REMARK H PARENT
REMARK Flexibility Score: inf
ROOT
ATOM      1  C   UNL     1       7.336  19.241  24.508  1.00  0.00     0.039 C 
ENDROOT
BRANCH   1   2
ATOM      2  C   UNL     1       8.599  20.069  24.768  1.00  0.00     0.032 C 
BRANCH   2   3
ATOM      3  C   UNL     1       9.305  19.589  26.011  1.00  0.00    -0.028 C 
ATOM      4  C   UNL     1      11.472  19.187  24.821  1.00  0.00     0.039 C 
ATOM      5  C   UNL     1      10.603  19.214  26.057  1.00  0.00    -0.080 C 
ATOM      6  C   UNL     1      11.183  18.795  27.383  1.00  0.00     0.039 C 
ENDBRANCH   2   3
ENDBRANCH   1   2
BRANCH   1   7
ATOM      7  C   UNL     1       7.350  18.664  23.110  1.00  0.00    -0.055 C 
ATOM      8  C   UNL     1       8.514  18.570  22.458  1.00  0.00     0.012 C 
BRANCH   7   9
ATOM      9  C   UNL     1       6.121  18.153  22.449  1.00  0.00    -0.005 C 
ATOM     10  C   UNL     1       5.116  18.930  22.043  1.00  0.00     0.009 C 
ENDBRANCH   7   9
ENDBRANCH   1   7
TORSDOF 4
ENDMDL
MODEL 8
REMARK VINA RESULT:    -3.882     17.087     18.056
REMARK INTER + INTRA:          -5.132
REMARK INTER:                  -4.848
REMARK INTRA:                  -0.284
REMARK UNBOUND:                -0.342
REMARK SMILES C=CC(=C)CCC=C(C)C
REMARK SMILES IDX 5 1 6 2 7 3 9 4 8 5 10 6 3 7 4 8 2 9 1 10
REMARK H PARENT
REMARK Flexibility Score: inf
ROOT
ATOM      1  C   UNL     1       5.513  18.502  22.197  1.00  0.00     0.039 C 
ENDROOT
BRANCH   1   2
ATOM      2  C   UNL     1       4.908  19.825  21.715  1.00  0.00     0.032 C 
BRANCH   2   3
ATOM      3  C   UNL     1       3.630  19.581  20.954  1.00  0.00    -0.028 C 
ATOM      4  C   UNL     1       2.175  19.947  22.960  1.00  0.00     0.039 C 
ATOM      5  C   UNL     1       2.392  19.657  21.493  1.00  0.00    -0.080 C 
ATOM      6  C   UNL     1       1.203  19.426  20.597  1.00  0.00     0.039 C 
ENDBRANCH   2   3
ENDBRANCH   1   2
BRANCH   1   7
ATOM      7  C   UNL     1       6.837  18.738  22.892  1.00  0.00    -0.055 C 
ATOM      8  C   UNL     1       7.935  18.137  22.419  1.00  0.00     0.012 C 
BRANCH   7   9
ATOM      9  C   UNL     1       6.970  19.653  24.055  1.00  0.00    -0.005 C 
ATOM     10  C   UNL     1       7.569  19.320  25.199  1.00  0.00     0.009 C 
ENDBRANCH   7   9
ENDBRANCH   1   7
TORSDOF 4
ENDMDL
