MODEL 1
REMARK VINA RESULT:    -4.361      0.000      0.000
REMARK INTER + INTRA:          -9.283
REMARK INTER:                  -7.931
REMARK INTRA:                  -1.352
REMARK UNBOUND:                -1.352
REMARK SMILES CCCCCCCCCCCCCCCC(=O)[O-]
REMARK SMILES IDX 9 1 10 2 11 3 12 4 13 5 14 6 15 7 16 8 17 9 18 10 8 11 7 12
REMARK SMILES IDX 6 13 5 14 4 15 3 16 2 17 1 18
REMARK H PARENT
REMARK Flexibility Score: inf
ROOT
ATOM      1  C   UNL     1      31.543  24.473  67.628  1.00  0.00     0.000 C 
ENDROOT
BRANCH   1   2
ATOM      2  C   UNL     1      33.051  24.198  67.812  1.00  0.00     0.000 C 
BRANCH   2   3
ATOM      3  C   UNL     1      33.798  24.150  66.467  1.00  0.00     0.000 C 
BRANCH   3   4
ATOM      4  C   UNL     1      32.851  24.172  65.254  1.00  0.00     0.000 C 
BRANCH   4   5
ATOM      5  C   UNL     1      33.550  24.304  63.889  1.00  0.00     0.000 C 
BRANCH   5   6
ATOM      6  C   UNL     1      32.721  25.101  62.867  1.00  0.00     0.006 C 
BRANCH   6   7
ATOM      7  C   UNL     1      31.483  25.745  63.504  1.00  0.00     0.053 C 
BRANCH   7   8
ATOM      8  C   UNL     1      31.242  27.125  62.976  1.00  0.00     0.041 C 
ATOM      9  O   UNL     1      30.076  27.600  62.949  1.00  0.00    -0.550 OA
ATOM     10  O   UNL     1      32.310  27.899  62.541  1.00  0.00    -0.550 OA
ENDBRANCH   7   8
ENDBRANCH   6   7
ENDBRANCH   5   6
ENDBRANCH   4   5
ENDBRANCH   3   4
ENDBRANCH   2   3
ENDBRANCH   1   2
BRANCH   1  11
ATOM     11  C   UNL     1      30.711  24.217  68.896  1.00  0.00     0.000 C 
BRANCH  11  12
ATOM     12  C   UNL     1      31.572  24.128  70.166  1.00  0.00    -0.000 C 
BRANCH  12  13
ATOM     13  C   UNL     1      31.476  25.387  71.049  1.00  0.00    -0.000 C 
BRANCH  13  14
ATOM     14  C   UNL     1      32.557  26.455  70.800  1.00  0.00    -0.000 C 
BRANCH  14  15
ATOM     15  C   UNL     1      33.904  26.113  71.460  1.00  0.00    -0.000 C 
BRANCH  15  16
ATOM     16  C   UNL     1      34.979  25.705  70.439  1.00  0.00    -0.000 C 
BRANCH  16  17
ATOM     17  C   UNL     1      35.492  24.262  70.623  1.00  0.00    -0.003 C 
ATOM     18  C   UNL     1      36.985  24.212  70.945  1.00  0.00     0.004 C 
ENDBRANCH  16  17
ENDBRANCH  15  16
ENDBRANCH  14  15
ENDBRANCH  13  14
ENDBRANCH  12  13
ENDBRANCH  11  12
ENDBRANCH   1  11
TORSDOF 14
ENDMDL
MODEL 2
REMARK VINA RESULT:    -4.172      4.655      8.675
REMARK INTER + INTRA:          -8.938
REMARK INTER:                  -7.579
REMARK INTRA:                  -1.359
REMARK UNBOUND:                -1.352
REMARK SMILES CCCCCCCCCCCCCCCC(=O)[O-]
REMARK SMILES IDX 9 1 10 2 11 3 12 4 13 5 14 6 15 7 16 8 17 9 18 10 8 11 7 12
REMARK SMILES IDX 6 13 5 14 4 15 3 16 2 17 1 18
REMARK H PARENT
REMARK Flexibility Score: inf
ROOT
ATOM      1  C   UNL     1      29.894  27.620  63.202  1.00  0.00     0.000 C 
ENDROOT
BRANCH   1   2
ATOM      2  C   UNL     1      31.003  27.222  62.205  1.00  0.00     0.000 C 
BRANCH   2   3
ATOM      3  C   UNL     1      32.336  26.921  62.915  1.00  0.00     0.000 C 
BRANCH   3   4
ATOM      4  C   UNL     1      32.808  25.470  62.714  1.00  0.00     0.000 C 
BRANCH   4   5
ATOM      5  C   UNL     1      32.230  24.457  63.718  1.00  0.00     0.000 C 
BRANCH   5   6
ATOM      6  C   UNL     1      32.004  25.062  65.114  1.00  0.00     0.006 C 
BRANCH   6   7
ATOM      7  C   UNL     1      30.934  24.300  65.907  1.00  0.00     0.053 C 
BRANCH   7   8
ATOM      8  C   UNL     1      31.225  24.305  67.376  1.00  0.00     0.041 C 
ATOM      9  O   UNL     1      30.293  24.149  68.208  1.00  0.00    -0.550 OA
ATOM     10  O   UNL     1      32.531  24.449  67.826  1.00  0.00    -0.550 OA
ENDBRANCH   7   8
ENDBRANCH   6   7
ENDBRANCH   5   6
ENDBRANCH   4   5
ENDBRANCH   3   4
ENDBRANCH   2   3
ENDBRANCH   1   2
BRANCH   1  11
ATOM     11  C   UNL     1      28.590  26.823  63.023  1.00  0.00     0.000 C 
BRANCH  11  12
ATOM     12  C   UNL     1      28.838  25.347  62.672  1.00  0.00    -0.000 C 
BRANCH  12  13
ATOM     13  C   UNL     1      27.653  24.695  61.934  1.00  0.00    -0.000 C 
BRANCH  13  14
ATOM     14  C   UNL     1      26.257  25.185  62.359  1.00  0.00    -0.000 C 
BRANCH  14  15
ATOM     15  C   UNL     1      25.163  24.850  61.332  1.00  0.00    -0.000 C 
BRANCH  15  16
ATOM     16  C   UNL     1      23.994  24.060  61.945  1.00  0.00    -0.000 C 
BRANCH  16  17
ATOM     17  C   UNL     1      23.986  24.064  63.488  1.00  0.00    -0.003 C 
ATOM     18  C   UNL     1      23.001  25.083  64.062  1.00  0.00     0.004 C 
ENDBRANCH  16  17
ENDBRANCH  15  16
ENDBRANCH  14  15
ENDBRANCH  13  14
ENDBRANCH  12  13
ENDBRANCH  11  12
ENDBRANCH   1  11
TORSDOF 14
ENDMDL
MODEL 3
REMARK VINA RESULT:    -4.165      1.800      3.870
REMARK INTER + INTRA:          -8.926
REMARK INTER:                  -7.806
REMARK INTRA:                  -1.120
REMARK UNBOUND:                -1.352
REMARK SMILES CCCCCCCCCCCCCCCC(=O)[O-]
REMARK SMILES IDX 9 1 10 2 11 3 12 4 13 5 14 6 15 7 16 8 17 9 18 10 8 11 7 12
REMARK SMILES IDX 6 13 5 14 4 15 3 16 2 17 1 18
REMARK H PARENT
REMARK Flexibility Score: inf
ROOT
ATOM      1  C   UNL     1      32.464  26.078  71.411  1.00  0.00     0.000 C 
ENDROOT
BRANCH   1   2
ATOM      2  C   UNL     1      31.219  25.759  70.556  1.00  0.00     0.000 C 
BRANCH   2   3
ATOM      3  C   UNL     1      31.050  24.246  70.322  1.00  0.00     0.000 C 
BRANCH   3   4
ATOM      4  C   UNL     1      30.949  23.879  68.831  1.00  0.00     0.000 C 
BRANCH   4   5
ATOM      5  C   UNL     1      31.931  24.627  67.912  1.00  0.00     0.000 C 
BRANCH   5   6
ATOM      6  C   UNL     1      32.011  24.021  66.501  1.00  0.00     0.006 C 
BRANCH   6   7
ATOM      7  C   UNL     1      30.961  24.618  65.556  1.00  0.00     0.053 C 
BRANCH   7   8
ATOM      8  C   UNL     1      31.391  24.530  64.124  1.00  0.00     0.041 C 
ATOM      9  O   UNL     1      30.532  24.465  63.206  1.00  0.00    -0.550 OA
ATOM     10  O   UNL     1      32.742  24.552  63.801  1.00  0.00    -0.550 OA
ENDBRANCH   7   8
ENDBRANCH   6   7
ENDBRANCH   5   6
ENDBRANCH   4   5
ENDBRANCH   3   4
ENDBRANCH   2   3
ENDBRANCH   1   2
BRANCH   1  11
ATOM     11  C   UNL     1      33.710  25.269  71.009  1.00  0.00     0.000 C 
BRANCH  11  12
ATOM     12  C   UNL     1      34.672  26.064  70.112  1.00  0.00    -0.000 C 
BRANCH  12  13
ATOM     13  C   UNL     1      35.431  25.177  69.106  1.00  0.00    -0.000 C 
BRANCH  13  14
ATOM     14  C   UNL     1      36.117  23.936  69.704  1.00  0.00    -0.000 C 
BRANCH  14  15
ATOM     15  C   UNL     1      37.595  24.177  70.056  1.00  0.00    -0.000 C 
BRANCH  15  16
ATOM     16  C   UNL     1      37.911  23.875  71.531  1.00  0.00    -0.000 C 
BRANCH  16  17
ATOM     17  C   UNL     1      39.375  24.166  71.922  1.00  0.00    -0.003 C 
ATOM     18  C   UNL     1      39.485  24.902  73.257  1.00  0.00     0.004 C 
ENDBRANCH  16  17
ENDBRANCH  15  16
ENDBRANCH  14  15
ENDBRANCH  13  14
ENDBRANCH  12  13
ENDBRANCH  11  12
ENDBRANCH   1  11
TORSDOF 14
ENDMDL
MODEL 4
REMARK VINA RESULT:    -4.151      4.835      8.910
REMARK INTER + INTRA:          -8.900
REMARK INTER:                  -8.086
REMARK INTRA:                  -0.814
REMARK UNBOUND:                -1.352
REMARK SMILES CCCCCCCCCCCCCCCC(=O)[O-]
REMARK SMILES IDX 9 1 10 2 11 3 12 4 13 5 14 6 15 7 16 8 17 9 18 10 8 11 7 12
REMARK SMILES IDX 6 13 5 14 4 15 3 16 2 17 1 18
REMARK H PARENT
REMARK Flexibility Score: inf
ROOT
ATOM      1  C   UNL     1      30.577  27.272  62.921  1.00  0.00     0.000 C 
ENDROOT
BRANCH   1   2
ATOM      2  C   UNL     1      31.966  26.615  63.067  1.00  0.00     0.000 C 
BRANCH   2   3
ATOM      3  C   UNL     1      31.869  25.161  63.563  1.00  0.00     0.000 C 
BRANCH   3   4
ATOM      4  C   UNL     1      32.510  24.956  64.947  1.00  0.00     0.000 C 
BRANCH   4   5
ATOM      5  C   UNL     1      31.533  24.519  66.054  1.00  0.00     0.000 C 
BRANCH   5   6
ATOM      6  C   UNL     1      32.200  24.423  67.436  1.00  0.00     0.006 C 
BRANCH   6   7
ATOM      7  C   UNL     1      31.176  24.481  68.577  1.00  0.00     0.053 C 
BRANCH   7   8
ATOM      8  C   UNL     1      31.810  24.892  69.870  1.00  0.00     0.041 C 
ATOM      9  O   UNL     1      33.015  24.610  70.104  1.00  0.00    -0.550 OA
ATOM     10  O   UNL     1      31.079  25.615  70.804  1.00  0.00    -0.550 OA
ENDBRANCH   7   8
ENDBRANCH   6   7
ENDBRANCH   5   6
ENDBRANCH   4   5
ENDBRANCH   3   4
ENDBRANCH   2   3
ENDBRANCH   1   2
BRANCH   1  11
ATOM     11  C   UNL     1      29.432  26.425  63.504  1.00  0.00     0.000 C 
BRANCH  11  12
ATOM     12  C   UNL     1      28.343  26.103  62.468  1.00  0.00    -0.000 C 
BRANCH  12  13
ATOM     13  C   UNL     1      28.249  24.600  62.140  1.00  0.00    -0.000 C 
BRANCH  13  14
ATOM     14  C   UNL     1      26.842  24.087  61.785  1.00  0.00    -0.000 C 
BRANCH  14  15
ATOM     15  C   UNL     1      25.736  25.116  62.072  1.00  0.00    -0.000 C 
BRANCH  15  16
ATOM     16  C   UNL     1      24.326  24.571  61.783  1.00  0.00    -0.000 C 
BRANCH  16  17
ATOM     17  C   UNL     1      23.630  23.970  63.021  1.00  0.00    -0.003 C 
ATOM     18  C   UNL     1      23.248  25.037  64.048  1.00  0.00     0.004 C 
ENDBRANCH  16  17
ENDBRANCH  15  16
ENDBRANCH  14  15
ENDBRANCH  13  14
ENDBRANCH  12  13
ENDBRANCH  11  12
ENDBRANCH   1  11
TORSDOF 14
ENDMDL
MODEL 5
REMARK VINA RESULT:    -4.048      1.864      3.524
REMARK INTER + INTRA:          -8.713
REMARK INTER:                  -7.592
REMARK INTRA:                  -1.122
REMARK UNBOUND:                -1.352
REMARK SMILES CCCCCCCCCCCCCCCC(=O)[O-]
REMARK SMILES IDX 9 1 10 2 11 3 12 4 13 5 14 6 15 7 16 8 17 9 18 10 8 11 7 12
REMARK SMILES IDX 6 13 5 14 4 15 3 16 2 17 1 18
REMARK H PARENT
REMARK Flexibility Score: inf
ROOT
ATOM      1  C   UNL     1      32.161  24.627  66.070  1.00  0.00     0.000 C 
ENDROOT
BRANCH   1   2
ATOM      2  C   UNL     1      33.078  24.559  64.830  1.00  0.00     0.000 C 
BRANCH   2   3
ATOM      3  C   UNL     1      32.277  24.618  63.516  1.00  0.00     0.000 C 
BRANCH   3   4
ATOM      4  C   UNL     1      32.457  25.949  62.764  1.00  0.00     0.000 C 
BRANCH   4   5
ATOM      5  C   UNL     1      31.566  27.101  63.264  1.00  0.00     0.000 C 
BRANCH   5   6
ATOM      6  C   UNL     1      30.209  27.164  62.543  1.00  0.00     0.006 C 
BRANCH   6   7
ATOM      7  C   UNL     1      29.084  26.532  63.373  1.00  0.00     0.053 C 
BRANCH   7   8
ATOM      8  C   UNL     1      28.322  25.512  62.586  1.00  0.00     0.041 C 
ATOM      9  O   UNL     1      28.904  24.486  62.145  1.00  0.00    -0.550 OA
ATOM     10  O   UNL     1      26.960  25.678  62.367  1.00  0.00    -0.550 OA
ENDBRANCH   7   8
ENDBRANCH   6   7
ENDBRANCH   5   6
ENDBRANCH   4   5
ENDBRANCH   3   4
ENDBRANCH   2   3
ENDBRANCH   1   2
BRANCH   1  11
ATOM     11  C   UNL     1      32.882  24.293  67.388  1.00  0.00     0.000 C 
BRANCH  11  12
ATOM     12  C   UNL     1      34.371  23.971  67.186  1.00  0.00    -0.000 C 
BRANCH  12  13
ATOM     13  C   UNL     1      35.234  24.317  68.415  1.00  0.00    -0.000 C 
BRANCH  13  14
ATOM     14  C   UNL     1      34.487  24.352  69.761  1.00  0.00    -0.000 C 
BRANCH  14  15
ATOM     15  C   UNL     1      35.054  25.396  70.737  1.00  0.00    -0.000 C 
BRANCH  15  16
ATOM     16  C   UNL     1      33.997  26.413  71.201  1.00  0.00    -0.000 C 
BRANCH  16  17
ATOM     17  C   UNL     1      32.575  26.103  70.690  1.00  0.00    -0.003 C 
ATOM     18  C   UNL     1      31.551  26.044  71.824  1.00  0.00     0.004 C 
ENDBRANCH  16  17
ENDBRANCH  15  16
ENDBRANCH  14  15
ENDBRANCH  13  14
ENDBRANCH  12  13
ENDBRANCH  11  12
ENDBRANCH   1  11
TORSDOF 14
ENDMDL
MODEL 6
REMARK VINA RESULT:    -4.037      4.314      8.020
REMARK INTER + INTRA:          -8.693
REMARK INTER:                  -7.942
REMARK INTRA:                  -0.750
REMARK UNBOUND:                -1.352
REMARK SMILES CCCCCCCCCCCCCCCC(=O)[O-]
REMARK SMILES IDX 9 1 10 2 11 3 12 4 13 5 14 6 15 7 16 8 17 9 18 10 8 11 7 12
REMARK SMILES IDX 6 13 5 14 4 15 3 16 2 17 1 18
REMARK H PARENT
REMARK Flexibility Score: inf
ROOT
ATOM      1  C   UNL     1      32.271  25.503  69.814  1.00  0.00     0.000 C 
ENDROOT
BRANCH   1   2
ATOM      2  C   UNL     1      32.828  26.051  71.145  1.00  0.00     0.000 C 
BRANCH   2   3
ATOM      3  C   UNL     1      34.351  25.855  71.258  1.00  0.00     0.000 C 
BRANCH   3   4
ATOM      4  C   UNL     1      34.848  24.589  70.538  1.00  0.00     0.000 C 
BRANCH   4   5
ATOM      5  C   UNL     1      36.080  24.796  69.639  1.00  0.00     0.000 C 
BRANCH   5   6
ATOM      6  C   UNL     1      37.255  23.878  70.014  1.00  0.00     0.006 C 
BRANCH   6   7
ATOM      7  C   UNL     1      37.529  23.878  71.523  1.00  0.00     0.053 C 
BRANCH   7   8
ATOM      8  C   UNL     1      38.888  24.423  71.839  1.00  0.00     0.041 C 
ATOM      9  O   UNL     1      39.220  24.645  73.033  1.00  0.00    -0.550 OA
ATOM     10  O   UNL     1      39.799  24.656  70.817  1.00  0.00    -0.550 OA
ENDBRANCH   7   8
ENDBRANCH   6   7
ENDBRANCH   5   6
ENDBRANCH   4   5
ENDBRANCH   3   4
ENDBRANCH   2   3
ENDBRANCH   1   2
BRANCH   1  11
ATOM     11  C   UNL     1      31.094  24.528  69.994  1.00  0.00     0.000 C 
BRANCH  11  12
ATOM     12  C   UNL     1      30.561  23.986  68.658  1.00  0.00    -0.000 C 
BRANCH  12  13
ATOM     13  C   UNL     1      31.227  24.641  67.432  1.00  0.00    -0.000 C 
BRANCH  13  14
ATOM     14  C   UNL     1      30.692  24.182  66.064  1.00  0.00    -0.000 C 
BRANCH  14  15
ATOM     15  C   UNL     1      31.395  24.870  64.882  1.00  0.00    -0.000 C 
BRANCH  15  16
ATOM     16  C   UNL     1      30.544  24.866  63.600  1.00  0.00    -0.000 C 
BRANCH  16  17
ATOM     17  C   UNL     1      30.166  26.278  63.104  1.00  0.00    -0.003 C 
ATOM     18  C   UNL     1      28.711  26.631  63.414  1.00  0.00     0.004 C 
ENDBRANCH  16  17
ENDBRANCH  15  16
ENDBRANCH  14  15
ENDBRANCH  13  14
ENDBRANCH  12  13
ENDBRANCH  11  12
ENDBRANCH   1  11
TORSDOF 14
ENDMDL
MODEL 7
REMARK VINA RESULT:    -3.972      3.479      7.768
REMARK INTER + INTRA:          -8.574
REMARK INTER:                  -7.554
REMARK INTRA:                  -1.020
REMARK UNBOUND:                -1.352
REMARK SMILES CCCCCCCCCCCCCCCC(=O)[O-]
REMARK SMILES IDX 9 1 10 2 11 3 12 4 13 5 14 6 15 7 16 8 17 9 18 10 8 11 7 12
REMARK SMILES IDX 6 13 5 14 4 15 3 16 2 17 1 18
REMARK H PARENT
REMARK Flexibility Score: inf
ROOT
ATOM      1  C   UNL     1      32.261  24.621  68.029  1.00  0.00     0.000 C 
ENDROOT
BRANCH   1   2
ATOM      2  C   UNL     1      31.676  24.114  69.364  1.00  0.00     0.000 C 
BRANCH   2   3
ATOM      3  C   UNL     1      31.250  25.273  70.285  1.00  0.00     0.000 C 
BRANCH   3   4
ATOM      4  C   UNL     1      32.353  25.686  71.276  1.00  0.00     0.000 C 
BRANCH   4   5
ATOM      5  C   UNL     1      33.445  26.596  70.686  1.00  0.00     0.000 C 
BRANCH   5   6
ATOM      6  C   UNL     1      34.868  26.129  71.038  1.00  0.00     0.006 C 
BRANCH   6   7
ATOM      7  C   UNL     1      35.073  24.636  70.752  1.00  0.00     0.053 C 
BRANCH   7   8
ATOM      8  C   UNL     1      36.489  24.334  70.373  1.00  0.00     0.041 C 
ATOM      9  O   UNL     1      36.818  24.252  69.161  1.00  0.00    -0.550 OA
ATOM     10  O   UNL     1      37.454  24.173  71.360  1.00  0.00    -0.550 OA
ENDBRANCH   7   8
ENDBRANCH   6   7
ENDBRANCH   5   6
ENDBRANCH   4   5
ENDBRANCH   3   4
ENDBRANCH   2   3
ENDBRANCH   1   2
BRANCH   1  11
ATOM     11  C   UNL     1      31.611  23.982  66.789  1.00  0.00     0.000 C 
BRANCH  11  12
ATOM     12  C   UNL     1      31.550  24.940  65.588  1.00  0.00    -0.000 C 
BRANCH  12  13
ATOM     13  C   UNL     1      32.060  24.302  64.282  1.00  0.00    -0.000 C 
BRANCH  13  14
ATOM     14  C   UNL     1      32.438  25.292  63.165  1.00  0.00    -0.000 C 
BRANCH  14  15
ATOM     15  C   UNL     1      31.957  26.726  63.444  1.00  0.00    -0.000 C 
BRANCH  15  16
ATOM     16  C   UNL     1      30.914  27.212  62.423  1.00  0.00    -0.000 C 
BRANCH  16  17
ATOM     17  C   UNL     1      29.543  27.540  63.049  1.00  0.00    -0.003 C 
ATOM     18  C   UNL     1      28.599  26.337  63.043  1.00  0.00     0.004 C 
ENDBRANCH  16  17
ENDBRANCH  15  16
ENDBRANCH  14  15
ENDBRANCH  13  14
ENDBRANCH  12  13
ENDBRANCH  11  12
ENDBRANCH   1  11
TORSDOF 14
ENDMDL
MODEL 8
REMARK VINA RESULT:    -3.833      1.842      2.348
REMARK INTER + INTRA:          -8.321
REMARK INTER:                  -7.356
REMARK INTRA:                  -0.966
REMARK UNBOUND:                -1.352
REMARK SMILES CCCCCCCCCCCCCCCC(=O)[O-]
REMARK SMILES IDX 9 1 10 2 11 3 12 4 13 5 14 6 15 7 16 8 17 9 18 10 8 11 7 12
REMARK SMILES IDX 6 13 5 14 4 15 3 16 2 17 1 18
REMARK H PARENT
REMARK Flexibility Score: inf
ROOT
ATOM      1  C   UNL     1      30.885  24.546  68.795  1.00  0.00     0.000 C 
ENDROOT
BRANCH   1   2
ATOM      2  C   UNL     1      32.245  24.585  68.066  1.00  0.00     0.000 C 
BRANCH   2   3
ATOM      3  C   UNL     1      32.178  23.915  66.681  1.00  0.00     0.000 C 
BRANCH   3   4
ATOM      4  C   UNL     1      32.141  24.931  65.526  1.00  0.00     0.000 C 
BRANCH   4   5
ATOM      5  C   UNL     1      30.926  24.803  64.589  1.00  0.00     0.000 C 
BRANCH   5   6
ATOM      6  C   UNL     1      31.262  25.132  63.125  1.00  0.00     0.006 C 
BRANCH   6   7
ATOM      7  C   UNL     1      32.732  25.532  62.945  1.00  0.00     0.053 C 
BRANCH   7   8
ATOM      8  C   UNL     1      33.551  24.402  62.404  1.00  0.00     0.041 C 
ATOM      9  O   UNL     1      33.255  23.876  61.299  1.00  0.00    -0.550 OA
ATOM     10  O   UNL     1      34.662  23.949  63.105  1.00  0.00    -0.550 OA
ENDBRANCH   7   8
ENDBRANCH   6   7
ENDBRANCH   5   6
ENDBRANCH   4   5
ENDBRANCH   3   4
ENDBRANCH   2   3
ENDBRANCH   1   2
BRANCH   1  11
ATOM     11  C   UNL     1      31.008  24.572  70.329  1.00  0.00     0.000 C 
BRANCH  11  12
ATOM     12  C   UNL     1      31.506  25.925  70.863  1.00  0.00    -0.000 C 
BRANCH  12  13
ATOM     13  C   UNL     1      32.922  25.851  71.466  1.00  0.00    -0.000 C 
BRANCH  13  14
ATOM     14  C   UNL     1      34.024  26.558  70.656  1.00  0.00    -0.000 C 
BRANCH  14  15
ATOM     15  C   UNL     1      35.002  25.577  69.987  1.00  0.00    -0.000 C 
BRANCH  15  16
ATOM     16  C   UNL     1      35.216  24.296  70.810  1.00  0.00    -0.000 C 
BRANCH  16  17
ATOM     17  C   UNL     1      36.690  24.040  71.186  1.00  0.00    -0.003 C 
ATOM     18  C   UNL     1      37.586  23.894  69.956  1.00  0.00     0.004 C 
ENDBRANCH  16  17
ENDBRANCH  15  16
ENDBRANCH  14  15
ENDBRANCH  13  14
ENDBRANCH  12  13
ENDBRANCH  11  12
ENDBRANCH   1  11
TORSDOF 14
ENDMDL
MODEL 9
REMARK VINA RESULT:    -3.795      4.859      8.977
REMARK INTER + INTRA:          -8.252
REMARK INTER:                  -7.543
REMARK INTRA:                  -0.709
REMARK UNBOUND:                -1.352
REMARK SMILES CCCCCCCCCCCCCCCC(=O)[O-]
REMARK SMILES IDX 9 1 10 2 11 3 12 4 13 5 14 6 15 7 16 8 17 9 18 10 8 11 7 12
REMARK SMILES IDX 6 13 5 14 4 15 3 16 2 17 1 18
REMARK H PARENT
REMARK Flexibility Score: inf
ROOT
ATOM      1  C   UNL     1      31.295  26.289  63.404  1.00  0.00     0.000 C 
ENDROOT
BRANCH   1   2
ATOM      2  C   UNL     1      32.180  25.371  64.274  1.00  0.00     0.000 C 
BRANCH   2   3
ATOM      3  C   UNL     1      31.343  24.399  65.126  1.00  0.00     0.000 C 
BRANCH   3   4
ATOM      4  C   UNL     1      31.585  24.564  66.637  1.00  0.00     0.000 C 
BRANCH   4   5
ATOM      5  C   UNL     1      33.019  24.250  67.100  1.00  0.00     0.000 C 
BRANCH   5   6
ATOM      6  C   UNL     1      33.175  24.288  68.630  1.00  0.00     0.006 C 
BRANCH   6   7
ATOM      7  C   UNL     1      34.619  24.581  69.056  1.00  0.00     0.053 C 
BRANCH   7   8
ATOM      8  C   UNL     1      34.672  25.353  70.338  1.00  0.00     0.041 C 
ATOM      9  O   UNL     1      35.747  25.427  70.990  1.00  0.00    -0.550 OA
ATOM     10  O   UNL     1      33.542  26.017  70.798  1.00  0.00    -0.550 OA
ENDBRANCH   7   8
ENDBRANCH   6   7
ENDBRANCH   5   6
ENDBRANCH   4   5
ENDBRANCH   3   4
ENDBRANCH   2   3
ENDBRANCH   1   2
BRANCH   1  11
ATOM     11  C   UNL     1      30.011  25.608  62.900  1.00  0.00     0.000 C 
BRANCH  11  12
ATOM     12  C   UNL     1      28.751  26.451  63.153  1.00  0.00    -0.000 C 
BRANCH  12  13
ATOM     13  C   UNL     1      27.516  25.934  62.392  1.00  0.00    -0.000 C 
BRANCH  13  14
ATOM     14  C   UNL     1      27.543  24.439  62.025  1.00  0.00    -0.000 C 
BRANCH  14  15
ATOM     15  C   UNL     1      26.153  23.878  61.683  1.00  0.00    -0.000 C 
BRANCH  15  16
ATOM     16  C   UNL     1      25.037  24.928  61.822  1.00  0.00    -0.000 C 
BRANCH  16  17
ATOM     17  C   UNL     1      23.728  24.364  62.412  1.00  0.00    -0.003 C 
ATOM     18  C   UNL     1      23.451  24.891  63.820  1.00  0.00     0.004 C 
ENDBRANCH  16  17
ENDBRANCH  15  16
ENDBRANCH  14  15
ENDBRANCH  13  14
ENDBRANCH  12  13
ENDBRANCH  11  12
ENDBRANCH   1  11
TORSDOF 14
ENDMDL
