MODEL 1
REMARK VINA RESULT:    -3.610      0.000      0.000
REMARK INTER + INTRA:         -11.819
REMARK INTER:                  -7.830
REMARK INTRA:                  -3.989
REMARK UNBOUND:                -3.989
REMARK SMILES CCCCCCCCCCCCCCCCCCCCCC(=O)[O-]
REMARK SMILES IDX 12 1 11 2 10 3 9 4 8 5 7 6 6 7 5 8 4 9 3 10 2 11 1 12 13 13
REMARK SMILES IDX 14 14 15 15 16 16 17 17 18 18 19 19 20 20 21 21 22 22 23 23
REMARK SMILES IDX 24 24
REMARK H PARENT
REMARK Flexibility Score: inf
ROOT
ATOM      1  C   UNL     1      15.708 -32.901  -2.085  1.00  0.00     0.000 C 
ENDROOT
BRANCH   1   2
ATOM      2  C   UNL     1      14.471 -33.716  -2.512  1.00  0.00     0.000 C 
BRANCH   2   3
ATOM      3  C   UNL     1      13.657 -34.319  -1.352  1.00  0.00     0.000 C 
BRANCH   3   4
ATOM      4  C   UNL     1      13.637 -33.473  -0.063  1.00  0.00    -0.000 C 
BRANCH   4   5
ATOM      5  C   UNL     1      13.941 -34.251   1.232  1.00  0.00    -0.000 C 
BRANCH   5   6
ATOM      6  C   UNL     1      13.924 -35.786   1.093  1.00  0.00    -0.000 C 
BRANCH   6   7
ATOM      7  C   UNL     1      14.726 -36.544   2.168  1.00  0.00    -0.000 C 
BRANCH   7   8
ATOM      8  C   UNL     1      15.989 -35.790   2.612  1.00  0.00    -0.000 C 
BRANCH   8   9
ATOM      9  C   UNL     1      16.559 -36.386   3.904  1.00  0.00    -0.000 C 
BRANCH   9  10
ATOM     10  C   UNL     1      16.318 -35.451   5.096  1.00  0.00    -0.000 C 
BRANCH  10  11
ATOM     11  C   UNL     1      16.207 -33.993   4.638  1.00  0.00    -0.003 C 
ATOM     12  C   UNL     1      14.807 -33.440   4.887  1.00  0.00     0.004 C 
ENDBRANCH  10  11
ENDBRANCH   9  10
ENDBRANCH   8   9
ENDBRANCH   7   8
ENDBRANCH   6   7
ENDBRANCH   5   6
ENDBRANCH   4   5
ENDBRANCH   3   4
ENDBRANCH   2   3
ENDBRANCH   1   2
BRANCH   1  13
ATOM     13  C   UNL     1      17.021 -33.715  -2.092  1.00  0.00     0.000 C 
BRANCH  13  14
ATOM     14  C   UNL     1      17.350 -34.314  -0.713  1.00  0.00     0.000 C 
BRANCH  14  15
ATOM     15  C   UNL     1      17.351 -35.852  -0.725  1.00  0.00     0.000 C 
BRANCH  15  16
ATOM     16  C   UNL     1      17.633 -36.431  -2.123  1.00  0.00     0.000 C 
BRANCH  16  17
ATOM     17  C   UNL     1      16.807 -37.695  -2.416  1.00  0.00     0.000 C 
BRANCH  17  18
ATOM     18  C   UNL     1      15.410 -37.644  -1.774  1.00  0.00     0.000 C 
BRANCH  18  19
ATOM     19  C   UNL     1      15.166 -38.791  -0.775  1.00  0.00     0.000 C 
BRANCH  19  20
ATOM     20  C   UNL     1      16.432 -39.542  -0.323  1.00  0.00     0.006 C 
BRANCH  20  21
ATOM     21  C   UNL     1      16.892 -39.148   1.087  1.00  0.00     0.053 C 
BRANCH  21  22
ATOM     22  C   UNL     1      18.385 -39.087   1.153  1.00  0.00     0.041 C 
ATOM     23  O   UNL     1      19.055 -38.828   0.118  1.00  0.00    -0.550 OA
ATOM     24  O   UNL     1      19.036 -39.271   2.366  1.00  0.00    -0.550 OA
ENDBRANCH  21  22
ENDBRANCH  20  21
ENDBRANCH  19  20
ENDBRANCH  18  19
ENDBRANCH  17  18
ENDBRANCH  16  17
ENDBRANCH  15  16
ENDBRANCH  14  15
ENDBRANCH  13  14
ENDBRANCH   1  13
TORSDOF 20
ENDMDL
MODEL 2
REMARK VINA RESULT:    -3.468      2.438      6.225
REMARK INTER + INTRA:         -11.512
REMARK INTER:                  -8.455
REMARK INTRA:                  -3.057
REMARK UNBOUND:                -3.989
REMARK SMILES CCCCCCCCCCCCCCCCCCCCCC(=O)[O-]
REMARK SMILES IDX 12 1 11 2 10 3 9 4 8 5 7 6 6 7 5 8 4 9 3 10 2 11 1 12 13 13
REMARK SMILES IDX 14 14 15 15 16 16 17 17 18 18 19 19 20 20 21 21 22 22 23 23
REMARK SMILES IDX 24 24
REMARK H PARENT
REMARK Flexibility Score: inf
ROOT
ATOM      1  C   UNL     1      17.363 -34.074  -1.440  1.00  0.00     0.000 C 
ENDROOT
BRANCH   1   2
ATOM      2  C   UNL     1      17.723 -35.420  -2.101  1.00  0.00     0.000 C 
BRANCH   2   3
ATOM      3  C   UNL     1      16.535 -36.379  -2.309  1.00  0.00     0.000 C 
BRANCH   3   4
ATOM      4  C   UNL     1      16.914 -37.870  -2.415  1.00  0.00    -0.000 C 
BRANCH   4   5
ATOM      5  C   UNL     1      15.720 -38.843  -2.481  1.00  0.00    -0.000 C 
BRANCH   5   6
ATOM      6  C   UNL     1      14.338 -38.174  -2.626  1.00  0.00    -0.000 C 
BRANCH   6   7
ATOM      7  C   UNL     1      13.337 -38.940  -3.510  1.00  0.00    -0.000 C 
BRANCH   7   8
ATOM      8  C   UNL     1      13.483 -40.465  -3.393  1.00  0.00    -0.000 C 
BRANCH   8   9
ATOM      9  C   UNL     1      13.506 -41.123  -4.777  1.00  0.00    -0.000 C 
BRANCH   9  10
ATOM     10  C   UNL     1      13.895 -40.112  -5.862  1.00  0.00    -0.000 C 
BRANCH  10  11
ATOM     11  C   UNL     1      15.196 -40.524  -6.559  1.00  0.00    -0.003 C 
ATOM     12  C   UNL     1      16.294 -40.828  -5.545  1.00  0.00     0.004 C 
ENDBRANCH  10  11
ENDBRANCH   9  10
ENDBRANCH   8   9
ENDBRANCH   7   8
ENDBRANCH   6   7
ENDBRANCH   5   6
ENDBRANCH   4   5
ENDBRANCH   3   4
ENDBRANCH   2   3
ENDBRANCH   1   2
BRANCH   1  13
ATOM     13  C   UNL     1      16.317 -33.255  -2.226  1.00  0.00     0.000 C 
BRANCH  13  14
ATOM     14  C   UNL     1      15.120 -32.836  -1.354  1.00  0.00     0.000 C 
BRANCH  14  15
ATOM     15  C   UNL     1      14.098 -33.971  -1.172  1.00  0.00     0.000 C 
BRANCH  15  16
ATOM     16  C   UNL     1      14.161 -34.602   0.231  1.00  0.00     0.000 C 
BRANCH  16  17
ATOM     17  C   UNL     1      13.933 -36.122   0.204  1.00  0.00     0.000 C 
BRANCH  17  18
ATOM     18  C   UNL     1      14.586 -36.834   1.402  1.00  0.00     0.000 C 
BRANCH  18  19
ATOM     19  C   UNL     1      15.985 -37.391   1.079  1.00  0.00     0.000 C 
BRANCH  19  20
ATOM     20  C   UNL     1      17.158 -36.590   1.673  1.00  0.00     0.006 C 
BRANCH  20  21
ATOM     21  C   UNL     1      18.471 -36.789   0.903  1.00  0.00     0.053 C 
BRANCH  21  22
ATOM     22  C   UNL     1      18.901 -38.221   0.963  1.00  0.00     0.041 C 
ATOM     23  O   UNL     1      18.879 -38.844   2.058  1.00  0.00    -0.550 OA
ATOM     24  O   UNL     1      19.280 -38.883  -0.198  1.00  0.00    -0.550 OA
ENDBRANCH  21  22
ENDBRANCH  20  21
ENDBRANCH  19  20
ENDBRANCH  18  19
ENDBRANCH  17  18
ENDBRANCH  16  17
ENDBRANCH  15  16
ENDBRANCH  14  15
ENDBRANCH  13  14
ENDBRANCH   1  13
TORSDOF 20
ENDMDL
MODEL 3
REMARK VINA RESULT:    -3.419      1.147      2.336
REMARK INTER + INTRA:         -11.406
REMARK INTER:                  -7.726
REMARK INTRA:                  -3.680
REMARK UNBOUND:                -3.989
REMARK SMILES CCCCCCCCCCCCCCCCCCCCCC(=O)[O-]
REMARK SMILES IDX 12 1 11 2 10 3 9 4 8 5 7 6 6 7 5 8 4 9 3 10 2 11 1 12 13 13
REMARK SMILES IDX 14 14 15 15 16 16 17 17 18 18 19 19 20 20 21 21 22 22 23 23
REMARK SMILES IDX 24 24
REMARK H PARENT
REMARK Flexibility Score: inf
ROOT
ATOM      1  C   UNL     1      17.469 -34.144  -0.861  1.00  0.00     0.000 C 
ENDROOT
BRANCH   1   2
ATOM      2  C   UNL     1      16.824 -33.541  -2.124  1.00  0.00     0.000 C 
BRANCH   2   3
ATOM      3  C   UNL     1      15.420 -32.943  -1.915  1.00  0.00     0.000 C 
BRANCH   3   4
ATOM      4  C   UNL     1      14.261 -33.794  -2.471  1.00  0.00    -0.000 C 
BRANCH   4   5
ATOM      5  C   UNL     1      13.235 -34.263  -1.420  1.00  0.00    -0.000 C 
BRANCH   5   6
ATOM      6  C   UNL     1      13.626 -33.989   0.045  1.00  0.00    -0.000 C 
BRANCH   6   7
ATOM      7  C   UNL     1      14.203 -35.200   0.800  1.00  0.00    -0.000 C 
BRANCH   7   8
ATOM      8  C   UNL     1      14.645 -34.856   2.231  1.00  0.00    -0.000 C 
BRANCH   8   9
ATOM      9  C   UNL     1      15.979 -35.530   2.572  1.00  0.00    -0.000 C 
BRANCH   9  10
ATOM     10  C   UNL     1      16.593 -34.926   3.841  1.00  0.00    -0.000 C 
BRANCH  10  11
ATOM     11  C   UNL     1      16.048 -35.613   5.097  1.00  0.00    -0.003 C 
ATOM     12  C   UNL     1      17.106 -36.504   5.743  1.00  0.00     0.004 C 
ENDBRANCH  10  11
ENDBRANCH   9  10
ENDBRANCH   8   9
ENDBRANCH   7   8
ENDBRANCH   6   7
ENDBRANCH   5   6
ENDBRANCH   4   5
ENDBRANCH   3   4
ENDBRANCH   2   3
ENDBRANCH   1   2
BRANCH   1  13
ATOM     13  C   UNL     1      17.389 -35.684  -0.796  1.00  0.00     0.000 C 
BRANCH  13  14
ATOM     14  C   UNL     1      17.753 -36.350  -2.135  1.00  0.00     0.000 C 
BRANCH  14  15
ATOM     15  C   UNL     1      16.837 -37.539  -2.469  1.00  0.00     0.000 C 
BRANCH  15  16
ATOM     16  C   UNL     1      15.363 -37.265  -2.120  1.00  0.00     0.000 C 
BRANCH  16  17
ATOM     17  C   UNL     1      14.800 -38.275  -1.107  1.00  0.00     0.000 C 
BRANCH  17  18
ATOM     18  C   UNL     1      15.897 -39.156  -0.484  1.00  0.00     0.000 C 
BRANCH  18  19
ATOM     19  C   UNL     1      16.088 -38.902   1.023  1.00  0.00     0.000 C 
BRANCH  19  20
ATOM     20  C   UNL     1      17.536 -38.605   1.456  1.00  0.00     0.006 C 
BRANCH  20  21
ATOM     21  C   UNL     1      17.803 -38.945   2.929  1.00  0.00     0.053 C 
BRANCH  21  22
ATOM     22  C   UNL     1      18.900 -39.956   3.042  1.00  0.00     0.041 C 
ATOM     23  O   UNL     1      18.851 -41.022   2.372  1.00  0.00    -0.550 OA
ATOM     24  O   UNL     1      20.000 -39.701   3.850  1.00  0.00    -0.550 OA
ENDBRANCH  21  22
ENDBRANCH  20  21
ENDBRANCH  19  20
ENDBRANCH  18  19
ENDBRANCH  17  18
ENDBRANCH  16  17
ENDBRANCH  15  16
ENDBRANCH  14  15
ENDBRANCH  13  14
ENDBRANCH   1  13
TORSDOF 20
ENDMDL
MODEL 4
REMARK VINA RESULT:    -3.410      1.216      1.919
REMARK INTER + INTRA:         -11.386
REMARK INTER:                  -8.101
REMARK INTRA:                  -3.285
REMARK UNBOUND:                -3.989
REMARK SMILES CCCCCCCCCCCCCCCCCCCCCC(=O)[O-]
REMARK SMILES IDX 12 1 11 2 10 3 9 4 8 5 7 6 6 7 5 8 4 9 3 10 2 11 1 12 13 13
REMARK SMILES IDX 14 14 15 15 16 16 17 17 18 18 19 19 20 20 21 21 22 22 23 23
REMARK SMILES IDX 24 24
REMARK H PARENT
REMARK Flexibility Score: inf
ROOT
ATOM      1  C   UNL     1      15.581 -32.937  -1.882  1.00  0.00     0.000 C 
ENDROOT
BRANCH   1   2
ATOM      2  C   UNL     1      14.378 -33.714  -2.450  1.00  0.00     0.000 C 
BRANCH   2   3
ATOM      3  C   UNL     1      13.591 -34.541  -1.416  1.00  0.00     0.000 C 
BRANCH   3   4
ATOM      4  C   UNL     1      13.853 -34.162   0.056  1.00  0.00    -0.000 C 
BRANCH   4   5
ATOM      5  C   UNL     1      14.321 -35.323   0.954  1.00  0.00    -0.000 C 
BRANCH   5   6
ATOM      6  C   UNL     1      15.000 -34.899   2.272  1.00  0.00    -0.000 C 
BRANCH   6   7
ATOM      7  C   UNL     1      16.067 -35.878   2.796  1.00  0.00    -0.000 C 
BRANCH   7   8
ATOM      8  C   UNL     1      15.600 -36.662   4.032  1.00  0.00    -0.000 C 
BRANCH   8   9
ATOM      9  C   UNL     1      16.670 -36.650   5.129  1.00  0.00    -0.000 C 
BRANCH   9  10
ATOM     10  C   UNL     1      17.429 -37.982   5.174  1.00  0.00    -0.000 C 
BRANCH  10  11
ATOM     11  C   UNL     1      18.039 -38.222   6.559  1.00  0.00    -0.003 C 
ATOM     12  C   UNL     1      18.727 -36.966   7.085  1.00  0.00     0.004 C 
ENDBRANCH  10  11
ENDBRANCH   9  10
ENDBRANCH   8   9
ENDBRANCH   7   8
ENDBRANCH   6   7
ENDBRANCH   5   6
ENDBRANCH   4   5
ENDBRANCH   3   4
ENDBRANCH   2   3
ENDBRANCH   1   2
BRANCH   1  13
ATOM     13  C   UNL     1      16.930 -33.671  -2.044  1.00  0.00     0.000 C 
BRANCH  13  14
ATOM     14  C   UNL     1      17.446 -34.257  -0.718  1.00  0.00     0.000 C 
BRANCH  14  15
ATOM     15  C   UNL     1      17.578 -35.788  -0.763  1.00  0.00     0.000 C 
BRANCH  15  16
ATOM     16  C   UNL     1      17.635 -36.334  -2.201  1.00  0.00     0.000 C 
BRANCH  16  17
ATOM     17  C   UNL     1      16.864 -37.655  -2.361  1.00  0.00     0.000 C 
BRANCH  17  18
ATOM     18  C   UNL     1      15.495 -37.624  -1.661  1.00  0.00     0.000 C 
BRANCH  18  19
ATOM     19  C   UNL     1      15.199 -38.908  -0.864  1.00  0.00     0.000 C 
BRANCH  19  20
ATOM     20  C   UNL     1      16.432 -39.586  -0.239  1.00  0.00     0.006 C 
BRANCH  20  21
ATOM     21  C   UNL     1      16.903 -38.901   1.051  1.00  0.00     0.053 C 
BRANCH  21  22
ATOM     22  C   UNL     1      18.387 -39.023   1.197  1.00  0.00     0.041 C 
ATOM     23  O   UNL     1      18.885 -39.444   2.276  1.00  0.00    -0.550 OA
ATOM     24  O   UNL     1      19.218 -38.719   0.128  1.00  0.00    -0.550 OA
ENDBRANCH  21  22
ENDBRANCH  20  21
ENDBRANCH  19  20
ENDBRANCH  18  19
ENDBRANCH  17  18
ENDBRANCH  16  17
ENDBRANCH  15  16
ENDBRANCH  14  15
ENDBRANCH  13  14
ENDBRANCH   1  13
TORSDOF 20
ENDMDL
MODEL 5
REMARK VINA RESULT:    -3.395      1.934      3.380
REMARK INTER + INTRA:         -11.354
REMARK INTER:                  -7.251
REMARK INTRA:                  -4.103
REMARK UNBOUND:                -3.989
REMARK SMILES CCCCCCCCCCCCCCCCCCCCCC(=O)[O-]
REMARK SMILES IDX 12 1 11 2 10 3 9 4 8 5 7 6 6 7 5 8 4 9 3 10 2 11 1 12 13 13
REMARK SMILES IDX 14 14 15 15 16 16 17 17 18 18 19 19 20 20 21 21 22 22 23 23
REMARK SMILES IDX 24 24
REMARK H PARENT
REMARK Flexibility Score: inf
ROOT
ATOM      1  C   UNL     1      14.306 -33.495  -2.624  1.00  0.00     0.000 C 
ENDROOT
BRANCH   1   2
ATOM      2  C   UNL     1      13.680 -34.787  -2.063  1.00  0.00     0.000 C 
BRANCH   2   3
ATOM      3  C   UNL     1      13.515 -34.817  -0.531  1.00  0.00     0.000 C 
BRANCH   3   4
ATOM      4  C   UNL     1      13.336 -36.223   0.077  1.00  0.00    -0.000 C 
BRANCH   4   5
ATOM      5  C   UNL     1      14.422 -36.637   1.090  1.00  0.00    -0.000 C 
BRANCH   5   6
ATOM      6  C   UNL     1      15.166 -35.469   1.767  1.00  0.00    -0.000 C 
BRANCH   6   7
ATOM      7  C   UNL     1      16.308 -35.888   2.711  1.00  0.00    -0.000 C 
BRANCH   7   8
ATOM      8  C   UNL     1      16.084 -37.270   3.343  1.00  0.00    -0.000 C 
BRANCH   8   9
ATOM      9  C   UNL     1      17.313 -38.166   3.157  1.00  0.00    -0.000 C 
BRANCH   9  10
ATOM     10  C   UNL     1      17.031 -39.288   2.149  1.00  0.00    -0.000 C 
BRANCH  10  11
ATOM     11  C   UNL     1      17.672 -38.981   0.791  1.00  0.00    -0.003 C 
ATOM     12  C   UNL     1      18.953 -38.170   0.956  1.00  0.00     0.004 C 
ENDBRANCH  10  11
ENDBRANCH   9  10
ENDBRANCH   8   9
ENDBRANCH   7   8
ENDBRANCH   6   7
ENDBRANCH   5   6
ENDBRANCH   4   5
ENDBRANCH   3   4
ENDBRANCH   2   3
ENDBRANCH   1   2
BRANCH   1  13
ATOM     13  C   UNL     1      15.423 -32.908  -1.735  1.00  0.00     0.000 C 
BRANCH  13  14
ATOM     14  C   UNL     1      16.817 -33.443  -2.109  1.00  0.00     0.000 C 
BRANCH  14  15
ATOM     15  C   UNL     1      17.513 -34.148  -0.932  1.00  0.00     0.000 C 
BRANCH  15  16
ATOM     16  C   UNL     1      17.336 -35.676  -0.971  1.00  0.00     0.000 C 
BRANCH  16  17
ATOM     17  C   UNL     1      17.764 -36.284  -2.318  1.00  0.00     0.000 C 
BRANCH  17  18
ATOM     18  C   UNL     1      17.197 -37.699  -2.529  1.00  0.00     0.000 C 
BRANCH  18  19
ATOM     19  C   UNL     1      15.694 -37.798  -2.208  1.00  0.00     0.000 C 
BRANCH  19  20
ATOM     20  C   UNL     1      14.956 -38.962  -2.893  1.00  0.00     0.006 C 
BRANCH  20  21
ATOM     21  C   UNL     1      13.900 -39.617  -1.992  1.00  0.00     0.053 C 
BRANCH  21  22
ATOM     22  C   UNL     1      14.552 -40.286  -0.823  1.00  0.00     0.041 C 
ATOM     23  O   UNL     1      14.124 -40.082   0.344  1.00  0.00    -0.550 OA
ATOM     24  O   UNL     1      15.601 -41.172  -1.026  1.00  0.00    -0.550 OA
ENDBRANCH  21  22
ENDBRANCH  20  21
ENDBRANCH  19  20
ENDBRANCH  18  19
ENDBRANCH  17  18
ENDBRANCH  16  17
ENDBRANCH  15  16
ENDBRANCH  14  15
ENDBRANCH  13  14
ENDBRANCH   1  13
TORSDOF 20
ENDMDL
MODEL 6
REMARK VINA RESULT:    -3.363      2.096      3.839
REMARK INTER + INTRA:         -11.284
REMARK INTER:                  -7.575
REMARK INTRA:                  -3.709
REMARK UNBOUND:                -3.989
REMARK SMILES CCCCCCCCCCCCCCCCCCCCCC(=O)[O-]
REMARK SMILES IDX 12 1 11 2 10 3 9 4 8 5 7 6 6 7 5 8 4 9 3 10 2 11 1 12 13 13
REMARK SMILES IDX 14 14 15 15 16 16 17 17 18 18 19 19 20 20 21 21 22 22 23 23
REMARK SMILES IDX 24 24
REMARK H PARENT
REMARK Flexibility Score: inf
ROOT
ATOM      1  C   UNL     1      17.391 -34.367  -1.776  1.00  0.00     0.000 C 
ENDROOT
BRANCH   1   2
ATOM      2  C   UNL     1      16.833 -35.762  -2.120  1.00  0.00     0.000 C 
BRANCH   2   3
ATOM      3  C   UNL     1      17.900 -36.843  -2.377  1.00  0.00     0.000 C 
BRANCH   3   4
ATOM      4  C   UNL     1      18.119 -37.831  -1.213  1.00  0.00    -0.000 C 
BRANCH   4   5
ATOM      5  C   UNL     1      17.148 -37.668  -0.028  1.00  0.00    -0.000 C 
BRANCH   5   6
ATOM      6  C   UNL     1      17.774 -37.092   1.258  1.00  0.00    -0.000 C 
BRANCH   6   7
ATOM      7  C   UNL     1      17.340 -35.656   1.604  1.00  0.00    -0.000 C 
BRANCH   7   8
ATOM      8  C   UNL     1      15.824 -35.443   1.475  1.00  0.00    -0.000 C 
BRANCH   8   9
ATOM      9  C   UNL     1      15.176 -35.257   2.851  1.00  0.00    -0.000 C 
BRANCH   9  10
ATOM     10  C   UNL     1      14.856 -36.610   3.498  1.00  0.00    -0.000 C 
BRANCH  10  11
ATOM     11  C   UNL     1      15.748 -36.861   4.719  1.00  0.00    -0.003 C 
ATOM     12  C   UNL     1      16.462 -35.585   5.153  1.00  0.00     0.004 C 
ENDBRANCH  10  11
ENDBRANCH   9  10
ENDBRANCH   8   9
ENDBRANCH   7   8
ENDBRANCH   6   7
ENDBRANCH   5   6
ENDBRANCH   4   5
ENDBRANCH   3   4
ENDBRANCH   2   3
ENDBRANCH   1   2
BRANCH   1  13
ATOM     13  C   UNL     1      16.431 -33.209  -2.128  1.00  0.00     0.000 C 
BRANCH  13  14
ATOM     14  C   UNL     1      15.047 -33.371  -1.475  1.00  0.00     0.000 C 
BRANCH  14  15
ATOM     15  C   UNL     1      13.908 -33.405  -2.508  1.00  0.00     0.000 C 
BRANCH  15  16
ATOM     16  C   UNL     1      13.147 -34.743  -2.503  1.00  0.00     0.000 C 
BRANCH  16  17
ATOM     17  C   UNL     1      13.282 -35.493  -1.167  1.00  0.00     0.000 C 
BRANCH  17  18
ATOM     18  C   UNL     1      13.486 -37.006  -1.362  1.00  0.00     0.000 C 
BRANCH  18  19
ATOM     19  C   UNL     1      13.666 -37.402  -2.839  1.00  0.00     0.000 C 
BRANCH  19  20
ATOM     20  C   UNL     1      13.778 -38.916  -3.100  1.00  0.00     0.006 C 
BRANCH  20  21
ATOM     21  C   UNL     1      15.194 -39.461  -2.873  1.00  0.00     0.053 C 
BRANCH  21  22
ATOM     22  C   UNL     1      15.186 -40.514  -1.811  1.00  0.00     0.041 C 
ATOM     23  O   UNL     1      14.786 -40.239  -0.648  1.00  0.00    -0.550 OA
ATOM     24  O   UNL     1      15.574 -41.812  -2.116  1.00  0.00    -0.550 OA
ENDBRANCH  21  22
ENDBRANCH  20  21
ENDBRANCH  19  20
ENDBRANCH  18  19
ENDBRANCH  17  18
ENDBRANCH  16  17
ENDBRANCH  15  16
ENDBRANCH  14  15
ENDBRANCH  13  14
ENDBRANCH   1  13
TORSDOF 20
ENDMDL
MODEL 7
REMARK VINA RESULT:    -3.356      1.764      4.723
REMARK INTER + INTRA:         -11.268
REMARK INTER:                  -7.171
REMARK INTRA:                  -4.097
REMARK UNBOUND:                -3.989
REMARK SMILES CCCCCCCCCCCCCCCCCCCCCC(=O)[O-]
REMARK SMILES IDX 12 1 11 2 10 3 9 4 8 5 7 6 6 7 5 8 4 9 3 10 2 11 1 12 13 13
REMARK SMILES IDX 14 14 15 15 16 16 17 17 18 18 19 19 20 20 21 21 22 22 23 23
REMARK SMILES IDX 24 24
REMARK H PARENT
REMARK Flexibility Score: inf
ROOT
ATOM      1  C   UNL     1      17.386 -34.514  -0.599  1.00  0.00     0.000 C 
ENDROOT
BRANCH   1   2
ATOM      2  C   UNL     1      17.556 -36.040  -0.730  1.00  0.00     0.000 C 
BRANCH   2   3
ATOM      3  C   UNL     1      17.782 -36.547  -2.167  1.00  0.00     0.000 C 
BRANCH   3   4
ATOM      4  C   UNL     1      17.026 -37.842  -2.527  1.00  0.00    -0.000 C 
BRANCH   4   5
ATOM      5  C   UNL     1      15.519 -37.829  -2.203  1.00  0.00    -0.000 C 
BRANCH   5   6
ATOM      6  C   UNL     1      14.839 -39.212  -2.193  1.00  0.00    -0.000 C 
BRANCH   6   7
ATOM      7  C   UNL     1      15.449 -40.229  -1.211  1.00  0.00    -0.000 C 
BRANCH   7   8
ATOM      8  C   UNL     1      14.979 -40.016   0.236  1.00  0.00    -0.000 C 
BRANCH   8   9
ATOM      9  C   UNL     1      16.137 -40.201   1.223  1.00  0.00    -0.000 C 
BRANCH   9  10
ATOM     10  C   UNL     1      17.427 -39.568   0.685  1.00  0.00    -0.000 C 
BRANCH  10  11
ATOM     11  C   UNL     1      18.086 -38.677   1.744  1.00  0.00    -0.003 C 
ATOM     12  C   UNL     1      18.613 -39.504   2.912  1.00  0.00     0.004 C 
ENDBRANCH  10  11
ENDBRANCH   9  10
ENDBRANCH   8   9
ENDBRANCH   7   8
ENDBRANCH   6   7
ENDBRANCH   5   6
ENDBRANCH   4   5
ENDBRANCH   3   4
ENDBRANCH   2   3
ENDBRANCH   1   2
BRANCH   1  13
ATOM     13  C   UNL     1      17.367 -33.771  -1.953  1.00  0.00     0.000 C 
BRANCH  13  14
ATOM     14  C   UNL     1      16.047 -33.016  -2.193  1.00  0.00     0.000 C 
BRANCH  14  15
ATOM     15  C   UNL     1      14.905 -33.532  -1.302  1.00  0.00     0.000 C 
BRANCH  15  16
ATOM     16  C   UNL     1      13.889 -34.387  -2.082  1.00  0.00     0.000 C 
BRANCH  16  17
ATOM     17  C   UNL     1      13.055 -35.296  -1.163  1.00  0.00     0.000 C 
BRANCH  17  18
ATOM     18  C   UNL     1      13.534 -35.251   0.298  1.00  0.00     0.000 C 
BRANCH  18  19
ATOM     19  C   UNL     1      13.894 -36.641   0.855  1.00  0.00     0.000 C 
BRANCH  19  20
ATOM     20  C   UNL     1      15.039 -36.655   1.885  1.00  0.00     0.006 C 
BRANCH  20  21
ATOM     21  C   UNL     1      15.479 -35.247   2.311  1.00  0.00     0.053 C 
BRANCH  21  22
ATOM     22  C   UNL     1      16.180 -35.296   3.632  1.00  0.00     0.041 C 
ATOM     23  O   UNL     1      16.359 -34.239   4.294  1.00  0.00    -0.550 OA
ATOM     24  O   UNL     1      16.594 -36.514   4.155  1.00  0.00    -0.550 OA
ENDBRANCH  21  22
ENDBRANCH  20  21
ENDBRANCH  19  20
ENDBRANCH  18  19
ENDBRANCH  17  18
ENDBRANCH  16  17
ENDBRANCH  15  16
ENDBRANCH  14  15
ENDBRANCH  13  14
ENDBRANCH   1  13
TORSDOF 20
ENDMDL
MODEL 8
REMARK VINA RESULT:    -3.344      2.272      3.895
REMARK INTER + INTRA:         -11.243
REMARK INTER:                  -6.977
REMARK INTRA:                  -4.265
REMARK UNBOUND:                -3.989
REMARK SMILES CCCCCCCCCCCCCCCCCCCCCC(=O)[O-]
REMARK SMILES IDX 12 1 11 2 10 3 9 4 8 5 7 6 6 7 5 8 4 9 3 10 2 11 1 12 13 13
REMARK SMILES IDX 14 14 15 15 16 16 17 17 18 18 19 19 20 20 21 21 22 22 23 23
REMARK SMILES IDX 24 24
REMARK H PARENT
REMARK Flexibility Score: inf
ROOT
ATOM      1  C   UNL     1      17.293 -35.072  -1.244  1.00  0.00     0.000 C 
ENDROOT
BRANCH   1   2
ATOM      2  C   UNL     1      17.317 -33.751  -2.038  1.00  0.00     0.000 C 
BRANCH   2   3
ATOM      3  C   UNL     1      15.966 -33.014  -2.114  1.00  0.00     0.000 C 
BRANCH   3   4
ATOM      4  C   UNL     1      14.949 -33.405  -1.023  1.00  0.00    -0.000 C 
BRANCH   4   5
ATOM      5  C   UNL     1      13.524 -33.692  -1.533  1.00  0.00    -0.000 C 
BRANCH   5   6
ATOM      6  C   UNL     1      13.424 -34.781  -2.620  1.00  0.00    -0.000 C 
BRANCH   6   7
ATOM      7  C   UNL     1      13.930 -36.171  -2.194  1.00  0.00    -0.000 C 
BRANCH   7   8
ATOM      8  C   UNL     1      13.340 -36.636  -0.854  1.00  0.00    -0.000 C 
BRANCH   8   9
ATOM      9  C   UNL     1      14.449 -37.015   0.133  1.00  0.00    -0.000 C 
BRANCH   9  10
ATOM     10  C   UNL     1      14.420 -36.109   1.370  1.00  0.00    -0.000 C 
BRANCH  10  11
ATOM     11  C   UNL     1      15.544 -36.474   2.346  1.00  0.00    -0.003 C 
ATOM     12  C   UNL     1      16.537 -35.326   2.500  1.00  0.00     0.004 C 
ENDBRANCH  10  11
ENDBRANCH   9  10
ENDBRANCH   8   9
ENDBRANCH   7   8
ENDBRANCH   6   7
ENDBRANCH   5   6
ENDBRANCH   4   5
ENDBRANCH   3   4
ENDBRANCH   2   3
ENDBRANCH   1   2
BRANCH   1  13
ATOM     13  C   UNL     1      17.505 -36.327  -2.119  1.00  0.00     0.000 C 
BRANCH  13  14
ATOM     14  C   UNL     1      17.855 -37.573  -1.287  1.00  0.00     0.000 C 
BRANCH  14  15
ATOM     15  C   UNL     1      18.448 -37.216   0.086  1.00  0.00     0.000 C 
BRANCH  15  16
ATOM     16  C   UNL     1      18.396 -38.395   1.076  1.00  0.00     0.000 C 
BRANCH  16  17
ATOM     17  C   UNL     1      17.645 -39.610   0.506  1.00  0.00     0.000 C 
BRANCH  17  18
ATOM     18  C   UNL     1      16.474 -40.048   1.403  1.00  0.00     0.000 C 
BRANCH  18  19
ATOM     19  C   UNL     1      15.239 -40.498   0.601  1.00  0.00     0.000 C 
BRANCH  19  20
ATOM     20  C   UNL     1      15.487 -40.733  -0.901  1.00  0.00     0.006 C 
BRANCH  20  21
ATOM     21  C   UNL     1      14.400 -40.118  -1.792  1.00  0.00     0.053 C 
BRANCH  21  22
ATOM     22  C   UNL     1      14.819 -40.152  -3.228  1.00  0.00     0.041 C 
ATOM     23  O   UNL     1      14.103 -40.739  -4.083  1.00  0.00    -0.550 OA
ATOM     24  O   UNL     1      15.974 -39.497  -3.631  1.00  0.00    -0.550 OA
ENDBRANCH  21  22
ENDBRANCH  20  21
ENDBRANCH  19  20
ENDBRANCH  18  19
ENDBRANCH  17  18
ENDBRANCH  16  17
ENDBRANCH  15  16
ENDBRANCH  14  15
ENDBRANCH  13  14
ENDBRANCH   1  13
TORSDOF 20
ENDMDL
MODEL 9
REMARK VINA RESULT:    -3.235      1.180      2.850
REMARK INTER + INTRA:         -11.006
REMARK INTER:                  -7.178
REMARK INTRA:                  -3.828
REMARK UNBOUND:                -3.989
REMARK SMILES CCCCCCCCCCCCCCCCCCCCCC(=O)[O-]
REMARK SMILES IDX 12 1 11 2 10 3 9 4 8 5 7 6 6 7 5 8 4 9 3 10 2 11 1 12 13 13
REMARK SMILES IDX 14 14 15 15 16 16 17 17 18 18 19 19 20 20 21 21 22 22 23 23
REMARK SMILES IDX 24 24
REMARK H PARENT
REMARK Flexibility Score: inf
ROOT
ATOM      1  C   UNL     1      17.390 -35.396  -2.097  1.00  0.00     0.000 C 
ENDROOT
BRANCH   1   2
ATOM      2  C   UNL     1      17.020 -34.107  -1.338  1.00  0.00     0.000 C 
BRANCH   2   3
ATOM      3  C   UNL     1      16.219 -33.078  -2.157  1.00  0.00     0.000 C 
BRANCH   3   4
ATOM      4  C   UNL     1      14.737 -33.440  -2.387  1.00  0.00    -0.000 C 
BRANCH   4   5
ATOM      5  C   UNL     1      14.039 -34.119  -1.192  1.00  0.00    -0.000 C 
BRANCH   5   6
ATOM      6  C   UNL     1      13.371 -35.472  -1.506  1.00  0.00    -0.000 C 
BRANCH   6   7
ATOM      7  C   UNL     1      13.295 -36.450  -0.319  1.00  0.00    -0.000 C 
BRANCH   7   8
ATOM      8  C   UNL     1      13.318 -35.738   1.042  1.00  0.00    -0.000 C 
BRANCH   8   9
ATOM      9  C   UNL     1      14.478 -36.243   1.908  1.00  0.00    -0.000 C 
BRANCH   9  10
ATOM     10  C   UNL     1      15.029 -35.122   2.799  1.00  0.00    -0.000 C 
BRANCH  10  11
ATOM     11  C   UNL     1      16.502 -35.368   3.143  1.00  0.00    -0.003 C 
ATOM     12  C   UNL     1      17.394 -35.184   1.919  1.00  0.00     0.004 C 
ENDBRANCH  10  11
ENDBRANCH   9  10
ENDBRANCH   8   9
ENDBRANCH   7   8
ENDBRANCH   6   7
ENDBRANCH   5   6
ENDBRANCH   4   5
ENDBRANCH   3   4
ENDBRANCH   2   3
ENDBRANCH   1   2
BRANCH   1  13
ATOM     13  C   UNL     1      16.818 -36.680  -1.457  1.00  0.00     0.000 C 
BRANCH  13  14
ATOM     14  C   UNL     1      16.786 -37.864  -2.440  1.00  0.00     0.000 C 
BRANCH  14  15
ATOM     15  C   UNL     1      15.354 -38.334  -2.749  1.00  0.00     0.000 C 
BRANCH  15  16
ATOM     16  C   UNL     1      15.270 -39.852  -2.991  1.00  0.00     0.000 C 
BRANCH  16  17
ATOM     17  C   UNL     1      15.239 -40.656  -1.681  1.00  0.00     0.000 C 
BRANCH  17  18
ATOM     18  C   UNL     1      14.203 -40.110  -0.682  1.00  0.00     0.000 C 
BRANCH  18  19
ATOM     19  C   UNL     1      14.821 -39.737   0.679  1.00  0.00     0.000 C 
BRANCH  19  20
ATOM     20  C   UNL     1      16.349 -39.908   0.770  1.00  0.00     0.006 C 
BRANCH  20  21
ATOM     21  C   UNL     1      17.027 -38.800   1.587  1.00  0.00     0.053 C 
BRANCH  21  22
ATOM     22  C   UNL     1      18.516 -38.907   1.479  1.00  0.00     0.041 C 
ATOM     23  O   UNL     1      19.206 -39.192   2.494  1.00  0.00    -0.550 OA
ATOM     24  O   UNL     1      19.138 -38.739   0.249  1.00  0.00    -0.550 OA
ENDBRANCH  21  22
ENDBRANCH  20  21
ENDBRANCH  19  20
ENDBRANCH  18  19
ENDBRANCH  17  18
ENDBRANCH  16  17
ENDBRANCH  15  16
ENDBRANCH  14  15
ENDBRANCH  13  14
ENDBRANCH   1  13
TORSDOF 20
ENDMDL
