MODEL 1
REMARK VINA RESULT:    -4.995      0.000      0.000
REMARK INTER + INTRA:         -13.839
REMARK INTER:                 -10.836
REMARK INTRA:                  -3.003
REMARK UNBOUND:                -3.003
REMARK SMILES CCCCCCCCCCCCCCCCCCCCCC(=O)[O-]
REMARK SMILES IDX 12 1 11 2 10 3 9 4 8 5 7 6 6 7 5 8 4 9 3 10 2 11 1 12 13 13
REMARK SMILES IDX 14 14 15 15 16 16 17 17 18 18 19 19 20 20 21 21 22 22 23 23
REMARK SMILES IDX 24 24
REMARK H PARENT
REMARK Flexibility Score: inf
ROOT
ATOM      1  C   UNL     1     -19.501  43.368  85.431  1.00  0.00     0.000 C 
ENDROOT
BRANCH   1   2
ATOM      2  C   UNL     1     -19.740  42.290  86.501  1.00  0.00     0.000 C 
BRANCH   2   3
ATOM      3  C   UNL     1     -21.180  41.745  86.496  1.00  0.00     0.000 C 
BRANCH   3   4
ATOM      4  C   UNL     1     -22.006  42.053  87.759  1.00  0.00    -0.000 C 
BRANCH   4   5
ATOM      5  C   UNL     1     -21.141  42.506  88.947  1.00  0.00    -0.000 C 
BRANCH   5   6
ATOM      6  C   UNL     1     -20.962  41.403  90.003  1.00  0.00    -0.000 C 
BRANCH   6   7
ATOM      7  C   UNL     1     -19.486  41.127  90.332  1.00  0.00    -0.000 C 
BRANCH   7   8
ATOM      8  C   UNL     1     -19.092  39.701  89.917  1.00  0.00    -0.000 C 
BRANCH   8   9
ATOM      9  C   UNL     1     -20.306  38.774  89.745  1.00  0.00    -0.000 C 
BRANCH   9  10
ATOM     10  C   UNL     1     -20.177  37.853  88.519  1.00  0.00    -0.000 C 
BRANCH  10  11
ATOM     11  C   UNL     1     -20.988  38.358  87.316  1.00  0.00    -0.003 C 
ATOM     12  C   UNL     1     -20.209  38.283  86.002  1.00  0.00     0.004 C 
ENDBRANCH  10  11
ENDBRANCH   9  10
ENDBRANCH   8   9
ENDBRANCH   7   8
ENDBRANCH   6   7
ENDBRANCH   5   6
ENDBRANCH   4   5
ENDBRANCH   3   4
ENDBRANCH   2   3
ENDBRANCH   1   2
BRANCH   1  13
ATOM     13  C   UNL     1     -19.928  44.774  85.892  1.00  0.00     0.000 C 
BRANCH  13  14
ATOM     14  C   UNL     1     -21.221  45.312  85.247  1.00  0.00     0.000 C 
BRANCH  14  15
ATOM     15  C   UNL     1     -22.371  45.608  86.228  1.00  0.00     0.000 C 
BRANCH  15  16
ATOM     16  C   UNL     1     -21.928  45.991  87.655  1.00  0.00     0.000 C 
BRANCH  16  17
ATOM     17  C   UNL     1     -23.011  45.820  88.735  1.00  0.00     0.000 C 
BRANCH  17  18
ATOM     18  C   UNL     1     -24.113  44.829  88.322  1.00  0.00     0.000 C 
BRANCH  18  19
ATOM     19  C   UNL     1     -25.069  44.482  89.477  1.00  0.00     0.000 C 
BRANCH  19  20
ATOM     20  C   UNL     1     -26.486  45.073  89.353  1.00  0.00     0.006 C 
BRANCH  20  21
ATOM     21  C   UNL     1     -27.332  44.944  90.632  1.00  0.00     0.053 C 
BRANCH  21  22
ATOM     22  C   UNL     1     -27.733  43.529  90.915  1.00  0.00     0.041 C 
ATOM     23  O   UNL     1     -28.591  42.957  90.193  1.00  0.00    -0.550 OA
ATOM     24  O   UNL     1     -27.129  42.827  91.951  1.00  0.00    -0.550 OA
ENDBRANCH  21  22
ENDBRANCH  20  21
ENDBRANCH  19  20
ENDBRANCH  18  19
ENDBRANCH  17  18
ENDBRANCH  16  17
ENDBRANCH  15  16
ENDBRANCH  14  15
ENDBRANCH  13  14
ENDBRANCH   1  13
TORSDOF 20
ENDMDL
MODEL 2
REMARK VINA RESULT:    -4.981      1.425      2.739
REMARK INTER + INTRA:         -13.808
REMARK INTER:                 -11.551
REMARK INTRA:                  -2.257
REMARK UNBOUND:                -3.003
REMARK SMILES CCCCCCCCCCCCCCCCCCCCCC(=O)[O-]
REMARK SMILES IDX 12 1 11 2 10 3 9 4 8 5 7 6 6 7 5 8 4 9 3 10 2 11 1 12 13 13
REMARK SMILES IDX 14 14 15 15 16 16 17 17 18 18 19 19 20 20 21 21 22 22 23 23
REMARK SMILES IDX 24 24
REMARK H PARENT
REMARK Flexibility Score: inf
ROOT
ATOM      1  C   UNL     1     -20.080  46.373  82.626  1.00  0.00     0.000 C 
ENDROOT
BRANCH   1   2
ATOM      2  C   UNL     1     -18.838  46.347  83.532  1.00  0.00     0.000 C 
BRANCH   2   3
ATOM      3  C   UNL     1     -18.359  44.920  83.857  1.00  0.00     0.000 C 
BRANCH   3   4
ATOM      4  C   UNL     1     -18.517  44.490  85.327  1.00  0.00    -0.000 C 
BRANCH   4   5
ATOM      5  C   UNL     1     -19.563  43.378  85.519  1.00  0.00    -0.000 C 
BRANCH   5   6
ATOM      6  C   UNL     1     -20.295  43.482  86.867  1.00  0.00    -0.000 C 
BRANCH   6   7
ATOM      7  C   UNL     1     -21.235  42.294  87.127  1.00  0.00    -0.000 C 
BRANCH   7   8
ATOM      8  C   UNL     1     -20.932  41.646  88.487  1.00  0.00    -0.000 C 
BRANCH   8   9
ATOM      9  C   UNL     1     -19.955  40.464  88.379  1.00  0.00    -0.000 C 
BRANCH   9  10
ATOM     10  C   UNL     1     -20.588  39.132  88.820  1.00  0.00    -0.000 C 
BRANCH  10  11
ATOM     11  C   UNL     1     -20.544  38.066  87.714  1.00  0.00    -0.003 C 
ATOM     12  C   UNL     1     -20.528  38.669  86.309  1.00  0.00     0.004 C 
ENDBRANCH  10  11
ENDBRANCH   9  10
ENDBRANCH   8   9
ENDBRANCH   7   8
ENDBRANCH   6   7
ENDBRANCH   5   6
ENDBRANCH   4   5
ENDBRANCH   3   4
ENDBRANCH   2   3
ENDBRANCH   1   2
BRANCH   1  13
ATOM     13  C   UNL     1     -21.391  46.144  83.399  1.00  0.00     0.000 C 
BRANCH  13  14
ATOM     14  C   UNL     1     -21.471  46.833  84.776  1.00  0.00     0.000 C 
BRANCH  14  15
ATOM     15  C   UNL     1     -22.347  46.114  85.821  1.00  0.00     0.000 C 
BRANCH  15  16
ATOM     16  C   UNL     1     -22.260  46.689  87.249  1.00  0.00     0.000 C 
BRANCH  16  17
ATOM     17  C   UNL     1     -22.825  45.772  88.349  1.00  0.00     0.000 C 
BRANCH  17  18
ATOM     18  C   UNL     1     -23.941  44.844  87.837  1.00  0.00     0.000 C 
BRANCH  18  19
ATOM     19  C   UNL     1     -24.789  44.245  88.972  1.00  0.00     0.000 C 
BRANCH  19  20
ATOM     20  C   UNL     1     -26.200  44.847  89.120  1.00  0.00     0.006 C 
BRANCH  20  21
ATOM     21  C   UNL     1     -26.897  44.490  90.445  1.00  0.00     0.053 C 
BRANCH  21  22
ATOM     22  C   UNL     1     -27.748  43.262  90.334  1.00  0.00     0.041 C 
ATOM     23  O   UNL     1     -28.160  42.681  91.373  1.00  0.00    -0.550 OA
ATOM     24  O   UNL     1     -28.122  42.783  89.086  1.00  0.00    -0.550 OA
ENDBRANCH  21  22
ENDBRANCH  20  21
ENDBRANCH  19  20
ENDBRANCH  18  19
ENDBRANCH  17  18
ENDBRANCH  16  17
ENDBRANCH  15  16
ENDBRANCH  14  15
ENDBRANCH  13  14
ENDBRANCH   1  13
TORSDOF 20
ENDMDL
MODEL 3
REMARK VINA RESULT:    -4.872      1.285      3.709
REMARK INTER + INTRA:         -13.572
REMARK INTER:                 -11.443
REMARK INTRA:                  -2.129
REMARK UNBOUND:                -3.003
REMARK SMILES CCCCCCCCCCCCCCCCCCCCCC(=O)[O-]
REMARK SMILES IDX 12 1 11 2 10 3 9 4 8 5 7 6 6 7 5 8 4 9 3 10 2 11 1 12 13 13
REMARK SMILES IDX 14 14 15 15 16 16 17 17 18 18 19 19 20 20 21 21 22 22 23 23
REMARK SMILES IDX 24 24
REMARK H PARENT
REMARK Flexibility Score: inf
ROOT
ATOM      1  C   UNL     1     -21.761  42.574  89.679  1.00  0.00     0.000 C 
ENDROOT
BRANCH   1   2
ATOM      2  C   UNL     1     -21.731  41.853  91.036  1.00  0.00     0.000 C 
BRANCH   2   3
ATOM      3  C   UNL     1     -20.599  40.815  91.142  1.00  0.00     0.000 C 
BRANCH   3   4
ATOM      4  C   UNL     1     -21.055  39.351  91.283  1.00  0.00    -0.000 C 
BRANCH   4   5
ATOM      5  C   UNL     1     -20.328  38.399  90.319  1.00  0.00    -0.000 C 
BRANCH   5   6
ATOM      6  C   UNL     1     -19.997  39.062  88.972  1.00  0.00    -0.000 C 
BRANCH   6   7
ATOM      7  C   UNL     1     -20.853  38.522  87.816  1.00  0.00    -0.000 C 
BRANCH   7   8
ATOM      8  C   UNL     1     -20.838  39.494  86.625  1.00  0.00    -0.000 C 
BRANCH   8   9
ATOM      9  C   UNL     1     -19.967  40.734  86.880  1.00  0.00    -0.000 C 
BRANCH   9  10
ATOM     10  C   UNL     1     -20.656  42.040  86.446  1.00  0.00    -0.000 C 
BRANCH  10  11
ATOM     11  C   UNL     1     -19.681  43.030  85.791  1.00  0.00    -0.003 C 
ATOM     12  C   UNL     1     -20.348  44.350  85.401  1.00  0.00     0.004 C 
ENDBRANCH  10  11
ENDBRANCH   9  10
ENDBRANCH   8   9
ENDBRANCH   7   8
ENDBRANCH   6   7
ENDBRANCH   5   6
ENDBRANCH   4   5
ENDBRANCH   3   4
ENDBRANCH   2   3
ENDBRANCH   1   2
BRANCH   1  13
ATOM     13  C   UNL     1     -23.083  43.323  89.427  1.00  0.00     0.000 C 
BRANCH  13  14
ATOM     14  C   UNL     1     -23.205  43.993  88.044  1.00  0.00     0.000 C 
BRANCH  14  15
ATOM     15  C   UNL     1     -23.538  45.497  88.069  1.00  0.00     0.000 C 
BRANCH  15  16
ATOM     16  C   UNL     1     -24.611  45.944  87.057  1.00  0.00     0.000 C 
BRANCH  16  17
ATOM     17  C   UNL     1     -26.054  45.916  87.591  1.00  0.00     0.000 C 
BRANCH  17  18
ATOM     18  C   UNL     1     -26.225  46.725  88.889  1.00  0.00     0.000 C 
BRANCH  18  19
ATOM     19  C   UNL     1     -26.902  45.920  90.012  1.00  0.00     0.000 C 
BRANCH  19  20
ATOM     20  C   UNL     1     -26.183  44.616  90.405  1.00  0.00     0.006 C 
BRANCH  20  21
ATOM     21  C   UNL     1     -27.001  43.708  91.341  1.00  0.00     0.053 C 
BRANCH  21  22
ATOM     22  C   UNL     1     -28.105  42.992  90.627  1.00  0.00     0.041 C 
ATOM     23  O   UNL     1     -27.967  42.659  89.420  1.00  0.00    -0.550 OA
ATOM     24  O   UNL     1     -29.271  42.655  91.303  1.00  0.00    -0.550 OA
ENDBRANCH  21  22
ENDBRANCH  20  21
ENDBRANCH  19  20
ENDBRANCH  18  19
ENDBRANCH  17  18
ENDBRANCH  16  17
ENDBRANCH  15  16
ENDBRANCH  14  15
ENDBRANCH  13  14
ENDBRANCH   1  13
TORSDOF 20
ENDMDL
MODEL 4
REMARK VINA RESULT:    -4.866      1.550      3.477
REMARK INTER + INTRA:         -13.560
REMARK INTER:                 -12.099
REMARK INTRA:                  -1.461
REMARK UNBOUND:                -3.003
REMARK SMILES CCCCCCCCCCCCCCCCCCCCCC(=O)[O-]
REMARK SMILES IDX 12 1 11 2 10 3 9 4 8 5 7 6 6 7 5 8 4 9 3 10 2 11 1 12 13 13
REMARK SMILES IDX 14 14 15 15 16 16 17 17 18 18 19 19 20 20 21 21 22 22 23 23
REMARK SMILES IDX 24 24
REMARK H PARENT
REMARK Flexibility Score: inf
ROOT
ATOM      1  C   UNL     1     -21.337  46.508  83.898  1.00  0.00     0.000 C 
ENDROOT
BRANCH   1   2
ATOM      2  C   UNL     1     -19.876  46.815  84.264  1.00  0.00     0.000 C 
BRANCH   2   3
ATOM      3  C   UNL     1     -18.867  45.927  83.513  1.00  0.00     0.000 C 
BRANCH   3   4
ATOM      4  C   UNL     1     -18.071  44.944  84.390  1.00  0.00    -0.000 C 
BRANCH   4   5
ATOM      5  C   UNL     1     -18.834  44.513  85.654  1.00  0.00    -0.000 C 
BRANCH   5   6
ATOM      6  C   UNL     1     -19.805  43.351  85.390  1.00  0.00    -0.000 C 
BRANCH   6   7
ATOM      7  C   UNL     1     -20.276  42.663  86.682  1.00  0.00    -0.000 C 
BRANCH   7   8
ATOM      8  C   UNL     1     -19.935  41.165  86.658  1.00  0.00    -0.000 C 
BRANCH   8   9
ATOM      9  C   UNL     1     -21.049  40.291  87.256  1.00  0.00    -0.000 C 
BRANCH   9  10
ATOM     10  C   UNL     1     -20.664  39.693  88.620  1.00  0.00    -0.000 C 
BRANCH  10  11
ATOM     11  C   UNL     1     -19.859  40.675  89.485  1.00  0.00    -0.003 C 
ATOM     12  C   UNL     1     -18.750  39.989  90.285  1.00  0.00     0.004 C 
ENDBRANCH  10  11
ENDBRANCH   9  10
ENDBRANCH   8   9
ENDBRANCH   7   8
ENDBRANCH   6   7
ENDBRANCH   5   6
ENDBRANCH   4   5
ENDBRANCH   3   4
ENDBRANCH   2   3
ENDBRANCH   1   2
BRANCH   1  13
ATOM     13  C   UNL     1     -22.320  46.811  85.044  1.00  0.00     0.000 C 
BRANCH  13  14
ATOM     14  C   UNL     1     -22.135  45.953  86.312  1.00  0.00     0.000 C 
BRANCH  14  15
ATOM     15  C   UNL     1     -23.437  45.567  87.039  1.00  0.00     0.000 C 
BRANCH  15  16
ATOM     16  C   UNL     1     -24.657  46.448  86.703  1.00  0.00     0.000 C 
BRANCH  16  17
ATOM     17  C   UNL     1     -25.985  45.974  87.319  1.00  0.00     0.000 C 
BRANCH  17  18
ATOM     18  C   UNL     1     -26.453  46.866  88.483  1.00  0.00     0.000 C 
BRANCH  18  19
ATOM     19  C   UNL     1     -26.145  46.259  89.863  1.00  0.00     0.000 C 
BRANCH  19  20
ATOM     20  C   UNL     1     -27.281  45.418  90.476  1.00  0.00     0.006 C 
BRANCH  20  21
ATOM     21  C   UNL     1     -26.960  43.917  90.585  1.00  0.00     0.053 C 
BRANCH  21  22
ATOM     22  C   UNL     1     -28.126  43.051  90.219  1.00  0.00     0.041 C 
ATOM     23  O   UNL     1     -28.244  42.611  89.045  1.00  0.00    -0.550 OA
ATOM     24  O   UNL     1     -29.061  42.695  91.183  1.00  0.00    -0.550 OA
ENDBRANCH  21  22
ENDBRANCH  20  21
ENDBRANCH  19  20
ENDBRANCH  18  19
ENDBRANCH  17  18
ENDBRANCH  16  17
ENDBRANCH  15  16
ENDBRANCH  14  15
ENDBRANCH  13  14
ENDBRANCH   1  13
TORSDOF 20
ENDMDL
MODEL 5
REMARK VINA RESULT:    -4.849      1.348      2.476
REMARK INTER + INTRA:         -13.521
REMARK INTER:                 -11.742
REMARK INTRA:                  -1.779
REMARK UNBOUND:                -3.003
REMARK SMILES CCCCCCCCCCCCCCCCCCCCCC(=O)[O-]
REMARK SMILES IDX 12 1 11 2 10 3 9 4 8 5 7 6 6 7 5 8 4 9 3 10 2 11 1 12 13 13
REMARK SMILES IDX 14 14 15 15 16 16 17 17 18 18 19 19 20 20 21 21 22 22 23 23
REMARK SMILES IDX 24 24
REMARK H PARENT
REMARK Flexibility Score: inf
ROOT
ATOM      1  C   UNL     1     -19.855  45.683  85.098  1.00  0.00     0.000 C 
ENDROOT
BRANCH   1   2
ATOM      2  C   UNL     1     -19.432  44.451  85.915  1.00  0.00     0.000 C 
BRANCH   2   3
ATOM      3  C   UNL     1     -20.376  43.250  85.726  1.00  0.00     0.000 C 
BRANCH   3   4
ATOM      4  C   UNL     1     -21.062  42.740  87.007  1.00  0.00    -0.000 C 
BRANCH   4   5
ATOM      5  C   UNL     1     -20.245  41.660  87.736  1.00  0.00    -0.000 C 
BRANCH   5   6
ATOM      6  C   UNL     1     -20.171  40.343  86.947  1.00  0.00    -0.000 C 
BRANCH   6   7
ATOM      7  C   UNL     1     -21.084  39.250  87.525  1.00  0.00    -0.000 C 
BRANCH   7   8
ATOM      8  C   UNL     1     -20.297  37.953  87.769  1.00  0.00    -0.000 C 
BRANCH   8   9
ATOM      9  C   UNL     1     -19.916  37.757  89.246  1.00  0.00    -0.000 C 
BRANCH   9  10
ATOM     10  C   UNL     1     -20.602  38.776  90.173  1.00  0.00    -0.000 C 
BRANCH  10  11
ATOM     11  C   UNL     1     -19.735  39.141  91.388  1.00  0.00    -0.003 C 
ATOM     12  C   UNL     1     -18.238  39.000  91.113  1.00  0.00     0.004 C 
ENDBRANCH  10  11
ENDBRANCH   9  10
ENDBRANCH   8   9
ENDBRANCH   7   8
ENDBRANCH   6   7
ENDBRANCH   5   6
ENDBRANCH   4   5
ENDBRANCH   3   4
ENDBRANCH   2   3
ENDBRANCH   1   2
BRANCH   1  13
ATOM     13  C   UNL     1     -21.350  45.674  84.730  1.00  0.00     0.000 C 
BRANCH  13  14
ATOM     14  C   UNL     1     -22.237  46.623  85.562  1.00  0.00     0.000 C 
BRANCH  14  15
ATOM     15  C   UNL     1     -22.452  46.204  87.029  1.00  0.00     0.000 C 
BRANCH  15  16
ATOM     16  C   UNL     1     -23.727  45.376  87.289  1.00  0.00     0.000 C 
BRANCH  16  17
ATOM     17  C   UNL     1     -25.046  46.122  87.021  1.00  0.00     0.000 C 
BRANCH  17  18
ATOM     18  C   UNL     1     -26.224  45.561  87.837  1.00  0.00     0.000 C 
BRANCH  18  19
ATOM     19  C   UNL     1     -25.962  45.576  89.353  1.00  0.00     0.000 C 
BRANCH  19  20
ATOM     20  C   UNL     1     -25.952  44.190  90.028  1.00  0.00     0.006 C 
BRANCH  20  21
ATOM     21  C   UNL     1     -27.106  43.970  91.022  1.00  0.00     0.053 C 
BRANCH  21  22
ATOM     22  C   UNL     1     -28.148  43.032  90.494  1.00  0.00     0.041 C 
ATOM     23  O   UNL     1     -29.139  42.720  91.207  1.00  0.00    -0.550 OA
ATOM     24  O   UNL     1     -28.050  42.536  89.201  1.00  0.00    -0.550 OA
ENDBRANCH  21  22
ENDBRANCH  20  21
ENDBRANCH  19  20
ENDBRANCH  18  19
ENDBRANCH  17  18
ENDBRANCH  16  17
ENDBRANCH  15  16
ENDBRANCH  14  15
ENDBRANCH  13  14
ENDBRANCH   1  13
TORSDOF 20
ENDMDL
MODEL 6
REMARK VINA RESULT:    -4.818      4.619      8.673
REMARK INTER + INTRA:         -13.455
REMARK INTER:                 -11.435
REMARK INTRA:                  -2.020
REMARK UNBOUND:                -3.003
REMARK SMILES CCCCCCCCCCCCCCCCCCCCCC(=O)[O-]
REMARK SMILES IDX 12 1 11 2 10 3 9 4 8 5 7 6 6 7 5 8 4 9 3 10 2 11 1 12 13 13
REMARK SMILES IDX 14 14 15 15 16 16 17 17 18 18 19 19 20 20 21 21 22 22 23 23
REMARK SMILES IDX 24 24
REMARK H PARENT
REMARK Flexibility Score: inf
ROOT
ATOM      1  C   UNL     1     -17.832  44.677  85.344  1.00  0.00     0.000 C 
ENDROOT
BRANCH   1   2
ATOM      2  C   UNL     1     -17.951  45.249  83.922  1.00  0.00     0.000 C 
BRANCH   2   3
ATOM      3  C   UNL     1     -18.864  46.487  83.845  1.00  0.00     0.000 C 
BRANCH   3   4
ATOM      4  C   UNL     1     -19.966  46.429  82.770  1.00  0.00    -0.000 C 
BRANCH   4   5
ATOM      5  C   UNL     1     -21.360  46.146  83.354  1.00  0.00    -0.000 C 
BRANCH   5   6
ATOM      6  C   UNL     1     -21.604  46.880  84.683  1.00  0.00    -0.000 C 
BRANCH   6   7
ATOM      7  C   UNL     1     -22.361  46.021  85.708  1.00  0.00    -0.000 C 
BRANCH   7   8
ATOM      8  C   UNL     1     -21.821  46.260  87.127  1.00  0.00    -0.000 C 
BRANCH   8   9
ATOM      9  C   UNL     1     -22.360  45.246  88.148  1.00  0.00    -0.000 C 
BRANCH   9  10
ATOM     10  C   UNL     1     -23.836  44.888  87.903  1.00  0.00    -0.000 C 
BRANCH  10  11
ATOM     11  C   UNL     1     -24.763  45.429  89.002  1.00  0.00    -0.003 C 
ATOM     12  C   UNL     1     -26.244  45.314  88.640  1.00  0.00     0.004 C 
ENDBRANCH  10  11
ENDBRANCH   9  10
ENDBRANCH   8   9
ENDBRANCH   7   8
ENDBRANCH   6   7
ENDBRANCH   5   6
ENDBRANCH   4   5
ENDBRANCH   3   4
ENDBRANCH   2   3
ENDBRANCH   1   2
BRANCH   1  13
ATOM     13  C   UNL     1     -19.197  44.333  85.968  1.00  0.00     0.000 C 
BRANCH  13  14
ATOM     14  C   UNL     1     -19.777  42.963  85.563  1.00  0.00     0.000 C 
BRANCH  14  15
ATOM     15  C   UNL     1     -20.523  42.209  86.680  1.00  0.00     0.000 C 
BRANCH  15  16
ATOM     16  C   UNL     1     -19.950  40.819  87.023  1.00  0.00     0.000 C 
BRANCH  16  17
ATOM     17  C   UNL     1     -20.999  39.699  87.137  1.00  0.00     0.000 C 
BRANCH  17  18
ATOM     18  C   UNL     1     -20.562  38.399  86.438  1.00  0.00     0.000 C 
BRANCH  18  19
ATOM     19  C   UNL     1     -19.716  38.652  85.178  1.00  0.00     0.000 C 
BRANCH  19  20
ATOM     20  C   UNL     1     -19.427  37.403  84.324  1.00  0.00     0.006 C 
BRANCH  20  21
ATOM     21  C   UNL     1     -17.960  37.279  83.873  1.00  0.00     0.053 C 
BRANCH  21  22
ATOM     22  C   UNL     1     -17.391  35.919  84.137  1.00  0.00     0.041 C 
ATOM     23  O   UNL     1     -17.085  35.163  83.178  1.00  0.00    -0.550 OA
ATOM     24  O   UNL     1     -17.158  35.501  85.441  1.00  0.00    -0.550 OA
ENDBRANCH  21  22
ENDBRANCH  20  21
ENDBRANCH  19  20
ENDBRANCH  18  19
ENDBRANCH  17  18
ENDBRANCH  16  17
ENDBRANCH  15  16
ENDBRANCH  14  15
ENDBRANCH  13  14
ENDBRANCH   1  13
TORSDOF 20
ENDMDL
MODEL 7
REMARK VINA RESULT:    -4.814      3.055      6.901
REMARK INTER + INTRA:         -13.446
REMARK INTER:                 -11.178
REMARK INTRA:                  -2.269
REMARK UNBOUND:                -3.003
REMARK SMILES CCCCCCCCCCCCCCCCCCCCCC(=O)[O-]
REMARK SMILES IDX 12 1 11 2 10 3 9 4 8 5 7 6 6 7 5 8 4 9 3 10 2 11 1 12 13 13
REMARK SMILES IDX 14 14 15 15 16 16 17 17 18 18 19 19 20 20 21 21 22 22 23 23
REMARK SMILES IDX 24 24
REMARK H PARENT
REMARK Flexibility Score: inf
ROOT
ATOM      1  C   UNL     1     -19.522  46.229  82.700  1.00  0.00     0.000 C 
ENDROOT
BRANCH   1   2
ATOM      2  C   UNL     1     -20.983  46.025  83.134  1.00  0.00     0.000 C 
BRANCH   2   3
ATOM      3  C   UNL     1     -21.359  46.841  84.385  1.00  0.00     0.000 C 
BRANCH   3   4
ATOM      4  C   UNL     1     -22.115  46.064  85.478  1.00  0.00    -0.000 C 
BRANCH   4   5
ATOM      5  C   UNL     1     -21.518  46.266  86.881  1.00  0.00    -0.000 C 
BRANCH   5   6
ATOM      6  C   UNL     1     -22.511  45.918  88.002  1.00  0.00    -0.000 C 
BRANCH   6   7
ATOM      7  C   UNL     1     -22.762  44.406  88.126  1.00  0.00    -0.000 C 
BRANCH   7   8
ATOM      8  C   UNL     1     -24.114  44.131  88.802  1.00  0.00    -0.000 C 
BRANCH   8   9
ATOM      9  C   UNL     1     -25.092  45.311  88.679  1.00  0.00    -0.000 C 
BRANCH   9  10
ATOM     10  C   UNL     1     -25.884  45.560  89.975  1.00  0.00    -0.000 C 
BRANCH  10  11
ATOM     11  C   UNL     1     -26.177  44.262  90.743  1.00  0.00    -0.003 C 
ATOM     12  C   UNL     1     -27.672  43.966  90.861  1.00  0.00     0.004 C 
ENDBRANCH  10  11
ENDBRANCH   9  10
ENDBRANCH   8   9
ENDBRANCH   7   8
ENDBRANCH   6   7
ENDBRANCH   5   6
ENDBRANCH   4   5
ENDBRANCH   3   4
ENDBRANCH   2   3
ENDBRANCH   1   2
BRANCH   1  13
ATOM     13  C   UNL     1     -18.565  46.428  83.890  1.00  0.00     0.000 C 
BRANCH  13  14
ATOM     14  C   UNL     1     -17.858  45.150  84.385  1.00  0.00     0.000 C 
BRANCH  14  15
ATOM     15  C   UNL     1     -18.492  44.486  85.623  1.00  0.00     0.000 C 
BRANCH  15  16
ATOM     16  C   UNL     1     -19.510  43.370  85.313  1.00  0.00     0.000 C 
BRANCH  16  17
ATOM     17  C   UNL     1     -20.139  42.709  86.552  1.00  0.00     0.000 C 
BRANCH  17  18
ATOM     18  C   UNL     1     -19.898  41.190  86.603  1.00  0.00     0.000 C 
BRANCH  18  19
ATOM     19  C   UNL     1     -21.085  40.416  87.205  1.00  0.00     0.000 C 
BRANCH  19  20
ATOM     20  C   UNL     1     -20.713  39.105  87.924  1.00  0.00     0.006 C 
BRANCH  20  21
ATOM     21  C   UNL     1     -20.645  39.230  89.457  1.00  0.00     0.053 C 
BRANCH  21  22
ATOM     22  C   UNL     1     -19.262  39.526  89.949  1.00  0.00     0.041 C 
ATOM     23  O   UNL     1     -18.868  40.718  90.052  1.00  0.00    -0.550 OA
ATOM     24  O   UNL     1     -18.421  38.489  90.334  1.00  0.00    -0.550 OA
ENDBRANCH  21  22
ENDBRANCH  20  21
ENDBRANCH  19  20
ENDBRANCH  18  19
ENDBRANCH  17  18
ENDBRANCH  16  17
ENDBRANCH  15  16
ENDBRANCH  14  15
ENDBRANCH  13  14
ENDBRANCH   1  13
TORSDOF 20
ENDMDL
MODEL 8
REMARK VINA RESULT:    -4.811      3.070      7.219
REMARK INTER + INTRA:         -13.440
REMARK INTER:                 -11.762
REMARK INTRA:                  -1.678
REMARK UNBOUND:                -3.003
REMARK SMILES CCCCCCCCCCCCCCCCCCCCCC(=O)[O-]
REMARK SMILES IDX 12 1 11 2 10 3 9 4 8 5 7 6 6 7 5 8 4 9 3 10 2 11 1 12 13 13
REMARK SMILES IDX 14 14 15 15 16 16 17 17 18 18 19 19 20 20 21 21 22 22 23 23
REMARK SMILES IDX 24 24
REMARK H PARENT
REMARK Flexibility Score: inf
ROOT
ATOM      1  C   UNL     1     -20.988  46.274  83.150  1.00  0.00     0.000 C 
ENDROOT
BRANCH   1   2
ATOM      2  C   UNL     1     -21.728  47.066  84.240  1.00  0.00     0.000 C 
BRANCH   2   3
ATOM      3  C   UNL     1     -22.032  46.224  85.494  1.00  0.00     0.000 C 
BRANCH   3   4
ATOM      4  C   UNL     1     -22.971  46.885  86.520  1.00  0.00    -0.000 C 
BRANCH   4   5
ATOM      5  C   UNL     1     -24.144  45.980  86.932  1.00  0.00    -0.000 C 
BRANCH   5   6
ATOM      6  C   UNL     1     -25.509  46.563  86.530  1.00  0.00    -0.000 C 
BRANCH   6   7
ATOM      7  C   UNL     1     -26.385  46.916  87.742  1.00  0.00    -0.000 C 
BRANCH   7   8
ATOM      8  C   UNL     1     -25.895  46.186  89.002  1.00  0.00    -0.000 C 
BRANCH   8   9
ATOM      9  C   UNL     1     -26.895  46.271  90.166  1.00  0.00    -0.000 C 
BRANCH   9  10
ATOM     10  C   UNL     1     -27.139  44.907  90.836  1.00  0.00    -0.000 C 
BRANCH  10  11
ATOM     11  C   UNL     1     -27.326  43.775  89.813  1.00  0.00    -0.003 C 
ATOM     12  C   UNL     1     -28.535  42.891  90.121  1.00  0.00     0.004 C 
ENDBRANCH  10  11
ENDBRANCH   9  10
ENDBRANCH   8   9
ENDBRANCH   7   8
ENDBRANCH   6   7
ENDBRANCH   5   6
ENDBRANCH   4   5
ENDBRANCH   3   4
ENDBRANCH   2   3
ENDBRANCH   1   2
BRANCH   1  13
ATOM     13  C   UNL     1     -19.610  46.869  82.807  1.00  0.00     0.000 C 
BRANCH  13  14
ATOM     14  C   UNL     1     -18.645  47.021  84.001  1.00  0.00     0.000 C 
BRANCH  14  15
ATOM     15  C   UNL     1     -17.693  45.833  84.231  1.00  0.00     0.000 C 
BRANCH  15  16
ATOM     16  C   UNL     1     -18.387  44.469  84.421  1.00  0.00     0.000 C 
BRANCH  16  17
ATOM     17  C   UNL     1     -18.988  44.241  85.819  1.00  0.00     0.000 C 
BRANCH  17  18
ATOM     18  C   UNL     1     -19.899  43.003  85.881  1.00  0.00     0.000 C 
BRANCH  18  19
ATOM     19  C   UNL     1     -20.963  43.098  86.989  1.00  0.00     0.000 C 
BRANCH  19  20
ATOM     20  C   UNL     1     -21.291  41.768  87.695  1.00  0.00     0.006 C 
BRANCH  20  21
ATOM     21  C   UNL     1     -21.041  40.521  86.829  1.00  0.00     0.053 C 
BRANCH  21  22
ATOM     22  C   UNL     1     -20.879  39.276  87.646  1.00  0.00     0.041 C 
ATOM     23  O   UNL     1     -20.972  39.326  88.901  1.00  0.00    -0.550 OA
ATOM     24  O   UNL     1     -20.666  38.054  87.022  1.00  0.00    -0.550 OA
ENDBRANCH  21  22
ENDBRANCH  20  21
ENDBRANCH  19  20
ENDBRANCH  18  19
ENDBRANCH  17  18
ENDBRANCH  16  17
ENDBRANCH  15  16
ENDBRANCH  14  15
ENDBRANCH  13  14
ENDBRANCH   1  13
TORSDOF 20
ENDMDL
MODEL 9
REMARK VINA RESULT:    -4.801      1.959      4.795
REMARK INTER + INTRA:         -13.418
REMARK INTER:                 -10.671
REMARK INTRA:                  -2.747
REMARK UNBOUND:                -3.003
REMARK SMILES CCCCCCCCCCCCCCCCCCCCCC(=O)[O-]
REMARK SMILES IDX 12 1 11 2 10 3 9 4 8 5 7 6 6 7 5 8 4 9 3 10 2 11 1 12 13 13
REMARK SMILES IDX 14 14 15 15 16 16 17 17 18 18 19 19 20 20 21 21 22 22 23 23
REMARK SMILES IDX 24 24
REMARK H PARENT
REMARK Flexibility Score: inf
ROOT
ATOM      1  C   UNL     1     -22.746  44.532  88.083  1.00  0.00     0.000 C 
ENDROOT
BRANCH   1   2
ATOM      2  C   UNL     1     -22.280  43.439  89.059  1.00  0.00     0.000 C 
BRANCH   2   3
ATOM      3  C   UNL     1     -21.795  42.163  88.346  1.00  0.00     0.000 C 
BRANCH   3   4
ATOM      4  C   UNL     1     -20.269  41.965  88.313  1.00  0.00    -0.000 C 
BRANCH   4   5
ATOM      5  C   UNL     1     -19.699  41.922  86.884  1.00  0.00    -0.000 C 
BRANCH   5   6
ATOM      6  C   UNL     1     -20.659  42.528  85.848  1.00  0.00    -0.000 C 
BRANCH   6   7
ATOM      7  C   UNL     1     -20.270  43.958  85.441  1.00  0.00    -0.000 C 
BRANCH   7   8
ATOM      8  C   UNL     1     -18.744  44.092  85.310  1.00  0.00    -0.000 C 
BRANCH   8   9
ATOM      9  C   UNL     1     -18.326  45.081  84.209  1.00  0.00    -0.000 C 
BRANCH   9  10
ATOM     10  C   UNL     1     -19.219  46.333  84.169  1.00  0.00    -0.000 C 
BRANCH  10  11
ATOM     11  C   UNL     1     -19.543  46.778  82.735  1.00  0.00    -0.003 C 
ATOM     12  C   UNL     1     -21.032  46.672  82.403  1.00  0.00     0.004 C 
ENDBRANCH  10  11
ENDBRANCH   9  10
ENDBRANCH   8   9
ENDBRANCH   7   8
ENDBRANCH   6   7
ENDBRANCH   5   6
ENDBRANCH   4   5
ENDBRANCH   3   4
ENDBRANCH   2   3
ENDBRANCH   1   2
BRANCH   1  13
ATOM     13  C   UNL     1     -21.966  45.850  88.244  1.00  0.00     0.000 C 
BRANCH  13  14
ATOM     14  C   UNL     1     -22.383  46.981  87.283  1.00  0.00     0.000 C 
BRANCH  14  15
ATOM     15  C   UNL     1     -23.280  46.548  86.108  1.00  0.00     0.000 C 
BRANCH  15  16
ATOM     16  C   UNL     1     -24.713  47.116  86.138  1.00  0.00     0.000 C 
BRANCH  16  17
ATOM     17  C   UNL     1     -25.737  46.244  86.887  1.00  0.00     0.000 C 
BRANCH  17  18
ATOM     18  C   UNL     1     -26.296  46.930  88.146  1.00  0.00     0.000 C 
BRANCH  18  19
ATOM     19  C   UNL     1     -25.481  46.614  89.412  1.00  0.00     0.000 C 
BRANCH  19  20
ATOM     20  C   UNL     1     -25.812  45.267  90.083  1.00  0.00     0.006 C 
BRANCH  20  21
ATOM     21  C   UNL     1     -27.298  45.099  90.447  1.00  0.00     0.053 C 
BRANCH  21  22
ATOM     22  C   UNL     1     -27.621  43.713  90.916  1.00  0.00     0.041 C 
ATOM     23  O   UNL     1     -26.906  43.159  91.792  1.00  0.00    -0.550 OA
ATOM     24  O   UNL     1     -28.736  43.050  90.420  1.00  0.00    -0.550 OA
ENDBRANCH  21  22
ENDBRANCH  20  21
ENDBRANCH  19  20
ENDBRANCH  18  19
ENDBRANCH  17  18
ENDBRANCH  16  17
ENDBRANCH  15  16
ENDBRANCH  14  15
ENDBRANCH  13  14
ENDBRANCH   1  13
TORSDOF 20
ENDMDL
