MODEL 1
REMARK VINA RESULT:    -5.352      0.000      0.000
REMARK INTER + INTRA:          -6.286
REMARK INTER:                  -6.134
REMARK INTRA:                  -0.152
REMARK UNBOUND:                -0.152
REMARK SMILES O=C([O-])C=Cc1ccc(O)cc1
REMARK SMILES IDX 6 1 7 2 12 3 8 4 11 5 9 6 5 7 4 8 2 9 1 10 3 11 10 12
REMARK H PARENT 10 13
REMARK Flexibility Score: inf
ROOT
ATOM      1  C   UNL     1       9.757  70.556   0.579  1.00  0.00    -0.025 A 
ATOM      2  C   UNL     1       9.780  71.898   0.995  1.00  0.00     0.012 A 
ATOM      3  C   UNL     1       9.343  69.568   1.494  1.00  0.00     0.012 A 
ATOM      4  C   UNL     1       9.422  72.244   2.301  1.00  0.00     0.047 A 
ATOM      5  C   UNL     1       8.985  69.918   2.800  1.00  0.00     0.047 A 
ATOM      6  C   UNL     1       9.026  71.257   3.207  1.00  0.00     0.115 A 
ENDROOT
BRANCH   1   7
ATOM      7  C   UNL     1      10.136  70.241  -0.821  1.00  0.00     0.010 C 
ATOM      8  C   UNL     1      10.346  71.172  -1.764  1.00  0.00     0.025 C 
BRANCH   8   9
ATOM      9  C   UNL     1      10.709  70.821  -3.147  1.00  0.00     0.064 C 
ATOM     10  O   UNL     1       9.936  70.140  -3.872  1.00  0.00    -0.545 OA
ATOM     11  O   UNL     1      11.928  71.246  -3.660  1.00  0.00    -0.545 OA
ENDBRANCH   8   9
ENDBRANCH   1   7
BRANCH   6  12
ATOM     12  O   UNL     1       8.673  71.616   4.506  1.00  0.00    -0.508 OA
ATOM     13  H   UNL     1       7.758  71.995   4.721  1.00  0.00     0.293 HD
ENDBRANCH   6  12
TORSDOF 3
ENDMDL
MODEL 2
REMARK VINA RESULT:    -5.302      1.971      2.668
REMARK INTER + INTRA:          -6.228
REMARK INTER:                  -6.093
REMARK INTRA:                  -0.136
REMARK UNBOUND:                -0.152
REMARK SMILES O=C([O-])C=Cc1ccc(O)cc1
REMARK SMILES IDX 6 1 7 2 12 3 8 4 11 5 9 6 5 7 4 8 2 9 1 10 3 11 10 12
REMARK H PARENT 10 13
REMARK Flexibility Score: inf
ROOT
ATOM      1  C   UNL     1       9.641  69.220   0.096  1.00  0.00    -0.025 A 
ATOM      2  C   UNL     1       9.137  67.909   0.132  1.00  0.00     0.012 A 
ATOM      3  C   UNL     1      10.110  69.800   1.292  1.00  0.00     0.012 A 
ATOM      4  C   UNL     1       9.080  67.201   1.336  1.00  0.00     0.047 A 
ATOM      5  C   UNL     1      10.052  69.089   2.494  1.00  0.00     0.047 A 
ATOM      6  C   UNL     1       9.535  67.789   2.520  1.00  0.00     0.115 A 
ENDROOT
BRANCH   1   7
ATOM      7  C   UNL     1       9.690  69.926  -1.208  1.00  0.00     0.010 C 
ATOM      8  C   UNL     1      10.766  69.937  -2.010  1.00  0.00     0.025 C 
BRANCH   8   9
ATOM      9  C   UNL     1      10.782  70.658  -3.293  1.00  0.00     0.064 C 
ATOM     10  O   UNL     1       9.823  70.568  -4.104  1.00  0.00    -0.545 OA
ATOM     11  O   UNL     1      11.875  71.451  -3.615  1.00  0.00    -0.545 OA
ENDBRANCH   8   9
ENDBRANCH   1   7
BRANCH   6  12
ATOM     12  O   UNL     1       9.470  67.072   3.712  1.00  0.00    -0.508 OA
ATOM     13  H   UNL     1       8.586  66.757   4.094  1.00  0.00     0.293 HD
ENDBRANCH   6  12
TORSDOF 3
ENDMDL
MODEL 3
REMARK VINA RESULT:    -5.286      2.002      2.425
REMARK INTER + INTRA:          -6.210
REMARK INTER:                  -6.074
REMARK INTRA:                  -0.136
REMARK UNBOUND:                -0.152
REMARK SMILES O=C([O-])C=Cc1ccc(O)cc1
REMARK SMILES IDX 6 1 7 2 12 3 8 4 11 5 9 6 5 7 4 8 2 9 1 10 3 11 10 12
REMARK H PARENT 10 13
REMARK Flexibility Score: inf
ROOT
ATOM      1  C   UNL     1       9.614  69.066  -0.007  1.00  0.00    -0.025 A 
ATOM      2  C   UNL     1      10.096  69.700   1.151  1.00  0.00     0.012 A 
ATOM      3  C   UNL     1       9.063  67.773   0.106  1.00  0.00     0.012 A 
ATOM      4  C   UNL     1      10.054  69.050   2.388  1.00  0.00     0.047 A 
ATOM      5  C   UNL     1       9.023  67.127   1.345  1.00  0.00     0.047 A 
ATOM      6  C   UNL     1       9.520  67.763   2.489  1.00  0.00     0.115 A 
ENDROOT
BRANCH   1   7
ATOM      7  C   UNL     1       9.671  69.802  -1.294  1.00  0.00     0.010 C 
ATOM      8  C   UNL     1      10.773  69.892  -2.053  1.00  0.00     0.025 C 
BRANCH   8   9
ATOM      9  C   UNL     1      10.795  70.640  -3.320  1.00  0.00     0.064 C 
ATOM     10  O   UNL     1       9.844  70.558  -4.144  1.00  0.00    -0.545 OA
ATOM     11  O   UNL     1      11.883  71.450  -3.615  1.00  0.00    -0.545 OA
ENDBRANCH   8   9
ENDBRANCH   1   7
BRANCH   6  12
ATOM     12  O   UNL     1       9.486  67.127   3.728  1.00  0.00    -0.508 OA
ATOM     13  H   UNL     1       9.107  67.586   4.548  1.00  0.00     0.293 HD
ENDBRANCH   6  12
TORSDOF 3
ENDMDL
MODEL 4
REMARK VINA RESULT:    -5.285      1.490      5.690
REMARK INTER + INTRA:          -6.209
REMARK INTER:                  -6.070
REMARK INTRA:                  -0.139
REMARK UNBOUND:                -0.152
REMARK SMILES O=C([O-])C=Cc1ccc(O)cc1
REMARK SMILES IDX 6 1 7 2 12 3 8 4 11 5 9 6 5 7 4 8 2 9 1 10 3 11 10 12
REMARK H PARENT 10 13
REMARK Flexibility Score: inf
ROOT
ATOM      1  C   UNL     1      10.191  70.580  -0.993  1.00  0.00    -0.025 A 
ATOM      2  C   UNL     1      10.547  71.935  -1.105  1.00  0.00     0.012 A 
ATOM      3  C   UNL     1      10.560  69.694  -2.025  1.00  0.00     0.012 A 
ATOM      4  C   UNL     1      11.232  72.401  -2.230  1.00  0.00     0.047 A 
ATOM      5  C   UNL     1      11.246  70.164  -3.150  1.00  0.00     0.047 A 
ATOM      6  C   UNL     1      11.582  71.518  -3.256  1.00  0.00     0.115 A 
ENDROOT
BRANCH   1   7
ATOM      7  C   UNL     1       9.474  70.133   0.226  1.00  0.00     0.010 C 
ATOM      8  C   UNL     1       9.982  70.220   1.465  1.00  0.00     0.025 C 
BRANCH   8   9
ATOM      9  C   UNL     1       9.245  69.755   2.651  1.00  0.00     0.064 C 
ATOM     10  O   UNL     1       9.342  68.566   3.055  1.00  0.00    -0.545 OA
ATOM     11  O   UNL     1       8.425  70.643   3.335  1.00  0.00    -0.545 OA
ENDBRANCH   8   9
ENDBRANCH   1   7
BRANCH   6  12
ATOM     12  O   UNL     1      12.263  71.996  -4.373  1.00  0.00    -0.508 OA
ATOM     13  H   UNL     1      12.496  71.391  -5.151  1.00  0.00     0.293 HD
ENDBRANCH   6  12
TORSDOF 3
ENDMDL
MODEL 5
REMARK VINA RESULT:    -5.258      2.265      5.805
REMARK INTER + INTRA:          -6.178
REMARK INTER:                  -6.034
REMARK INTRA:                  -0.144
REMARK UNBOUND:                -0.152
REMARK SMILES O=C([O-])C=Cc1ccc(O)cc1
REMARK SMILES IDX 6 1 7 2 12 3 8 4 11 5 9 6 5 7 4 8 2 9 1 10 3 11 10 12
REMARK H PARENT 10 13
REMARK Flexibility Score: inf
ROOT
ATOM      1  C   UNL     1       9.617  68.908   0.611  1.00  0.00    -0.025 A 
ATOM      2  C   UNL     1       9.305  69.654  -0.539  1.00  0.00     0.012 A 
ATOM      3  C   UNL     1       9.820  67.519   0.486  1.00  0.00     0.012 A 
ATOM      4  C   UNL     1       9.175  69.025  -1.780  1.00  0.00     0.047 A 
ATOM      5  C   UNL     1       9.688  66.894  -0.758  1.00  0.00     0.047 A 
ATOM      6  C   UNL     1       9.363  67.645  -1.894  1.00  0.00     0.115 A 
ENDROOT
BRANCH   1   7
ATOM      7  C   UNL     1       9.755  69.623   1.904  1.00  0.00     0.010 C 
ATOM      8  C   UNL     1       8.852  70.496   2.374  1.00  0.00     0.025 C 
BRANCH   8   9
ATOM      9  C   UNL     1       9.029  71.196   3.657  1.00  0.00     0.064 C 
ATOM     10  O   UNL     1       9.906  70.830   4.484  1.00  0.00    -0.545 OA
ATOM     11  O   UNL     1       8.213  72.277   3.962  1.00  0.00    -0.545 OA
ENDBRANCH   8   9
ENDBRANCH   1   7
BRANCH   6  12
ATOM     12  O   UNL     1       9.229  67.032  -3.137  1.00  0.00    -0.508 OA
ATOM     13  H   UNL     1       8.849  67.529  -3.935  1.00  0.00     0.293 HD
ENDBRANCH   6  12
TORSDOF 3
ENDMDL
MODEL 6
REMARK VINA RESULT:    -5.257      2.380      5.678
REMARK INTER + INTRA:          -6.177
REMARK INTER:                  -6.041
REMARK INTRA:                  -0.137
REMARK UNBOUND:                -0.152
REMARK SMILES O=C([O-])C=Cc1ccc(O)cc1
REMARK SMILES IDX 6 1 7 2 12 3 8 4 11 5 9 6 5 7 4 8 2 9 1 10 3 11 10 12
REMARK H PARENT 10 13
REMARK Flexibility Score: inf
ROOT
ATOM      1  C   UNL     1      10.047  69.977  -0.860  1.00  0.00    -0.025 A 
ATOM      2  C   UNL     1      10.552  69.338  -2.005  1.00  0.00     0.012 A 
ATOM      3  C   UNL     1      10.170  71.377  -0.754  1.00  0.00     0.012 A 
ATOM      4  C   UNL     1      11.188  70.074  -3.009  1.00  0.00     0.047 A 
ATOM      5  C   UNL     1      10.806  72.110  -1.760  1.00  0.00     0.047 A 
ATOM      6  C   UNL     1      11.319  71.460  -2.889  1.00  0.00     0.115 A 
ENDROOT
BRANCH   1   7
ATOM      7  C   UNL     1       9.371  69.153   0.173  1.00  0.00     0.010 C 
ATOM      8  C   UNL     1      10.005  68.259   0.946  1.00  0.00     0.025 C 
BRANCH   8   9
ATOM      9  C   UNL     1       9.299  67.451   1.953  1.00  0.00     0.064 C 
ATOM     10  O   UNL     1       8.528  66.513   1.614  1.00  0.00    -0.545 OA
ATOM     11  O   UNL     1       9.483  67.727   3.301  1.00  0.00    -0.545 OA
ENDBRANCH   8   9
ENDBRANCH   1   7
BRANCH   6  12
ATOM     12  O   UNL     1      11.956  72.181  -3.896  1.00  0.00    -0.508 OA
ATOM     13  H   UNL     1      12.281  71.731  -4.744  1.00  0.00     0.293 HD
ENDBRANCH   6  12
TORSDOF 3
ENDMDL
MODEL 7
REMARK VINA RESULT:    -5.250      2.088      5.915
REMARK INTER + INTRA:          -6.169
REMARK INTER:                  -6.030
REMARK INTRA:                  -0.139
REMARK UNBOUND:                -0.152
REMARK SMILES O=C([O-])C=Cc1ccc(O)cc1
REMARK SMILES IDX 6 1 7 2 12 3 8 4 11 5 9 6 5 7 4 8 2 9 1 10 3 11 10 12
REMARK H PARENT 10 13
REMARK Flexibility Score: inf
ROOT
ATOM      1  C   UNL     1       9.664  69.479   0.250  1.00  0.00    -0.025 A 
ATOM      2  C   UNL     1       9.572  68.081   0.360  1.00  0.00     0.012 A 
ATOM      3  C   UNL     1       9.587  70.065  -1.030  1.00  0.00     0.012 A 
ATOM      4  C   UNL     1       9.432  67.285  -0.781  1.00  0.00     0.047 A 
ATOM      5  C   UNL     1       9.446  69.266  -2.168  1.00  0.00     0.047 A 
ATOM      6  C   UNL     1       9.371  67.873  -2.047  1.00  0.00     0.115 A 
ENDROOT
BRANCH   1   7
ATOM      7  C   UNL     1       9.801  70.281   1.490  1.00  0.00     0.010 C 
ATOM      8  C   UNL     1       8.873  70.321   2.458  1.00  0.00     0.025 C 
BRANCH   8   9
ATOM      9  C   UNL     1       9.039  71.139   3.671  1.00  0.00     0.064 C 
ATOM     10  O   UNL     1       9.921  70.864   4.528  1.00  0.00    -0.545 OA
ATOM     11  O   UNL     1       8.207  72.231   3.876  1.00  0.00    -0.545 OA
ENDBRANCH   8   9
ENDBRANCH   1   7
BRANCH   6  12
ATOM     12  O   UNL     1       9.233  67.068  -3.174  1.00  0.00    -0.508 OA
ATOM     13  H   UNL     1       9.710  66.176  -3.250  1.00  0.00     0.293 HD
ENDBRANCH   6  12
TORSDOF 3
ENDMDL
MODEL 8
REMARK VINA RESULT:    -5.231      2.111      2.873
REMARK INTER + INTRA:          -6.147
REMARK INTER:                  -6.006
REMARK INTRA:                  -0.141
REMARK UNBOUND:                -0.152
REMARK SMILES O=C([O-])C=Cc1ccc(O)cc1
REMARK SMILES IDX 6 1 7 2 12 3 8 4 11 5 9 6 5 7 4 8 2 9 1 10 3 11 10 12
REMARK H PARENT 10 13
REMARK Flexibility Score: inf
ROOT
ATOM      1  C   UNL     1       9.608  69.896   0.926  1.00  0.00    -0.025 A 
ATOM      2  C   UNL     1       8.935  69.394   2.053  1.00  0.00     0.012 A 
ATOM      3  C   UNL     1       9.970  71.258   0.903  1.00  0.00     0.012 A 
ATOM      4  C   UNL     1       8.608  70.236   3.120  1.00  0.00     0.047 A 
ATOM      5  C   UNL     1       9.641  72.097   1.972  1.00  0.00     0.047 A 
ATOM      6  C   UNL     1       8.958  71.588   3.082  1.00  0.00     0.115 A 
ENDROOT
BRANCH   1   7
ATOM      7  C   UNL     1       9.942  68.960  -0.175  1.00  0.00     0.010 C 
ATOM      8  C   UNL     1       9.049  68.149  -0.761  1.00  0.00     0.025 C 
BRANCH   8   9
ATOM      9  C   UNL     1       9.420  67.224  -1.845  1.00  0.00     0.064 C 
ATOM     10  O   UNL     1       9.330  67.567  -3.054  1.00  0.00    -0.545 OA
ATOM     11  O   UNL     1       9.876  65.951  -1.529  1.00  0.00    -0.545 OA
ENDBRANCH   8   9
ENDBRANCH   1   7
BRANCH   6  12
ATOM     12  O   UNL     1       8.624  72.416   4.152  1.00  0.00    -0.508 OA
ATOM     13  H   UNL     1       8.917  73.385   4.184  1.00  0.00     0.293 HD
ENDBRANCH   6  12
TORSDOF 3
ENDMDL
MODEL 9
REMARK VINA RESULT:    -5.160      2.953      5.280
REMARK INTER + INTRA:          -6.066
REMARK INTER:                  -5.915
REMARK INTRA:                  -0.151
REMARK UNBOUND:                -0.152
REMARK SMILES O=C([O-])C=Cc1ccc(O)cc1
REMARK SMILES IDX 6 1 7 2 12 3 8 4 11 5 9 6 5 7 4 8 2 9 1 10 3 11 10 12
REMARK H PARENT 10 13
REMARK Flexibility Score: inf
ROOT
ATOM      1  C   UNL     1       9.661  69.064  -0.522  1.00  0.00    -0.025 A 
ATOM      2  C   UNL     1      10.031  68.053   0.381  1.00  0.00     0.012 A 
ATOM      3  C   UNL     1       9.310  68.703  -1.839  1.00  0.00     0.012 A 
ATOM      4  C   UNL     1      10.074  66.717  -0.025  1.00  0.00     0.047 A 
ATOM      5  C   UNL     1       9.355  67.365  -2.241  1.00  0.00     0.047 A 
ATOM      6  C   UNL     1       9.739  66.369  -1.336  1.00  0.00     0.115 A 
ENDROOT
BRANCH   1   7
ATOM      7  C   UNL     1       9.620  70.467  -0.039  1.00  0.00     0.010 C 
ATOM      8  C   UNL     1      10.156  70.872   1.122  1.00  0.00     0.025 C 
BRANCH   8   9
ATOM      9  C   UNL     1      10.086  72.271   1.573  1.00  0.00     0.064 C 
ATOM     10  O   UNL     1       9.076  72.709   2.186  1.00  0.00    -0.545 OA
ATOM     11  O   UNL     1      11.151  73.124   1.318  1.00  0.00    -0.545 OA
ENDBRANCH   8   9
ENDBRANCH   1   7
BRANCH   6  12
ATOM     12  O   UNL     1       9.788  65.033  -1.728  1.00  0.00    -0.508 OA
ATOM     13  H   UNL     1       9.120  64.354  -1.380  1.00  0.00     0.293 HD
ENDBRANCH   6  12
TORSDOF 3
ENDMDL
