MODEL 1
REMARK VINA RESULT:    -5.156      0.000      0.000
REMARK INTER + INTRA:         -16.264
REMARK INTER:                 -12.993
REMARK INTRA:                  -3.270
REMARK UNBOUND:                -3.270
REMARK SMILES CCCCCCCCCCCCCCCCCCCCCCCCCCCC(=O)[O-]
REMARK SMILES IDX 15 1 16 2 17 3 18 4 19 5 20 6 21 7 22 8 23 9 24 10 25 11
REMARK SMILES IDX 26 12 27 13 28 14 29 15 30 16 14 17 13 18 12 19 11 20 10 21
REMARK SMILES IDX 9 22 8 23 7 24 6 25 5 26 4 27 3 28 2 29 1 30
REMARK H PARENT
REMARK Flexibility Score: inf
ROOT
ATOM      1  C   UNL     1     -24.373 -29.179  41.165  1.00  0.00     0.000 C 
ENDROOT
BRANCH   1   2
ATOM      2  C   UNL     1     -25.143 -27.862  40.951  1.00  0.00     0.000 C 
BRANCH   2   3
ATOM      3  C   UNL     1     -25.025 -26.843  42.100  1.00  0.00     0.000 C 
BRANCH   3   4
ATOM      4  C   UNL     1     -25.853 -25.569  41.863  1.00  0.00     0.000 C 
BRANCH   4   5
ATOM      5  C   UNL     1     -24.952 -24.408  41.417  1.00  0.00     0.000 C 
BRANCH   5   6
ATOM      6  C   UNL     1     -23.460 -24.799  41.354  1.00  0.00     0.000 C 
BRANCH   6   7
ATOM      7  C   UNL     1     -22.517 -23.590  41.208  1.00  0.00     0.000 C 
BRANCH   7   8
ATOM      8  C   UNL     1     -23.146 -22.449  40.388  1.00  0.00     0.000 C 
BRANCH   8   9
ATOM      9  C   UNL     1     -22.739 -22.498  38.903  1.00  0.00     0.000 C 
BRANCH   9  10
ATOM     10  C   UNL     1     -21.248 -22.201  38.643  1.00  0.00     0.000 C 
BRANCH  10  11
ATOM     11  C   UNL     1     -20.696 -20.935  39.329  1.00  0.00     0.000 C 
BRANCH  11  12
ATOM     12  C   UNL     1     -19.492 -20.300  38.599  1.00  0.00     0.006 C 
BRANCH  12  13
ATOM     13  C   UNL     1     -18.966 -21.187  37.461  1.00  0.00     0.053 C 
BRANCH  13  14
ATOM     14  C   UNL     1     -17.477 -21.315  37.540  1.00  0.00     0.041 C 
ATOM     15  O   UNL     1     -16.768 -21.097  36.523  1.00  0.00    -0.550 OA
ATOM     16  O   UNL     1     -16.873 -21.693  38.732  1.00  0.00    -0.550 OA
ENDBRANCH  13  14
ENDBRANCH  12  13
ENDBRANCH  11  12
ENDBRANCH  10  11
ENDBRANCH   9  10
ENDBRANCH   8   9
ENDBRANCH   7   8
ENDBRANCH   6   7
ENDBRANCH   5   6
ENDBRANCH   4   5
ENDBRANCH   3   4
ENDBRANCH   2   3
ENDBRANCH   1   2
BRANCH   1  17
ATOM     17  C   UNL     1     -23.328 -29.449  40.068  1.00  0.00     0.000 C 
BRANCH  17  18
ATOM     18  C   UNL     1     -22.634 -28.168  39.569  1.00  0.00     0.000 C 
BRANCH  18  19
ATOM     19  C   UNL     1     -22.130 -28.212  38.114  1.00  0.00     0.000 C 
BRANCH  19  20
ATOM     20  C   UNL     1     -21.040 -27.167  37.823  1.00  0.00     0.000 C 
BRANCH  20  21
ATOM     21  C   UNL     1     -21.036 -26.004  38.832  1.00  0.00     0.000 C 
BRANCH  21  22
ATOM     22  C   UNL     1     -19.768 -25.882  39.701  1.00  0.00    -0.000 C 
BRANCH  22  23
ATOM     23  C   UNL     1     -18.865 -24.708  39.288  1.00  0.00    -0.000 C 
BRANCH  23  24
ATOM     24  C   UNL     1     -17.457 -25.163  38.869  1.00  0.00    -0.000 C 
BRANCH  24  25
ATOM     25  C   UNL     1     -17.400 -26.661  38.520  1.00  0.00    -0.000 C 
BRANCH  25  26
ATOM     26  C   UNL     1     -17.323 -26.910  37.003  1.00  0.00    -0.000 C 
BRANCH  26  27
ATOM     27  C   UNL     1     -16.181 -27.871  36.624  1.00  0.00    -0.000 C 
BRANCH  27  28
ATOM     28  C   UNL     1     -16.232 -29.201  37.396  1.00  0.00    -0.000 C 
BRANCH  28  29
ATOM     29  C   UNL     1     -15.460 -30.362  36.742  1.00  0.00    -0.003 C 
ATOM     30  C   UNL     1     -15.434 -30.280  35.217  1.00  0.00     0.004 C 
ENDBRANCH  28  29
ENDBRANCH  27  28
ENDBRANCH  26  27
ENDBRANCH  25  26
ENDBRANCH  24  25
ENDBRANCH  23  24
ENDBRANCH  22  23
ENDBRANCH  21  22
ENDBRANCH  20  21
ENDBRANCH  19  20
ENDBRANCH  18  19
ENDBRANCH  17  18
ENDBRANCH   1  17
TORSDOF 26
ENDMDL
MODEL 2
REMARK VINA RESULT:    -5.099      3.041      8.222
REMARK INTER + INTRA:         -16.121
REMARK INTER:                 -13.279
REMARK INTRA:                  -2.841
REMARK UNBOUND:                -3.270
REMARK SMILES CCCCCCCCCCCCCCCCCCCCCCCCCCCC(=O)[O-]
REMARK SMILES IDX 15 1 16 2 17 3 18 4 19 5 20 6 21 7 22 8 23 9 24 10 25 11
REMARK SMILES IDX 26 12 27 13 28 14 29 15 30 16 14 17 13 18 12 19 11 20 10 21
REMARK SMILES IDX 9 22 8 23 7 24 6 25 5 26 4 27 3 28 2 29 1 30
REMARK H PARENT
REMARK Flexibility Score: inf
ROOT
ATOM      1  C   UNL     1     -23.837 -28.934  39.581  1.00  0.00     0.000 C 
ENDROOT
BRANCH   1   2
ATOM      2  C   UNL     1     -22.381 -28.450  39.439  1.00  0.00     0.000 C 
BRANCH   2   3
ATOM      3  C   UNL     1     -21.967 -28.038  38.014  1.00  0.00     0.000 C 
BRANCH   3   4
ATOM      4  C   UNL     1     -20.841 -26.991  37.993  1.00  0.00     0.000 C 
BRANCH   4   5
ATOM      5  C   UNL     1     -20.717 -26.296  39.357  1.00  0.00     0.000 C 
BRANCH   5   6
ATOM      6  C   UNL     1     -19.632 -25.199  39.373  1.00  0.00     0.000 C 
BRANCH   6   7
ATOM      7  C   UNL     1     -18.201 -25.756  39.491  1.00  0.00     0.000 C 
BRANCH   7   8
ATOM      8  C   UNL     1     -17.407 -25.620  38.179  1.00  0.00     0.000 C 
BRANCH   8   9
ATOM      9  C   UNL     1     -17.044 -26.986  37.566  1.00  0.00     0.000 C 
BRANCH   9  10
ATOM     10  C   UNL     1     -16.859 -26.966  36.035  1.00  0.00     0.000 C 
BRANCH  10  11
ATOM     11  C   UNL     1     -15.407 -27.137  35.542  1.00  0.00     0.000 C 
BRANCH  11  12
ATOM     12  C   UNL     1     -15.161 -28.443  34.755  1.00  0.00     0.006 C 
BRANCH  12  13
ATOM     13  C   UNL     1     -14.303 -29.445  35.541  1.00  0.00     0.053 C 
BRANCH  13  14
ATOM     14  C   UNL     1     -15.153 -30.547  36.092  1.00  0.00     0.041 C 
ATOM     15  O   UNL     1     -15.096 -31.700  35.591  1.00  0.00    -0.550 OA
ATOM     16  O   UNL     1     -16.022 -30.295  37.145  1.00  0.00    -0.550 OA
ENDBRANCH  13  14
ENDBRANCH  12  13
ENDBRANCH  11  12
ENDBRANCH  10  11
ENDBRANCH   9  10
ENDBRANCH   8   9
ENDBRANCH   7   8
ENDBRANCH   6   7
ENDBRANCH   5   6
ENDBRANCH   4   5
ENDBRANCH   3   4
ENDBRANCH   2   3
ENDBRANCH   1   2
BRANCH   1  17
ATOM     17  C   UNL     1     -24.365 -28.832  41.023  1.00  0.00     0.000 C 
BRANCH  17  18
ATOM     18  C   UNL     1     -25.364 -27.676  41.219  1.00  0.00     0.000 C 
BRANCH  18  19
ATOM     19  C   UNL     1     -24.926 -26.583  42.212  1.00  0.00     0.000 C 
BRANCH  19  20
ATOM     20  C   UNL     1     -24.768 -25.201  41.557  1.00  0.00     0.000 C 
BRANCH  20  21
ATOM     21  C   UNL     1     -23.373 -24.982  40.940  1.00  0.00     0.000 C 
BRANCH  21  22
ATOM     22  C   UNL     1     -22.456 -24.003  41.701  1.00  0.00    -0.000 C 
BRANCH  22  23
ATOM     23  C   UNL     1     -22.069 -22.770  40.868  1.00  0.00    -0.000 C 
BRANCH  23  24
ATOM     24  C   UNL     1     -22.441 -22.917  39.383  1.00  0.00    -0.000 C 
BRANCH  24  25
ATOM     25  C   UNL     1     -23.525 -21.917  38.944  1.00  0.00    -0.000 C 
BRANCH  25  26
ATOM     26  C   UNL     1     -24.224 -21.244  40.139  1.00  0.00    -0.000 C 
BRANCH  26  27
ATOM     27  C   UNL     1     -25.629 -21.819  40.395  1.00  0.00    -0.000 C 
BRANCH  27  28
ATOM     28  C   UNL     1     -26.738 -20.754  40.327  1.00  0.00    -0.000 C 
BRANCH  28  29
ATOM     29  C   UNL     1     -26.237 -19.299  40.277  1.00  0.00    -0.003 C 
ATOM     30  C   UNL     1     -26.023 -18.691  41.662  1.00  0.00     0.004 C 
ENDBRANCH  28  29
ENDBRANCH  27  28
ENDBRANCH  26  27
ENDBRANCH  25  26
ENDBRANCH  24  25
ENDBRANCH  23  24
ENDBRANCH  22  23
ENDBRANCH  21  22
ENDBRANCH  20  21
ENDBRANCH  19  20
ENDBRANCH  18  19
ENDBRANCH  17  18
ENDBRANCH   1  17
TORSDOF 26
ENDMDL
MODEL 3
REMARK VINA RESULT:    -5.059      2.955      7.006
REMARK INTER + INTRA:         -16.018
REMARK INTER:                 -13.149
REMARK INTRA:                  -2.869
REMARK UNBOUND:                -3.270
REMARK SMILES CCCCCCCCCCCCCCCCCCCCCCCCCCCC(=O)[O-]
REMARK SMILES IDX 15 1 16 2 17 3 18 4 19 5 20 6 21 7 22 8 23 9 24 10 25 11
REMARK SMILES IDX 26 12 27 13 28 14 29 15 30 16 14 17 13 18 12 19 11 20 10 21
REMARK SMILES IDX 9 22 8 23 7 24 6 25 5 26 4 27 3 28 2 29 1 30
REMARK H PARENT
REMARK Flexibility Score: inf
ROOT
ATOM      1  C   UNL     1     -18.265 -26.454  38.117  1.00  0.00     0.000 C 
ENDROOT
BRANCH   1   2
ATOM      2  C   UNL     1     -18.419 -25.524  39.336  1.00  0.00     0.000 C 
BRANCH   2   3
ATOM      3  C   UNL     1     -19.834 -25.471  39.942  1.00  0.00     0.000 C 
BRANCH   3   4
ATOM      4  C   UNL     1     -20.903 -26.101  39.034  1.00  0.00     0.000 C 
BRANCH   4   5
ATOM      5  C   UNL     1     -21.758 -27.109  39.815  1.00  0.00     0.000 C 
BRANCH   5   6
ATOM      6  C   UNL     1     -22.191 -28.317  38.958  1.00  0.00     0.000 C 
BRANCH   6   7
ATOM      7  C   UNL     1     -23.069 -29.326  39.722  1.00  0.00     0.000 C 
BRANCH   7   8
ATOM      8  C   UNL     1     -24.491 -29.427  39.140  1.00  0.00     0.000 C 
BRANCH   8   9
ATOM      9  C   UNL     1     -25.580 -29.180  40.200  1.00  0.00     0.000 C 
BRANCH   9  10
ATOM     10  C   UNL     1     -25.625 -27.735  40.740  1.00  0.00     0.000 C 
BRANCH  10  11
ATOM     11  C   UNL     1     -24.821 -27.488  42.032  1.00  0.00     0.000 C 
BRANCH  11  12
ATOM     12  C   UNL     1     -24.859 -26.024  42.524  1.00  0.00     0.006 C 
BRANCH  12  13
ATOM     13  C   UNL     1     -25.512 -25.082  41.502  1.00  0.00     0.053 C 
BRANCH  13  14
ATOM     14  C   UNL     1     -24.578 -23.968  41.143  1.00  0.00     0.041 C 
ATOM     15  O   UNL     1     -25.032 -22.877  40.710  1.00  0.00    -0.550 OA
ATOM     16  O   UNL     1     -23.206 -24.144  41.268  1.00  0.00    -0.550 OA
ENDBRANCH  13  14
ENDBRANCH  12  13
ENDBRANCH  11  12
ENDBRANCH  10  11
ENDBRANCH   9  10
ENDBRANCH   8   9
ENDBRANCH   7   8
ENDBRANCH   6   7
ENDBRANCH   5   6
ENDBRANCH   4   5
ENDBRANCH   3   4
ENDBRANCH   2   3
ENDBRANCH   1   2
BRANCH   1  17
ATOM     17  C   UNL     1     -16.798 -26.803  37.811  1.00  0.00     0.000 C 
BRANCH  17  18
ATOM     18  C   UNL     1     -16.649 -28.047  36.914  1.00  0.00     0.000 C 
BRANCH  18  19
ATOM     19  C   UNL     1     -16.071 -29.296  37.605  1.00  0.00     0.000 C 
BRANCH  19  20
ATOM     20  C   UNL     1     -16.130 -30.554  36.723  1.00  0.00     0.000 C 
BRANCH  20  21
ATOM     21  C   UNL     1     -14.764 -31.251  36.576  1.00  0.00     0.000 C 
BRANCH  21  22
ATOM     22  C   UNL     1     -13.914 -30.801  35.371  1.00  0.00    -0.000 C 
BRANCH  22  23
ATOM     23  C   UNL     1     -14.752 -30.188  34.237  1.00  0.00    -0.000 C 
BRANCH  23  24
ATOM     24  C   UNL     1     -14.347 -28.739  33.917  1.00  0.00    -0.000 C 
BRANCH  24  25
ATOM     25  C   UNL     1     -13.398 -28.144  34.972  1.00  0.00    -0.000 C 
BRANCH  25  26
ATOM     26  C   UNL     1     -13.587 -26.626  35.146  1.00  0.00    -0.000 C 
BRANCH  26  27
ATOM     27  C   UNL     1     -14.904 -26.126  34.523  1.00  0.00    -0.000 C 
BRANCH  27  28
ATOM     28  C   UNL     1     -15.217 -24.660  34.876  1.00  0.00    -0.000 C 
BRANCH  28  29
ATOM     29  C   UNL     1     -16.585 -24.153  34.384  1.00  0.00    -0.003 C 
ATOM     30  C   UNL     1     -16.576 -22.671  34.015  1.00  0.00     0.004 C 
ENDBRANCH  28  29
ENDBRANCH  27  28
ENDBRANCH  26  27
ENDBRANCH  25  26
ENDBRANCH  24  25
ENDBRANCH  23  24
ENDBRANCH  22  23
ENDBRANCH  21  22
ENDBRANCH  20  21
ENDBRANCH  19  20
ENDBRANCH  18  19
ENDBRANCH  17  18
ENDBRANCH   1  17
TORSDOF 26
ENDMDL
MODEL 4
REMARK VINA RESULT:    -5.014      6.433      9.684
REMARK INTER + INTRA:         -15.904
REMARK INTER:                 -13.139
REMARK INTRA:                  -2.765
REMARK UNBOUND:                -3.270
REMARK SMILES CCCCCCCCCCCCCCCCCCCCCCCCCCCC(=O)[O-]
REMARK SMILES IDX 15 1 16 2 17 3 18 4 19 5 20 6 21 7 22 8 23 9 24 10 25 11
REMARK SMILES IDX 26 12 27 13 28 14 29 15 30 16 14 17 13 18 12 19 11 20 10 21
REMARK SMILES IDX 9 22 8 23 7 24 6 25 5 26 4 27 3 28 2 29 1 30
REMARK H PARENT
REMARK Flexibility Score: inf
ROOT
ATOM      1  C   UNL     1     -28.576 -26.174  42.106  1.00  0.00     0.000 C 
ENDROOT
BRANCH   1   2
ATOM      2  C   UNL     1     -29.782 -26.265  43.060  1.00  0.00     0.000 C 
BRANCH   2   3
ATOM      3  C   UNL     1     -31.152 -26.403  42.370  1.00  0.00     0.000 C 
BRANCH   3   4
ATOM      4  C   UNL     1     -32.195 -25.403  42.897  1.00  0.00     0.000 C 
BRANCH   4   5
ATOM      5  C   UNL     1     -31.721 -24.761  44.210  1.00  0.00     0.000 C 
BRANCH   5   6
ATOM      6  C   UNL     1     -31.637 -23.223  44.126  1.00  0.00     0.000 C 
BRANCH   6   7
ATOM      7  C   UNL     1     -30.613 -22.721  43.090  1.00  0.00     0.000 C 
BRANCH   7   8
ATOM      8  C   UNL     1     -29.208 -22.538  43.693  1.00  0.00     0.000 C 
BRANCH   8   9
ATOM      9  C   UNL     1     -28.932 -21.082  44.110  1.00  0.00     0.000 C 
BRANCH   9  10
ATOM     10  C   UNL     1     -29.340 -20.748  45.560  1.00  0.00     0.000 C 
BRANCH  10  11
ATOM     11  C   UNL     1     -29.021 -21.837  46.604  1.00  0.00     0.000 C 
BRANCH  11  12
ATOM     12  C   UNL     1     -29.478 -21.486  48.037  1.00  0.00     0.006 C 
BRANCH  12  13
ATOM     13  C   UNL     1     -29.894 -22.729  48.838  1.00  0.00     0.053 C 
BRANCH  13  14
ATOM     14  C   UNL     1     -29.631 -22.526  50.297  1.00  0.00     0.041 C 
ATOM     15  O   UNL     1     -28.844 -23.292  50.911  1.00  0.00    -0.550 OA
ATOM     16  O   UNL     1     -30.272 -21.502  50.983  1.00  0.00    -0.550 OA
ENDBRANCH  13  14
ENDBRANCH  12  13
ENDBRANCH  11  12
ENDBRANCH  10  11
ENDBRANCH   9  10
ENDBRANCH   8   9
ENDBRANCH   7   8
ENDBRANCH   6   7
ENDBRANCH   5   6
ENDBRANCH   4   5
ENDBRANCH   3   4
ENDBRANCH   2   3
ENDBRANCH   1   2
BRANCH   1  17
ATOM     17  C   UNL     1     -27.298 -25.673  42.800  1.00  0.00     0.000 C 
BRANCH  17  18
ATOM     18  C   UNL     1     -26.361 -24.899  41.853  1.00  0.00     0.000 C 
BRANCH  18  19
ATOM     19  C   UNL     1     -24.998 -25.563  41.582  1.00  0.00     0.000 C 
BRANCH  19  20
ATOM     20  C   UNL     1     -24.871 -26.960  42.213  1.00  0.00     0.000 C 
BRANCH  20  21
ATOM     21  C   UNL     1     -24.757 -28.085  41.167  1.00  0.00     0.000 C 
BRANCH  21  22
ATOM     22  C   UNL     1     -23.419 -28.850  41.156  1.00  0.00    -0.000 C 
BRANCH  22  23
ATOM     23  C   UNL     1     -22.862 -29.071  39.740  1.00  0.00    -0.000 C 
BRANCH  23  24
ATOM     24  C   UNL     1     -22.180 -27.816  39.169  1.00  0.00    -0.000 C 
BRANCH  24  25
ATOM     25  C   UNL     1     -21.661 -26.873  40.269  1.00  0.00    -0.000 C 
BRANCH  25  26
ATOM     26  C   UNL     1     -20.645 -25.847  39.735  1.00  0.00    -0.000 C 
BRANCH  26  27
ATOM     27  C   UNL     1     -21.191 -24.408  39.775  1.00  0.00    -0.000 C 
BRANCH  27  28
ATOM     28  C   UNL     1     -21.803 -24.034  41.138  1.00  0.00    -0.000 C 
BRANCH  28  29
ATOM     29  C   UNL     1     -22.426 -22.628  41.205  1.00  0.00    -0.003 C 
ATOM     30  C   UNL     1     -23.638 -22.465  40.291  1.00  0.00     0.004 C 
ENDBRANCH  28  29
ENDBRANCH  27  28
ENDBRANCH  26  27
ENDBRANCH  25  26
ENDBRANCH  24  25
ENDBRANCH  23  24
ENDBRANCH  22  23
ENDBRANCH  21  22
ENDBRANCH  20  21
ENDBRANCH  19  20
ENDBRANCH  18  19
ENDBRANCH  17  18
ENDBRANCH   1  17
TORSDOF 26
ENDMDL
MODEL 5
REMARK VINA RESULT:    -5.003      4.924     10.318
REMARK INTER + INTRA:         -15.879
REMARK INTER:                 -12.018
REMARK INTRA:                  -3.861
REMARK UNBOUND:                -3.270
REMARK SMILES CCCCCCCCCCCCCCCCCCCCCCCCCCCC(=O)[O-]
REMARK SMILES IDX 15 1 16 2 17 3 18 4 19 5 20 6 21 7 22 8 23 9 24 10 25 11
REMARK SMILES IDX 26 12 27 13 28 14 29 15 30 16 14 17 13 18 12 19 11 20 10 21
REMARK SMILES IDX 9 22 8 23 7 24 6 25 5 26 4 27 3 28 2 29 1 30
REMARK H PARENT
REMARK Flexibility Score: inf
ROOT
ATOM      1  C   UNL     1     -20.968 -25.293  40.489  1.00  0.00     0.000 C 
ENDROOT
BRANCH   1   2
ATOM      2  C   UNL     1     -21.381 -26.720  40.081  1.00  0.00     0.000 C 
BRANCH   2   3
ATOM      3  C   UNL     1     -21.242 -27.035  38.579  1.00  0.00     0.000 C 
BRANCH   3   4
ATOM      4  C   UNL     1     -22.193 -28.146  38.107  1.00  0.00     0.000 C 
BRANCH   4   5
ATOM      5  C   UNL     1     -22.823 -28.872  39.305  1.00  0.00     0.000 C 
BRANCH   5   6
ATOM      6  C   UNL     1     -24.346 -29.069  39.153  1.00  0.00     0.000 C 
BRANCH   6   7
ATOM      7  C   UNL     1     -25.136 -28.740  40.433  1.00  0.00     0.000 C 
BRANCH   7   8
ATOM      8  C   UNL     1     -24.217 -28.481  41.641  1.00  0.00     0.000 C 
BRANCH   8   9
ATOM      9  C   UNL     1     -24.539 -27.153  42.352  1.00  0.00     0.000 C 
BRANCH   9  10
ATOM     10  C   UNL     1     -24.874 -25.987  41.397  1.00  0.00     0.000 C 
BRANCH  10  11
ATOM     11  C   UNL     1     -26.205 -25.263  41.682  1.00  0.00     0.000 C 
BRANCH  11  12
ATOM     12  C   UNL     1     -27.452 -26.164  41.544  1.00  0.00     0.006 C 
BRANCH  12  13
ATOM     13  C   UNL     1     -28.331 -26.141  42.803  1.00  0.00     0.053 C 
BRANCH  13  14
ATOM     14  C   UNL     1     -29.778 -26.044  42.433  1.00  0.00     0.041 C 
ATOM     15  O   UNL     1     -30.642 -25.802  43.315  1.00  0.00    -0.550 OA
ATOM     16  O   UNL     1     -30.173 -26.239  41.116  1.00  0.00    -0.550 OA
ENDBRANCH  13  14
ENDBRANCH  12  13
ENDBRANCH  11  12
ENDBRANCH  10  11
ENDBRANCH   9  10
ENDBRANCH   8   9
ENDBRANCH   7   8
ENDBRANCH   6   7
ENDBRANCH   5   6
ENDBRANCH   4   5
ENDBRANCH   3   4
ENDBRANCH   2   3
ENDBRANCH   1   2
BRANCH   1  17
ATOM     17  C   UNL     1     -20.971 -24.307  39.309  1.00  0.00     0.000 C 
BRANCH  17  18
ATOM     18  C   UNL     1     -21.925 -23.117  39.519  1.00  0.00     0.000 C 
BRANCH  18  19
ATOM     19  C   UNL     1     -22.324 -22.837  40.980  1.00  0.00     0.000 C 
BRANCH  19  20
ATOM     20  C   UNL     1     -23.438 -21.785  41.110  1.00  0.00     0.000 C 
BRANCH  20  21
ATOM     21  C   UNL     1     -24.720 -22.167  40.345  1.00  0.00     0.000 C 
BRANCH  21  22
ATOM     22  C   UNL     1     -25.474 -20.995  39.685  1.00  0.00    -0.000 C 
BRANCH  22  23
ATOM     23  C   UNL     1     -25.121 -19.630  40.297  1.00  0.00    -0.000 C 
BRANCH  23  24
ATOM     24  C   UNL     1     -26.340 -18.924  40.916  1.00  0.00    -0.000 C 
BRANCH  24  25
ATOM     25  C   UNL     1     -27.622 -19.770  40.822  1.00  0.00    -0.000 C 
BRANCH  25  26
ATOM     26  C   UNL     1     -27.991 -20.430  42.164  1.00  0.00    -0.000 C 
BRANCH  26  27
ATOM     27  C   UNL     1     -27.998 -21.968  42.077  1.00  0.00    -0.000 C 
BRANCH  27  28
ATOM     28  C   UNL     1     -29.393 -22.577  42.304  1.00  0.00    -0.000 C 
BRANCH  28  29
ATOM     29  C   UNL     1     -30.048 -22.218  43.650  1.00  0.00    -0.003 C 
ATOM     30  C   UNL     1     -31.355 -21.444  43.493  1.00  0.00     0.004 C 
ENDBRANCH  28  29
ENDBRANCH  27  28
ENDBRANCH  26  27
ENDBRANCH  25  26
ENDBRANCH  24  25
ENDBRANCH  23  24
ENDBRANCH  22  23
ENDBRANCH  21  22
ENDBRANCH  20  21
ENDBRANCH  19  20
ENDBRANCH  18  19
ENDBRANCH  17  18
ENDBRANCH   1  17
TORSDOF 26
ENDMDL
MODEL 6
REMARK VINA RESULT:    -4.993      4.085     10.231
REMARK INTER + INTRA:         -15.852
REMARK INTER:                 -12.801
REMARK INTRA:                  -3.051
REMARK UNBOUND:                -3.270
REMARK SMILES CCCCCCCCCCCCCCCCCCCCCCCCCCCC(=O)[O-]
REMARK SMILES IDX 15 1 16 2 17 3 18 4 19 5 20 6 21 7 22 8 23 9 24 10 25 11
REMARK SMILES IDX 26 12 27 13 28 14 29 15 30 16 14 17 13 18 12 19 11 20 10 21
REMARK SMILES IDX 9 22 8 23 7 24 6 25 5 26 4 27 3 28 2 29 1 30
REMARK H PARENT
REMARK Flexibility Score: inf
ROOT
ATOM      1  C   UNL     1     -23.200 -21.252  39.558  1.00  0.00     0.000 C 
ENDROOT
BRANCH   1   2
ATOM      2  C   UNL     1     -22.435 -21.858  38.365  1.00  0.00     0.000 C 
BRANCH   2   3
ATOM      3  C   UNL     1     -20.943 -22.140  38.622  1.00  0.00     0.000 C 
BRANCH   3   4
ATOM      4  C   UNL     1     -20.704 -23.415  39.448  1.00  0.00     0.000 C 
BRANCH   4   5
ATOM      5  C   UNL     1     -19.265 -23.920  39.268  1.00  0.00     0.000 C 
BRANCH   5   6
ATOM      6  C   UNL     1     -19.154 -25.456  39.363  1.00  0.00     0.000 C 
BRANCH   6   7
ATOM      7  C   UNL     1     -20.516 -26.159  39.514  1.00  0.00     0.000 C 
BRANCH   7   8
ATOM      8  C   UNL     1     -20.950 -26.884  38.227  1.00  0.00     0.000 C 
BRANCH   8   9
ATOM      9  C   UNL     1     -21.975 -28.001  38.498  1.00  0.00     0.000 C 
BRANCH   9  10
ATOM     10  C   UNL     1     -22.571 -27.985  39.921  1.00  0.00     0.000 C 
BRANCH  10  11
ATOM     11  C   UNL     1     -22.998 -29.360  40.474  1.00  0.00     0.000 C 
BRANCH  11  12
ATOM     12  C   UNL     1     -24.477 -29.426  40.916  1.00  0.00     0.006 C 
BRANCH  12  13
ATOM     13  C   UNL     1     -25.445 -29.116  39.764  1.00  0.00     0.053 C 
BRANCH  13  14
ATOM     14  C   UNL     1     -25.290 -30.118  38.663  1.00  0.00     0.041 C 
ATOM     15  O   UNL     1     -25.532 -31.334  38.875  1.00  0.00    -0.550 OA
ATOM     16  O   UNL     1     -24.859 -29.709  37.407  1.00  0.00    -0.550 OA
ENDBRANCH  13  14
ENDBRANCH  12  13
ENDBRANCH  11  12
ENDBRANCH  10  11
ENDBRANCH   9  10
ENDBRANCH   8   9
ENDBRANCH   7   8
ENDBRANCH   6   7
ENDBRANCH   5   6
ENDBRANCH   4   5
ENDBRANCH   3   4
ENDBRANCH   2   3
ENDBRANCH   1   2
BRANCH   1  17
ATOM     17  C   UNL     1     -24.440 -22.073  39.954  1.00  0.00     0.000 C 
BRANCH  17  18
ATOM     18  C   UNL     1     -24.089 -23.376  40.697  1.00  0.00     0.000 C 
BRANCH  18  19
ATOM     19  C   UNL     1     -25.280 -24.117  41.333  1.00  0.00     0.000 C 
BRANCH  19  20
ATOM     20  C   UNL     1     -24.997 -25.608  41.584  1.00  0.00     0.000 C 
BRANCH  20  21
ATOM     21  C   UNL     1     -26.068 -26.285  42.460  1.00  0.00     0.000 C 
BRANCH  21  22
ATOM     22  C   UNL     1     -27.439 -26.499  41.788  1.00  0.00    -0.000 C 
BRANCH  22  23
ATOM     23  C   UNL     1     -28.622 -26.193  42.721  1.00  0.00    -0.000 C 
BRANCH  23  24
ATOM     24  C   UNL     1     -29.678 -25.290  42.063  1.00  0.00    -0.000 C 
BRANCH  24  25
ATOM     25  C   UNL     1     -29.856 -23.952  42.804  1.00  0.00    -0.000 C 
BRANCH  25  26
ATOM     26  C   UNL     1     -28.513 -23.261  43.101  1.00  0.00    -0.000 C 
BRANCH  26  27
ATOM     27  C   UNL     1     -28.100 -22.280  41.987  1.00  0.00    -0.000 C 
BRANCH  27  28
ATOM     28  C   UNL     1     -28.946 -20.994  41.975  1.00  0.00    -0.000 C 
BRANCH  28  29
ATOM     29  C   UNL     1     -29.128 -20.323  43.348  1.00  0.00    -0.003 C 
ATOM     30  C   UNL     1     -27.904 -19.522  43.791  1.00  0.00     0.004 C 
ENDBRANCH  28  29
ENDBRANCH  27  28
ENDBRANCH  26  27
ENDBRANCH  25  26
ENDBRANCH  24  25
ENDBRANCH  23  24
ENDBRANCH  22  23
ENDBRANCH  21  22
ENDBRANCH  20  21
ENDBRANCH  19  20
ENDBRANCH  18  19
ENDBRANCH  17  18
ENDBRANCH   1  17
TORSDOF 26
ENDMDL
MODEL 7
REMARK VINA RESULT:    -4.973      4.149      9.106
REMARK INTER + INTRA:         -15.803
REMARK INTER:                 -11.760
REMARK INTRA:                  -4.043
REMARK UNBOUND:                -3.270
REMARK SMILES CCCCCCCCCCCCCCCCCCCCCCCCCCCC(=O)[O-]
REMARK SMILES IDX 15 1 16 2 17 3 18 4 19 5 20 6 21 7 22 8 23 9 24 10 25 11
REMARK SMILES IDX 26 12 27 13 28 14 29 15 30 16 14 17 13 18 12 19 11 20 10 21
REMARK SMILES IDX 9 22 8 23 7 24 6 25 5 26 4 27 3 28 2 29 1 30
REMARK H PARENT
REMARK Flexibility Score: inf
ROOT
ATOM      1  C   UNL     1     -22.548 -22.537  41.252  1.00  0.00     0.000 C 
ENDROOT
BRANCH   1   2
ATOM      2  C   UNL     1     -22.262 -23.975  41.726  1.00  0.00     0.000 C 
BRANCH   2   3
ATOM      3  C   UNL     1     -22.205 -25.032  40.607  1.00  0.00     0.000 C 
BRANCH   3   4
ATOM      4  C   UNL     1     -20.820 -25.135  39.947  1.00  0.00     0.000 C 
BRANCH   4   5
ATOM      5  C   UNL     1     -20.548 -26.570  39.472  1.00  0.00     0.000 C 
BRANCH   5   6
ATOM      6  C   UNL     1     -21.181 -26.876  38.098  1.00  0.00     0.000 C 
BRANCH   6   7
ATOM      7  C   UNL     1     -22.078 -28.128  38.103  1.00  0.00     0.000 C 
BRANCH   7   8
ATOM      8  C   UNL     1     -22.567 -28.495  39.516  1.00  0.00     0.000 C 
BRANCH   8   9
ATOM      9  C   UNL     1     -23.959 -29.154  39.505  1.00  0.00     0.000 C 
BRANCH   9  10
ATOM     10  C   UNL     1     -24.766 -28.956  40.805  1.00  0.00     0.000 C 
BRANCH  10  11
ATOM     11  C   UNL     1     -25.724 -27.748  40.810  1.00  0.00     0.000 C 
BRANCH  11  12
ATOM     12  C   UNL     1     -25.396 -26.692  41.889  1.00  0.00     0.006 C 
BRANCH  12  13
ATOM     13  C   UNL     1     -25.954 -25.305  41.536  1.00  0.00     0.053 C 
BRANCH  13  14
ATOM     14  C   UNL     1     -27.166 -25.001  42.360  1.00  0.00     0.041 C 
ATOM     15  O   UNL     1     -27.487 -23.807  42.597  1.00  0.00    -0.550 OA
ATOM     16  O   UNL     1     -27.930 -26.037  42.882  1.00  0.00    -0.550 OA
ENDBRANCH  13  14
ENDBRANCH  12  13
ENDBRANCH  11  12
ENDBRANCH  10  11
ENDBRANCH   9  10
ENDBRANCH   8   9
ENDBRANCH   7   8
ENDBRANCH   6   7
ENDBRANCH   5   6
ENDBRANCH   4   5
ENDBRANCH   3   4
ENDBRANCH   2   3
ENDBRANCH   1   2
BRANCH   1  17
ATOM     17  C   UNL     1     -23.841 -22.424  40.425  1.00  0.00     0.000 C 
BRANCH  17  18
ATOM     18  C   UNL     1     -23.628 -21.732  39.066  1.00  0.00     0.000 C 
BRANCH  18  19
ATOM     19  C   UNL     1     -22.627 -22.421  38.120  1.00  0.00     0.000 C 
BRANCH  19  20
ATOM     20  C   UNL     1     -21.471 -21.502  37.693  1.00  0.00     0.000 C 
BRANCH  20  21
ATOM     21  C   UNL     1     -20.218 -21.658  38.577  1.00  0.00     0.000 C 
BRANCH  21  22
ATOM     22  C   UNL     1     -19.664 -20.353  39.181  1.00  0.00    -0.000 C 
BRANCH  22  23
ATOM     23  C   UNL     1     -20.548 -19.785  40.304  1.00  0.00    -0.000 C 
BRANCH  23  24
ATOM     24  C   UNL     1     -21.389 -18.582  39.844  1.00  0.00    -0.000 C 
BRANCH  24  25
ATOM     25  C   UNL     1     -22.163 -17.926  41.002  1.00  0.00    -0.000 C 
BRANCH  25  26
ATOM     26  C   UNL     1     -23.284 -18.829  41.547  1.00  0.00    -0.000 C 
BRANCH  26  27
ATOM     27  C   UNL     1     -24.669 -18.164  41.454  1.00  0.00    -0.000 C 
BRANCH  27  28
ATOM     28  C   UNL     1     -25.721 -18.833  42.357  1.00  0.00    -0.000 C 
BRANCH  28  29
ATOM     29  C   UNL     1     -26.712 -19.757  41.626  1.00  0.00    -0.003 C 
ATOM     30  C   UNL     1     -26.558 -19.717  40.107  1.00  0.00     0.004 C 
ENDBRANCH  28  29
ENDBRANCH  27  28
ENDBRANCH  26  27
ENDBRANCH  25  26
ENDBRANCH  24  25
ENDBRANCH  23  24
ENDBRANCH  22  23
ENDBRANCH  21  22
ENDBRANCH  20  21
ENDBRANCH  19  20
ENDBRANCH  18  19
ENDBRANCH  17  18
ENDBRANCH   1  17
TORSDOF 26
ENDMDL
MODEL 8
REMARK VINA RESULT:    -4.946      4.282      8.098
REMARK INTER + INTRA:         -15.735
REMARK INTER:                 -11.736
REMARK INTRA:                  -3.999
REMARK UNBOUND:                -3.270
REMARK SMILES CCCCCCCCCCCCCCCCCCCCCCCCCCCC(=O)[O-]
REMARK SMILES IDX 15 1 16 2 17 3 18 4 19 5 20 6 21 7 22 8 23 9 24 10 25 11
REMARK SMILES IDX 26 12 27 13 28 14 29 15 30 16 14 17 13 18 12 19 11 20 10 21
REMARK SMILES IDX 9 22 8 23 7 24 6 25 5 26 4 27 3 28 2 29 1 30
REMARK H PARENT
REMARK Flexibility Score: inf
ROOT
ATOM      1  C   UNL     1     -23.842 -22.461  40.655  1.00  0.00     0.000 C 
ENDROOT
BRANCH   1   2
ATOM      2  C   UNL     1     -23.852 -21.737  39.295  1.00  0.00     0.000 C 
BRANCH   2   3
ATOM      3  C   UNL     1     -22.802 -22.234  38.283  1.00  0.00     0.000 C 
BRANCH   3   4
ATOM      4  C   UNL     1     -21.668 -21.224  38.046  1.00  0.00     0.000 C 
BRANCH   4   5
ATOM      5  C   UNL     1     -22.128 -19.798  38.387  1.00  0.00     0.000 C 
BRANCH   5   6
ATOM      6  C   UNL     1     -21.079 -19.011  39.201  1.00  0.00     0.000 C 
BRANCH   6   7
ATOM      7  C   UNL     1     -20.993 -19.450  40.675  1.00  0.00     0.000 C 
BRANCH   7   8
ATOM      8  C   UNL     1     -21.850 -18.570  41.602  1.00  0.00     0.000 C 
BRANCH   8   9
ATOM      9  C   UNL     1     -22.969 -19.365  42.301  1.00  0.00     0.000 C 
BRANCH   9  10
ATOM     10  C   UNL     1     -24.376 -18.750  42.147  1.00  0.00     0.000 C 
BRANCH  10  11
ATOM     11  C   UNL     1     -24.860 -18.565  40.695  1.00  0.00     0.000 C 
BRANCH  11  12
ATOM     12  C   UNL     1     -26.321 -19.010  40.459  1.00  0.00     0.006 C 
BRANCH  12  13
ATOM     13  C   UNL     1     -26.736 -20.163  41.385  1.00  0.00     0.053 C 
BRANCH  13  14
ATOM     14  C   UNL     1     -28.018 -20.778  40.917  1.00  0.00     0.041 C 
ATOM     15  O   UNL     1     -28.822 -21.274  41.747  1.00  0.00    -0.550 OA
ATOM     16  O   UNL     1     -28.314 -20.820  39.560  1.00  0.00    -0.550 OA
ENDBRANCH  13  14
ENDBRANCH  12  13
ENDBRANCH  11  12
ENDBRANCH  10  11
ENDBRANCH   9  10
ENDBRANCH   8   9
ENDBRANCH   7   8
ENDBRANCH   6   7
ENDBRANCH   5   6
ENDBRANCH   4   5
ENDBRANCH   3   4
ENDBRANCH   2   3
ENDBRANCH   1   2
BRANCH   1  17
ATOM     17  C   UNL     1     -22.422 -22.772  41.159  1.00  0.00     0.000 C 
BRANCH  17  18
ATOM     18  C   UNL     1     -22.137 -24.282  41.265  1.00  0.00     0.000 C 
BRANCH  18  19
ATOM     19  C   UNL     1     -21.107 -24.834  40.262  1.00  0.00     0.000 C 
BRANCH  19  20
ATOM     20  C   UNL     1     -21.095 -26.370  40.194  1.00  0.00     0.000 C 
BRANCH  20  21
ATOM     21  C   UNL     1     -21.256 -26.911  38.760  1.00  0.00     0.000 C 
BRANCH  21  22
ATOM     22  C   UNL     1     -22.213 -28.109  38.605  1.00  0.00    -0.000 C 
BRANCH  22  23
ATOM     23  C   UNL     1     -22.891 -28.514  39.924  1.00  0.00    -0.000 C 
BRANCH  23  24
ATOM     24  C   UNL     1     -24.359 -28.931  39.732  1.00  0.00    -0.000 C 
BRANCH  24  25
ATOM     25  C   UNL     1     -25.328 -28.089  40.582  1.00  0.00    -0.000 C 
BRANCH  25  26
ATOM     26  C   UNL     1     -24.633 -27.430  41.787  1.00  0.00    -0.000 C 
BRANCH  26  27
ATOM     27  C   UNL     1     -24.824 -25.902  41.810  1.00  0.00    -0.000 C 
BRANCH  27  28
ATOM     28  C   UNL     1     -26.279 -25.474  41.549  1.00  0.00    -0.000 C 
BRANCH  28  29
ATOM     29  C   UNL     1     -27.218 -25.586  42.764  1.00  0.00    -0.003 C 
ATOM     30  C   UNL     1     -28.431 -24.663  42.671  1.00  0.00     0.004 C 
ENDBRANCH  28  29
ENDBRANCH  27  28
ENDBRANCH  26  27
ENDBRANCH  25  26
ENDBRANCH  24  25
ENDBRANCH  23  24
ENDBRANCH  22  23
ENDBRANCH  21  22
ENDBRANCH  20  21
ENDBRANCH  19  20
ENDBRANCH  18  19
ENDBRANCH  17  18
ENDBRANCH   1  17
TORSDOF 26
ENDMDL
MODEL 9
REMARK VINA RESULT:    -4.931      4.359     10.200
REMARK INTER + INTRA:         -15.696
REMARK INTER:                 -12.117
REMARK INTRA:                  -3.579
REMARK UNBOUND:                -3.270
REMARK SMILES CCCCCCCCCCCCCCCCCCCCCCCCCCCC(=O)[O-]
REMARK SMILES IDX 15 1 16 2 17 3 18 4 19 5 20 6 21 7 22 8 23 9 24 10 25 11
REMARK SMILES IDX 26 12 27 13 28 14 29 15 30 16 14 17 13 18 12 19 11 20 10 21
REMARK SMILES IDX 9 22 8 23 7 24 6 25 5 26 4 27 3 28 2 29 1 30
REMARK H PARENT
REMARK Flexibility Score: inf
ROOT
ATOM      1  C   UNL     1     -25.361 -22.963  40.817  1.00  0.00     0.000 C 
ENDROOT
BRANCH   1   2
ATOM      2  C   UNL     1     -24.624 -21.617  40.679  1.00  0.00     0.000 C 
BRANCH   2   3
ATOM      3  C   UNL     1     -24.377 -21.154  39.231  1.00  0.00     0.000 C 
BRANCH   3   4
ATOM      4  C   UNL     1     -22.885 -21.092  38.864  1.00  0.00     0.000 C 
BRANCH   4   5
ATOM      5  C   UNL     1     -22.418 -22.421  38.252  1.00  0.00     0.000 C 
BRANCH   5   6
ATOM      6  C   UNL     1     -21.048 -22.880  38.794  1.00  0.00     0.000 C 
BRANCH   6   7
ATOM      7  C   UNL     1     -21.154 -23.797  40.027  1.00  0.00     0.000 C 
BRANCH   7   8
ATOM      8  C   UNL     1     -20.468 -25.157  39.810  1.00  0.00     0.000 C 
BRANCH   8   9
ATOM      9  C   UNL     1     -21.382 -26.343  40.173  1.00  0.00     0.000 C 
BRANCH   9  10
ATOM     10  C   UNL     1     -21.581 -27.364  39.033  1.00  0.00     0.000 C 
BRANCH  10  11
ATOM     11  C   UNL     1     -22.662 -28.433  39.286  1.00  0.00     0.000 C 
BRANCH  11  12
ATOM     12  C   UNL     1     -23.185 -28.466  40.739  1.00  0.00     0.006 C 
BRANCH  12  13
ATOM     13  C   UNL     1     -24.305 -29.498  40.933  1.00  0.00     0.053 C 
BRANCH  13  14
ATOM     14  C   UNL     1     -25.332 -29.371  39.852  1.00  0.00     0.041 C 
ATOM     15  O   UNL     1     -26.035 -28.330  39.765  1.00  0.00    -0.550 OA
ATOM     16  O   UNL     1     -25.525 -30.409  38.950  1.00  0.00    -0.550 OA
ENDBRANCH  13  14
ENDBRANCH  12  13
ENDBRANCH  11  12
ENDBRANCH  10  11
ENDBRANCH   9  10
ENDBRANCH   8   9
ENDBRANCH   7   8
ENDBRANCH   6   7
ENDBRANCH   5   6
ENDBRANCH   4   5
ENDBRANCH   3   4
ENDBRANCH   2   3
ENDBRANCH   1   2
BRANCH   1  17
ATOM     17  C   UNL     1     -24.421 -24.130  41.165  1.00  0.00     0.000 C 
BRANCH  17  18
ATOM     18  C   UNL     1     -25.173 -25.404  41.591  1.00  0.00     0.000 C 
BRANCH  18  19
ATOM     19  C   UNL     1     -26.542 -25.174  42.259  1.00  0.00     0.000 C 
BRANCH  19  20
ATOM     20  C   UNL     1     -27.627 -26.143  41.760  1.00  0.00     0.000 C 
BRANCH  20  21
ATOM     21  C   UNL     1     -28.796 -26.300  42.751  1.00  0.00     0.000 C 
BRANCH  21  22
ATOM     22  C   UNL     1     -30.205 -26.130  42.150  1.00  0.00    -0.000 C 
BRANCH  22  23
ATOM     23  C   UNL     1     -31.048 -25.071  42.879  1.00  0.00    -0.000 C 
BRANCH  23  24
ATOM     24  C   UNL     1     -31.195 -23.771  42.071  1.00  0.00    -0.000 C 
BRANCH  24  25
ATOM     25  C   UNL     1     -30.844 -22.520  42.896  1.00  0.00    -0.000 C 
BRANCH  25  26
ATOM     26  C   UNL     1     -29.478 -22.641  43.597  1.00  0.00    -0.000 C 
BRANCH  26  27
ATOM     27  C   UNL     1     -28.347 -21.974  42.793  1.00  0.00    -0.000 C 
BRANCH  27  28
ATOM     28  C   UNL     1     -28.713 -20.565  42.292  1.00  0.00    -0.000 C 
BRANCH  28  29
ATOM     29  C   UNL     1     -27.976 -20.117  41.017  1.00  0.00    -0.003 C 
ATOM     30  C   UNL     1     -28.636 -20.620  39.735  1.00  0.00     0.004 C 
ENDBRANCH  28  29
ENDBRANCH  27  28
ENDBRANCH  26  27
ENDBRANCH  25  26
ENDBRANCH  24  25
ENDBRANCH  23  24
ENDBRANCH  22  23
ENDBRANCH  21  22
ENDBRANCH  20  21
ENDBRANCH  19  20
ENDBRANCH  18  19
ENDBRANCH  17  18
ENDBRANCH   1  17
TORSDOF 26
ENDMDL
