MODEL 1
REMARK VINA RESULT:    -3.575      0.000      0.000
REMARK INTER + INTRA:         -11.392
REMARK INTER:                  -8.172
REMARK INTRA:                  -3.220
REMARK UNBOUND:                -3.220
REMARK SMILES CCCCCCCCCCCCCCCCCCCCCCCC(=O)[O-]
REMARK SMILES IDX 13 1 14 2 15 3 16 4 17 5 18 6 19 7 20 8 21 9 22 10 23 11
REMARK SMILES IDX 24 12 25 13 26 14 12 15 11 16 10 17 9 18 8 19 7 20 6 21 5 22
REMARK SMILES IDX 4 23 3 24 2 25 1 26
REMARK H PARENT
REMARK Flexibility Score: inf
ROOT
ATOM      1  C   UNL     1      25.032  19.958  41.303  1.00  0.00     0.000 C 
ENDROOT
BRANCH   1   2
ATOM      2  C   UNL     1      23.639  19.412  40.944  1.00  0.00     0.000 C 
BRANCH   2   3
ATOM      3  C   UNL     1      22.507  20.462  41.031  1.00  0.00     0.000 C 
BRANCH   3   4
ATOM      4  C   UNL     1      21.115  19.887  41.367  1.00  0.00     0.000 C 
BRANCH   4   5
ATOM      5  C   UNL     1      20.268  20.710  42.363  1.00  0.00     0.000 C 
BRANCH   5   6
ATOM      6  C   UNL     1      18.748  20.659  42.128  1.00  0.00     0.000 C 
BRANCH   6   7
ATOM      7  C   UNL     1      17.981  20.101  43.338  1.00  0.00     0.000 C 
BRANCH   7   8
ATOM      8  C   UNL     1      18.832  20.084  44.622  1.00  0.00     0.000 C 
BRANCH   8   9
ATOM      9  C   UNL     1      18.412  19.029  45.666  1.00  0.00     0.000 C 
BRANCH   9  10
ATOM     10  C   UNL     1      16.987  18.470  45.493  1.00  0.00     0.006 C 
BRANCH  10  11
ATOM     11  C   UNL     1      16.264  18.254  46.828  1.00  0.00     0.053 C 
BRANCH  11  12
ATOM     12  C   UNL     1      14.831  17.887  46.598  1.00  0.00     0.041 C 
ATOM     13  O   UNL     1      13.926  18.752  46.746  1.00  0.00    -0.550 OA
ATOM     14  O   UNL     1      14.493  16.585  46.244  1.00  0.00    -0.550 OA
ENDBRANCH  11  12
ENDBRANCH  10  11
ENDBRANCH   9  10
ENDBRANCH   8   9
ENDBRANCH   7   8
ENDBRANCH   6   7
ENDBRANCH   5   6
ENDBRANCH   4   5
ENDBRANCH   3   4
ENDBRANCH   2   3
ENDBRANCH   1   2
BRANCH   1  15
ATOM     15  C   UNL     1      25.011  21.448  41.676  1.00  0.00     0.000 C 
BRANCH  15  16
ATOM     16  C   UNL     1      26.385  21.977  42.127  1.00  0.00     0.000 C 
BRANCH  16  17
ATOM     17  C   UNL     1      27.553  20.975  42.001  1.00  0.00     0.000 C 
BRANCH  17  18
ATOM     18  C   UNL     1      28.402  20.788  43.274  1.00  0.00    -0.000 C 
BRANCH  18  19
ATOM     19  C   UNL     1      27.604  20.785  44.591  1.00  0.00    -0.000 C 
BRANCH  19  20
ATOM     20  C   UNL     1      26.695  19.551  44.726  1.00  0.00    -0.000 C 
BRANCH  20  21
ATOM     21  C   UNL     1      25.241  19.919  45.071  1.00  0.00    -0.000 C 
BRANCH  21  22
ATOM     22  C   UNL     1      24.250  18.738  45.068  1.00  0.00    -0.000 C 
BRANCH  22  23
ATOM     23  C   UNL     1      22.798  19.145  44.738  1.00  0.00    -0.000 C 
BRANCH  23  24
ATOM     24  C   UNL     1      21.970  17.961  44.207  1.00  0.00    -0.000 C 
BRANCH  24  25
ATOM     25  C   UNL     1      22.824  16.710  43.945  1.00  0.00    -0.003 C 
ATOM     26  C   UNL     1      22.713  16.208  42.506  1.00  0.00     0.004 C 
ENDBRANCH  24  25
ENDBRANCH  23  24
ENDBRANCH  22  23
ENDBRANCH  21  22
ENDBRANCH  20  21
ENDBRANCH  19  20
ENDBRANCH  18  19
ENDBRANCH  17  18
ENDBRANCH  16  17
ENDBRANCH  15  16
ENDBRANCH   1  15
TORSDOF 22
ENDMDL
MODEL 2
REMARK VINA RESULT:    -3.529     15.213     18.089
REMARK INTER + INTRA:         -11.288
REMARK INTER:                  -6.504
REMARK INTRA:                  -4.784
REMARK UNBOUND:                -3.220
REMARK SMILES CCCCCCCCCCCCCCCCCCCCCCCC(=O)[O-]
REMARK SMILES IDX 13 1 14 2 15 3 16 4 17 5 18 6 19 7 20 8 21 9 22 10 23 11
REMARK SMILES IDX 24 12 25 13 26 14 12 15 11 16 10 17 9 18 8 19 7 20 6 21 5 22
REMARK SMILES IDX 4 23 3 24 2 25 1 26
REMARK H PARENT
REMARK Flexibility Score: inf
ROOT
ATOM      1  C   UNL     1      28.097  33.354  54.003  1.00  0.00     0.000 C 
ENDROOT
BRANCH   1   2
ATOM      2  C   UNL     1      26.854  34.206  53.693  1.00  0.00     0.000 C 
BRANCH   2   3
ATOM      3  C   UNL     1      25.535  33.401  53.632  1.00  0.00     0.000 C 
BRANCH   3   4
ATOM      4  C   UNL     1      25.678  31.899  53.959  1.00  0.00     0.000 C 
BRANCH   4   5
ATOM      5  C   UNL     1      24.907  30.932  53.034  1.00  0.00     0.000 C 
BRANCH   5   6
ATOM      6  C   UNL     1      25.407  30.878  51.580  1.00  0.00     0.000 C 
BRANCH   6   7
ATOM      7  C   UNL     1      26.942  30.884  51.482  1.00  0.00     0.000 C 
BRANCH   7   8
ATOM      8  C   UNL     1      27.448  31.475  50.153  1.00  0.00     0.000 C 
BRANCH   8   9
ATOM      9  C   UNL     1      28.126  32.856  50.274  1.00  0.00     0.000 C 
BRANCH   9  10
ATOM     10  C   UNL     1      29.559  32.931  49.713  1.00  0.00     0.006 C 
BRANCH  10  11
ATOM     11  C   UNL     1      30.186  31.549  49.491  1.00  0.00     0.053 C 
BRANCH  11  12
ATOM     12  C   UNL     1      30.611  31.387  48.065  1.00  0.00     0.041 C 
ATOM     13  O   UNL     1      31.795  31.650  47.725  1.00  0.00    -0.550 OA
ATOM     14  O   UNL     1      29.692  30.969  47.107  1.00  0.00    -0.550 OA
ENDBRANCH  11  12
ENDBRANCH  10  11
ENDBRANCH   9  10
ENDBRANCH   8   9
ENDBRANCH   7   8
ENDBRANCH   6   7
ENDBRANCH   5   6
ENDBRANCH   4   5
ENDBRANCH   3   4
ENDBRANCH   2   3
ENDBRANCH   1   2
BRANCH   1  15
ATOM     15  C   UNL     1      29.413  34.104  53.745  1.00  0.00     0.000 C 
BRANCH  15  16
ATOM     16  C   UNL     1      30.544  33.185  53.246  1.00  0.00     0.000 C 
BRANCH  16  17
ATOM     17  C   UNL     1      30.191  31.684  53.173  1.00  0.00     0.000 C 
BRANCH  17  18
ATOM     18  C   UNL     1      31.325  30.720  53.578  1.00  0.00    -0.000 C 
BRANCH  18  19
ATOM     19  C   UNL     1      32.456  31.360  54.404  1.00  0.00    -0.000 C 
BRANCH  19  20
ATOM     20  C   UNL     1      32.410  30.945  55.885  1.00  0.00    -0.000 C 
BRANCH  20  21
ATOM     21  C   UNL     1      31.996  32.100  56.814  1.00  0.00    -0.000 C 
BRANCH  21  22
ATOM     22  C   UNL     1      30.479  32.370  56.882  1.00  0.00    -0.000 C 
BRANCH  22  23
ATOM     23  C   UNL     1      29.651  31.155  57.351  1.00  0.00    -0.000 C 
BRANCH  23  24
ATOM     24  C   UNL     1      28.360  30.981  56.531  1.00  0.00    -0.000 C 
BRANCH  24  25
ATOM     25  C   UNL     1      28.358  29.690  55.696  1.00  0.00    -0.003 C 
ATOM     26  C   UNL     1      29.442  28.704  56.128  1.00  0.00     0.004 C 
ENDBRANCH  24  25
ENDBRANCH  23  24
ENDBRANCH  22  23
ENDBRANCH  21  22
ENDBRANCH  20  21
ENDBRANCH  19  20
ENDBRANCH  18  19
ENDBRANCH  17  18
ENDBRANCH  16  17
ENDBRANCH  15  16
ENDBRANCH   1  15
TORSDOF 22
ENDMDL
MODEL 3
REMARK VINA RESULT:    -3.516     14.803     16.707
REMARK INTER + INTRA:         -11.258
REMARK INTER:                  -7.044
REMARK INTRA:                  -4.214
REMARK UNBOUND:                -3.220
REMARK SMILES CCCCCCCCCCCCCCCCCCCCCCCC(=O)[O-]
REMARK SMILES IDX 13 1 14 2 15 3 16 4 17 5 18 6 19 7 20 8 21 9 22 10 23 11
REMARK SMILES IDX 24 12 25 13 26 14 12 15 11 16 10 17 9 18 8 19 7 20 6 21 5 22
REMARK SMILES IDX 4 23 3 24 2 25 1 26
REMARK H PARENT
REMARK Flexibility Score: inf
ROOT
ATOM      1  C   UNL     1      24.843  30.778  53.033  1.00  0.00     0.000 C 
ENDROOT
BRANCH   1   2
ATOM      2  C   UNL     1      25.663  29.476  53.010  1.00  0.00     0.000 C 
BRANCH   2   3
ATOM      3  C   UNL     1      27.071  29.605  53.636  1.00  0.00     0.000 C 
BRANCH   3   4
ATOM      4  C   UNL     1      27.282  28.790  54.929  1.00  0.00     0.000 C 
BRANCH   4   5
ATOM      5  C   UNL     1      27.495  29.612  56.219  1.00  0.00     0.000 C 
BRANCH   5   6
ATOM      6  C   UNL     1      26.229  29.846  57.062  1.00  0.00     0.000 C 
BRANCH   6   7
ATOM      7  C   UNL     1      25.267  28.648  57.028  1.00  0.00     0.000 C 
BRANCH   7   8
ATOM      8  C   UNL     1      23.953  28.964  56.291  1.00  0.00     0.000 C 
BRANCH   8   9
ATOM      9  C   UNL     1      23.307  30.315  56.664  1.00  0.00     0.000 C 
BRANCH   9  10
ATOM     10  C   UNL     1      22.137  30.226  57.662  1.00  0.00     0.006 C 
BRANCH  10  11
ATOM     11  C   UNL     1      20.875  29.608  57.047  1.00  0.00     0.053 C 
BRANCH  11  12
ATOM     12  C   UNL     1      20.448  28.401  57.824  1.00  0.00     0.041 C 
ATOM     13  O   UNL     1      21.169  27.368  57.831  1.00  0.00    -0.550 OA
ATOM     14  O   UNL     1      19.244  28.409  58.519  1.00  0.00    -0.550 OA
ENDBRANCH  11  12
ENDBRANCH  10  11
ENDBRANCH   9  10
ENDBRANCH   8   9
ENDBRANCH   7   8
ENDBRANCH   6   7
ENDBRANCH   5   6
ENDBRANCH   4   5
ENDBRANCH   3   4
ENDBRANCH   2   3
ENDBRANCH   1   2
BRANCH   1  15
ATOM     15  C   UNL     1      25.351  31.785  54.075  1.00  0.00     0.000 C 
BRANCH  15  16
ATOM     16  C   UNL     1      25.510  33.210  53.511  1.00  0.00     0.000 C 
BRANCH  16  17
ATOM     17  C   UNL     1      26.899  33.850  53.717  1.00  0.00     0.000 C 
BRANCH  17  18
ATOM     18  C   UNL     1      27.957  32.937  54.370  1.00  0.00    -0.000 C 
BRANCH  18  19
ATOM     19  C   UNL     1      29.403  33.457  54.285  1.00  0.00    -0.000 C 
BRANCH  19  20
ATOM     20  C   UNL     1      30.194  32.810  53.134  1.00  0.00    -0.000 C 
BRANCH  20  21
ATOM     21  C   UNL     1      30.101  33.613  51.824  1.00  0.00    -0.000 C 
BRANCH  21  22
ATOM     22  C   UNL     1      29.537  32.834  50.620  1.00  0.00    -0.000 C 
BRANCH  22  23
ATOM     23  C   UNL     1      28.696  31.601  51.014  1.00  0.00    -0.000 C 
BRANCH  23  24
ATOM     24  C   UNL     1      27.295  31.627  50.377  1.00  0.00    -0.000 C 
BRANCH  24  25
ATOM     25  C   UNL     1      26.841  33.045  49.999  1.00  0.00    -0.003 C 
ATOM     26  C   UNL     1      25.321  33.190  49.957  1.00  0.00     0.004 C 
ENDBRANCH  24  25
ENDBRANCH  23  24
ENDBRANCH  22  23
ENDBRANCH  21  22
ENDBRANCH  20  21
ENDBRANCH  19  20
ENDBRANCH  18  19
ENDBRANCH  17  18
ENDBRANCH  16  17
ENDBRANCH  15  16
ENDBRANCH   1  15
TORSDOF 22
ENDMDL
MODEL 4
REMARK VINA RESULT:    -3.459     15.453     17.800
REMARK INTER + INTRA:         -11.127
REMARK INTER:                  -6.893
REMARK INTRA:                  -4.234
REMARK UNBOUND:                -3.220
REMARK SMILES CCCCCCCCCCCCCCCCCCCCCCCC(=O)[O-]
REMARK SMILES IDX 13 1 14 2 15 3 16 4 17 5 18 6 19 7 20 8 21 9 22 10 23 11
REMARK SMILES IDX 24 12 25 13 26 14 12 15 11 16 10 17 9 18 8 19 7 20 6 21 5 22
REMARK SMILES IDX 4 23 3 24 2 25 1 26
REMARK H PARENT
REMARK Flexibility Score: inf
ROOT
ATOM      1  C   UNL     1      29.776  31.923  51.449  1.00  0.00     0.000 C 
ENDROOT
BRANCH   1   2
ATOM      2  C   UNL     1      29.127  33.257  51.857  1.00  0.00     0.000 C 
BRANCH   2   3
ATOM      3  C   UNL     1      29.197  33.557  53.372  1.00  0.00     0.000 C 
BRANCH   3   4
ATOM      4  C   UNL     1      27.869  33.361  54.134  1.00  0.00     0.000 C 
BRANCH   4   5
ATOM      5  C   UNL     1      26.738  34.351  53.783  1.00  0.00     0.000 C 
BRANCH   5   6
ATOM      6  C   UNL     1      25.467  33.712  53.195  1.00  0.00     0.000 C 
BRANCH   6   7
ATOM      7  C   UNL     1      25.673  32.239  52.804  1.00  0.00     0.000 C 
BRANCH   7   8
ATOM      8  C   UNL     1      25.612  32.016  51.282  1.00  0.00     0.000 C 
BRANCH   8   9
ATOM      9  C   UNL     1      25.443  33.300  50.443  1.00  0.00     0.000 C 
BRANCH   9  10
ATOM     10  C   UNL     1      26.419  33.441  49.260  1.00  0.00     0.006 C 
BRANCH  10  11
ATOM     11  C   UNL     1      27.137  32.130  48.919  1.00  0.00     0.053 C 
BRANCH  11  12
ATOM     12  C   UNL     1      28.208  32.366  47.900  1.00  0.00     0.041 C 
ATOM     13  O   UNL     1      29.193  33.100  48.178  1.00  0.00    -0.550 OA
ATOM     14  O   UNL     1      28.106  31.794  46.636  1.00  0.00    -0.550 OA
ENDBRANCH  11  12
ENDBRANCH  10  11
ENDBRANCH   9  10
ENDBRANCH   8   9
ENDBRANCH   7   8
ENDBRANCH   6   7
ENDBRANCH   5   6
ENDBRANCH   4   5
ENDBRANCH   3   4
ENDBRANCH   2   3
ENDBRANCH   1   2
BRANCH   1  15
ATOM     15  C   UNL     1      29.038  30.702  52.018  1.00  0.00     0.000 C 
BRANCH  15  16
ATOM     16  C   UNL     1      29.978  29.697  52.710  1.00  0.00     0.000 C 
BRANCH  16  17
ATOM     17  C   UNL     1      31.483  29.907  52.441  1.00  0.00     0.000 C 
BRANCH  17  18
ATOM     18  C   UNL     1      32.378  29.947  53.697  1.00  0.00    -0.000 C 
BRANCH  18  19
ATOM     19  C   UNL     1      32.308  31.259  54.500  1.00  0.00    -0.000 C 
BRANCH  19  20
ATOM     20  C   UNL     1      32.886  31.112  55.919  1.00  0.00    -0.000 C 
BRANCH  20  21
ATOM     21  C   UNL     1      32.185  32.022  56.943  1.00  0.00    -0.000 C 
BRANCH  21  22
ATOM     22  C   UNL     1      30.781  32.509  56.531  1.00  0.00    -0.000 C 
BRANCH  22  23
ATOM     23  C   UNL     1      29.632  31.662  57.119  1.00  0.00    -0.000 C 
BRANCH  23  24
ATOM     24  C   UNL     1      29.142  30.585  56.133  1.00  0.00    -0.000 C 
BRANCH  24  25
ATOM     25  C   UNL     1      27.823  29.933  56.575  1.00  0.00    -0.003 C 
ATOM     26  C   UNL     1      26.727  30.035  55.515  1.00  0.00     0.004 C 
ENDBRANCH  24  25
ENDBRANCH  23  24
ENDBRANCH  22  23
ENDBRANCH  21  22
ENDBRANCH  20  21
ENDBRANCH  19  20
ENDBRANCH  18  19
ENDBRANCH  17  18
ENDBRANCH  16  17
ENDBRANCH  15  16
ENDBRANCH   1  15
TORSDOF 22
ENDMDL
MODEL 5
REMARK VINA RESULT:    -3.458     15.048     17.825
REMARK INTER + INTRA:         -11.126
REMARK INTER:                  -6.480
REMARK INTRA:                  -4.645
REMARK UNBOUND:                -3.220
REMARK SMILES CCCCCCCCCCCCCCCCCCCCCCCC(=O)[O-]
REMARK SMILES IDX 13 1 14 2 15 3 16 4 17 5 18 6 19 7 20 8 21 9 22 10 23 11
REMARK SMILES IDX 24 12 25 13 26 14 12 15 11 16 10 17 9 18 8 19 7 20 6 21 5 22
REMARK SMILES IDX 4 23 3 24 2 25 1 26
REMARK H PARENT
REMARK Flexibility Score: inf
ROOT
ATOM      1  C   UNL     1      29.028  34.055  53.621  1.00  0.00     0.000 C 
ENDROOT
BRANCH   1   2
ATOM      2  C   UNL     1      29.649  33.177  52.520  1.00  0.00     0.000 C 
BRANCH   2   3
ATOM      3  C   UNL     1      29.406  31.662  52.707  1.00  0.00     0.000 C 
BRANCH   3   4
ATOM      4  C   UNL     1      30.655  30.851  53.110  1.00  0.00     0.000 C 
BRANCH   4   5
ATOM      5  C   UNL     1      31.814  31.660  53.731  1.00  0.00     0.000 C 
BRANCH   5   6
ATOM      6  C   UNL     1      32.064  31.403  55.228  1.00  0.00     0.000 C 
BRANCH   6   7
ATOM      7  C   UNL     1      31.151  32.245  56.133  1.00  0.00     0.000 C 
BRANCH   7   8
ATOM      8  C   UNL     1      30.250  31.381  57.035  1.00  0.00     0.000 C 
BRANCH   8   9
ATOM      9  C   UNL     1      28.768  31.324  56.609  1.00  0.00     0.000 C 
BRANCH   9  10
ATOM     10  C   UNL     1      28.280  29.947  56.122  1.00  0.00     0.006 C 
BRANCH  10  11
ATOM     11  C   UNL     1      27.063  30.039  55.193  1.00  0.00     0.053 C 
BRANCH  11  12
ATOM     12  C   UNL     1      27.124  28.977  54.140  1.00  0.00     0.041 C 
ATOM     13  O   UNL     1      28.217  28.406  53.881  1.00  0.00    -0.550 OA
ATOM     14  O   UNL     1      25.979  28.635  53.428  1.00  0.00    -0.550 OA
ENDBRANCH  11  12
ENDBRANCH  10  11
ENDBRANCH   9  10
ENDBRANCH   8   9
ENDBRANCH   7   8
ENDBRANCH   6   7
ENDBRANCH   5   6
ENDBRANCH   4   5
ENDBRANCH   3   4
ENDBRANCH   2   3
ENDBRANCH   1   2
BRANCH   1  15
ATOM     15  C   UNL     1      27.688  33.508  54.135  1.00  0.00     0.000 C 
BRANCH  15  16
ATOM     16  C   UNL     1      26.495  34.425  53.808  1.00  0.00     0.000 C 
BRANCH  16  17
ATOM     17  C   UNL     1      25.310  33.739  53.096  1.00  0.00     0.000 C 
BRANCH  17  18
ATOM     18  C   UNL     1      25.535  32.262  52.716  1.00  0.00    -0.000 C 
BRANCH  18  19
ATOM     19  C   UNL     1      25.980  32.028  51.260  1.00  0.00    -0.000 C 
BRANCH  19  20
ATOM     20  C   UNL     1      25.671  33.229  50.350  1.00  0.00    -0.000 C 
BRANCH  20  21
ATOM     21  C   UNL     1      26.656  33.352  49.174  1.00  0.00    -0.000 C 
BRANCH  21  22
ATOM     22  C   UNL     1      27.863  32.394  49.230  1.00  0.00    -0.000 C 
BRANCH  22  23
ATOM     23  C   UNL     1      29.189  33.038  48.771  1.00  0.00    -0.000 C 
BRANCH  23  24
ATOM     24  C   UNL     1      30.399  32.122  49.033  1.00  0.00    -0.000 C 
BRANCH  24  25
ATOM     25  C   UNL     1      30.029  30.631  49.012  1.00  0.00    -0.003 C 
ATOM     26  C   UNL     1      31.127  29.740  49.593  1.00  0.00     0.004 C 
ENDBRANCH  24  25
ENDBRANCH  23  24
ENDBRANCH  22  23
ENDBRANCH  21  22
ENDBRANCH  20  21
ENDBRANCH  19  20
ENDBRANCH  18  19
ENDBRANCH  17  18
ENDBRANCH  16  17
ENDBRANCH  15  16
ENDBRANCH   1  15
TORSDOF 22
ENDMDL
MODEL 6
REMARK VINA RESULT:    -3.421     13.335     15.587
REMARK INTER + INTRA:         -11.041
REMARK INTER:                  -6.572
REMARK INTRA:                  -4.469
REMARK UNBOUND:                -3.220
REMARK SMILES CCCCCCCCCCCCCCCCCCCCCCCC(=O)[O-]
REMARK SMILES IDX 13 1 14 2 15 3 16 4 17 5 18 6 19 7 20 8 21 9 22 10 23 11
REMARK SMILES IDX 24 12 25 13 26 14 12 15 11 16 10 17 9 18 8 19 7 20 6 21 5 22
REMARK SMILES IDX 4 23 3 24 2 25 1 26
REMARK H PARENT
REMARK Flexibility Score: inf
ROOT
ATOM      1  C   UNL     1      17.769  25.028  54.607  1.00  0.00     0.000 C 
ENDROOT
BRANCH   1   2
ATOM      2  C   UNL     1      16.494  25.704  54.073  1.00  0.00     0.000 C 
BRANCH   2   3
ATOM      3  C   UNL     1      15.772  26.598  55.107  1.00  0.00     0.000 C 
BRANCH   3   4
ATOM      4  C   UNL     1      14.951  27.756  54.501  1.00  0.00     0.000 C 
BRANCH   4   5
ATOM      5  C   UNL     1      15.484  29.178  54.778  1.00  0.00     0.000 C 
BRANCH   5   6
ATOM      6  C   UNL     1      17.008  29.282  54.964  1.00  0.00     0.000 C 
BRANCH   6   7
ATOM      7  C   UNL     1      17.696  30.015  53.800  1.00  0.00     0.000 C 
BRANCH   7   8
ATOM      8  C   UNL     1      18.389  29.051  52.820  1.00  0.00     0.000 C 
BRANCH   8   9
ATOM      9  C   UNL     1      17.749  28.980  51.418  1.00  0.00     0.000 C 
BRANCH   9  10
ATOM     10  C   UNL     1      16.785  27.799  51.199  1.00  0.00     0.006 C 
BRANCH  10  11
ATOM     11  C   UNL     1      15.492  28.209  50.482  1.00  0.00     0.053 C 
BRANCH  11  12
ATOM     12  C   UNL     1      15.785  28.653  49.082  1.00  0.00     0.041 C 
ATOM     13  O   UNL     1      16.454  27.913  48.312  1.00  0.00    -0.550 OA
ATOM     14  O   UNL     1      15.342  29.894  48.637  1.00  0.00    -0.550 OA
ENDBRANCH  11  12
ENDBRANCH  10  11
ENDBRANCH   9  10
ENDBRANCH   8   9
ENDBRANCH   7   8
ENDBRANCH   6   7
ENDBRANCH   5   6
ENDBRANCH   4   5
ENDBRANCH   3   4
ENDBRANCH   2   3
ENDBRANCH   1   2
BRANCH   1  15
ATOM     15  C   UNL     1      18.897  26.030  54.897  1.00  0.00     0.000 C 
BRANCH  15  16
ATOM     16  C   UNL     1      19.329  26.041  56.376  1.00  0.00     0.000 C 
BRANCH  16  17
ATOM     17  C   UNL     1      18.631  27.098  57.259  1.00  0.00     0.000 C 
BRANCH  17  18
ATOM     18  C   UNL     1      19.281  27.338  58.638  1.00  0.00    -0.000 C 
BRANCH  18  19
ATOM     19  C   UNL     1      20.777  26.986  58.719  1.00  0.00    -0.000 C 
BRANCH  19  20
ATOM     20  C   UNL     1      21.610  28.101  59.375  1.00  0.00    -0.000 C 
BRANCH  20  21
ATOM     21  C   UNL     1      20.849  29.435  59.467  1.00  0.00    -0.000 C 
BRANCH  21  22
ATOM     22  C   UNL     1      21.497  30.610  58.708  1.00  0.00    -0.000 C 
BRANCH  22  23
ATOM     23  C   UNL     1      22.001  30.237  57.298  1.00  0.00    -0.000 C 
BRANCH  23  24
ATOM     24  C   UNL     1      20.846  30.085  56.291  1.00  0.00    -0.000 C 
BRANCH  24  25
ATOM     25  C   UNL     1      21.167  29.086  55.168  1.00  0.00    -0.003 C 
ATOM     26  C   UNL     1      22.315  28.143  55.524  1.00  0.00     0.004 C 
ENDBRANCH  24  25
ENDBRANCH  23  24
ENDBRANCH  22  23
ENDBRANCH  21  22
ENDBRANCH  20  21
ENDBRANCH  19  20
ENDBRANCH  18  19
ENDBRANCH  17  18
ENDBRANCH  16  17
ENDBRANCH  15  16
ENDBRANCH   1  15
TORSDOF 22
ENDMDL
MODEL 7
REMARK VINA RESULT:    -3.406     14.090     16.873
REMARK INTER + INTRA:         -11.006
REMARK INTER:                  -6.838
REMARK INTRA:                  -4.169
REMARK UNBOUND:                -3.220
REMARK SMILES CCCCCCCCCCCCCCCCCCCCCCCC(=O)[O-]
REMARK SMILES IDX 13 1 14 2 15 3 16 4 17 5 18 6 19 7 20 8 21 9 22 10 23 11
REMARK SMILES IDX 24 12 25 13 26 14 12 15 11 16 10 17 9 18 8 19 7 20 6 21 5 22
REMARK SMILES IDX 4 23 3 24 2 25 1 26
REMARK H PARENT
REMARK Flexibility Score: inf
ROOT
ATOM      1  C   UNL     1      29.092  31.886  51.669  1.00  0.00     0.000 C 
ENDROOT
BRANCH   1   2
ATOM      2  C   UNL     1      29.810  31.809  50.311  1.00  0.00     0.000 C 
BRANCH   2   3
ATOM      3  C   UNL     1      30.177  33.185  49.710  1.00  0.00     0.000 C 
BRANCH   3   4
ATOM      4  C   UNL     1      30.872  33.128  48.334  1.00  0.00     0.000 C 
BRANCH   4   5
ATOM      5  C   UNL     1      30.027  33.602  47.131  1.00  0.00     0.000 C 
BRANCH   5   6
ATOM      6  C   UNL     1      28.846  32.688  46.759  1.00  0.00     0.000 C 
BRANCH   6   7
ATOM      7  C   UNL     1      27.597  33.479  46.336  1.00  0.00     0.000 C 
BRANCH   7   8
ATOM      8  C   UNL     1      26.389  33.213  47.252  1.00  0.00     0.000 C 
BRANCH   8   9
ATOM      9  C   UNL     1      26.601  33.589  48.733  1.00  0.00     0.000 C 
BRANCH   9  10
ATOM     10  C   UNL     1      25.656  32.887  49.727  1.00  0.00     0.006 C 
BRANCH  10  11
ATOM     11  C   UNL     1      25.504  31.387  49.448  1.00  0.00     0.053 C 
BRANCH  11  12
ATOM     12  C   UNL     1      24.058  31.021  49.312  1.00  0.00     0.041 C 
ATOM     13  O   UNL     1      23.310  31.684  48.544  1.00  0.00    -0.550 OA
ATOM     14  O   UNL     1      23.534  29.965  50.049  1.00  0.00    -0.550 OA
ENDBRANCH  11  12
ENDBRANCH  10  11
ENDBRANCH   9  10
ENDBRANCH   8   9
ENDBRANCH   7   8
ENDBRANCH   6   7
ENDBRANCH   5   6
ENDBRANCH   4   5
ENDBRANCH   3   4
ENDBRANCH   2   3
ENDBRANCH   1   2
BRANCH   1  15
ATOM     15  C   UNL     1      28.498  33.274  51.952  1.00  0.00     0.000 C 
BRANCH  15  16
ATOM     16  C   UNL     1      28.401  33.595  53.455  1.00  0.00     0.000 C 
BRANCH  16  17
ATOM     17  C   UNL     1      27.079  34.253  53.906  1.00  0.00     0.000 C 
BRANCH  17  18
ATOM     18  C   UNL     1      25.806  33.709  53.226  1.00  0.00    -0.000 C 
BRANCH  18  19
ATOM     19  C   UNL     1      25.212  32.446  53.878  1.00  0.00    -0.000 C 
BRANCH  19  20
ATOM     20  C   UNL     1      25.519  31.169  53.076  1.00  0.00    -0.000 C 
BRANCH  20  21
ATOM     21  C   UNL     1      26.590  30.290  53.746  1.00  0.00    -0.000 C 
BRANCH  21  22
ATOM     22  C   UNL     1      26.901  30.645  55.213  1.00  0.00    -0.000 C 
BRANCH  22  23
ATOM     23  C   UNL     1      28.355  30.338  55.632  1.00  0.00    -0.000 C 
BRANCH  23  24
ATOM     24  C   UNL     1      28.972  31.477  56.465  1.00  0.00    -0.000 C 
BRANCH  24  25
ATOM     25  C   UNL     1      30.482  31.633  56.228  1.00  0.00    -0.003 C 
ATOM     26  C   UNL     1      30.905  31.227  54.817  1.00  0.00     0.004 C 
ENDBRANCH  24  25
ENDBRANCH  23  24
ENDBRANCH  22  23
ENDBRANCH  21  22
ENDBRANCH  20  21
ENDBRANCH  19  20
ENDBRANCH  18  19
ENDBRANCH  17  18
ENDBRANCH  16  17
ENDBRANCH  15  16
ENDBRANCH   1  15
TORSDOF 22
ENDMDL
MODEL 8
REMARK VINA RESULT:    -3.406     14.451     17.065
REMARK INTER + INTRA:         -11.006
REMARK INTER:                  -6.020
REMARK INTRA:                  -4.986
REMARK UNBOUND:                -3.220
REMARK SMILES CCCCCCCCCCCCCCCCCCCCCCCC(=O)[O-]
REMARK SMILES IDX 13 1 14 2 15 3 16 4 17 5 18 6 19 7 20 8 21 9 22 10 23 11
REMARK SMILES IDX 24 12 25 13 26 14 12 15 11 16 10 17 9 18 8 19 7 20 6 21 5 22
REMARK SMILES IDX 4 23 3 24 2 25 1 26
REMARK H PARENT
REMARK Flexibility Score: inf
ROOT
ATOM      1  C   UNL     1      30.544  31.043  52.110  1.00  0.00     0.000 C 
ENDROOT
BRANCH   1   2
ATOM      2  C   UNL     1      30.482  32.352  52.917  1.00  0.00     0.000 C 
BRANCH   2   3
ATOM      3  C   UNL     1      29.297  33.270  52.542  1.00  0.00     0.000 C 
BRANCH   3   4
ATOM      4  C   UNL     1      28.662  34.026  53.729  1.00  0.00     0.000 C 
BRANCH   4   5
ATOM      5  C   UNL     1      27.119  34.086  53.743  1.00  0.00     0.000 C 
BRANCH   5   6
ATOM      6  C   UNL     1      26.412  32.971  52.952  1.00  0.00     0.000 C 
BRANCH   6   7
ATOM      7  C   UNL     1      25.243  32.344  53.730  1.00  0.00     0.000 C 
BRANCH   7   8
ATOM      8  C   UNL     1      25.680  31.143  54.588  1.00  0.00     0.000 C 
BRANCH   8   9
ATOM      9  C   UNL     1      26.825  30.299  53.991  1.00  0.00     0.000 C 
BRANCH   9  10
ATOM     10  C   UNL     1      28.039  30.096  54.917  1.00  0.00     0.006 C 
BRANCH  10  11
ATOM     11  C   UNL     1      28.191  31.215  55.955  1.00  0.00     0.053 C 
BRANCH  11  12
ATOM     12  C   UNL     1      29.576  31.222  56.523  1.00  0.00     0.041 C 
ATOM     13  O   UNL     1      30.088  30.153  56.951  1.00  0.00    -0.550 OA
ATOM     14  O   UNL     1      30.292  32.412  56.600  1.00  0.00    -0.550 OA
ENDBRANCH  11  12
ENDBRANCH  10  11
ENDBRANCH   9  10
ENDBRANCH   8   9
ENDBRANCH   7   8
ENDBRANCH   6   7
ENDBRANCH   5   6
ENDBRANCH   4   5
ENDBRANCH   3   4
ENDBRANCH   2   3
ENDBRANCH   1   2
BRANCH   1  15
ATOM     15  C   UNL     1      29.193  30.661  51.488  1.00  0.00     0.000 C 
BRANCH  15  16
ATOM     16  C   UNL     1      29.329  29.710  50.285  1.00  0.00     0.000 C 
BRANCH  16  17
ATOM     17  C   UNL     1      30.607  29.895  49.438  1.00  0.00     0.000 C 
BRANCH  17  18
ATOM     18  C   UNL     1      30.441  30.763  48.174  1.00  0.00    -0.000 C 
BRANCH  18  19
ATOM     19  C   UNL     1      30.989  32.196  48.296  1.00  0.00    -0.000 C 
BRANCH  19  20
ATOM     20  C   UNL     1      29.952  33.177  48.870  1.00  0.00    -0.000 C 
BRANCH  20  21
ATOM     21  C   UNL     1      28.525  32.895  48.367  1.00  0.00    -0.000 C 
BRANCH  21  22
ATOM     22  C   UNL     1      27.409  33.126  49.406  1.00  0.00    -0.000 C 
BRANCH  22  23
ATOM     23  C   UNL     1      26.080  32.424  49.056  1.00  0.00    -0.000 C 
BRANCH  23  24
ATOM     24  C   UNL     1      25.918  31.084  49.797  1.00  0.00    -0.000 C 
BRANCH  24  25
ATOM     25  C   UNL     1      24.461  30.794  50.187  1.00  0.00    -0.003 C 
ATOM     26  C   UNL     1      24.338  29.709  51.256  1.00  0.00     0.004 C 
ENDBRANCH  24  25
ENDBRANCH  23  24
ENDBRANCH  22  23
ENDBRANCH  21  22
ENDBRANCH  20  21
ENDBRANCH  19  20
ENDBRANCH  18  19
ENDBRANCH  17  18
ENDBRANCH  16  17
ENDBRANCH  15  16
ENDBRANCH   1  15
TORSDOF 22
ENDMDL
MODEL 9
REMARK VINA RESULT:    -3.365      1.174      3.984
REMARK INTER + INTRA:         -10.912
REMARK INTER:                  -6.936
REMARK INTRA:                  -3.976
REMARK UNBOUND:                -3.220
REMARK SMILES CCCCCCCCCCCCCCCCCCCCCCCC(=O)[O-]
REMARK SMILES IDX 13 1 14 2 15 3 16 4 17 5 18 6 19 7 20 8 21 9 22 10 23 11
REMARK SMILES IDX 24 12 25 13 26 14 12 15 11 16 10 17 9 18 8 19 7 20 6 21 5 22
REMARK SMILES IDX 4 23 3 24 2 25 1 26
REMARK H PARENT
REMARK Flexibility Score: inf
ROOT
ATOM      1  C   UNL     1      22.340  21.780  44.263  1.00  0.00     0.000 C 
ENDROOT
BRANCH   1   2
ATOM      2  C   UNL     1      21.292  22.257  43.242  1.00  0.00     0.000 C 
BRANCH   2   3
ATOM      3  C   UNL     1      21.343  21.512  41.889  1.00  0.00     0.000 C 
BRANCH   3   4
ATOM      4  C   UNL     1      20.189  20.514  41.655  1.00  0.00     0.000 C 
BRANCH   4   5
ATOM      5  C   UNL     1      18.766  21.054  41.915  1.00  0.00     0.000 C 
BRANCH   5   6
ATOM      6  C   UNL     1      17.916  20.218  42.887  1.00  0.00     0.000 C 
BRANCH   6   7
ATOM      7  C   UNL     1      18.242  20.512  44.361  1.00  0.00     0.000 C 
BRANCH   7   8
ATOM      8  C   UNL     1      18.315  19.235  45.218  1.00  0.00     0.000 C 
BRANCH   8   9
ATOM      9  C   UNL     1      18.140  19.459  46.734  1.00  0.00     0.000 C 
BRANCH   9  10
ATOM     10  C   UNL     1      16.710  19.817  47.181  1.00  0.00     0.006 C 
BRANCH  10  11
ATOM     11  C   UNL     1      15.947  18.618  47.756  1.00  0.00     0.053 C 
BRANCH  11  12
ATOM     12  C   UNL     1      14.940  18.113  46.770  1.00  0.00     0.041 C 
ATOM     13  O   UNL     1      15.203  17.108  46.057  1.00  0.00    -0.550 OA
ATOM     14  O   UNL     1      13.721  18.768  46.621  1.00  0.00    -0.550 OA
ENDBRANCH  11  12
ENDBRANCH  10  11
ENDBRANCH   9  10
ENDBRANCH   8   9
ENDBRANCH   7   8
ENDBRANCH   6   7
ENDBRANCH   5   6
ENDBRANCH   4   5
ENDBRANCH   3   4
ENDBRANCH   2   3
ENDBRANCH   1   2
BRANCH   1  15
ATOM     15  C   UNL     1      21.789  20.725  45.234  1.00  0.00     0.000 C 
BRANCH  15  16
ATOM     16  C   UNL     1      22.514  19.370  45.130  1.00  0.00     0.000 C 
BRANCH  16  17
ATOM     17  C   UNL     1      21.744  18.265  44.377  1.00  0.00     0.000 C 
BRANCH  17  18
ATOM     18  C   UNL     1      22.334  17.862  43.010  1.00  0.00    -0.000 C 
BRANCH  18  19
ATOM     19  C   UNL     1      23.633  18.594  42.625  1.00  0.00    -0.000 C 
BRANCH  19  20
ATOM     20  C   UNL     1      23.772  18.787  41.105  1.00  0.00    -0.000 C 
BRANCH  20  21
ATOM     21  C   UNL     1      24.639  20.003  40.736  1.00  0.00    -0.000 C 
BRANCH  21  22
ATOM     22  C   UNL     1      25.139  20.835  41.934  1.00  0.00    -0.000 C 
BRANCH  22  23
ATOM     23  C   UNL     1      26.664  20.748  42.159  1.00  0.00    -0.000 C 
BRANCH  23  24
ATOM     24  C   UNL     1      27.037  20.830  43.651  1.00  0.00    -0.000 C 
BRANCH  24  25
ATOM     25  C   UNL     1      26.458  19.667  44.471  1.00  0.00    -0.003 C 
ATOM     26  C   UNL     1      26.048  20.084  45.883  1.00  0.00     0.004 C 
ENDBRANCH  24  25
ENDBRANCH  23  24
ENDBRANCH  22  23
ENDBRANCH  21  22
ENDBRANCH  20  21
ENDBRANCH  19  20
ENDBRANCH  18  19
ENDBRANCH  17  18
ENDBRANCH  16  17
ENDBRANCH  15  16
ENDBRANCH   1  15
TORSDOF 22
ENDMDL
