MODEL 1
REMARK VINA RESULT:    -3.741      0.000      0.000
REMARK INTER + INTRA:          -6.388
REMARK INTER:                  -5.927
REMARK INTRA:                  -0.461
REMARK UNBOUND:                -0.461
REMARK SMILES CCCCCCCCCCCC(=O)[O-]
REMARK SMILES IDX 7 1 8 2 9 3 10 4 11 5 12 6 13 7 14 8 6 9 5 10 4 11 3 12 2 13
REMARK SMILES IDX 1 14
REMARK H PARENT
REMARK Flexibility Score: inf
ROOT
ATOM      1  C   UNL     1      15.193   2.750  -1.990  1.00  0.00     0.000 C 
ENDROOT
BRANCH   1   2
ATOM      2  C   UNL     1      15.500   1.246  -1.887  1.00  0.00     0.000 C 
BRANCH   2   3
ATOM      3  C   UNL     1      16.565   0.791  -2.898  1.00  0.00     0.000 C 
BRANCH   3   4
ATOM      4  C   UNL     1      17.919   1.484  -2.682  1.00  0.00     0.006 C 
BRANCH   4   5
ATOM      5  C   UNL     1      19.065   0.469  -2.717  1.00  0.00     0.053 C 
BRANCH   5   6
ATOM      6  C   UNL     1      20.380   1.156  -2.526  1.00  0.00     0.041 C 
ATOM      7  O   UNL     1      21.428   0.481  -2.346  1.00  0.00    -0.550 OA
ATOM      8  O   UNL     1      20.457   2.542  -2.594  1.00  0.00    -0.550 OA
ENDBRANCH   5   6
ENDBRANCH   4   5
ENDBRANCH   3   4
ENDBRANCH   2   3
ENDBRANCH   1   2
BRANCH   1   9
ATOM      9  C   UNL     1      14.097   3.061  -3.024  1.00  0.00     0.000 C 
BRANCH   9  10
ATOM     10  C   UNL     1      12.837   3.668  -2.384  1.00  0.00    -0.000 C 
BRANCH  10  11
ATOM     11  C   UNL     1      13.164   4.611  -1.215  1.00  0.00    -0.000 C 
BRANCH  11  12
ATOM     12  C   UNL     1      11.914   5.025  -0.419  1.00  0.00    -0.000 C 
BRANCH  12  13
ATOM     13  C   UNL     1      10.631   4.958  -1.263  1.00  0.00    -0.003 C 
ATOM     14  C   UNL     1      10.089   6.342  -1.621  1.00  0.00     0.004 C 
ENDBRANCH  12  13
ENDBRANCH  11  12
ENDBRANCH  10  11
ENDBRANCH   9  10
ENDBRANCH   1   9
TORSDOF 10
ENDMDL
MODEL 2
REMARK VINA RESULT:    -3.607      1.828      3.541
REMARK INTER + INTRA:          -6.176
REMARK INTER:                  -5.296
REMARK INTRA:                  -0.881
REMARK UNBOUND:                -0.461
REMARK SMILES CCCCCCCCCCCC(=O)[O-]
REMARK SMILES IDX 7 1 8 2 9 3 10 4 11 5 12 6 13 7 14 8 6 9 5 10 4 11 3 12 2 13
REMARK SMILES IDX 1 14
REMARK H PARENT
REMARK Flexibility Score: inf
ROOT
ATOM      1  C   UNL     1      12.847   4.565  -0.942  1.00  0.00     0.000 C 
ENDROOT
BRANCH   1   2
ATOM      2  C   UNL     1      12.739   3.734  -2.233  1.00  0.00     0.000 C 
BRANCH   2   3
ATOM      3  C   UNL     1      14.111   3.437  -2.860  1.00  0.00     0.000 C 
BRANCH   3   4
ATOM      4  C   UNL     1      14.741   2.145  -2.316  1.00  0.00     0.006 C 
BRANCH   4   5
ATOM      5  C   UNL     1      16.163   2.401  -1.810  1.00  0.00     0.053 C 
BRANCH   5   6
ATOM      6  C   UNL     1      17.121   1.428  -2.423  1.00  0.00     0.041 C 
ATOM      7  O   UNL     1      18.356   1.670  -2.425  1.00  0.00    -0.550 OA
ATOM      8  O   UNL     1      16.653   0.230  -2.949  1.00  0.00    -0.550 OA
ENDBRANCH   5   6
ENDBRANCH   4   5
ENDBRANCH   3   4
ENDBRANCH   2   3
ENDBRANCH   1   2
BRANCH   1   9
ATOM      9  C   UNL     1      11.488   5.112  -0.475  1.00  0.00     0.000 C 
BRANCH   9  10
ATOM     10  C   UNL     1      10.394   4.967  -1.545  1.00  0.00    -0.000 C 
BRANCH  10  11
ATOM     11  C   UNL     1       9.732   6.309  -1.897  1.00  0.00    -0.000 C 
BRANCH  11  12
ATOM     12  C   UNL     1      10.590   7.519  -1.489  1.00  0.00    -0.000 C 
BRANCH  12  13
ATOM     13  C   UNL     1      11.300   8.168  -2.688  1.00  0.00    -0.003 C 
ATOM     14  C   UNL     1      12.777   7.784  -2.776  1.00  0.00     0.004 C 
ENDBRANCH  12  13
ENDBRANCH  11  12
ENDBRANCH  10  11
ENDBRANCH   9  10
ENDBRANCH   1   9
TORSDOF 10
ENDMDL
MODEL 3
REMARK VINA RESULT:    -3.588      3.823      7.862
REMARK INTER + INTRA:          -6.146
REMARK INTER:                  -5.583
REMARK INTRA:                  -0.563
REMARK UNBOUND:                -0.461
REMARK SMILES CCCCCCCCCCCC(=O)[O-]
REMARK SMILES IDX 7 1 8 2 9 3 10 4 11 5 12 6 13 7 14 8 6 9 5 10 4 11 3 12 2 13
REMARK SMILES IDX 1 14
REMARK H PARENT
REMARK Flexibility Score: inf
ROOT
ATOM      1  C   UNL     1      15.990   2.743  -1.381  1.00  0.00     0.000 C 
ENDROOT
BRANCH   1   2
ATOM      2  C   UNL     1      14.620   3.438  -1.280  1.00  0.00     0.000 C 
BRANCH   2   3
ATOM      3  C   UNL     1      13.768   3.248  -2.545  1.00  0.00     0.000 C 
BRANCH   3   4
ATOM      4  C   UNL     1      12.369   3.869  -2.414  1.00  0.00     0.006 C 
BRANCH   4   5
ATOM      5  C   UNL     1      12.263   4.714  -1.142  1.00  0.00     0.053 C 
BRANCH   5   6
ATOM      6  C   UNL     1      11.995   6.146  -1.486  1.00  0.00     0.041 C 
ATOM      7  O   UNL     1      12.646   6.710  -2.404  1.00  0.00    -0.550 OA
ATOM      8  O   UNL     1      10.992   6.844  -0.824  1.00  0.00    -0.550 OA
ENDBRANCH   5   6
ENDBRANCH   4   5
ENDBRANCH   3   4
ENDBRANCH   2   3
ENDBRANCH   1   2
BRANCH   1   9
ATOM      9  C   UNL     1      15.871   1.242  -1.691  1.00  0.00     0.000 C 
BRANCH   9  10
ATOM     10  C   UNL     1      16.724   0.819  -2.899  1.00  0.00    -0.000 C 
BRANCH  10  11
ATOM     11  C   UNL     1      18.051   1.589  -2.983  1.00  0.00    -0.000 C 
BRANCH  11  12
ATOM     12  C   UNL     1      19.269   0.708  -2.655  1.00  0.00    -0.000 C 
BRANCH  12  13
ATOM     13  C   UNL     1      20.559   1.527  -2.487  1.00  0.00    -0.003 C 
ATOM     14  C   UNL     1      21.521   0.909  -1.472  1.00  0.00     0.004 C 
ENDBRANCH  12  13
ENDBRANCH  11  12
ENDBRANCH  10  11
ENDBRANCH   9  10
ENDBRANCH   1   9
TORSDOF 10
ENDMDL
MODEL 4
REMARK VINA RESULT:    -3.585      4.750      8.487
REMARK INTER + INTRA:          -6.141
REMARK INTER:                  -5.448
REMARK INTRA:                  -0.693
REMARK UNBOUND:                -0.461
REMARK SMILES CCCCCCCCCCCC(=O)[O-]
REMARK SMILES IDX 7 1 8 2 9 3 10 4 11 5 12 6 13 7 14 8 6 9 5 10 4 11 3 12 2 13
REMARK SMILES IDX 1 14
REMARK H PARENT
REMARK Flexibility Score: inf
ROOT
ATOM      1  C   UNL     1      12.166   4.904  -0.521  1.00  0.00     0.000 C 
ENDROOT
BRANCH   1   2
ATOM      2  C   UNL     1      10.663   5.234  -0.505  1.00  0.00     0.000 C 
BRANCH   2   3
ATOM      3  C   UNL     1      10.011   5.084  -1.889  1.00  0.00     0.000 C 
BRANCH   3   4
ATOM      4  C   UNL     1       9.260   6.350  -2.329  1.00  0.00     0.006 C 
BRANCH   4   5
ATOM      5  C   UNL     1       9.336   7.434  -1.250  1.00  0.00     0.053 C 
BRANCH   5   6
ATOM      6  C   UNL     1      10.142   8.599  -1.735  1.00  0.00     0.041 C 
ATOM      7  O   UNL     1      11.380   8.476  -1.929  1.00  0.00    -0.550 OA
ATOM      8  O   UNL     1       9.516   9.807  -2.017  1.00  0.00    -0.550 OA
ENDBRANCH   5   6
ENDBRANCH   4   5
ENDBRANCH   3   4
ENDBRANCH   2   3
ENDBRANCH   1   2
BRANCH   1   9
ATOM      9  C   UNL     1      12.766   4.943  -1.937  1.00  0.00     0.000 C 
BRANCH   9  10
ATOM     10  C   UNL     1      13.687   3.746  -2.221  1.00  0.00    -0.000 C 
BRANCH  10  11
ATOM     11  C   UNL     1      14.638   3.442  -1.053  1.00  0.00    -0.000 C 
BRANCH  11  12
ATOM     12  C   UNL     1      15.879   2.643  -1.491  1.00  0.00    -0.000 C 
BRANCH  12  13
ATOM     13  C   UNL     1      15.548   1.179  -1.824  1.00  0.00    -0.003 C 
ATOM     14  C   UNL     1      16.366   0.644  -3.000  1.00  0.00     0.004 C 
ENDBRANCH  12  13
ENDBRANCH  11  12
ENDBRANCH  10  11
ENDBRANCH   9  10
ENDBRANCH   1   9
TORSDOF 10
ENDMDL
MODEL 5
REMARK VINA RESULT:    -3.534      4.564      8.260
REMARK INTER + INTRA:          -6.061
REMARK INTER:                  -5.492
REMARK INTRA:                  -0.569
REMARK UNBOUND:                -0.461
REMARK SMILES CCCCCCCCCCCC(=O)[O-]
REMARK SMILES IDX 7 1 8 2 9 3 10 4 11 5 12 6 13 7 14 8 6 9 5 10 4 11 3 12 2 13
REMARK SMILES IDX 1 14
REMARK H PARENT
REMARK Flexibility Score: inf
ROOT
ATOM      1  C   UNL     1      14.018   2.833  -2.688  1.00  0.00     0.000 C 
ENDROOT
BRANCH   1   2
ATOM      2  C   UNL     1      12.703   3.625  -2.586  1.00  0.00     0.000 C 
BRANCH   2   3
ATOM      3  C   UNL     1      12.885   4.986  -1.894  1.00  0.00     0.000 C 
BRANCH   3   4
ATOM      4  C   UNL     1      11.927   5.179  -0.709  1.00  0.00     0.006 C 
BRANCH   4   5
ATOM      5  C   UNL     1      10.468   5.078  -1.163  1.00  0.00     0.053 C 
BRANCH   5   6
ATOM      6  C   UNL     1       9.953   6.421  -1.577  1.00  0.00     0.041 C 
ATOM      7  O   UNL     1       8.808   6.531  -2.087  1.00  0.00    -0.550 OA
ATOM      8  O   UNL     1      10.721   7.558  -1.355  1.00  0.00    -0.550 OA
ENDBRANCH   5   6
ENDBRANCH   4   5
ENDBRANCH   3   4
ENDBRANCH   2   3
ENDBRANCH   1   2
BRANCH   1   9
ATOM      9  C   UNL     1      15.014   3.194  -1.573  1.00  0.00     0.000 C 
BRANCH   9  10
ATOM     10  C   UNL     1      16.268   2.304  -1.590  1.00  0.00    -0.000 C 
BRANCH  10  11
ATOM     11  C   UNL     1      16.001   0.919  -2.199  1.00  0.00    -0.000 C 
BRANCH  11  12
ATOM     12  C   UNL     1      17.137   0.448  -3.123  1.00  0.00    -0.000 C 
BRANCH  12  13
ATOM     13  C   UNL     1      18.444   1.223  -2.892  1.00  0.00    -0.003 C 
ATOM     14  C   UNL     1      19.625   0.305  -2.574  1.00  0.00     0.004 C 
ENDBRANCH  12  13
ENDBRANCH  11  12
ENDBRANCH  10  11
ENDBRANCH   9  10
ENDBRANCH   1   9
TORSDOF 10
ENDMDL
MODEL 6
REMARK VINA RESULT:    -3.531      4.635      8.320
REMARK INTER + INTRA:          -6.056
REMARK INTER:                  -5.549
REMARK INTRA:                  -0.507
REMARK UNBOUND:                -0.461
REMARK SMILES CCCCCCCCCCCC(=O)[O-]
REMARK SMILES IDX 7 1 8 2 9 3 10 4 11 5 12 6 13 7 14 8 6 9 5 10 4 11 3 12 2 13
REMARK SMILES IDX 1 14
REMARK H PARENT
REMARK Flexibility Score: inf
ROOT
ATOM      1  C   UNL     1      12.645   5.095  -1.292  1.00  0.00     0.000 C 
ENDROOT
BRANCH   1   2
ATOM      2  C   UNL     1      11.371   5.327  -0.461  1.00  0.00     0.000 C 
BRANCH   2   3
ATOM      3  C   UNL     1      10.588   6.568  -0.918  1.00  0.00     0.000 C 
BRANCH   3   4
ATOM      4  C   UNL     1      11.438   7.523  -1.770  1.00  0.00     0.006 C 
BRANCH   4   5
ATOM      5  C   UNL     1      10.763   8.892  -1.896  1.00  0.00     0.053 C 
BRANCH   5   6
ATOM      6  C   UNL     1      11.754   9.988  -1.661  1.00  0.00     0.041 C 
ATOM      7  O   UNL     1      12.954   9.844  -2.014  1.00  0.00    -0.550 OA
ATOM      8  O   UNL     1      11.342  11.189  -1.096  1.00  0.00    -0.550 OA
ENDBRANCH   5   6
ENDBRANCH   4   5
ENDBRANCH   3   4
ENDBRANCH   2   3
ENDBRANCH   1   2
BRANCH   1   9
ATOM      9  C   UNL     1      12.497   3.938  -2.294  1.00  0.00     0.000 C 
BRANCH   9  10
ATOM     10  C   UNL     1      13.824   3.203  -2.548  1.00  0.00    -0.000 C 
BRANCH  10  11
ATOM     11  C   UNL     1      14.792   3.304  -1.360  1.00  0.00    -0.000 C 
BRANCH  11  12
ATOM     12  C   UNL     1      16.028   2.402  -1.523  1.00  0.00    -0.000 C 
BRANCH  12  13
ATOM     13  C   UNL     1      15.668   0.999  -2.035  1.00  0.00    -0.003 C 
ATOM     14  C   UNL     1      16.621   0.507  -3.125  1.00  0.00     0.004 C 
ENDBRANCH  12  13
ENDBRANCH  11  12
ENDBRANCH  10  11
ENDBRANCH   9  10
ENDBRANCH   1   9
TORSDOF 10
ENDMDL
MODEL 7
REMARK VINA RESULT:    -3.483      4.127      7.764
REMARK INTER + INTRA:          -5.981
REMARK INTER:                  -5.158
REMARK INTRA:                  -0.822
REMARK UNBOUND:                -0.461
REMARK SMILES CCCCCCCCCCCC(=O)[O-]
REMARK SMILES IDX 7 1 8 2 9 3 10 4 11 5 12 6 13 7 14 8 6 9 5 10 4 11 3 12 2 13
REMARK SMILES IDX 1 14
REMARK H PARENT
REMARK Flexibility Score: inf
ROOT
ATOM      1  C   UNL     1      11.065   5.056  -0.573  1.00  0.00     0.000 C 
ENDROOT
BRANCH   1   2
ATOM      2  C   UNL     1      10.631   6.531  -0.490  1.00  0.00     0.000 C 
BRANCH   2   3
ATOM      3  C   UNL     1       9.796   6.968  -1.705  1.00  0.00     0.000 C 
BRANCH   3   4
ATOM      4  C   UNL     1      10.557   7.931  -2.629  1.00  0.00     0.006 C 
BRANCH   4   5
ATOM      5  C   UNL     1      11.504   8.827  -1.825  1.00  0.00     0.053 C 
BRANCH   5   6
ATOM      6  C   UNL     1      12.878   8.803  -2.418  1.00  0.00     0.041 C 
ATOM      7  O   UNL     1      13.318   7.752  -2.956  1.00  0.00    -0.550 OA
ATOM      8  O   UNL     1      13.655   9.955  -2.420  1.00  0.00    -0.550 OA
ENDBRANCH   5   6
ENDBRANCH   4   5
ENDBRANCH   3   4
ENDBRANCH   2   3
ENDBRANCH   1   2
BRANCH   1   9
ATOM      9  C   UNL     1      12.534   4.895  -0.995  1.00  0.00     0.000 C 
BRANCH   9  10
ATOM     10  C   UNL     1      12.682   4.308  -2.409  1.00  0.00    -0.000 C 
BRANCH  10  11
ATOM     11  C   UNL     1      13.973   3.493  -2.578  1.00  0.00    -0.000 C 
BRANCH  11  12
ATOM     12  C   UNL     1      14.728   3.295  -1.252  1.00  0.00    -0.000 C 
BRANCH  12  13
ATOM     13  C   UNL     1      16.080   2.589  -1.444  1.00  0.00    -0.003 C 
ATOM     14  C   UNL     1      15.931   1.178  -2.014  1.00  0.00     0.004 C 
ENDBRANCH  12  13
ENDBRANCH  11  12
ENDBRANCH  10  11
ENDBRANCH   9  10
ENDBRANCH   1   9
TORSDOF 10
ENDMDL
MODEL 8
REMARK VINA RESULT:    -3.372      5.843      9.235
REMARK INTER + INTRA:          -5.803
REMARK INTER:                  -5.173
REMARK INTRA:                  -0.630
REMARK UNBOUND:                -0.461
REMARK SMILES CCCCCCCCCCCC(=O)[O-]
REMARK SMILES IDX 7 1 8 2 9 3 10 4 11 5 12 6 13 7 14 8 6 9 5 10 4 11 3 12 2 13
REMARK SMILES IDX 1 14
REMARK H PARENT
REMARK Flexibility Score: inf
ROOT
ATOM      1  C   UNL     1      12.071   4.993  -0.435  1.00  0.00     0.000 C 
ENDROOT
BRANCH   1   2
ATOM      2  C   UNL     1      10.627   5.229  -0.913  1.00  0.00     0.000 C 
BRANCH   2   3
ATOM      3  C   UNL     1      10.371   6.689  -1.320  1.00  0.00     0.000 C 
BRANCH   3   4
ATOM      4  C   UNL     1       9.707   6.810  -2.700  1.00  0.00     0.006 C 
BRANCH   4   5
ATOM      5  C   UNL     1       8.581   7.848  -2.675  1.00  0.00     0.053 C 
BRANCH   5   6
ATOM      6  C   UNL     1       7.393   7.315  -1.936  1.00  0.00     0.041 C 
ATOM      7  O   UNL     1       6.887   6.209  -2.264  1.00  0.00    -0.550 OA
ATOM      8  O   UNL     1       6.875   8.016  -0.855  1.00  0.00    -0.550 OA
ENDBRANCH   5   6
ENDBRANCH   4   5
ENDBRANCH   3   4
ENDBRANCH   2   3
ENDBRANCH   1   2
BRANCH   1   9
ATOM      9  C   UNL     1      13.090   5.042  -1.585  1.00  0.00     0.000 C 
BRANCH   9  10
ATOM     10  C   UNL     1      12.883   3.913  -2.608  1.00  0.00    -0.000 C 
BRANCH  10  11
ATOM     11  C   UNL     1      14.105   2.989  -2.724  1.00  0.00    -0.000 C 
BRANCH  11  12
ATOM     12  C   UNL     1      15.063   3.119  -1.527  1.00  0.00    -0.000 C 
BRANCH  12  13
ATOM     13  C   UNL     1      16.248   2.145  -1.613  1.00  0.00    -0.003 C 
ATOM     14  C   UNL     1      15.917   0.883  -2.409  1.00  0.00     0.004 C 
ENDBRANCH  12  13
ENDBRANCH  11  12
ENDBRANCH  10  11
ENDBRANCH   9  10
ENDBRANCH   1   9
TORSDOF 10
ENDMDL
MODEL 9
REMARK VINA RESULT:    -3.324      3.286      5.434
REMARK INTER + INTRA:          -5.727
REMARK INTER:                  -5.302
REMARK INTRA:                  -0.425
REMARK UNBOUND:                -0.461
REMARK SMILES CCCCCCCCCCCC(=O)[O-]
REMARK SMILES IDX 7 1 8 2 9 3 10 4 11 5 12 6 13 7 14 8 6 9 5 10 4 11 3 12 2 13
REMARK SMILES IDX 1 14
REMARK H PARENT
REMARK Flexibility Score: inf
ROOT
ATOM      1  C   UNL     1      10.975   5.788  -0.482  1.00  0.00     0.000 C 
ENDROOT
BRANCH   1   2
ATOM      2  C   UNL     1      12.224   4.970  -0.856  1.00  0.00     0.000 C 
BRANCH   2   3
ATOM      3  C   UNL     1      12.032   4.157  -2.146  1.00  0.00     0.000 C 
BRANCH   3   4
ATOM      4  C   UNL     1      13.303   3.401  -2.562  1.00  0.00     0.006 C 
BRANCH   4   5
ATOM      5  C   UNL     1      14.371   3.481  -1.468  1.00  0.00     0.053 C 
BRANCH   5   6
ATOM      6  C   UNL     1      15.416   2.430  -1.677  1.00  0.00     0.041 C 
ATOM      7  O   UNL     1      16.605   2.639  -1.321  1.00  0.00    -0.550 OA
ATOM      8  O   UNL     1      15.065   1.201  -2.221  1.00  0.00    -0.550 OA
ENDBRANCH   5   6
ENDBRANCH   4   5
ENDBRANCH   3   4
ENDBRANCH   2   3
ENDBRANCH   1   2
BRANCH   1   9
ATOM      9  C   UNL     1      10.479   6.673  -1.638  1.00  0.00     0.000 C 
BRANCH   9  10
ATOM     10  C   UNL     1      11.500   7.754  -2.033  1.00  0.00    -0.000 C 
BRANCH  10  11
ATOM     11  C   UNL     1      11.019   9.173  -1.692  1.00  0.00    -0.000 C 
BRANCH  11  12
ATOM     12  C   UNL     1      12.180  10.139  -1.398  1.00  0.00    -0.000 C 
BRANCH  12  13
ATOM     13  C   UNL     1      11.811  11.605  -1.674  1.00  0.00    -0.003 C 
ATOM     14  C   UNL     1      10.930  12.207  -0.580  1.00  0.00     0.004 C 
ENDBRANCH  12  13
ENDBRANCH  11  12
ENDBRANCH  10  11
ENDBRANCH   9  10
ENDBRANCH   1   9
TORSDOF 10
ENDMDL
