MODEL 1
REMARK VINA RESULT:    -3.390      0.000      0.000
REMARK INTER + INTRA:         -12.654
REMARK INTER:                  -8.543
REMARK INTRA:                  -4.111
REMARK UNBOUND:                -4.111
REMARK SMILES CCCCCCCCCCCCCCCCCCCCCCCCCCCC(=O)[O-]
REMARK SMILES IDX 15 1 16 2 17 3 18 4 19 5 20 6 21 7 22 8 23 9 24 10 25 11
REMARK SMILES IDX 26 12 27 13 28 14 29 15 30 16 14 17 13 18 12 19 11 20 10 21
REMARK SMILES IDX 9 22 8 23 7 24 6 25 5 26 4 27 3 28 2 29 1 30
REMARK H PARENT
REMARK Flexibility Score: inf
ROOT
ATOM      1  C   UNL     1       0.848   1.371  -4.570  1.00  0.00     0.000 C 
ENDROOT
BRANCH   1   2
ATOM      2  C   UNL     1       0.900   2.238  -5.836  1.00  0.00     0.000 C 
BRANCH   2   3
ATOM      3  C   UNL     1       1.813   1.644  -6.922  1.00  0.00     0.000 C 
BRANCH   3   4
ATOM      4  C   UNL     1       3.304   1.935  -6.675  1.00  0.00     0.000 C 
BRANCH   4   5
ATOM      5  C   UNL     1       3.561   3.258  -5.924  1.00  0.00     0.000 C 
BRANCH   5   6
ATOM      6  C   UNL     1       4.075   3.025  -4.492  1.00  0.00     0.000 C 
BRANCH   6   7
ATOM      7  C   UNL     1       3.520   4.048  -3.488  1.00  0.00     0.000 C 
BRANCH   7   8
ATOM      8  C   UNL     1       4.166   5.438  -3.641  1.00  0.00     0.000 C 
BRANCH   8   9
ATOM      9  C   UNL     1       3.119   6.562  -3.717  1.00  0.00     0.000 C 
BRANCH   9  10
ATOM     10  C   UNL     1       2.405   6.606  -5.077  1.00  0.00     0.000 C 
BRANCH  10  11
ATOM     11  C   UNL     1       1.616   7.915  -5.239  1.00  0.00     0.000 C 
BRANCH  11  12
ATOM     12  C   UNL     1       0.130   7.680  -5.553  1.00  0.00     0.006 C 
BRANCH  12  13
ATOM     13  C   UNL     1      -0.089   6.595  -6.617  1.00  0.00     0.053 C 
BRANCH  13  14
ATOM     14  C   UNL     1      -1.456   5.992  -6.495  1.00  0.00     0.041 C 
ATOM     15  O   UNL     1      -2.482   6.700  -6.688  1.00  0.00    -0.550 OA
ATOM     16  O   UNL     1      -1.598   4.651  -6.160  1.00  0.00    -0.550 OA
ENDBRANCH  13  14
ENDBRANCH  12  13
ENDBRANCH  11  12
ENDBRANCH  10  11
ENDBRANCH   9  10
ENDBRANCH   8   9
ENDBRANCH   7   8
ENDBRANCH   6   7
ENDBRANCH   5   6
ENDBRANCH   4   5
ENDBRANCH   3   4
ENDBRANCH   2   3
ENDBRANCH   1   2
BRANCH   1  17
ATOM     17  C   UNL     1      -0.417   0.498  -4.500  1.00  0.00     0.000 C 
BRANCH  17  18
ATOM     18  C   UNL     1      -0.107  -0.959  -4.095  1.00  0.00     0.000 C 
BRANCH  18  19
ATOM     19  C   UNL     1       1.020  -1.613  -4.918  1.00  0.00     0.000 C 
BRANCH  19  20
ATOM     20  C   UNL     1       2.330  -1.858  -4.151  1.00  0.00     0.000 C 
BRANCH  20  21
ATOM     21  C   UNL     1       3.413  -0.818  -4.472  1.00  0.00     0.000 C 
BRANCH  21  22
ATOM     22  C   UNL     1       4.580  -0.916  -3.477  1.00  0.00    -0.000 C 
BRANCH  22  23
ATOM     23  C   UNL     1       5.865  -0.256  -4.002  1.00  0.00    -0.000 C 
BRANCH  23  24
ATOM     24  C   UNL     1       5.974  -0.302  -5.533  1.00  0.00    -0.000 C 
BRANCH  24  25
ATOM     25  C   UNL     1       7.246   0.418  -6.009  1.00  0.00    -0.000 C 
BRANCH  25  26
ATOM     26  C   UNL     1       7.067   1.943  -6.096  1.00  0.00    -0.000 C 
BRANCH  26  27
ATOM     27  C   UNL     1       7.827   2.688  -4.985  1.00  0.00    -0.000 C 
BRANCH  27  28
ATOM     28  C   UNL     1       7.500   4.192  -4.941  1.00  0.00    -0.000 C 
BRANCH  28  29
ATOM     29  C   UNL     1       7.547   4.909  -6.303  1.00  0.00    -0.003 C 
ATOM     30  C   UNL     1       6.236   5.608  -6.658  1.00  0.00     0.004 C 
ENDBRANCH  28  29
ENDBRANCH  27  28
ENDBRANCH  26  27
ENDBRANCH  25  26
ENDBRANCH  24  25
ENDBRANCH  23  24
ENDBRANCH  22  23
ENDBRANCH  21  22
ENDBRANCH  20  21
ENDBRANCH  19  20
ENDBRANCH  18  19
ENDBRANCH  17  18
ENDBRANCH   1  17
TORSDOF 26
ENDMDL
MODEL 2
REMARK VINA RESULT:    -3.047      1.469      5.331
REMARK INTER + INTRA:         -11.789
REMARK INTER:                  -7.925
REMARK INTRA:                  -3.864
REMARK UNBOUND:                -4.111
REMARK SMILES CCCCCCCCCCCCCCCCCCCCCCCCCCCC(=O)[O-]
REMARK SMILES IDX 15 1 16 2 17 3 18 4 19 5 20 6 21 7 22 8 23 9 24 10 25 11
REMARK SMILES IDX 26 12 27 13 28 14 29 15 30 16 14 17 13 18 12 19 11 20 10 21
REMARK SMILES IDX 9 22 8 23 7 24 6 25 5 26 4 27 3 28 2 29 1 30
REMARK H PARENT
REMARK Flexibility Score: inf
ROOT
ATOM      1  C   UNL     1       5.803   0.499  -2.764  1.00  0.00     0.000 C 
ENDROOT
BRANCH   1   2
ATOM      2  C   UNL     1       6.091   1.647  -3.744  1.00  0.00     0.000 C 
BRANCH   2   3
ATOM      3  C   UNL     1       7.338   2.458  -3.354  1.00  0.00     0.000 C 
BRANCH   3   4
ATOM      4  C   UNL     1       8.015   3.133  -4.560  1.00  0.00     0.000 C 
BRANCH   4   5
ATOM      5  C   UNL     1       7.897   2.325  -5.868  1.00  0.00     0.000 C 
BRANCH   5   6
ATOM      6  C   UNL     1       7.848   3.232  -7.111  1.00  0.00     0.000 C 
BRANCH   6   7
ATOM      7  C   UNL     1       6.662   4.209  -7.088  1.00  0.00     0.000 C 
BRANCH   7   8
ATOM      8  C   UNL     1       6.871   5.368  -6.095  1.00  0.00     0.000 C 
BRANCH   8   9
ATOM      9  C   UNL     1       5.540   5.964  -5.607  1.00  0.00     0.000 C 
BRANCH   9  10
ATOM     10  C   UNL     1       5.127   5.427  -4.228  1.00  0.00     0.000 C 
BRANCH  10  11
ATOM     11  C   UNL     1       3.730   5.933  -3.839  1.00  0.00     0.000 C 
BRANCH  11  12
ATOM     12  C   UNL     1       2.771   6.017  -5.038  1.00  0.00     0.006 C 
BRANCH  12  13
ATOM     13  C   UNL     1       2.159   7.414  -5.213  1.00  0.00     0.053 C 
BRANCH  13  14
ATOM     14  C   UNL     1       0.728   7.434  -4.767  1.00  0.00     0.041 C 
ATOM     15  O   UNL     1      -0.185   7.047  -5.545  1.00  0.00    -0.550 OA
ATOM     16  O   UNL     1       0.403   7.887  -3.494  1.00  0.00    -0.550 OA
ENDBRANCH  13  14
ENDBRANCH  12  13
ENDBRANCH  11  12
ENDBRANCH  10  11
ENDBRANCH   9  10
ENDBRANCH   8   9
ENDBRANCH   7   8
ENDBRANCH   6   7
ENDBRANCH   5   6
ENDBRANCH   4   5
ENDBRANCH   3   4
ENDBRANCH   2   3
ENDBRANCH   1   2
BRANCH   1  17
ATOM     17  C   UNL     1       4.601  -0.360  -3.194  1.00  0.00     0.000 C 
BRANCH  17  18
ATOM     18  C   UNL     1       4.953  -1.337  -4.336  1.00  0.00     0.000 C 
BRANCH  18  19
ATOM     19  C   UNL     1       6.048  -0.821  -5.290  1.00  0.00     0.000 C 
BRANCH  19  20
ATOM     20  C   UNL     1       5.548  -0.370  -6.672  1.00  0.00     0.000 C 
BRANCH  20  21
ATOM     21  C   UNL     1       4.152   0.270  -6.623  1.00  0.00     0.000 C 
BRANCH  21  22
ATOM     22  C   UNL     1       4.196   1.722  -7.123  1.00  0.00    -0.000 C 
BRANCH  22  23
ATOM     23  C   UNL     1       3.258   2.650  -6.334  1.00  0.00    -0.000 C 
BRANCH  23  24
ATOM     24  C   UNL     1       3.151   2.266  -4.851  1.00  0.00    -0.000 C 
BRANCH  24  25
ATOM     25  C   UNL     1       1.699   1.925  -4.482  1.00  0.00    -0.000 C 
BRANCH  25  26
ATOM     26  C   UNL     1       0.779   1.835  -5.710  1.00  0.00    -0.000 C 
BRANCH  26  27
ATOM     27  C   UNL     1       0.172   0.433  -5.889  1.00  0.00    -0.000 C 
BRANCH  27  28
ATOM     28  C   UNL     1       0.403  -0.478  -4.669  1.00  0.00    -0.000 C 
BRANCH  28  29
ATOM     29  C   UNL     1       1.419  -1.615  -4.887  1.00  0.00    -0.003 C 
ATOM     30  C   UNL     1       1.225  -2.786  -3.927  1.00  0.00     0.004 C 
ENDBRANCH  28  29
ENDBRANCH  27  28
ENDBRANCH  26  27
ENDBRANCH  25  26
ENDBRANCH  24  25
ENDBRANCH  23  24
ENDBRANCH  22  23
ENDBRANCH  21  22
ENDBRANCH  20  21
ENDBRANCH  19  20
ENDBRANCH  18  19
ENDBRANCH  17  18
ENDBRANCH   1  17
TORSDOF 26
ENDMDL
MODEL 3
REMARK VINA RESULT:    -2.852      1.602      5.902
REMARK INTER + INTRA:         -11.298
REMARK INTER:                  -7.744
REMARK INTRA:                  -3.554
REMARK UNBOUND:                -4.111
REMARK SMILES CCCCCCCCCCCCCCCCCCCCCCCCCCCC(=O)[O-]
REMARK SMILES IDX 15 1 16 2 17 3 18 4 19 5 20 6 21 7 22 8 23 9 24 10 25 11
REMARK SMILES IDX 26 12 27 13 28 14 29 15 30 16 14 17 13 18 12 19 11 20 10 21
REMARK SMILES IDX 9 22 8 23 7 24 6 25 5 26 4 27 3 28 2 29 1 30
REMARK H PARENT
REMARK Flexibility Score: inf
ROOT
ATOM      1  C   UNL     1       5.654  -0.888  -4.475  1.00  0.00     0.000 C 
ENDROOT
BRANCH   1   2
ATOM      2  C   UNL     1       6.696  -0.539  -5.548  1.00  0.00     0.000 C 
BRANCH   2   3
ATOM      3  C   UNL     1       6.070   0.131  -6.783  1.00  0.00     0.000 C 
BRANCH   3   4
ATOM      4  C   UNL     1       6.270   1.657  -6.803  1.00  0.00     0.000 C 
BRANCH   4   5
ATOM      5  C   UNL     1       7.665   2.105  -6.320  1.00  0.00     0.000 C 
BRANCH   5   6
ATOM      6  C   UNL     1       7.652   2.574  -4.854  1.00  0.00     0.000 C 
BRANCH   6   7
ATOM      7  C   UNL     1       7.689   4.104  -4.719  1.00  0.00     0.000 C 
BRANCH   7   8
ATOM      8  C   UNL     1       7.812   4.814  -6.081  1.00  0.00     0.000 C 
BRANCH   8   9
ATOM      9  C   UNL     1       6.577   5.671  -6.405  1.00  0.00     0.000 C 
BRANCH   9  10
ATOM     10  C   UNL     1       5.316   5.180  -5.678  1.00  0.00     0.000 C 
BRANCH  10  11
ATOM     11  C   UNL     1       5.015   6.054  -4.451  1.00  0.00     0.000 C 
BRANCH  11  12
ATOM     12  C   UNL     1       3.606   5.818  -3.883  1.00  0.00     0.006 C 
BRANCH  12  13
ATOM     13  C   UNL     1       2.675   7.023  -4.079  1.00  0.00     0.053 C 
BRANCH  13  14
ATOM     14  C   UNL     1       1.981   6.955  -5.406  1.00  0.00     0.041 C 
ATOM     15  O   UNL     1       0.827   6.456  -5.494  1.00  0.00    -0.550 OA
ATOM     16  O   UNL     1       2.613   7.434  -6.547  1.00  0.00    -0.550 OA
ENDBRANCH  13  14
ENDBRANCH  12  13
ENDBRANCH  11  12
ENDBRANCH  10  11
ENDBRANCH   9  10
ENDBRANCH   8   9
ENDBRANCH   7   8
ENDBRANCH   6   7
ENDBRANCH   5   6
ENDBRANCH   4   5
ENDBRANCH   3   4
ENDBRANCH   2   3
ENDBRANCH   1   2
BRANCH   1  17
ATOM     17  C   UNL     1       5.334   0.299  -3.550  1.00  0.00     0.000 C 
BRANCH  17  18
ATOM     18  C   UNL     1       3.903   0.839  -3.757  1.00  0.00     0.000 C 
BRANCH  18  19
ATOM     19  C   UNL     1       3.848   2.262  -4.346  1.00  0.00     0.000 C 
BRANCH  19  20
ATOM     20  C   UNL     1       2.460   2.714  -4.830  1.00  0.00     0.000 C 
BRANCH  20  21
ATOM     21  C   UNL     1       2.429   3.043  -6.330  1.00  0.00     0.000 C 
BRANCH  21  22
ATOM     22  C   UNL     1       0.985   3.216  -6.824  1.00  0.00    -0.000 C 
BRANCH  22  23
ATOM     23  C   UNL     1       0.013   2.215  -6.178  1.00  0.00    -0.000 C 
BRANCH  23  24
ATOM     24  C   UNL     1       0.019   0.846  -6.873  1.00  0.00    -0.000 C 
BRANCH  24  25
ATOM     25  C   UNL     1       0.529  -0.245  -5.918  1.00  0.00    -0.000 C 
BRANCH  25  26
ATOM     26  C   UNL     1       0.274   0.092  -4.440  1.00  0.00    -0.000 C 
BRANCH  26  27
ATOM     27  C   UNL     1      -0.826  -0.786  -3.819  1.00  0.00    -0.000 C 
BRANCH  27  28
ATOM     28  C   UNL     1      -0.261  -1.958  -2.996  1.00  0.00    -0.000 C 
BRANCH  28  29
ATOM     29  C   UNL     1       1.158  -2.408  -3.390  1.00  0.00    -0.003 C 
ATOM     30  C   UNL     1       1.170  -3.435  -4.519  1.00  0.00     0.004 C 
ENDBRANCH  28  29
ENDBRANCH  27  28
ENDBRANCH  26  27
ENDBRANCH  25  26
ENDBRANCH  24  25
ENDBRANCH  23  24
ENDBRANCH  22  23
ENDBRANCH  21  22
ENDBRANCH  20  21
ENDBRANCH  19  20
ENDBRANCH  18  19
ENDBRANCH  17  18
ENDBRANCH   1  17
TORSDOF 26
ENDMDL
MODEL 4
REMARK VINA RESULT:    -2.769      2.576      6.391
REMARK INTER + INTRA:         -11.089
REMARK INTER:                  -7.641
REMARK INTRA:                  -3.447
REMARK UNBOUND:                -4.111
REMARK SMILES CCCCCCCCCCCCCCCCCCCCCCCCCCCC(=O)[O-]
REMARK SMILES IDX 15 1 16 2 17 3 18 4 19 5 20 6 21 7 22 8 23 9 24 10 25 11
REMARK SMILES IDX 26 12 27 13 28 14 29 15 30 16 14 17 13 18 12 19 11 20 10 21
REMARK SMILES IDX 9 22 8 23 7 24 6 25 5 26 4 27 3 28 2 29 1 30
REMARK H PARENT
REMARK Flexibility Score: inf
ROOT
ATOM      1  C   UNL     1      -0.664  -0.447  -4.153  1.00  0.00     0.000 C 
ENDROOT
BRANCH   1   2
ATOM      2  C   UNL     1       0.423  -1.355  -3.557  1.00  0.00     0.000 C 
BRANCH   2   3
ATOM      3  C   UNL     1       1.240  -2.085  -4.636  1.00  0.00     0.000 C 
BRANCH   3   4
ATOM      4  C   UNL     1       2.295  -1.183  -5.300  1.00  0.00     0.000 C 
BRANCH   4   5
ATOM      5  C   UNL     1       3.149  -0.385  -4.294  1.00  0.00     0.000 C 
BRANCH   5   6
ATOM      6  C   UNL     1       4.333  -1.207  -3.753  1.00  0.00     0.000 C 
BRANCH   6   7
ATOM      7  C   UNL     1       5.686  -0.509  -3.964  1.00  0.00     0.000 C 
BRANCH   7   8
ATOM      8  C   UNL     1       5.832   0.767  -3.112  1.00  0.00     0.000 C 
BRANCH   8   9
ATOM      9  C   UNL     1       6.494   1.916  -3.891  1.00  0.00     0.000 C 
BRANCH   9  10
ATOM     10  C   UNL     1       6.788   1.540  -5.351  1.00  0.00     0.000 C 
BRANCH  10  11
ATOM     11  C   UNL     1       8.272   1.758  -5.685  1.00  0.00     0.000 C 
BRANCH  11  12
ATOM     12  C   UNL     1       8.872   2.975  -4.962  1.00  0.00     0.006 C 
BRANCH  12  13
ATOM     13  C   UNL     1       9.118   4.164  -5.902  1.00  0.00     0.053 C 
BRANCH  13  14
ATOM     14  C   UNL     1       7.944   5.096  -5.909  1.00  0.00     0.041 C 
ATOM     15  O   UNL     1       7.710   5.816  -6.916  1.00  0.00    -0.550 OA
ATOM     16  O   UNL     1       7.113   5.174  -4.798  1.00  0.00    -0.550 OA
ENDBRANCH  13  14
ENDBRANCH  12  13
ENDBRANCH  11  12
ENDBRANCH  10  11
ENDBRANCH   9  10
ENDBRANCH   8   9
ENDBRANCH   7   8
ENDBRANCH   6   7
ENDBRANCH   5   6
ENDBRANCH   4   5
ENDBRANCH   3   4
ENDBRANCH   2   3
ENDBRANCH   1   2
BRANCH   1  17
ATOM     17  C   UNL     1      -0.159   0.980  -4.429  1.00  0.00     0.000 C 
BRANCH  17  18
ATOM     18  C   UNL     1      -0.256   1.361  -5.921  1.00  0.00     0.000 C 
BRANCH  18  19
ATOM     19  C   UNL     1       0.758   2.434  -6.363  1.00  0.00     0.000 C 
BRANCH  19  20
ATOM     20  C   UNL     1       1.982   1.900  -7.125  1.00  0.00     0.000 C 
BRANCH  20  21
ATOM     21  C   UNL     1       3.301   2.532  -6.655  1.00  0.00     0.000 C 
BRANCH  21  22
ATOM     22  C   UNL     1       3.037   3.713  -5.708  1.00  0.00    -0.000 C 
BRANCH  22  23
ATOM     23  C   UNL     1       3.846   3.620  -4.404  1.00  0.00    -0.000 C 
BRANCH  23  24
ATOM     24  C   UNL     1       3.347   4.591  -3.324  1.00  0.00    -0.000 C 
BRANCH  24  25
ATOM     25  C   UNL     1       3.898   6.005  -3.568  1.00  0.00    -0.000 C 
BRANCH  25  26
ATOM     26  C   UNL     1       2.788   7.052  -3.748  1.00  0.00    -0.000 C 
BRANCH  26  27
ATOM     27  C   UNL     1       2.252   7.099  -5.189  1.00  0.00    -0.000 C 
BRANCH  27  28
ATOM     28  C   UNL     1       0.844   7.716  -5.284  1.00  0.00    -0.000 C 
BRANCH  28  29
ATOM     29  C   UNL     1       0.121   7.486  -6.624  1.00  0.00    -0.003 C 
ATOM     30  C   UNL     1      -0.335   6.042  -6.820  1.00  0.00     0.004 C 
ENDBRANCH  28  29
ENDBRANCH  27  28
ENDBRANCH  26  27
ENDBRANCH  25  26
ENDBRANCH  24  25
ENDBRANCH  23  24
ENDBRANCH  22  23
ENDBRANCH  21  22
ENDBRANCH  20  21
ENDBRANCH  19  20
ENDBRANCH  18  19
ENDBRANCH  17  18
ENDBRANCH   1  17
TORSDOF 26
ENDMDL
MODEL 5
REMARK VINA RESULT:    -2.747      1.313      2.411
REMARK INTER + INTRA:         -11.033
REMARK INTER:                  -7.087
REMARK INTRA:                  -3.945
REMARK UNBOUND:                -4.111
REMARK SMILES CCCCCCCCCCCCCCCCCCCCCCCCCCCC(=O)[O-]
REMARK SMILES IDX 15 1 16 2 17 3 18 4 19 5 20 6 21 7 22 8 23 9 24 10 25 11
REMARK SMILES IDX 26 12 27 13 28 14 29 15 30 16 14 17 13 18 12 19 11 20 10 21
REMARK SMILES IDX 9 22 8 23 7 24 6 25 5 26 4 27 3 28 2 29 1 30
REMARK H PARENT
REMARK Flexibility Score: inf
ROOT
ATOM      1  C   UNL     1       0.215   0.520  -4.070  1.00  0.00     0.000 C 
ENDROOT
BRANCH   1   2
ATOM      2  C   UNL     1      -0.200   1.396  -5.262  1.00  0.00     0.000 C 
BRANCH   2   3
ATOM      3  C   UNL     1       0.443   0.940  -6.582  1.00  0.00     0.000 C 
BRANCH   3   4
ATOM      4  C   UNL     1       1.717   1.729  -6.931  1.00  0.00     0.000 C 
BRANCH   4   5
ATOM      5  C   UNL     1       1.590   3.248  -6.693  1.00  0.00     0.000 C 
BRANCH   5   6
ATOM      6  C   UNL     1       2.951   3.912  -6.418  1.00  0.00     0.000 C 
BRANCH   6   7
ATOM      7  C   UNL     1       3.028   4.554  -5.024  1.00  0.00     0.000 C 
BRANCH   7   8
ATOM      8  C   UNL     1       3.513   6.016  -5.073  1.00  0.00     0.000 C 
BRANCH   8   9
ATOM      9  C   UNL     1       2.350   7.011  -5.219  1.00  0.00     0.000 C 
BRANCH   9  10
ATOM     10  C   UNL     1       2.108   7.420  -6.680  1.00  0.00     0.000 C 
BRANCH  10  11
ATOM     11  C   UNL     1       0.607   7.598  -6.958  1.00  0.00     0.000 C 
BRANCH  11  12
ATOM     12  C   UNL     1      -0.159   6.265  -6.963  1.00  0.00     0.006 C 
BRANCH  12  13
ATOM     13  C   UNL     1      -1.368   6.270  -6.016  1.00  0.00     0.053 C 
BRANCH  13  14
ATOM     14  C   UNL     1      -2.446   5.356  -6.516  1.00  0.00     0.041 C 
ATOM     15  O   UNL     1      -3.505   5.833  -7.007  1.00  0.00    -0.550 OA
ATOM     16  O   UNL     1      -2.284   3.979  -6.433  1.00  0.00    -0.550 OA
ENDBRANCH  13  14
ENDBRANCH  12  13
ENDBRANCH  11  12
ENDBRANCH  10  11
ENDBRANCH   9  10
ENDBRANCH   8   9
ENDBRANCH   7   8
ENDBRANCH   6   7
ENDBRANCH   5   6
ENDBRANCH   4   5
ENDBRANCH   3   4
ENDBRANCH   2   3
ENDBRANCH   1   2
BRANCH   1  17
ATOM     17  C   UNL     1      -0.249  -0.940  -4.217  1.00  0.00     0.000 C 
BRANCH  17  18
ATOM     18  C   UNL     1       0.921  -1.942  -4.134  1.00  0.00     0.000 C 
BRANCH  18  19
ATOM     19  C   UNL     1       2.177  -1.507  -4.913  1.00  0.00     0.000 C 
BRANCH  19  20
ATOM     20  C   UNL     1       3.349  -1.022  -4.044  1.00  0.00     0.000 C 
BRANCH  20  21
ATOM     21  C   UNL     1       4.232   0.014  -4.756  1.00  0.00     0.000 C 
BRANCH  21  22
ATOM     22  C   UNL     1       4.393   1.279  -3.899  1.00  0.00    -0.000 C 
BRANCH  22  23
ATOM     23  C   UNL     1       5.707   1.293  -3.102  1.00  0.00    -0.000 C 
BRANCH  23  24
ATOM     24  C   UNL     1       6.795   2.152  -3.763  1.00  0.00    -0.000 C 
BRANCH  24  25
ATOM     25  C   UNL     1       6.204   2.987  -4.911  1.00  0.00    -0.000 C 
BRANCH  25  26
ATOM     26  C   UNL     1       7.260   3.397  -5.950  1.00  0.00    -0.000 C 
BRANCH  26  27
ATOM     27  C   UNL     1       8.233   2.253  -6.283  1.00  0.00    -0.000 C 
BRANCH  27  28
ATOM     28  C   UNL     1       7.576   1.129  -7.105  1.00  0.00    -0.000 C 
BRANCH  28  29
ATOM     29  C   UNL     1       7.661  -0.274  -6.475  1.00  0.00    -0.003 C 
ATOM     30  C   UNL     1       6.713  -1.280  -7.124  1.00  0.00     0.004 C 
ENDBRANCH  28  29
ENDBRANCH  27  28
ENDBRANCH  26  27
ENDBRANCH  25  26
ENDBRANCH  24  25
ENDBRANCH  23  24
ENDBRANCH  22  23
ENDBRANCH  21  22
ENDBRANCH  20  21
ENDBRANCH  19  20
ENDBRANCH  18  19
ENDBRANCH  17  18
ENDBRANCH   1  17
TORSDOF 26
ENDMDL
MODEL 6
REMARK VINA RESULT:    -2.714      2.973      7.343
REMARK INTER + INTRA:         -10.951
REMARK INTER:                  -7.868
REMARK INTRA:                  -3.083
REMARK UNBOUND:                -4.111
REMARK SMILES CCCCCCCCCCCCCCCCCCCCCCCCCCCC(=O)[O-]
REMARK SMILES IDX 15 1 16 2 17 3 18 4 19 5 20 6 21 7 22 8 23 9 24 10 25 11
REMARK SMILES IDX 26 12 27 13 28 14 29 15 30 16 14 17 13 18 12 19 11 20 10 21
REMARK SMILES IDX 9 22 8 23 7 24 6 25 5 26 4 27 3 28 2 29 1 30
REMARK H PARENT
REMARK Flexibility Score: inf
ROOT
ATOM      1  C   UNL     1       0.601  -0.380  -4.217  1.00  0.00     0.000 C 
ENDROOT
BRANCH   1   2
ATOM      2  C   UNL     1       1.630  -1.281  -4.918  1.00  0.00     0.000 C 
BRANCH   2   3
ATOM      3  C   UNL     1       2.908  -1.476  -4.084  1.00  0.00     0.000 C 
BRANCH   3   4
ATOM      4  C   UNL     1       4.003  -0.449  -4.419  1.00  0.00     0.000 C 
BRANCH   4   5
ATOM      5  C   UNL     1       5.008  -0.219  -3.271  1.00  0.00     0.000 C 
BRANCH   5   6
ATOM      6  C   UNL     1       5.565   1.216  -3.261  1.00  0.00     0.000 C 
BRANCH   6   7
ATOM      7  C   UNL     1       4.685   2.200  -4.048  1.00  0.00     0.000 C 
BRANCH   7   8
ATOM      8  C   UNL     1       5.409   2.789  -5.275  1.00  0.00     0.000 C 
BRANCH   8   9
ATOM      9  C   UNL     1       6.382   3.916  -4.891  1.00  0.00     0.000 C 
BRANCH   9  10
ATOM     10  C   UNL     1       7.798   3.678  -5.436  1.00  0.00     0.000 C 
BRANCH  10  11
ATOM     11  C   UNL     1       8.107   2.175  -5.523  1.00  0.00     0.000 C 
BRANCH  11  12
ATOM     12  C   UNL     1       8.195   1.668  -6.971  1.00  0.00     0.006 C 
BRANCH  12  13
ATOM     13  C   UNL     1       8.522   0.170  -7.058  1.00  0.00     0.053 C 
BRANCH  13  14
ATOM     14  C   UNL     1       7.435  -0.653  -6.438  1.00  0.00     0.041 C 
ATOM     15  O   UNL     1       6.229  -0.442  -6.738  1.00  0.00    -0.550 OA
ATOM     16  O   UNL     1       7.752  -1.649  -5.523  1.00  0.00    -0.550 OA
ENDBRANCH  13  14
ENDBRANCH  12  13
ENDBRANCH  11  12
ENDBRANCH  10  11
ENDBRANCH   9  10
ENDBRANCH   8   9
ENDBRANCH   7   8
ENDBRANCH   6   7
ENDBRANCH   5   6
ENDBRANCH   4   5
ENDBRANCH   3   4
ENDBRANCH   2   3
ENDBRANCH   1   2
BRANCH   1  17
ATOM     17  C   UNL     1       0.835   1.115  -4.495  1.00  0.00     0.000 C 
BRANCH  17  18
ATOM     18  C   UNL     1      -0.129   1.674  -5.563  1.00  0.00     0.000 C 
BRANCH  18  19
ATOM     19  C   UNL     1       0.536   1.957  -6.924  1.00  0.00     0.000 C 
BRANCH  19  20
ATOM     20  C   UNL     1       1.021   3.401  -7.125  1.00  0.00     0.000 C 
BRANCH  20  21
ATOM     21  C   UNL     1       2.514   3.579  -6.810  1.00  0.00     0.000 C 
BRANCH  21  22
ATOM     22  C   UNL     1       2.877   5.067  -6.691  1.00  0.00    -0.000 C 
BRANCH  22  23
ATOM     23  C   UNL     1       2.762   5.593  -5.251  1.00  0.00    -0.000 C 
BRANCH  23  24
ATOM     24  C   UNL     1       2.259   7.042  -5.184  1.00  0.00    -0.000 C 
BRANCH  24  25
ATOM     25  C   UNL     1       1.918   7.564  -6.589  1.00  0.00    -0.000 C 
BRANCH  25  26
ATOM     26  C   UNL     1       0.427   7.900  -6.751  1.00  0.00    -0.000 C 
BRANCH  26  27
ATOM     27  C   UNL     1      -0.451   6.642  -6.861  1.00  0.00    -0.000 C 
BRANCH  27  28
ATOM     28  C   UNL     1      -1.895   6.877  -6.379  1.00  0.00    -0.000 C 
BRANCH  28  29
ATOM     29  C   UNL     1      -2.042   7.156  -4.872  1.00  0.00    -0.003 C 
ATOM     30  C   UNL     1      -3.382   6.692  -4.304  1.00  0.00     0.004 C 
ENDBRANCH  28  29
ENDBRANCH  27  28
ENDBRANCH  26  27
ENDBRANCH  25  26
ENDBRANCH  24  25
ENDBRANCH  23  24
ENDBRANCH  22  23
ENDBRANCH  21  22
ENDBRANCH  20  21
ENDBRANCH  19  20
ENDBRANCH  18  19
ENDBRANCH  17  18
ENDBRANCH   1  17
TORSDOF 26
ENDMDL
MODEL 7
REMARK VINA RESULT:    -2.691      1.378      3.606
REMARK INTER + INTRA:         -10.893
REMARK INTER:                  -8.152
REMARK INTRA:                  -2.741
REMARK UNBOUND:                -4.111
REMARK SMILES CCCCCCCCCCCCCCCCCCCCCCCCCCCC(=O)[O-]
REMARK SMILES IDX 15 1 16 2 17 3 18 4 19 5 20 6 21 7 22 8 23 9 24 10 25 11
REMARK SMILES IDX 26 12 27 13 28 14 29 15 30 16 14 17 13 18 12 19 11 20 10 21
REMARK SMILES IDX 9 22 8 23 7 24 6 25 5 26 4 27 3 28 2 29 1 30
REMARK H PARENT
REMARK Flexibility Score: inf
ROOT
ATOM      1  C   UNL     1       1.955  -1.933  -4.194  1.00  0.00     0.000 C 
ENDROOT
BRANCH   1   2
ATOM      2  C   UNL     1       0.547  -1.468  -4.596  1.00  0.00     0.000 C 
BRANCH   2   3
ATOM      3  C   UNL     1       0.399  -1.283  -6.116  1.00  0.00     0.000 C 
BRANCH   3   4
ATOM      4  C   UNL     1       1.136  -0.038  -6.642  1.00  0.00     0.000 C 
BRANCH   4   5
ATOM      5  C   UNL     1       0.320   1.265  -6.514  1.00  0.00     0.000 C 
BRANCH   5   6
ATOM      6  C   UNL     1       1.172   2.438  -5.997  1.00  0.00     0.000 C 
BRANCH   6   7
ATOM      7  C   UNL     1       1.638   3.374  -7.123  1.00  0.00     0.000 C 
BRANCH   7   8
ATOM      8  C   UNL     1       1.126   4.816  -6.943  1.00  0.00     0.000 C 
BRANCH   8   9
ATOM      9  C   UNL     1       2.182   5.733  -6.302  1.00  0.00     0.000 C 
BRANCH   9  10
ATOM     10  C   UNL     1       1.602   7.094  -5.888  1.00  0.00     0.000 C 
BRANCH  10  11
ATOM     11  C   UNL     1       0.303   7.392  -6.652  1.00  0.00     0.000 C 
BRANCH  11  12
ATOM     12  C   UNL     1      -0.875   7.720  -5.720  1.00  0.00     0.006 C 
BRANCH  12  13
ATOM     13  C   UNL     1      -2.201   7.111  -6.200  1.00  0.00     0.053 C 
BRANCH  13  14
ATOM     14  C   UNL     1      -3.103   6.808  -5.042  1.00  0.00     0.041 C 
ATOM     15  O   UNL     1      -4.355   6.846  -5.185  1.00  0.00    -0.550 OA
ATOM     16  O   UNL     1      -2.560   6.493  -3.802  1.00  0.00    -0.550 OA
ENDBRANCH  13  14
ENDBRANCH  12  13
ENDBRANCH  11  12
ENDBRANCH  10  11
ENDBRANCH   9  10
ENDBRANCH   8   9
ENDBRANCH   7   8
ENDBRANCH   6   7
ENDBRANCH   5   6
ENDBRANCH   4   5
ENDBRANCH   3   4
ENDBRANCH   2   3
ENDBRANCH   1   2
BRANCH   1  17
ATOM     17  C   UNL     1       3.026  -0.853  -4.426  1.00  0.00     0.000 C 
BRANCH  17  18
ATOM     18  C   UNL     1       4.405  -1.259  -3.864  1.00  0.00     0.000 C 
BRANCH  18  19
ATOM     19  C   UNL     1       5.532  -0.257  -4.180  1.00  0.00     0.000 C 
BRANCH  19  20
ATOM     20  C   UNL     1       6.452  -0.657  -5.344  1.00  0.00     0.000 C 
BRANCH  20  21
ATOM     21  C   UNL     1       6.878   0.539  -6.208  1.00  0.00     0.000 C 
BRANCH  21  22
ATOM     22  C   UNL     1       8.394   0.527  -6.455  1.00  0.00    -0.000 C 
BRANCH  22  23
ATOM     23  C   UNL     1       8.960   1.926  -6.745  1.00  0.00    -0.000 C 
BRANCH  23  24
ATOM     24  C   UNL     1       8.782   2.896  -5.567  1.00  0.00    -0.000 C 
BRANCH  24  25
ATOM     25  C   UNL     1       8.043   4.166  -6.016  1.00  0.00    -0.000 C 
BRANCH  25  26
ATOM     26  C   UNL     1       7.163   4.765  -4.907  1.00  0.00    -0.000 C 
BRANCH  26  27
ATOM     27  C   UNL     1       5.683   4.861  -5.318  1.00  0.00    -0.000 C 
BRANCH  27  28
ATOM     28  C   UNL     1       4.991   3.487  -5.385  1.00  0.00    -0.000 C 
BRANCH  28  29
ATOM     29  C   UNL     1       4.212   3.087  -4.118  1.00  0.00    -0.003 C 
ATOM     30  C   UNL     1       3.623   4.283  -3.373  1.00  0.00     0.004 C 
ENDBRANCH  28  29
ENDBRANCH  27  28
ENDBRANCH  26  27
ENDBRANCH  25  26
ENDBRANCH  24  25
ENDBRANCH  23  24
ENDBRANCH  22  23
ENDBRANCH  21  22
ENDBRANCH  20  21
ENDBRANCH  19  20
ENDBRANCH  18  19
ENDBRANCH  17  18
ENDBRANCH   1  17
TORSDOF 26
ENDMDL
MODEL 8
REMARK VINA RESULT:    -2.657      4.695      7.593
REMARK INTER + INTRA:         -10.807
REMARK INTER:                  -7.929
REMARK INTRA:                  -2.878
REMARK UNBOUND:                -4.111
REMARK SMILES CCCCCCCCCCCCCCCCCCCCCCCCCCCC(=O)[O-]
REMARK SMILES IDX 15 1 16 2 17 3 18 4 19 5 20 6 21 7 22 8 23 9 24 10 25 11
REMARK SMILES IDX 26 12 27 13 28 14 29 15 30 16 14 17 13 18 12 19 11 20 10 21
REMARK SMILES IDX 9 22 8 23 7 24 6 25 5 26 4 27 3 28 2 29 1 30
REMARK H PARENT
REMARK Flexibility Score: inf
ROOT
ATOM      1  C   UNL     1       3.038  -1.655  -3.813  1.00  0.00     0.000 C 
ENDROOT
BRANCH   1   2
ATOM      2  C   UNL     1       1.762  -1.729  -4.665  1.00  0.00     0.000 C 
BRANCH   2   3
ATOM      3  C   UNL     1       0.481  -1.598  -3.824  1.00  0.00     0.000 C 
BRANCH   3   4
ATOM      4  C   UNL     1      -0.333  -0.338  -4.165  1.00  0.00     0.000 C 
BRANCH   4   5
ATOM      5  C   UNL     1       0.527   0.934  -4.314  1.00  0.00     0.000 C 
BRANCH   5   6
ATOM      6  C   UNL     1       0.190   1.718  -5.595  1.00  0.00     0.000 C 
BRANCH   6   7
ATOM      7  C   UNL     1       0.692   1.021  -6.869  1.00  0.00     0.000 C 
BRANCH   7   8
ATOM      8  C   UNL     1       2.225   1.088  -7.015  1.00  0.00     0.000 C 
BRANCH   8   9
ATOM      9  C   UNL     1       2.781   2.481  -6.678  1.00  0.00     0.000 C 
BRANCH   9  10
ATOM     10  C   UNL     1       4.314   2.490  -6.571  1.00  0.00     0.000 C 
BRANCH  10  11
ATOM     11  C   UNL     1       4.763   2.913  -5.164  1.00  0.00     0.000 C 
BRANCH  11  12
ATOM     12  C   UNL     1       3.590   3.346  -4.269  1.00  0.00     0.006 C 
BRANCH  12  13
ATOM     13  C   UNL     1       3.835   4.694  -3.577  1.00  0.00     0.053 C 
BRANCH  13  14
ATOM     14  C   UNL     1       3.129   5.803  -4.296  1.00  0.00     0.041 C 
ATOM     15  O   UNL     1       2.365   6.584  -3.667  1.00  0.00    -0.550 OA
ATOM     16  O   UNL     1       3.308   5.970  -5.664  1.00  0.00    -0.550 OA
ENDBRANCH  13  14
ENDBRANCH  12  13
ENDBRANCH  11  12
ENDBRANCH  10  11
ENDBRANCH   9  10
ENDBRANCH   8   9
ENDBRANCH   7   8
ENDBRANCH   6   7
ENDBRANCH   5   6
ENDBRANCH   4   5
ENDBRANCH   3   4
ENDBRANCH   2   3
ENDBRANCH   1   2
BRANCH   1  17
ATOM     17  C   UNL     1       3.928  -0.455  -4.181  1.00  0.00     0.000 C 
BRANCH  17  18
ATOM     18  C   UNL     1       5.420  -0.839  -4.289  1.00  0.00     0.000 C 
BRANCH  18  19
ATOM     19  C   UNL     1       6.017  -0.651  -5.697  1.00  0.00     0.000 C 
BRANCH  19  20
ATOM     20  C   UNL     1       7.343  -1.387  -5.945  1.00  0.00     0.000 C 
BRANCH  20  21
ATOM     21  C   UNL     1       7.204  -2.551  -6.937  1.00  0.00     0.000 C 
BRANCH  21  22
ATOM     22  C   UNL     1       7.963  -3.791  -6.439  1.00  0.00    -0.000 C 
BRANCH  22  23
ATOM     23  C   UNL     1       7.204  -5.100  -6.708  1.00  0.00    -0.000 C 
BRANCH  23  24
ATOM     24  C   UNL     1       8.098  -6.343  -6.583  1.00  0.00    -0.000 C 
BRANCH  24  25
ATOM     25  C   UNL     1       8.144  -6.834  -5.128  1.00  0.00    -0.000 C 
BRANCH  25  26
ATOM     26  C   UNL     1       8.495  -8.327  -5.017  1.00  0.00    -0.000 C 
BRANCH  26  27
ATOM     27  C   UNL     1       7.399  -9.137  -4.304  1.00  0.00    -0.000 C 
BRANCH  27  28
ATOM     28  C   UNL     1       7.054 -10.448  -5.033  1.00  0.00    -0.000 C 
BRANCH  28  29
ATOM     29  C   UNL     1       5.798 -11.173  -4.514  1.00  0.00    -0.003 C 
ATOM     30  C   UNL     1       5.036 -11.912  -5.612  1.00  0.00     0.004 C 
ENDBRANCH  28  29
ENDBRANCH  27  28
ENDBRANCH  26  27
ENDBRANCH  25  26
ENDBRANCH  24  25
ENDBRANCH  23  24
ENDBRANCH  22  23
ENDBRANCH  21  22
ENDBRANCH  20  21
ENDBRANCH  19  20
ENDBRANCH  18  19
ENDBRANCH  17  18
ENDBRANCH   1  17
TORSDOF 26
ENDMDL
MODEL 9
REMARK VINA RESULT:    -2.637      2.670      7.255
REMARK INTER + INTRA:         -10.755
REMARK INTER:                  -6.649
REMARK INTRA:                  -4.106
REMARK UNBOUND:                -4.111
REMARK SMILES CCCCCCCCCCCCCCCCCCCCCCCCCCCC(=O)[O-]
REMARK SMILES IDX 15 1 16 2 17 3 18 4 19 5 20 6 21 7 22 8 23 9 24 10 25 11
REMARK SMILES IDX 26 12 27 13 28 14 29 15 30 16 14 17 13 18 12 19 11 20 10 21
REMARK SMILES IDX 9 22 8 23 7 24 6 25 5 26 4 27 3 28 2 29 1 30
REMARK H PARENT
REMARK Flexibility Score: inf
ROOT
ATOM      1  C   UNL     1       1.179   0.504  -4.869  1.00  0.00     0.000 C 
ENDROOT
BRANCH   1   2
ATOM      2  C   UNL     1       2.301  -0.484  -5.225  1.00  0.00     0.000 C 
BRANCH   2   3
ATOM      3  C   UNL     1       2.557  -1.512  -4.110  1.00  0.00     0.000 C 
BRANCH   3   4
ATOM      4  C   UNL     1       4.045  -1.633  -3.739  1.00  0.00     0.000 C 
BRANCH   4   5
ATOM      5  C   UNL     1       4.645  -0.339  -3.151  1.00  0.00     0.000 C 
BRANCH   5   6
ATOM      6  C   UNL     1       5.929   0.093  -3.880  1.00  0.00     0.000 C 
BRANCH   6   7
ATOM      7  C   UNL     1       6.073  -0.557  -5.265  1.00  0.00     0.000 C 
BRANCH   7   8
ATOM      8  C   UNL     1       6.506   0.450  -6.348  1.00  0.00     0.000 C 
BRANCH   8   9
ATOM      9  C   UNL     1       7.940   0.195  -6.841  1.00  0.00     0.000 C 
BRANCH   9  10
ATOM     10  C   UNL     1       8.845   1.425  -6.673  1.00  0.00     0.000 C 
BRANCH  10  11
ATOM     11  C   UNL     1       8.381   2.289  -5.490  1.00  0.00     0.000 C 
BRANCH  11  12
ATOM     12  C   UNL     1       8.505   3.796  -5.767  1.00  0.00     0.006 C 
BRANCH  12  13
ATOM     13  C   UNL     1       7.226   4.397  -6.367  1.00  0.00     0.053 C 
BRANCH  13  14
ATOM     14  C   UNL     1       7.279   5.895  -6.353  1.00  0.00     0.041 C 
ATOM     15  O   UNL     1       6.344   6.569  -6.866  1.00  0.00    -0.550 OA
ATOM     16  O   UNL     1       8.365   6.547  -5.782  1.00  0.00    -0.550 OA
ENDBRANCH  13  14
ENDBRANCH  12  13
ENDBRANCH  11  12
ENDBRANCH  10  11
ENDBRANCH   9  10
ENDBRANCH   8   9
ENDBRANCH   7   8
ENDBRANCH   6   7
ENDBRANCH   5   6
ENDBRANCH   4   5
ENDBRANCH   3   4
ENDBRANCH   2   3
ENDBRANCH   1   2
BRANCH   1  17
ATOM     17  C   UNL     1       1.540   1.960  -5.214  1.00  0.00     0.000 C 
BRANCH  17  18
ATOM     18  C   UNL     1       2.693   2.056  -6.236  1.00  0.00     0.000 C 
BRANCH  18  19
ATOM     19  C   UNL     1       3.898   2.882  -5.748  1.00  0.00     0.000 C 
BRANCH  19  20
ATOM     20  C   UNL     1       4.005   3.040  -4.223  1.00  0.00     0.000 C 
BRANCH  20  21
ATOM     21  C   UNL     1       4.226   4.496  -3.787  1.00  0.00     0.000 C 
BRANCH  21  22
ATOM     22  C   UNL     1       2.961   5.337  -4.021  1.00  0.00    -0.000 C 
BRANCH  22  23
ATOM     23  C   UNL     1       3.246   6.638  -4.789  1.00  0.00    -0.000 C 
BRANCH  23  24
ATOM     24  C   UNL     1       2.833   6.559  -6.266  1.00  0.00    -0.000 C 
BRANCH  24  25
ATOM     25  C   UNL     1       1.558   5.717  -6.430  1.00  0.00    -0.000 C 
BRANCH  25  26
ATOM     26  C   UNL     1       0.400   6.508  -7.058  1.00  0.00    -0.000 C 
BRANCH  26  27
ATOM     27  C   UNL     1      -0.978   5.971  -6.634  1.00  0.00    -0.000 C 
BRANCH  27  28
ATOM     28  C   UNL     1      -1.777   6.978  -5.786  1.00  0.00    -0.000 C 
BRANCH  28  29
ATOM     29  C   UNL     1      -2.884   6.360  -4.912  1.00  0.00    -0.003 C 
ATOM     30  C   UNL     1      -3.771   7.406  -4.239  1.00  0.00     0.004 C 
ENDBRANCH  28  29
ENDBRANCH  27  28
ENDBRANCH  26  27
ENDBRANCH  25  26
ENDBRANCH  24  25
ENDBRANCH  23  24
ENDBRANCH  22  23
ENDBRANCH  21  22
ENDBRANCH  20  21
ENDBRANCH  19  20
ENDBRANCH  18  19
ENDBRANCH  17  18
ENDBRANCH   1  17
TORSDOF 26
ENDMDL
