MODEL 1
REMARK VINA RESULT:    -5.177      0.000      0.000
REMARK INTER + INTRA:          -5.177
REMARK INTER:                  -5.177
REMARK INTRA:                   0.000
REMARK UNBOUND:                 0.000
REMARK SMILES CC1(C)O[C@]2(C)CC[C@H]1CC2
REMARK SMILES IDX 1 1 2 2 9 3 10 4 11 5 5 6 4 7 7 8 8 9 6 10 3 11
REMARK H PARENT
REMARK Flexibility Score: inf
ROOT
ATOM      1  C   UNL     1      10.961  19.621  18.733  1.00  0.00     0.042 C 
ATOM      2  C   UNL     1      11.511  20.730  17.810  1.00  0.00     0.066 C 
ATOM      3  C   UNL     1      13.045  20.975  18.085  1.00  0.00     0.021 C 
ATOM      4  C   UNL     1      13.818  19.680  17.736  1.00  0.00     0.009 C 
ATOM      5  C   UNL     1      13.427  19.224  16.310  1.00  0.00     0.035 C 
ATOM      6  C   UNL     1      12.462  20.263  15.669  1.00  0.00     0.066 C 
ATOM      7  O   UNL     1      11.269  20.339  16.451  1.00  0.00    -0.369 OA
ATOM      8  C   UNL     1      13.155  21.656  15.659  1.00  0.00     0.035 C 
ATOM      9  C   UNL     1      13.552  22.055  17.100  1.00  0.00     0.009 C 
ATOM     10  C   UNL     1      12.094  19.840  14.243  1.00  0.00     0.042 C 
ATOM     11  C   UNL     1      10.694  22.010  18.094  1.00  0.00     0.042 C 
ENDROOT
TORSDOF 0
ENDMDL
MODEL 2
REMARK VINA RESULT:    -5.151      1.011      3.286
REMARK INTER + INTRA:          -5.151
REMARK INTER:                  -5.151
REMARK INTRA:                   0.000
REMARK UNBOUND:                 0.000
REMARK SMILES CC1(C)O[C@]2(C)CC[C@H]1CC2
REMARK SMILES IDX 1 1 2 2 9 3 10 4 11 5 5 6 4 7 7 8 8 9 6 10 3 11
REMARK H PARENT
REMARK Flexibility Score: inf
ROOT
ATOM      1  C   UNL     1      13.110  21.103  14.664  1.00  0.00     0.042 C 
ATOM      2  C   UNL     1      13.059  20.147  15.875  1.00  0.00     0.066 C 
ATOM      3  C   UNL     1      13.796  20.780  17.118  1.00  0.00     0.021 C 
ATOM      4  C   UNL     1      13.039  22.066  17.533  1.00  0.00     0.009 C 
ATOM      5  C   UNL     1      11.537  21.739  17.703  1.00  0.00     0.035 C 
ATOM      6  C   UNL     1      11.301  20.215  17.491  1.00  0.00     0.066 C 
ATOM      7  O   UNL     1      11.681  19.862  16.160  1.00  0.00    -0.369 OA
ATOM      8  C   UNL     1      12.181  19.423  18.501  1.00  0.00     0.035 C 
ATOM      9  C   UNL     1      13.669  19.804  18.312  1.00  0.00     0.009 C 
ATOM     10  C   UNL     1       9.821  19.872  17.690  1.00  0.00     0.042 C 
ATOM     11  C   UNL     1      13.743  18.829  15.448  1.00  0.00     0.042 C 
ENDROOT
TORSDOF 0
ENDMDL
MODEL 3
REMARK VINA RESULT:    -5.090      1.237      2.566
REMARK INTER + INTRA:          -5.090
REMARK INTER:                  -5.090
REMARK INTRA:                   0.000
REMARK UNBOUND:                 0.000
REMARK SMILES CC1(C)O[C@]2(C)CC[C@H]1CC2
REMARK SMILES IDX 1 1 2 2 9 3 10 4 11 5 5 6 4 7 7 8 8 9 6 10 3 11
REMARK H PARENT
REMARK Flexibility Score: inf
ROOT
ATOM      1  C   UNL     1      11.111  21.414  19.391  1.00  0.00     0.042 C 
ATOM      2  C   UNL     1      11.353  20.488  18.180  1.00  0.00     0.066 C 
ATOM      3  C   UNL     1      11.700  21.332  16.893  1.00  0.00     0.021 C 
ATOM      4  C   UNL     1      13.025  22.091  17.147  1.00  0.00     0.009 C 
ATOM      5  C   UNL     1      14.098  21.090  17.636  1.00  0.00     0.035 C 
ATOM      6  C   UNL     1      13.518  19.646  17.622  1.00  0.00     0.066 C 
ATOM      7  O   UNL     1      12.409  19.577  18.520  1.00  0.00    -0.369 OA
ATOM      8  C   UNL     1      13.031  19.310  16.183  1.00  0.00     0.035 C 
ATOM      9  C   UNL     1      11.982  20.354  15.728  1.00  0.00     0.009 C 
ATOM     10  C   UNL     1      14.582  18.639  18.073  1.00  0.00     0.042 C 
ATOM     11  C   UNL     1      10.063  19.668  17.964  1.00  0.00     0.042 C 
ENDROOT
TORSDOF 0
ENDMDL
MODEL 4
REMARK VINA RESULT:    -5.067      1.686      2.855
REMARK INTER + INTRA:          -5.067
REMARK INTER:                  -5.067
REMARK INTRA:                   0.000
REMARK UNBOUND:                 0.000
REMARK SMILES CC1(C)O[C@]2(C)CC[C@H]1CC2
REMARK SMILES IDX 1 1 2 2 9 3 10 4 11 5 5 6 4 7 7 8 8 9 6 10 3 11
REMARK H PARENT
REMARK Flexibility Score: inf
ROOT
ATOM      1  C   UNL     1      13.063  19.251  19.121  1.00  0.00     0.042 C 
ATOM      2  C   UNL     1      11.853  20.209  19.171  1.00  0.00     0.066 C 
ATOM      3  C   UNL     1      12.138  21.512  18.327  1.00  0.00     0.021 C 
ATOM      4  C   UNL     1      12.325  21.104  16.845  1.00  0.00     0.009 C 
ATOM      5  C   UNL     1      11.125  20.233  16.403  1.00  0.00     0.035 C 
ATOM      6  C   UNL     1      10.090  20.133  17.560  1.00  0.00     0.066 C 
ATOM      7  O   UNL     1      10.703  19.501  18.685  1.00  0.00    -0.369 OA
ATOM      8  C   UNL     1       9.642  21.568  17.963  1.00  0.00     0.035 C 
ATOM      9  C   UNL     1      10.877  22.407  18.369  1.00  0.00     0.009 C 
ATOM     10  C   UNL     1       8.880  19.300  17.123  1.00  0.00     0.042 C 
ATOM     11  C   UNL     1      11.608  20.562  20.654  1.00  0.00     0.042 C 
ENDROOT
TORSDOF 0
ENDMDL
MODEL 5
REMARK VINA RESULT:    -4.752      1.553      2.899
REMARK INTER + INTRA:          -4.752
REMARK INTER:                  -4.752
REMARK INTRA:                   0.000
REMARK UNBOUND:                 0.000
REMARK SMILES CC1(C)O[C@]2(C)CC[C@H]1CC2
REMARK SMILES IDX 1 1 2 2 9 3 10 4 11 5 5 6 4 7 7 8 8 9 6 10 3 11
REMARK H PARENT
REMARK Flexibility Score: inf
ROOT
ATOM      1  C   UNL     1       9.375  21.929  18.696  1.00  0.00     0.042 C 
ATOM      2  C   UNL     1      10.699  21.209  19.032  1.00  0.00     0.066 C 
ATOM      3  C   UNL     1      10.708  19.751  18.429  1.00  0.00     0.021 C 
ATOM      4  C   UNL     1      10.636  19.858  16.887  1.00  0.00     0.009 C 
ATOM      5  C   UNL     1      11.738  20.825  16.392  1.00  0.00     0.035 C 
ATOM      6  C   UNL     1      12.605  21.296  17.595  1.00  0.00     0.066 C 
ATOM      7  O   UNL     1      11.780  22.003  18.522  1.00  0.00    -0.369 OA
ATOM      8  C   UNL     1      13.210  20.047  18.301  1.00  0.00     0.035 C 
ATOM      9  C   UNL     1      12.073  19.098  18.750  1.00  0.00     0.009 C 
ATOM     10  C   UNL     1      13.722  22.229  17.115  1.00  0.00     0.042 C 
ATOM     11  C   UNL     1      10.820  21.165  20.571  1.00  0.00     0.042 C 
ENDROOT
TORSDOF 0
ENDMDL
MODEL 6
REMARK VINA RESULT:    -4.711      1.277      1.914
REMARK INTER + INTRA:          -4.711
REMARK INTER:                  -4.711
REMARK INTRA:                   0.000
REMARK UNBOUND:                 0.000
REMARK SMILES CC1(C)O[C@]2(C)CC[C@H]1CC2
REMARK SMILES IDX 1 1 2 2 9 3 10 4 11 5 5 6 4 7 7 8 8 9 6 10 3 11
REMARK H PARENT
REMARK Flexibility Score: inf
ROOT
ATOM      1  C   UNL     1       9.415  19.189  17.764  1.00  0.00     0.042 C 
ATOM      2  C   UNL     1      10.170  20.526  17.926  1.00  0.00     0.066 C 
ATOM      3  C   UNL     1      11.098  20.491  19.202  1.00  0.00     0.021 C 
ATOM      4  C   UNL     1      12.171  19.395  18.999  1.00  0.00     0.009 C 
ATOM      5  C   UNL     1      12.867  19.612  17.634  1.00  0.00     0.035 C 
ATOM      6  C   UNL     1      12.324  20.907  16.965  1.00  0.00     0.066 C 
ATOM      7  O   UNL     1      10.923  20.761  16.727  1.00  0.00    -0.369 OA
ATOM      8  C   UNL     1      12.555  22.109  17.927  1.00  0.00     0.035 C 
ATOM      9  C   UNL     1      11.865  21.832  19.285  1.00  0.00     0.009 C 
ATOM     10  C   UNL     1      13.030  21.153  15.627  1.00  0.00     0.042 C 
ATOM     11  C   UNL     1       9.108  21.640  18.052  1.00  0.00     0.042 C 
ENDROOT
TORSDOF 0
ENDMDL
MODEL 7
REMARK VINA RESULT:    -4.701      1.515      3.103
REMARK INTER + INTRA:          -4.701
REMARK INTER:                  -4.701
REMARK INTRA:                   0.000
REMARK UNBOUND:                 0.000
REMARK SMILES CC1(C)O[C@]2(C)CC[C@H]1CC2
REMARK SMILES IDX 1 1 2 2 9 3 10 4 11 5 5 6 4 7 7 8 8 9 6 10 3 11
REMARK H PARENT
REMARK Flexibility Score: inf
ROOT
ATOM      1  C   UNL     1       9.154  19.995  17.626  1.00  0.00     0.042 C 
ATOM      2  C   UNL     1      10.643  20.222  17.286  1.00  0.00     0.066 C 
ATOM      3  C   UNL     1      11.080  21.694  17.650  1.00  0.00     0.021 C 
ATOM      4  C   UNL     1      10.938  21.882  19.180  1.00  0.00     0.009 C 
ATOM      5  C   UNL     1      11.678  20.733  19.905  1.00  0.00     0.035 C 
ATOM      6  C   UNL     1      12.393  19.826  18.863  1.00  0.00     0.066 C 
ATOM      7  O   UNL     1      11.417  19.245  17.997  1.00  0.00    -0.369 OA
ATOM      8  C   UNL     1      13.368  20.697  18.019  1.00  0.00     0.035 C 
ATOM      9  C   UNL     1      12.588  21.847  17.338  1.00  0.00     0.009 C 
ATOM     10  C   UNL     1      13.159  18.702  19.569  1.00  0.00     0.042 C 
ATOM     11  C   UNL     1      10.813  19.961  15.773  1.00  0.00     0.042 C 
ENDROOT
TORSDOF 0
ENDMDL
MODEL 8
REMARK VINA RESULT:    -4.684      1.067      2.541
REMARK INTER + INTRA:          -4.684
REMARK INTER:                  -4.684
REMARK INTRA:                   0.000
REMARK UNBOUND:                 0.000
REMARK SMILES CC1(C)O[C@]2(C)CC[C@H]1CC2
REMARK SMILES IDX 1 1 2 2 9 3 10 4 11 5 5 6 4 7 7 8 8 9 6 10 3 11
REMARK H PARENT
REMARK Flexibility Score: inf
ROOT
ATOM      1  C   UNL     1      15.058  19.555  18.077  1.00  0.00     0.042 C 
ATOM      2  C   UNL     1      13.519  19.562  17.955  1.00  0.00     0.066 C 
ATOM      3  C   UNL     1      12.941  20.992  18.289  1.00  0.00     0.021 C 
ATOM      4  C   UNL     1      13.477  21.995  17.239  1.00  0.00     0.009 C 
ATOM      5  C   UNL     1      13.200  21.442  15.821  1.00  0.00     0.035 C 
ATOM      6  C   UNL     1      12.397  20.113  15.919  1.00  0.00     0.066 C 
ATOM      7  O   UNL     1      13.176  19.146  16.625  1.00  0.00    -0.369 OA
ATOM      8  C   UNL     1      11.078  20.376  16.702  1.00  0.00     0.035 C 
ATOM      9  C   UNL     1      11.405  20.954  18.100  1.00  0.00     0.009 C 
ATOM     10  C   UNL     1      12.087  19.572  14.519  1.00  0.00     0.042 C 
ATOM     11  C   UNL     1      12.975  18.508  18.944  1.00  0.00     0.042 C 
ENDROOT
TORSDOF 0
ENDMDL
MODEL 9
REMARK VINA RESULT:    -4.583      1.395      3.460
REMARK INTER + INTRA:          -4.583
REMARK INTER:                  -4.583
REMARK INTRA:                   0.000
REMARK UNBOUND:                 0.000
REMARK SMILES CC1(C)O[C@]2(C)CC[C@H]1CC2
REMARK SMILES IDX 1 1 2 2 9 3 10 4 11 5 5 6 4 7 7 8 8 9 6 10 3 11
REMARK H PARENT
REMARK Flexibility Score: inf
ROOT
ATOM      1  C   UNL     1      12.291  20.634  15.576  1.00  0.00     0.042 C 
ATOM      2  C   UNL     1      12.355  21.149  17.030  1.00  0.00     0.066 C 
ATOM      3  C   UNL     1      10.927  21.603  17.524  1.00  0.00     0.021 C 
ATOM      4  C   UNL     1       9.995  20.366  17.529  1.00  0.00     0.009 C 
ATOM      5  C   UNL     1      10.675  19.220  18.314  1.00  0.00     0.035 C 
ATOM      6  C   UNL     1      12.022  19.717  18.913  1.00  0.00     0.066 C 
ATOM      7  O   UNL     1      12.895  20.102  17.850  1.00  0.00    -0.369 OA
ATOM      8  C   UNL     1      11.747  20.952  19.819  1.00  0.00     0.035 C 
ATOM      9  C   UNL     1      11.042  22.058  18.998  1.00  0.00     0.009 C 
ATOM     10  C   UNL     1      12.691  18.601  19.723  1.00  0.00     0.042 C 
ATOM     11  C   UNL     1      13.343  22.335  17.053  1.00  0.00     0.042 C 
ENDROOT
TORSDOF 0
ENDMDL
