MODEL 1
REMARK VINA RESULT:    -6.360      0.000      0.000
REMARK INTER + INTRA:         -10.031
REMARK INTER:                  -9.149
REMARK INTRA:                  -0.882
REMARK UNBOUND:                -0.882
REMARK SMILES O=c1cc(-c2ccc(O)c(O)c2)oc2cc(O[C@@H]3O[C@H](CO)[C@@H](O)[C@H](O)[C@@H]3O)cc(O)c12
REMARK SMILES IDX 17 1 16 2 4 3 3 4 13 5 2 6 14 7 1 8 32 9 15 10 30 11 29 12
REMARK SMILES IDX 5 13 6 14 7 15 8 16 12 17 10 18 9 19 11 21 31 23 18 25 27 26
REMARK SMILES IDX 19 27 25 28 20 29 23 30 28 31 26 33 21 35 22 36 24 38
REMARK H PARENT 9 20 11 22 31 24 28 32 26 34 22 37 24 39
REMARK Flexibility Score: inf
ROOT
ATOM      1  O   UNL     1     483.450  41.569 460.450  1.00  0.00    -0.462 OA
ENDROOT
BRANCH   1   2
ATOM      2  C   UNL     1     482.702  40.513 459.902  1.00  0.00     0.130 A 
ATOM      3  C   UNL     1     479.275  37.200 460.189  1.00  0.00     0.138 A 
ATOM      4  C   UNL     1     479.531  36.734 458.889  1.00  0.00     0.100 A 
ATOM      5  O   UNL     1     480.002  38.201 460.680  1.00  0.00    -0.456 OA
ATOM      6  C   UNL     1     480.534  37.338 458.129  1.00  0.00     0.197 A 
ATOM      7  C   UNL     1     480.967  38.807 459.996  1.00  0.00     0.146 A 
ATOM      8  O   UNL     1     480.757  36.912 456.964  1.00  0.00    -0.289 OA
ATOM      9  C   UNL     1     481.278  38.401 458.677  1.00  0.00     0.107 A 
ATOM     10  C   UNL     1     481.674  39.853 460.598  1.00  0.00     0.094 A 
ATOM     11  C   UNL     1     482.309  39.067 457.977  1.00  0.00     0.134 A 
ATOM     12  C   UNL     1     483.007  40.112 458.598  1.00  0.00     0.093 A 
BRANCH   3  13
ATOM     13  C   UNL     1     478.224  36.595 461.045  1.00  0.00     0.021 A 
ATOM     14  C   UNL     1     478.225  35.207 461.267  1.00  0.00     0.016 A 
ATOM     15  C   UNL     1     477.252  34.615 462.075  1.00  0.00     0.051 A 
ATOM     16  C   UNL     1     476.266  35.397 462.683  1.00  0.00     0.157 A 
ATOM     17  C   UNL     1     477.236  37.382 461.672  1.00  0.00     0.062 A 
ATOM     18  C   UNL     1     476.260  36.787 462.485  1.00  0.00     0.158 A 
BRANCH  16  19
ATOM     19  O   UNL     1     475.307  34.777 463.483  1.00  0.00    -0.504 OA
ATOM     20  H   UNL     1     475.353  34.801 464.495  1.00  0.00     0.293 HD
ENDBRANCH  16  19
BRANCH  18  21
ATOM     21  O   UNL     1     475.286  37.574 463.099  1.00  0.00    -0.504 OA
ATOM     22  H   UNL     1     475.525  38.257 463.808  1.00  0.00     0.293 HD
ENDBRANCH  18  21
ENDBRANCH   3  13
BRANCH  11  23
ATOM     23  O   UNL     1     482.645  38.697 456.674  1.00  0.00    -0.507 OA
ATOM     24  H   UNL     1     482.581  37.736 456.360  1.00  0.00     0.293 HD
ENDBRANCH  11  23
ENDBRANCH   1   2
BRANCH   1  25
ATOM     25  C   UNL     1     484.668  42.122 459.935  1.00  0.00     0.339 C 
ATOM     26  C   UNL     1     484.965  43.530 460.498  1.00  0.00     0.214 C 
ATOM     27  O   UNL     1     485.749  41.232 460.170  1.00  0.00    -0.332 OA
ATOM     28  C   UNL     1     485.292  43.478 462.001  1.00  0.00     0.180 C 
ATOM     29  C   UNL     1     486.112  41.091 461.541  1.00  0.00     0.179 C 
ATOM     30  C   UNL     1     486.399  42.445 462.250  1.00  0.00     0.177 C 
BRANCH  26  31
ATOM     31  O   UNL     1     483.938  44.448 460.212  1.00  0.00    -0.384 OA
ATOM     32  H   UNL     1     483.736  44.958 461.037  1.00  0.00     0.211 HD
ENDBRANCH  26  31
BRANCH  28  33
ATOM     33  O   UNL     1     484.154  43.148 462.759  1.00  0.00    -0.387 OA
ATOM     34  H   UNL     1     483.739  43.998 463.058  1.00  0.00     0.211 HD
ENDBRANCH  28  33
BRANCH  29  35
ATOM     35  C   UNL     1     485.151  40.163 462.318  1.00  0.00     0.191 C 
BRANCH  35  36
ATOM     36  O   UNL     1     484.985  38.947 461.639  1.00  0.00    -0.394 OA
ATOM     37  H   UNL     1     484.768  38.263 462.326  1.00  0.00     0.210 HD
ENDBRANCH  35  36
ENDBRANCH  29  35
BRANCH  30  38
ATOM     38  O   UNL     1     487.618  42.969 461.783  1.00  0.00    -0.387 OA
ATOM     39  H   UNL     1     487.433  43.397 460.905  1.00  0.00     0.211 HD
ENDBRANCH  30  38
ENDBRANCH   1  25
TORSDOF 11
ENDMDL
MODEL 2
REMARK VINA RESULT:    -6.230      3.510      6.189
REMARK INTER + INTRA:          -9.844
REMARK INTER:                  -8.740
REMARK INTRA:                  -1.104
REMARK UNBOUND:                -0.882
REMARK SMILES O=c1cc(-c2ccc(O)c(O)c2)oc2cc(O[C@@H]3O[C@H](CO)[C@@H](O)[C@H](O)[C@@H]3O)cc(O)c12
REMARK SMILES IDX 17 1 16 2 4 3 3 4 13 5 2 6 14 7 1 8 32 9 15 10 30 11 29 12
REMARK SMILES IDX 5 13 6 14 7 15 8 16 12 17 10 18 9 19 11 21 31 23 18 25 27 26
REMARK SMILES IDX 19 27 25 28 20 29 23 30 28 31 26 33 21 35 22 36 24 38
REMARK H PARENT 9 20 11 22 31 24 28 32 26 34 22 37 24 39
REMARK Flexibility Score: inf
ROOT
ATOM      1  O   UNL     1     480.625  37.791 458.368  1.00  0.00    -0.462 OA
ENDROOT
BRANCH   1   2
ATOM      2  C   UNL     1     479.685  37.384 459.330  1.00  0.00     0.130 A 
ATOM      3  C   UNL     1     476.039  38.280 462.281  1.00  0.00     0.138 A 
ATOM      4  C   UNL     1     476.005  36.953 462.740  1.00  0.00     0.100 A 
ATOM      5  O   UNL     1     476.943  38.634 461.371  1.00  0.00    -0.456 OA
ATOM      6  C   UNL     1     476.911  36.025 462.225  1.00  0.00     0.197 A 
ATOM      7  C   UNL     1     477.826  37.787 460.851  1.00  0.00     0.146 A 
ATOM      8  O   UNL     1     476.873  34.837 462.645  1.00  0.00    -0.289 OA
ATOM      9  C   UNL     1     477.848  36.432 461.256  1.00  0.00     0.107 A 
ATOM     10  C   UNL     1     478.735  38.254 459.897  1.00  0.00     0.094 A 
ATOM     11  C   UNL     1     478.800  35.558 460.684  1.00  0.00     0.134 A 
ATOM     12  C   UNL     1     479.704  36.045 459.730  1.00  0.00     0.093 A 
BRANCH   3  13
ATOM     13  C   UNL     1     475.102  39.311 462.794  1.00  0.00     0.021 A 
ATOM     14  C   UNL     1     475.220  39.753 464.123  1.00  0.00     0.016 A 
ATOM     15  C   UNL     1     474.358  40.729 464.628  1.00  0.00     0.051 A 
ATOM     16  C   UNL     1     473.368  41.286 463.814  1.00  0.00     0.157 A 
ATOM     17  C   UNL     1     474.111  39.886 461.973  1.00  0.00     0.062 A 
ATOM     18  C   UNL     1     473.246  40.867 462.480  1.00  0.00     0.158 A 
BRANCH  16  19
ATOM     19  O   UNL     1     472.520  42.257 464.347  1.00  0.00    -0.504 OA
ATOM     20  H   UNL     1     471.526  42.270 464.148  1.00  0.00     0.293 HD
ENDBRANCH  16  19
BRANCH  18  21
ATOM     21  O   UNL     1     472.268  41.428 461.659  1.00  0.00    -0.504 OA
ATOM     22  H   UNL     1     471.304  41.508 461.959  1.00  0.00     0.293 HD
ENDBRANCH  18  21
ENDBRANCH   3  13
BRANCH  11  23
ATOM     23  O   UNL     1     478.854  34.215 461.056  1.00  0.00    -0.507 OA
ATOM     24  H   UNL     1     479.121  33.490 460.399  1.00  0.00     0.293 HD
ENDBRANCH  11  23
ENDBRANCH   1   2
BRANCH   1  25
ATOM     25  C   UNL     1     481.351  39.025 458.339  1.00  0.00     0.339 C 
ATOM     26  C   UNL     1     482.879  38.814 458.240  1.00  0.00     0.214 C 
ATOM     27  O   UNL     1     480.873  39.851 457.287  1.00  0.00    -0.332 OA
ATOM     28  C   UNL     1     483.278  38.221 456.877  1.00  0.00     0.180 C 
ATOM     29  C   UNL     1     481.168  39.370 455.977  1.00  0.00     0.179 C 
ATOM     30  C   UNL     1     482.677  39.072 455.750  1.00  0.00     0.177 C 
BRANCH  26  31
ATOM     31  O   UNL     1     483.385  38.060 459.313  1.00  0.00    -0.384 OA
ATOM     32  H   UNL     1     484.344  38.282 459.426  1.00  0.00     0.211 HD
ENDBRANCH  26  31
BRANCH  28  33
ATOM     33  O   UNL     1     482.839  36.890 456.753  1.00  0.00    -0.387 OA
ATOM     34  H   UNL     1     482.173  36.729 457.471  1.00  0.00     0.211 HD
ENDBRANCH  28  33
BRANCH  29  35
ATOM     35  C   UNL     1     480.225  38.228 455.538  1.00  0.00     0.191 C 
BRANCH  35  36
ATOM     36  O   UNL     1     478.929  38.442 456.030  1.00  0.00    -0.394 OA
ATOM     37  H   UNL     1     478.843  39.417 456.198  1.00  0.00     0.210 HD
ENDBRANCH  35  36
ENDBRANCH  29  35
BRANCH  30  38
ATOM     38  O   UNL     1     483.387  40.283 455.673  1.00  0.00    -0.387 OA
ATOM     39  H   UNL     1     484.336  40.078 455.883  1.00  0.00     0.211 HD
ENDBRANCH  30  38
ENDBRANCH   1  25
TORSDOF 11
ENDMDL
MODEL 3
REMARK VINA RESULT:    -6.136      3.737      5.822
REMARK INTER + INTRA:          -9.709
REMARK INTER:                  -8.853
REMARK INTRA:                  -0.855
REMARK UNBOUND:                -0.882
REMARK SMILES O=c1cc(-c2ccc(O)c(O)c2)oc2cc(O[C@@H]3O[C@H](CO)[C@@H](O)[C@H](O)[C@@H]3O)cc(O)c12
REMARK SMILES IDX 17 1 16 2 4 3 3 4 13 5 2 6 14 7 1 8 32 9 15 10 30 11 29 12
REMARK SMILES IDX 5 13 6 14 7 15 8 16 12 17 10 18 9 19 11 21 31 23 18 25 27 26
REMARK SMILES IDX 19 27 25 28 20 29 23 30 28 31 26 33 21 35 22 36 24 38
REMARK H PARENT 9 20 11 22 31 24 28 32 26 34 22 37 24 39
REMARK Flexibility Score: inf
ROOT
ATOM      1  O   UNL     1     480.835  38.300 457.971  1.00  0.00    -0.462 OA
ENDROOT
BRANCH   1   2
ATOM      2  C   UNL     1     479.950  37.776 458.929  1.00  0.00     0.130 A 
ATOM      3  C   UNL     1     476.306  38.239 461.981  1.00  0.00     0.138 A 
ATOM      4  C   UNL     1     476.389  36.895 462.379  1.00  0.00     0.100 A 
ATOM      5  O   UNL     1     477.160  38.705 461.073  1.00  0.00    -0.456 OA
ATOM      6  C   UNL     1     477.355  36.067 461.806  1.00  0.00     0.197 A 
ATOM      7  C   UNL     1     478.098  37.958 460.499  1.00  0.00     0.146 A 
ATOM      8  O   UNL     1     477.422  34.862 462.171  1.00  0.00    -0.289 OA
ATOM      9  C   UNL     1     478.237  36.592 460.841  1.00  0.00     0.107 A 
ATOM     10  C   UNL     1     478.946  38.539 459.552  1.00  0.00     0.094 A 
ATOM     11  C   UNL     1     479.243  35.825 460.212  1.00  0.00     0.134 A 
ATOM     12  C   UNL     1     480.085  36.426 459.266  1.00  0.00     0.093 A 
BRANCH   3  13
ATOM     13  C   UNL     1     475.301  39.167 462.558  1.00  0.00     0.021 A 
ATOM     14  C   UNL     1     475.364  39.494 463.923  1.00  0.00     0.016 A 
ATOM     15  C   UNL     1     474.436  40.371 464.489  1.00  0.00     0.051 A 
ATOM     16  C   UNL     1     473.433  40.943 463.700  1.00  0.00     0.157 A 
ATOM     17  C   UNL     1     474.297  39.757 461.764  1.00  0.00     0.062 A 
ATOM     18  C   UNL     1     473.365  40.639 462.332  1.00  0.00     0.158 A 
BRANCH  16  19
ATOM     19  O   UNL     1     472.519  41.814 464.294  1.00  0.00    -0.504 OA
ATOM     20  H   UNL     1     472.349  42.744 463.931  1.00  0.00     0.293 HD
ENDBRANCH  16  19
BRANCH  18  21
ATOM     21  O   UNL     1     472.375  41.217 461.537  1.00  0.00    -0.504 OA
ATOM     22  H   UNL     1     471.704  41.872 461.918  1.00  0.00     0.293 HD
ENDBRANCH  18  21
ENDBRANCH   3  13
BRANCH  11  23
ATOM     23  O   UNL     1     479.413  34.475 460.520  1.00  0.00    -0.507 OA
ATOM     24  H   UNL     1     478.975  33.744 459.971  1.00  0.00     0.293 HD
ENDBRANCH  11  23
ENDBRANCH   1   2
BRANCH   1  25
ATOM     25  C   UNL     1     480.896  37.967 456.579  1.00  0.00     0.339 C 
ATOM     26  C   UNL     1     480.740  39.202 455.665  1.00  0.00     0.214 C 
ATOM     27  O   UNL     1     482.095  37.260 456.296  1.00  0.00    -0.332 OA
ATOM     28  C   UNL     1     481.950  40.146 455.783  1.00  0.00     0.180 C 
ATOM     29  C   UNL     1     483.282  38.043 456.406  1.00  0.00     0.179 C 
ATOM     30  C   UNL     1     483.245  39.350 455.564  1.00  0.00     0.177 C 
BRANCH  26  31
ATOM     31  O   UNL     1     479.523  39.875 455.878  1.00  0.00    -0.384 OA
ATOM     32  H   UNL     1     479.232  40.274 455.020  1.00  0.00     0.211 HD
ENDBRANCH  26  31
BRANCH  28  33
ATOM     33  O   UNL     1     481.986  40.775 457.040  1.00  0.00    -0.387 OA
ATOM     34  H   UNL     1     482.085  41.749 456.882  1.00  0.00     0.211 HD
ENDBRANCH  28  33
BRANCH  29  35
ATOM     35  C   UNL     1     483.724  38.248 457.872  1.00  0.00     0.191 C 
BRANCH  35  36
ATOM     36  O   UNL     1     484.617  37.241 458.263  1.00  0.00    -0.394 OA
ATOM     37  H   UNL     1     485.053  36.906 457.436  1.00  0.00     0.210 HD
ENDBRANCH  35  36
ENDBRANCH  29  35
BRANCH  30  38
ATOM     38  O   UNL     1     483.352  39.031 454.199  1.00  0.00    -0.387 OA
ATOM     39  H   UNL     1     482.427  38.965 453.842  1.00  0.00     0.211 HD
ENDBRANCH  30  38
ENDBRANCH   1  25
TORSDOF 11
ENDMDL
MODEL 4
REMARK VINA RESULT:    -5.979      3.267      5.627
REMARK INTER + INTRA:          -9.482
REMARK INTER:                  -8.313
REMARK INTRA:                  -1.169
REMARK UNBOUND:                -0.882
REMARK SMILES O=c1cc(-c2ccc(O)c(O)c2)oc2cc(O[C@@H]3O[C@H](CO)[C@@H](O)[C@H](O)[C@@H]3O)cc(O)c12
REMARK SMILES IDX 17 1 16 2 4 3 3 4 13 5 2 6 14 7 1 8 32 9 15 10 30 11 29 12
REMARK SMILES IDX 5 13 6 14 7 15 8 16 12 17 10 18 9 19 11 21 31 23 18 25 27 26
REMARK SMILES IDX 19 27 25 28 20 29 23 30 28 31 26 33 21 35 22 36 24 38
REMARK H PARENT 9 20 11 22 31 24 28 32 26 34 22 37 24 39
REMARK Flexibility Score: inf
ROOT
ATOM      1  O   UNL     1     482.803  38.943 459.275  1.00  0.00    -0.462 OA
ENDROOT
BRANCH   1   2
ATOM      2  C   UNL     1     482.228  39.205 460.531  1.00  0.00     0.130 A 
ATOM      3  C   UNL     1     478.439  39.840 463.367  1.00  0.00     0.138 A 
ATOM      4  C   UNL     1     479.244  40.062 464.495  1.00  0.00     0.100 A 
ATOM      5  O   UNL     1     479.014  39.596 462.191  1.00  0.00    -0.456 OA
ATOM      6  C   UNL     1     480.632  40.010 464.369  1.00  0.00     0.197 A 
ATOM      7  C   UNL     1     480.330  39.537 462.020  1.00  0.00     0.146 A 
ATOM      8  O   UNL     1     481.347  40.212 465.388  1.00  0.00    -0.289 OA
ATOM      9  C   UNL     1     481.207  39.740 463.111  1.00  0.00     0.107 A 
ATOM     10  C   UNL     1     480.839  39.271 460.745  1.00  0.00     0.094 A 
ATOM     11  C   UNL     1     482.602  39.671 462.896  1.00  0.00     0.134 A 
ATOM     12  C   UNL     1     483.093  39.404 461.611  1.00  0.00     0.093 A 
BRANCH   3  13
ATOM     13  C   UNL     1     476.956  39.885 463.440  1.00  0.00     0.021 A 
ATOM     14  C   UNL     1     476.335  40.350 464.611  1.00  0.00     0.016 A 
ATOM     15  C   UNL     1     474.943  40.411 464.703  1.00  0.00     0.051 A 
ATOM     16  C   UNL     1     474.146  40.017 463.624  1.00  0.00     0.157 A 
ATOM     17  C   UNL     1     476.149  39.502 462.349  1.00  0.00     0.062 A 
ATOM     18  C   UNL     1     474.751  39.564 462.441  1.00  0.00     0.158 A 
BRANCH  16  19
ATOM     19  O   UNL     1     472.759  40.086 463.746  1.00  0.00    -0.504 OA
ATOM     20  H   UNL     1     472.141  39.483 463.216  1.00  0.00     0.293 HD
ENDBRANCH  16  19
BRANCH  18  21
ATOM     21  O   UNL     1     473.962  39.181 461.357  1.00  0.00    -0.504 OA
ATOM     22  H   UNL     1     473.020  38.831 461.482  1.00  0.00     0.293 HD
ENDBRANCH  18  21
ENDBRANCH   3  13
BRANCH  11  23
ATOM     23  O   UNL     1     483.500  39.865 463.946  1.00  0.00    -0.507 OA
ATOM     24  H   UNL     1     483.186  40.116 464.876  1.00  0.00     0.293 HD
ENDBRANCH  11  23
ENDBRANCH   1   2
BRANCH   1  25
ATOM     25  C   UNL     1     483.086  39.892 458.241  1.00  0.00     0.339 C 
ATOM     26  C   UNL     1     484.400  39.580 457.490  1.00  0.00     0.214 C 
ATOM     27  O   UNL     1     481.987  39.984 457.345  1.00  0.00    -0.332 OA
ATOM     28  C   UNL     1     484.281  38.288 456.662  1.00  0.00     0.180 C 
ATOM     29  C   UNL     1     481.774  38.821 456.549  1.00  0.00     0.179 C 
ATOM     30  C   UNL     1     483.037  38.364 455.766  1.00  0.00     0.177 C 
BRANCH  26  31
ATOM     31  O   UNL     1     485.513  39.558 458.348  1.00  0.00    -0.384 OA
ATOM     32  H   UNL     1     485.750  40.492 458.579  1.00  0.00     0.211 HD
ENDBRANCH  26  31
BRANCH  28  33
ATOM     33  O   UNL     1     484.200  37.156 457.493  1.00  0.00    -0.387 OA
ATOM     34  H   UNL     1     484.372  37.458 458.423  1.00  0.00     0.211 HD
ENDBRANCH  28  33
BRANCH  29  35
ATOM     35  C   UNL     1     481.071  37.688 457.330  1.00  0.00     0.191 C 
BRANCH  35  36
ATOM     36  O   UNL     1     481.330  36.445 456.735  1.00  0.00    -0.394 OA
ATOM     37  H   UNL     1     481.742  35.872 457.434  1.00  0.00     0.210 HD
ENDBRANCH  35  36
ENDBRANCH  29  35
BRANCH  30  38
ATOM     38  O   UNL     1     483.291  39.268 454.719  1.00  0.00    -0.387 OA
ATOM     39  H   UNL     1     482.445  39.365 454.206  1.00  0.00     0.211 HD
ENDBRANCH  30  38
ENDBRANCH   1  25
TORSDOF 11
ENDMDL
MODEL 5
REMARK VINA RESULT:    -5.934      2.710      4.916
REMARK INTER + INTRA:          -9.418
REMARK INTER:                  -8.387
REMARK INTRA:                  -1.032
REMARK UNBOUND:                -0.882
REMARK SMILES O=c1cc(-c2ccc(O)c(O)c2)oc2cc(O[C@@H]3O[C@H](CO)[C@@H](O)[C@H](O)[C@@H]3O)cc(O)c12
REMARK SMILES IDX 17 1 16 2 4 3 3 4 13 5 2 6 14 7 1 8 32 9 15 10 30 11 29 12
REMARK SMILES IDX 5 13 6 14 7 15 8 16 12 17 10 18 9 19 11 21 31 23 18 25 27 26
REMARK SMILES IDX 19 27 25 28 20 29 23 30 28 31 26 33 21 35 22 36 24 38
REMARK H PARENT 9 20 11 22 31 24 28 32 26 34 22 37 24 39
REMARK Flexibility Score: inf
ROOT
ATOM      1  O   UNL     1     481.468  39.005 458.687  1.00  0.00    -0.462 OA
ENDROOT
BRANCH   1   2
ATOM      2  C   UNL     1     480.448  38.376 459.420  1.00  0.00     0.130 A 
ATOM      3  C   UNL     1     476.711  38.513 462.391  1.00  0.00     0.138 A 
ATOM      4  C   UNL     1     476.559  37.118 462.363  1.00  0.00     0.100 A 
ATOM      5  O   UNL     1     477.688  39.079 461.687  1.00  0.00    -0.456 OA
ATOM      6  C   UNL     1     477.426  36.349 461.585  1.00  0.00     0.197 A 
ATOM      7  C   UNL     1     478.539  38.390 460.932  1.00  0.00     0.146 A 
ATOM      8  O   UNL     1     477.282  35.096 461.567  1.00  0.00    -0.289 OA
ATOM      9  C   UNL     1     478.443  36.982 460.845  1.00  0.00     0.107 A 
ATOM     10  C   UNL     1     479.531  39.076 460.225  1.00  0.00     0.094 A 
ATOM     11  C   UNL     1     479.362  36.279 460.033  1.00  0.00     0.134 A 
ATOM     12  C   UNL     1     480.351  36.984 459.333  1.00  0.00     0.093 A 
BRANCH   3  13
ATOM     13  C   UNL     1     475.821  39.382 463.202  1.00  0.00     0.021 A 
ATOM     14  C   UNL     1     476.380  40.235 464.169  1.00  0.00     0.016 A 
ATOM     15  C   UNL     1     475.566  41.068 464.939  1.00  0.00     0.051 A 
ATOM     16  C   UNL     1     474.181  41.073 464.751  1.00  0.00     0.157 A 
ATOM     17  C   UNL     1     474.425  39.400 463.006  1.00  0.00     0.062 A 
ATOM     18  C   UNL     1     473.608  40.238 463.779  1.00  0.00     0.158 A 
BRANCH  16  19
ATOM     19  O   UNL     1     473.394  41.915 465.537  1.00  0.00    -0.504 OA
ATOM     20  H   UNL     1     473.582  42.064 466.521  1.00  0.00     0.293 HD
ENDBRANCH  16  19
BRANCH  18  21
ATOM     21  O   UNL     1     472.228  40.248 463.578  1.00  0.00    -0.504 OA
ATOM     22  H   UNL     1     471.796  40.838 462.878  1.00  0.00     0.293 HD
ENDBRANCH  18  21
ENDBRANCH   3  13
BRANCH  11  23
ATOM     23  O   UNL     1     479.301  34.890 459.920  1.00  0.00    -0.507 OA
ATOM     24  H   UNL     1     478.659  34.337 460.476  1.00  0.00     0.293 HD
ENDBRANCH  11  23
ENDBRANCH   1   2
BRANCH   1  25
ATOM     25  C   UNL     1     482.212  40.169 459.066  1.00  0.00     0.339 C 
ATOM     26  C   UNL     1     483.376  39.842 460.028  1.00  0.00     0.214 C 
ATOM     27  O   UNL     1     482.671  40.856 457.911  1.00  0.00    -0.332 OA
ATOM     28  C   UNL     1     484.473  39.023 459.326  1.00  0.00     0.180 C 
ATOM     29  C   UNL     1     483.674  40.163 457.171  1.00  0.00     0.179 C 
ATOM     30  C   UNL     1     484.895  39.732 458.031  1.00  0.00     0.177 C 
BRANCH  26  31
ATOM     31  O   UNL     1     482.934  39.227 461.213  1.00  0.00    -0.384 OA
ATOM     32  H   UNL     1     482.586  38.327 460.988  1.00  0.00     0.211 HD
ENDBRANCH  26  31
BRANCH  28  33
ATOM     33  O   UNL     1     484.027  37.721 459.031  1.00  0.00    -0.387 OA
ATOM     34  H   UNL     1     484.325  37.508 458.109  1.00  0.00     0.211 HD
ENDBRANCH  28  33
BRANCH  29  35
ATOM     35  C   UNL     1     483.090  39.034 456.294  1.00  0.00     0.191 C 
BRANCH  35  36
ATOM     36  O   UNL     1     484.030  38.007 456.121  1.00  0.00    -0.394 OA
ATOM     37  H   UNL     1     484.029  37.777 455.155  1.00  0.00     0.210 HD
ENDBRANCH  35  36
ENDBRANCH  29  35
BRANCH  30  38
ATOM     38  O   UNL     1     485.655  40.866 458.367  1.00  0.00    -0.387 OA
ATOM     39  H   UNL     1     485.049  41.652 458.306  1.00  0.00     0.211 HD
ENDBRANCH  30  38
ENDBRANCH   1  25
TORSDOF 11
ENDMDL
MODEL 6
REMARK VINA RESULT:    -5.898      1.049      2.469
REMARK INTER + INTRA:          -9.366
REMARK INTER:                  -8.266
REMARK INTRA:                  -1.099
REMARK UNBOUND:                -0.882
REMARK SMILES O=c1cc(-c2ccc(O)c(O)c2)oc2cc(O[C@@H]3O[C@H](CO)[C@@H](O)[C@H](O)[C@@H]3O)cc(O)c12
REMARK SMILES IDX 17 1 16 2 4 3 3 4 13 5 2 6 14 7 1 8 32 9 15 10 30 11 29 12
REMARK SMILES IDX 5 13 6 14 7 15 8 16 12 17 10 18 9 19 11 21 31 23 18 25 27 26
REMARK SMILES IDX 19 27 25 28 20 29 23 30 28 31 26 33 21 35 22 36 24 38
REMARK H PARENT 9 20 11 22 31 24 28 32 26 34 22 37 24 39
REMARK Flexibility Score: inf
ROOT
ATOM      1  O   UNL     1     483.857  41.423 460.577  1.00  0.00    -0.462 OA
ENDROOT
BRANCH   1   2
ATOM      2  C   UNL     1     483.024  40.451 459.998  1.00  0.00     0.130 A 
ATOM      3  C   UNL     1     479.401  37.347 460.223  1.00  0.00     0.138 A 
ATOM      4  C   UNL     1     479.581  36.946 458.889  1.00  0.00     0.100 A 
ATOM      5  O   UNL     1     480.208  38.269 460.744  1.00  0.00    -0.456 OA
ATOM      6  C   UNL     1     480.593  37.531 458.128  1.00  0.00     0.197 A 
ATOM      7  C   UNL     1     481.186  38.854 460.059  1.00  0.00     0.146 A 
ATOM      8  O   UNL     1     480.747  37.164 456.931  1.00  0.00    -0.289 OA
ATOM      9  C   UNL     1     481.423  38.511 458.708  1.00  0.00     0.107 A 
ATOM     10  C   UNL     1     481.979  39.815 460.694  1.00  0.00     0.094 A 
ATOM     11  C   UNL     1     482.470  39.152 458.008  1.00  0.00     0.134 A 
ATOM     12  C   UNL     1     483.255  40.112 458.662  1.00  0.00     0.093 A 
BRANCH   3  13
ATOM     13  C   UNL     1     478.343  36.758 461.083  1.00  0.00     0.021 A 
ATOM     14  C   UNL     1     477.354  37.592 461.632  1.00  0.00     0.016 A 
ATOM     15  C   UNL     1     476.343  37.063 462.437  1.00  0.00     0.051 A 
ATOM     16  C   UNL     1     476.296  35.691 462.701  1.00  0.00     0.157 A 
ATOM     17  C   UNL     1     478.284  35.374 461.340  1.00  0.00     0.062 A 
ATOM     18  C   UNL     1     477.267  34.842 462.148  1.00  0.00     0.158 A 
BRANCH  16  19
ATOM     19  O   UNL     1     475.275  35.192 463.510  1.00  0.00    -0.504 OA
ATOM     20  H   UNL     1     474.367  34.942 463.137  1.00  0.00     0.293 HD
ENDBRANCH  16  19
BRANCH  18  21
ATOM     21  O   UNL     1     477.218  33.471 462.397  1.00  0.00    -0.504 OA
ATOM     22  H   UNL     1     476.947  32.809 461.680  1.00  0.00     0.293 HD
ENDBRANCH  18  21
ENDBRANCH   3  13
BRANCH  11  23
ATOM     23  O   UNL     1     482.736  38.842 456.674  1.00  0.00    -0.507 OA
ATOM     24  H   UNL     1     482.631  37.900 456.315  1.00  0.00     0.293 HD
ENDBRANCH  11  23
ENDBRANCH   1   2
BRANCH   1  25
ATOM     25  C   UNL     1     483.835  41.880 461.935  1.00  0.00     0.339 C 
ATOM     26  C   UNL     1     485.235  41.869 462.588  1.00  0.00     0.214 C 
ATOM     27  O   UNL     1     483.238  43.167 462.009  1.00  0.00    -0.332 OA
ATOM     28  C   UNL     1     486.161  42.920 461.952  1.00  0.00     0.180 C 
ATOM     29  C   UNL     1     484.009  44.211 461.419  1.00  0.00     0.179 C 
ATOM     30  C   UNL     1     485.466  44.289 461.957  1.00  0.00     0.177 C 
BRANCH  26  31
ATOM     31  O   UNL     1     485.813  40.587 462.592  1.00  0.00    -0.384 OA
ATOM     32  H   UNL     1     485.108  39.926 462.808  1.00  0.00     0.211 HD
ENDBRANCH  26  31
BRANCH  28  33
ATOM     33  O   UNL     1     486.504  42.566 460.634  1.00  0.00    -0.387 OA
ATOM     34  H   UNL     1     486.902  43.368 460.206  1.00  0.00     0.211 HD
ENDBRANCH  28  33
BRANCH  29  35
ATOM     35  C   UNL     1     483.904  44.228 459.877  1.00  0.00     0.191 C 
BRANCH  35  36
ATOM     36  O   UNL     1     482.591  43.948 459.470  1.00  0.00    -0.394 OA
ATOM     37  H   UNL     1     482.309  44.695 458.879  1.00  0.00     0.210 HD
ENDBRANCH  35  36
ENDBRANCH  29  35
BRANCH  30  38
ATOM     38  O   UNL     1     485.453  44.782 463.273  1.00  0.00    -0.387 OA
ATOM     39  H   UNL     1     484.573  45.223 463.411  1.00  0.00     0.211 HD
ENDBRANCH  30  38
ENDBRANCH   1  25
TORSDOF 11
ENDMDL
MODEL 7
REMARK VINA RESULT:    -5.766      1.835      2.757
REMARK INTER + INTRA:          -9.177
REMARK INTER:                  -8.140
REMARK INTRA:                  -1.037
REMARK UNBOUND:                -0.882
REMARK SMILES O=c1cc(-c2ccc(O)c(O)c2)oc2cc(O[C@@H]3O[C@H](CO)[C@@H](O)[C@H](O)[C@@H]3O)cc(O)c12
REMARK SMILES IDX 17 1 16 2 4 3 3 4 13 5 2 6 14 7 1 8 32 9 15 10 30 11 29 12
REMARK SMILES IDX 5 13 6 14 7 15 8 16 12 17 10 18 9 19 11 21 31 23 18 25 27 26
REMARK SMILES IDX 19 27 25 28 20 29 23 30 28 31 26 33 21 35 22 36 24 38
REMARK H PARENT 9 20 11 22 31 24 28 32 26 34 22 37 24 39
REMARK Flexibility Score: inf
ROOT
ATOM      1  O   UNL     1     485.893  40.818 462.286  1.00  0.00    -0.462 OA
ENDROOT
BRANCH   1   2
ATOM      2  C   UNL     1     484.958  40.215 461.427  1.00  0.00     0.130 A 
ATOM      3  C   UNL     1     480.578  38.569 460.475  1.00  0.00     0.138 A 
ATOM      4  C   UNL     1     480.943  38.169 459.180  1.00  0.00     0.100 A 
ATOM      5  O   UNL     1     481.487  39.136 461.265  1.00  0.00    -0.456 OA
ATOM      6  C   UNL     1     482.249  38.383 458.738  1.00  0.00     0.197 A 
ATOM      7  C   UNL     1     482.742  39.361 460.890  1.00  0.00     0.146 A 
ATOM      8  O   UNL     1     482.568  38.019 457.574  1.00  0.00    -0.289 OA
ATOM      9  C   UNL     1     483.183  38.994 459.597  1.00  0.00     0.107 A 
ATOM     10  C   UNL     1     483.623  39.966 461.792  1.00  0.00     0.094 A 
ATOM     11  C   UNL     1     484.523  39.247 459.230  1.00  0.00     0.134 A 
ATOM     12  C   UNL     1     485.392  39.854 460.148  1.00  0.00     0.093 A 
BRANCH   3  13
ATOM     13  C   UNL     1     479.204  38.365 461.001  1.00  0.00     0.021 A 
ATOM     14  C   UNL     1     478.359  39.473 461.178  1.00  0.00     0.016 A 
ATOM     15  C   UNL     1     477.060  39.307 461.664  1.00  0.00     0.051 A 
ATOM     16  C   UNL     1     476.578  38.031 461.971  1.00  0.00     0.157 A 
ATOM     17  C   UNL     1     478.710  37.079 461.299  1.00  0.00     0.062 A 
ATOM     18  C   UNL     1     477.405  36.912 461.785  1.00  0.00     0.158 A 
BRANCH  16  19
ATOM     19  O   UNL     1     475.277  37.897 462.456  1.00  0.00    -0.504 OA
ATOM     20  H   UNL     1     474.482  38.306 461.981  1.00  0.00     0.293 HD
ENDBRANCH  16  19
BRANCH  18  21
ATOM     21  O   UNL     1     476.926  35.635 462.079  1.00  0.00    -0.504 OA
ATOM     22  H   UNL     1     476.957  35.259 463.018  1.00  0.00     0.293 HD
ENDBRANCH  18  21
ENDBRANCH   3  13
BRANCH  11  23
ATOM     23  O   UNL     1     484.998  38.901 457.964  1.00  0.00    -0.507 OA
ATOM     24  H   UNL     1     484.516  39.186 457.119  1.00  0.00     0.293 HD
ENDBRANCH  11  23
ENDBRANCH   1   2
BRANCH   1  25
ATOM     25  C   UNL     1     486.916  41.754 461.927  1.00  0.00     0.339 C 
ATOM     26  C   UNL     1     486.386  43.201 461.816  1.00  0.00     0.214 C 
ATOM     27  O   UNL     1     488.001  41.669 462.839  1.00  0.00    -0.332 OA
ATOM     28  C   UNL     1     485.967  43.754 463.190  1.00  0.00     0.180 C 
ATOM     29  C   UNL     1     487.706  42.132 464.155  1.00  0.00     0.179 C 
ATOM     30  C   UNL     1     487.118  43.571 464.190  1.00  0.00     0.177 C 
BRANCH  26  31
ATOM     31  O   UNL     1     485.359  43.322 460.863  1.00  0.00    -0.384 OA
ATOM     32  H   UNL     1     484.793  44.098 461.109  1.00  0.00     0.211 HD
ENDBRANCH  26  31
BRANCH  28  33
ATOM     33  O   UNL     1     484.814  43.106 463.670  1.00  0.00    -0.387 OA
ATOM     34  H   UNL     1     484.237  43.798 464.085  1.00  0.00     0.211 HD
ENDBRANCH  28  33
BRANCH  29  35
ATOM     35  C   UNL     1     486.902  41.102 464.980  1.00  0.00     0.191 C 
BRANCH  35  36
ATOM     36  O   UNL     1     486.174  41.742 465.994  1.00  0.00    -0.394 OA
ATOM     37  H   UNL     1     485.366  42.129 465.566  1.00  0.00     0.210 HD
ENDBRANCH  35  36
ENDBRANCH  29  35
BRANCH  30  38
ATOM     38  O   UNL     1     488.130  44.498 463.884  1.00  0.00    -0.387 OA
ATOM     39  H   UNL     1     487.683  45.309 463.523  1.00  0.00     0.211 HD
ENDBRANCH  30  38
ENDBRANCH   1  25
TORSDOF 11
ENDMDL
MODEL 8
REMARK VINA RESULT:    -5.762      3.190      4.975
REMARK INTER + INTRA:          -9.170
REMARK INTER:                  -8.041
REMARK INTRA:                  -1.129
REMARK UNBOUND:                -0.882
REMARK SMILES O=c1cc(-c2ccc(O)c(O)c2)oc2cc(O[C@@H]3O[C@H](CO)[C@@H](O)[C@H](O)[C@@H]3O)cc(O)c12
REMARK SMILES IDX 17 1 16 2 4 3 3 4 13 5 2 6 14 7 1 8 32 9 15 10 30 11 29 12
REMARK SMILES IDX 5 13 6 14 7 15 8 16 12 17 10 18 9 19 11 21 31 23 18 25 27 26
REMARK SMILES IDX 19 27 25 28 20 29 23 30 28 31 26 33 21 35 22 36 24 38
REMARK H PARENT 9 20 11 22 31 24 28 32 26 34 22 37 24 39
REMARK Flexibility Score: inf
ROOT
ATOM      1  O   UNL     1     481.823  39.796 457.434  1.00  0.00    -0.462 OA
ENDROOT
BRANCH   1   2
ATOM      2  C   UNL     1     481.160  39.722 458.671  1.00  0.00     0.130 A 
ATOM      3  C   UNL     1     478.340  37.472 461.800  1.00  0.00     0.138 A 
ATOM      4  C   UNL     1     478.438  38.517 462.732  1.00  0.00     0.100 A 
ATOM      5  O   UNL     1     478.979  37.572 460.636  1.00  0.00    -0.456 OA
ATOM      6  C   UNL     1     479.214  39.637 462.430  1.00  0.00     0.197 A 
ATOM      7  C   UNL     1     479.728  38.618 460.301  1.00  0.00     0.146 A 
ATOM      8  O   UNL     1     479.294  40.570 463.273  1.00  0.00    -0.289 OA
ATOM      9  C   UNL     1     479.883  39.706 461.192  1.00  0.00     0.107 A 
ATOM     10  C   UNL     1     480.363  38.629 459.056  1.00  0.00     0.094 A 
ATOM     11  C   UNL     1     480.687  40.802 460.807  1.00  0.00     0.134 A 
ATOM     12  C   UNL     1     481.314  40.796 459.553  1.00  0.00     0.093 A 
BRANCH   3  13
ATOM     13  C   UNL     1     477.528  36.258 462.065  1.00  0.00     0.021 A 
ATOM     14  C   UNL     1     477.899  35.035 461.479  1.00  0.00     0.016 A 
ATOM     15  C   UNL     1     477.157  33.877 461.719  1.00  0.00     0.051 A 
ATOM     16  C   UNL     1     476.038  33.915 462.555  1.00  0.00     0.157 A 
ATOM     17  C   UNL     1     476.407  36.289 462.918  1.00  0.00     0.062 A 
ATOM     18  C   UNL     1     475.662  35.125 463.161  1.00  0.00     0.158 A 
BRANCH  16  19
ATOM     19  O   UNL     1     475.316  32.742 462.774  1.00  0.00    -0.504 OA
ATOM     20  H   UNL     1     474.340  32.755 463.046  1.00  0.00     0.293 HD
ENDBRANCH  16  19
BRANCH  18  21
ATOM     21  O   UNL     1     474.554  35.167 464.005  1.00  0.00    -0.504 OA
ATOM     22  H   UNL     1     473.722  34.621 463.818  1.00  0.00     0.293 HD
ENDBRANCH  18  21
ENDBRANCH   3  13
BRANCH  11  23
ATOM     23  O   UNL     1     480.866  41.894 461.656  1.00  0.00    -0.507 OA
ATOM     24  H   UNL     1     480.410  41.946 462.560  1.00  0.00     0.293 HD
ENDBRANCH  11  23
ENDBRANCH   1   2
BRANCH   1  25
ATOM     25  C   UNL     1     481.222  39.865 456.135  1.00  0.00     0.339 C 
ATOM     26  C   UNL     1     481.527  41.194 455.409  1.00  0.00     0.214 C 
ATOM     27  O   UNL     1     481.612  38.746 455.353  1.00  0.00    -0.332 OA
ATOM     28  C   UNL     1     483.017  41.302 455.036  1.00  0.00     0.180 C 
ATOM     29  C   UNL     1     482.988  38.737 454.978  1.00  0.00     0.179 C 
ATOM     30  C   UNL     1     483.447  40.042 454.270  1.00  0.00     0.177 C 
BRANCH  26  31
ATOM     31  O   UNL     1     481.082  42.314 456.133  1.00  0.00    -0.384 OA
ATOM     32  H   UNL     1     481.592  42.362 456.981  1.00  0.00     0.211 HD
ENDBRANCH  26  31
BRANCH  28  33
ATOM     33  O   UNL     1     483.819  41.459 456.181  1.00  0.00    -0.387 OA
ATOM     34  H   UNL     1     483.714  42.395 456.490  1.00  0.00     0.211 HD
ENDBRANCH  28  33
BRANCH  29  35
ATOM     35  C   UNL     1     483.913  38.283 456.129  1.00  0.00     0.191 C 
BRANCH  35  36
ATOM     36  O   UNL     1     483.273  37.326 456.929  1.00  0.00    -0.394 OA
ATOM     37  H   UNL     1     483.794  37.261 457.772  1.00  0.00     0.210 HD
ENDBRANCH  35  36
ENDBRANCH  29  35
BRANCH  30  38
ATOM     38  O   UNL     1     482.897  40.092 452.977  1.00  0.00    -0.387 OA
ATOM     39  H   UNL     1     483.463  39.516 452.398  1.00  0.00     0.211 HD
ENDBRANCH  30  38
ENDBRANCH   1  25
TORSDOF 11
ENDMDL
MODEL 9
REMARK VINA RESULT:    -5.646      2.304      3.623
REMARK INTER + INTRA:          -9.004
REMARK INTER:                  -7.841
REMARK INTRA:                  -1.163
REMARK UNBOUND:                -0.882
REMARK SMILES O=c1cc(-c2ccc(O)c(O)c2)oc2cc(O[C@@H]3O[C@H](CO)[C@@H](O)[C@H](O)[C@@H]3O)cc(O)c12
REMARK SMILES IDX 17 1 16 2 4 3 3 4 13 5 2 6 14 7 1 8 32 9 15 10 30 11 29 12
REMARK SMILES IDX 5 13 6 14 7 15 8 16 12 17 10 18 9 19 11 21 31 23 18 25 27 26
REMARK SMILES IDX 19 27 25 28 20 29 23 30 28 31 26 33 21 35 22 36 24 38
REMARK H PARENT 9 20 11 22 31 24 28 32 26 34 22 37 24 39
REMARK Flexibility Score: inf
ROOT
ATOM      1  O   UNL     1     486.099  41.454 462.988  1.00  0.00    -0.462 OA
ENDROOT
BRANCH   1   2
ATOM      2  C   UNL     1     485.306  40.743 462.071  1.00  0.00     0.130 A 
ATOM      3  C   UNL     1     481.164  38.772 460.744  1.00  0.00     0.138 A 
ATOM      4  C   UNL     1     481.699  38.316 459.529  1.00  0.00     0.100 A 
ATOM      5  O   UNL     1     481.942  39.441 461.592  1.00  0.00    -0.456 OA
ATOM      6  C   UNL     1     483.034  38.585 459.224  1.00  0.00     0.197 A 
ATOM      7  C   UNL     1     483.218  39.721 461.347  1.00  0.00     0.146 A 
ATOM      8  O   UNL     1     483.507  38.170 458.131  1.00  0.00    -0.289 OA
ATOM      9  C   UNL     1     483.826  39.304 460.140  1.00  0.00     0.107 A 
ATOM     10  C   UNL     1     483.952  40.433 462.299  1.00  0.00     0.094 A 
ATOM     11  C   UNL     1     485.185  39.618 459.910  1.00  0.00     0.134 A 
ATOM     12  C   UNL     1     485.906  40.332 460.877  1.00  0.00     0.093 A 
BRANCH   3  13
ATOM     13  C   UNL     1     479.752  38.514 461.124  1.00  0.00     0.021 A 
ATOM     14  C   UNL     1     479.145  37.302 460.751  1.00  0.00     0.016 A 
ATOM     15  C   UNL     1     477.821  37.032 461.103  1.00  0.00     0.051 A 
ATOM     16  C   UNL     1     477.081  37.961 461.840  1.00  0.00     0.157 A 
ATOM     17  C   UNL     1     479.007  39.442 461.879  1.00  0.00     0.062 A 
ATOM     18  C   UNL     1     477.677  39.170 462.234  1.00  0.00     0.158 A 
BRANCH  16  19
ATOM     19  O   UNL     1     475.761  37.663 462.175  1.00  0.00    -0.504 OA
ATOM     20  H   UNL     1     475.260  36.890 461.753  1.00  0.00     0.293 HD
ENDBRANCH  16  19
BRANCH  18  21
ATOM     21  O   UNL     1     476.949  40.095 462.980  1.00  0.00    -0.504 OA
ATOM     22  H   UNL     1     476.023  39.883 463.333  1.00  0.00     0.293 HD
ENDBRANCH  18  21
ENDBRANCH   3  13
BRANCH  11  23
ATOM     23  O   UNL     1     485.822  39.225 458.733  1.00  0.00    -0.507 OA
ATOM     24  H   UNL     1     486.340  38.356 458.672  1.00  0.00     0.293 HD
ENDBRANCH  11  23
ENDBRANCH   1   2
BRANCH   1  25
ATOM     25  C   UNL     1     485.770  42.687 463.639  1.00  0.00     0.339 C 
ATOM     26  C   UNL     1     485.603  42.525 465.167  1.00  0.00     0.214 C 
ATOM     27  O   UNL     1     486.735  43.680 463.326  1.00  0.00    -0.332 OA
ATOM     28  C   UNL     1     486.944  42.195 465.848  1.00  0.00     0.180 C 
ATOM     29  C   UNL     1     488.025  43.450 463.889  1.00  0.00     0.179 C 
ATOM     30  C   UNL     1     488.001  43.226 465.427  1.00  0.00     0.177 C 
BRANCH  26  31
ATOM     31  O   UNL     1     484.599  41.598 465.500  1.00  0.00    -0.384 OA
ATOM     32  H   UNL     1     484.302  41.779 466.428  1.00  0.00     0.211 HD
ENDBRANCH  26  31
BRANCH  28  33
ATOM     33  O   UNL     1     487.381  40.901 465.512  1.00  0.00    -0.387 OA
ATOM     34  H   UNL     1     486.624  40.438 465.069  1.00  0.00     0.211 HD
ENDBRANCH  28  33
BRANCH  29  35
ATOM     35  C   UNL     1     488.832  42.389 463.108  1.00  0.00     0.191 C 
BRANCH  35  36
ATOM     36  O   UNL     1     488.643  42.543 461.727  1.00  0.00    -0.394 OA
ATOM     37  H   UNL     1     488.500  41.633 461.354  1.00  0.00     0.210 HD
ENDBRANCH  35  36
ENDBRANCH  29  35
BRANCH  30  38
ATOM     38  O   UNL     1     487.725  44.444 466.074  1.00  0.00    -0.387 OA
ATOM     39  H   UNL     1     487.518  44.230 467.022  1.00  0.00     0.211 HD
ENDBRANCH  30  38
ENDBRANCH   1  25
TORSDOF 11
ENDMDL
