MODEL 1
REMARK VINA RESULT:    -7.486      0.000      0.000
REMARK INTER + INTRA:          -9.106
REMARK INTER:                  -8.799
REMARK INTRA:                  -0.307
REMARK UNBOUND:                -0.307
REMARK SMILES O=c1cc(-c2ccc(O)c(O)c2)oc2cc(O)cc(O)c12
REMARK SMILES IDX 4 1 3 2 2 3 1 4 21 5 19 6 18 7 16 8 15 9 14 10 13 11 5 12
REMARK SMILES IDX 6 13 7 14 8 15 12 16 10 17 9 18 11 20 20 22 17 24
REMARK H PARENT 9 19 11 21 20 23 17 25
REMARK Flexibility Score: inf
ROOT
ATOM      1  C   UNL     1       5.463  28.944  14.402  1.00  0.00     0.138 A 
ATOM      2  C   UNL     1       4.727  29.838  13.612  1.00  0.00     0.100 A 
ATOM      3  C   UNL     1       3.561  30.412  14.121  1.00  0.00     0.197 A 
ATOM      4  O   UNL     1       2.889  31.161  13.366  1.00  0.00    -0.289 OA
ATOM      5  C   UNL     1       3.148  30.111  15.441  1.00  0.00     0.107 A 
ATOM      6  C   UNL     1       2.000  30.668  16.080  1.00  0.00     0.134 A 
ATOM      7  C   UNL     1       1.625  30.207  17.348  1.00  0.00     0.093 A 
ATOM      8  C   UNL     1       2.388  29.256  18.024  1.00  0.00     0.123 A 
ATOM      9  C   UNL     1       3.543  28.744  17.432  1.00  0.00     0.094 A 
ATOM     10  C   UNL     1       3.925  29.159  16.154  1.00  0.00     0.146 A 
ATOM     11  O   UNL     1       5.023  28.636  15.618  1.00  0.00    -0.456 OA
ENDROOT
BRANCH   1  12
ATOM     12  C   UNL     1       6.710  28.307  13.910  1.00  0.00     0.021 A 
ATOM     13  C   UNL     1       7.493  28.972  12.950  1.00  0.00     0.016 A 
ATOM     14  C   UNL     1       8.667  28.391  12.464  1.00  0.00     0.051 A 
ATOM     15  C   UNL     1       9.074  27.132  12.923  1.00  0.00     0.157 A 
ATOM     16  C   UNL     1       7.119  27.035  14.356  1.00  0.00     0.062 A 
ATOM     17  C   UNL     1       8.297  26.451  13.868  1.00  0.00     0.158 A 
BRANCH  15  18
ATOM     18  O   UNL     1      10.245  26.550  12.441  1.00  0.00    -0.504 OA
ATOM     19  H   UNL     1      10.250  25.616  12.048  1.00  0.00     0.293 HD
ENDBRANCH  15  18
BRANCH  17  20
ATOM     20  O   UNL     1       8.699  25.193  14.313  1.00  0.00    -0.504 OA
ATOM     21  H   UNL     1       9.449  24.684  13.858  1.00  0.00     0.293 HD
ENDBRANCH  17  20
ENDBRANCH   1  12
BRANCH   6  22
ATOM     22  O   UNL     1       1.216  31.684  15.528  1.00  0.00    -0.507 OA
ATOM     23  H   UNL     1       0.862  31.692  14.584  1.00  0.00     0.293 HD
ENDBRANCH   6  22
BRANCH   8  24
ATOM     24  O   UNL     1       1.993  28.833  19.291  1.00  0.00    -0.508 OA
ATOM     25  H   UNL     1       1.751  29.494  20.020  1.00  0.00     0.293 HD
ENDBRANCH   8  24
TORSDOF 5
ENDMDL
MODEL 2
REMARK VINA RESULT:    -7.460      2.588      4.634
REMARK INTER + INTRA:          -9.076
REMARK INTER:                  -8.779
REMARK INTRA:                  -0.296
REMARK UNBOUND:                -0.307
REMARK SMILES O=c1cc(-c2ccc(O)c(O)c2)oc2cc(O)cc(O)c12
REMARK SMILES IDX 4 1 3 2 2 3 1 4 21 5 19 6 18 7 16 8 15 9 14 10 13 11 5 12
REMARK SMILES IDX 6 13 7 14 8 15 12 16 10 17 9 18 11 20 20 22 17 24
REMARK H PARENT 9 19 11 21 20 23 17 25
REMARK Flexibility Score: inf
ROOT
ATOM      1  C   UNL     1       3.664  29.218  16.671  1.00  0.00     0.138 A 
ATOM      2  C   UNL     1       4.583  28.615  17.541  1.00  0.00     0.100 A 
ATOM      3  C   UNL     1       4.245  28.426  18.882  1.00  0.00     0.197 A 
ATOM      4  O   UNL     1       5.114  27.940  19.651  1.00  0.00    -0.289 OA
ATOM      5  C   UNL     1       2.965  28.815  19.345  1.00  0.00     0.107 A 
ATOM      6  C   UNL     1       2.495  28.634  20.680  1.00  0.00     0.134 A 
ATOM      7  C   UNL     1       1.253  29.163  21.052  1.00  0.00     0.093 A 
ATOM      8  C   UNL     1       0.440  29.814  20.124  1.00  0.00     0.123 A 
ATOM      9  C   UNL     1       0.866  29.949  18.803  1.00  0.00     0.094 A 
ATOM     10  C   UNL     1       2.114  29.461  18.409  1.00  0.00     0.146 A 
ATOM     11  O   UNL     1       2.490  29.623  17.144  1.00  0.00    -0.456 OA
ENDROOT
BRANCH   1  12
ATOM     12  C   UNL     1       3.973  29.441  15.236  1.00  0.00     0.021 A 
ATOM     13  C   UNL     1       3.073  30.173  14.442  1.00  0.00     0.016 A 
ATOM     14  C   UNL     1       3.336  30.392  13.087  1.00  0.00     0.051 A 
ATOM     15  C   UNL     1       4.497  29.874  12.501  1.00  0.00     0.157 A 
ATOM     16  C   UNL     1       5.132  28.913  14.637  1.00  0.00     0.062 A 
ATOM     17  C   UNL     1       5.395  29.131  13.277  1.00  0.00     0.158 A 
BRANCH  15  18
ATOM     18  O   UNL     1       4.764  30.090  11.151  1.00  0.00    -0.504 OA
ATOM     19  H   UNL     1       4.159  30.666  10.576  1.00  0.00     0.293 HD
ENDBRANCH  15  18
BRANCH  17  20
ATOM     20  O   UNL     1       6.545  28.607  12.687  1.00  0.00    -0.504 OA
ATOM     21  H   UNL     1       6.613  27.627  12.435  1.00  0.00     0.293 HD
ENDBRANCH  17  20
ENDBRANCH   1  12
BRANCH   6  22
ATOM     22  O   UNL     1       3.191  27.925  21.663  1.00  0.00    -0.507 OA
ATOM     23  H   UNL     1       3.387  28.268  22.591  1.00  0.00     0.293 HD
ENDBRANCH   6  22
BRANCH   8  24
ATOM     24  O   UNL     1      -0.796  30.314  20.526  1.00  0.00    -0.508 OA
ATOM     25  H   UNL     1      -1.607  29.713  20.621  1.00  0.00     0.293 HD
ENDBRANCH   8  24
TORSDOF 5
ENDMDL
MODEL 3
REMARK VINA RESULT:    -7.171      2.447      4.244
REMARK INTER + INTRA:          -8.736
REMARK INTER:                  -8.418
REMARK INTRA:                  -0.318
REMARK UNBOUND:                -0.307
REMARK SMILES O=c1cc(-c2ccc(O)c(O)c2)oc2cc(O)cc(O)c12
REMARK SMILES IDX 4 1 3 2 2 3 1 4 21 5 19 6 18 7 16 8 15 9 14 10 13 11 5 12
REMARK SMILES IDX 6 13 7 14 8 15 12 16 10 17 9 18 11 20 20 22 17 24
REMARK H PARENT 9 19 11 21 20 23 17 25
REMARK Flexibility Score: inf
ROOT
ATOM      1  C   UNL     1       3.495  29.342  16.284  1.00  0.00     0.138 A 
ATOM      2  C   UNL     1       2.277  29.884  16.716  1.00  0.00     0.100 A 
ATOM      3  C   UNL     1       1.884  29.729  18.046  1.00  0.00     0.197 A 
ATOM      4  O   UNL     1       0.758  30.171  18.388  1.00  0.00    -0.289 OA
ATOM      5  C   UNL     1       2.734  29.055  18.956  1.00  0.00     0.107 A 
ATOM      6  C   UNL     1       2.458  28.873  20.343  1.00  0.00     0.134 A 
ATOM      7  C   UNL     1       3.319  28.088  21.121  1.00  0.00     0.093 A 
ATOM      8  C   UNL     1       4.474  27.529  20.576  1.00  0.00     0.123 A 
ATOM      9  C   UNL     1       4.783  27.746  19.233  1.00  0.00     0.094 A 
ATOM     10  C   UNL     1       3.927  28.496  18.423  1.00  0.00     0.146 A 
ATOM     11  O   UNL     1       4.249  28.666  17.145  1.00  0.00    -0.456 OA
ENDROOT
BRANCH   1  12
ATOM     12  C   UNL     1       3.960  29.479  14.880  1.00  0.00     0.021 A 
ATOM     13  C   UNL     1       3.117  30.082  13.930  1.00  0.00     0.016 A 
ATOM     14  C   UNL     1       3.527  30.216  12.600  1.00  0.00     0.051 A 
ATOM     15  C   UNL     1       4.782  29.742  12.197  1.00  0.00     0.157 A 
ATOM     16  C   UNL     1       5.214  28.992  14.464  1.00  0.00     0.062 A 
ATOM     17  C   UNL     1       5.625  29.125  13.130  1.00  0.00     0.158 A 
BRANCH  15  18
ATOM     18  O   UNL     1       5.195  29.875  10.873  1.00  0.00    -0.504 OA
ATOM     19  H   UNL     1       6.176  29.908  10.624  1.00  0.00     0.293 HD
ENDBRANCH  15  18
BRANCH  17  20
ATOM     20  O   UNL     1       6.867  28.644  12.722  1.00  0.00    -0.504 OA
ATOM     21  H   UNL     1       6.966  27.735  12.284  1.00  0.00     0.293 HD
ENDBRANCH  17  20
ENDBRANCH   1  12
BRANCH   6  22
ATOM     22  O   UNL     1       1.376  29.458  21.007  1.00  0.00    -0.507 OA
ATOM     23  H   UNL     1       0.408  29.228  20.845  1.00  0.00     0.293 HD
ENDBRANCH   6  22
BRANCH   8  24
ATOM     24  O   UNL     1       5.315  26.767  21.384  1.00  0.00    -0.508 OA
ATOM     25  H   UNL     1       5.660  25.862  21.087  1.00  0.00     0.293 HD
ENDBRANCH   8  24
TORSDOF 5
ENDMDL
MODEL 4
REMARK VINA RESULT:    -7.099      1.254      2.804
REMARK INTER + INTRA:          -8.651
REMARK INTER:                  -8.365
REMARK INTRA:                  -0.286
REMARK UNBOUND:                -0.307
REMARK SMILES O=c1cc(-c2ccc(O)c(O)c2)oc2cc(O)cc(O)c12
REMARK SMILES IDX 4 1 3 2 2 3 1 4 21 5 19 6 18 7 16 8 15 9 14 10 13 11 5 12
REMARK SMILES IDX 6 13 7 14 8 15 12 16 10 17 9 18 11 20 20 22 17 24
REMARK H PARENT 9 19 11 21 20 23 17 25
REMARK Flexibility Score: inf
ROOT
ATOM      1  C   UNL     1       5.738  28.743  14.511  1.00  0.00     0.138 A 
ATOM      2  C   UNL     1       5.316  28.509  15.827  1.00  0.00     0.100 A 
ATOM      3  C   UNL     1       4.186  29.166  16.317  1.00  0.00     0.197 A 
ATOM      4  O   UNL     1       3.869  28.984  17.521  1.00  0.00    -0.289 OA
ATOM      5  C   UNL     1       3.457  30.037  15.472  1.00  0.00     0.107 A 
ATOM      6  C   UNL     1       2.268  30.728  15.850  1.00  0.00     0.134 A 
ATOM      7  C   UNL     1       1.698  31.654  14.966  1.00  0.00     0.093 A 
ATOM      8  C   UNL     1       2.239  31.869  13.700  1.00  0.00     0.123 A 
ATOM      9  C   UNL     1       3.371  31.158  13.299  1.00  0.00     0.094 A 
ATOM     10  C   UNL     1       3.982  30.253  14.169  1.00  0.00     0.146 A 
ATOM     11  O   UNL     1       5.067  29.607  13.756  1.00  0.00    -0.456 OA
ENDROOT
BRANCH   1  12
ATOM     12  C   UNL     1       6.932  28.070  13.940  1.00  0.00     0.021 A 
ATOM     13  C   UNL     1       7.719  28.748  12.992  1.00  0.00     0.016 A 
ATOM     14  C   UNL     1       8.844  28.134  12.434  1.00  0.00     0.051 A 
ATOM     15  C   UNL     1       9.194  26.831  12.805  1.00  0.00     0.157 A 
ATOM     16  C   UNL     1       7.283  26.754  14.298  1.00  0.00     0.062 A 
ATOM     17  C   UNL     1       8.411  26.138  13.736  1.00  0.00     0.158 A 
BRANCH  15  18
ATOM     18  O   UNL     1      10.316  26.216  12.251  1.00  0.00    -0.504 OA
ATOM     19  H   UNL     1      10.992  26.738  11.706  1.00  0.00     0.293 HD
ENDBRANCH  15  18
BRANCH  17  20
ATOM     20  O   UNL     1       8.756  24.836  14.094  1.00  0.00    -0.504 OA
ATOM     21  H   UNL     1       9.202  24.631  14.982  1.00  0.00     0.293 HD
ENDBRANCH  17  20
ENDBRANCH   1  12
BRANCH   6  22
ATOM     22  O   UNL     1       1.597  30.525  17.059  1.00  0.00    -0.507 OA
ATOM     23  H   UNL     1       1.982  30.049  17.859  1.00  0.00     0.293 HD
ENDBRANCH   6  22
BRANCH   8  24
ATOM     24  O   UNL     1       1.636  32.786  12.842  1.00  0.00    -0.508 OA
ATOM     25  H   UNL     1       1.730  33.785  12.982  1.00  0.00     0.293 HD
ENDBRANCH   8  24
TORSDOF 5
ENDMDL
MODEL 5
REMARK VINA RESULT:    -6.941      1.422      6.903
REMARK INTER + INTRA:          -8.466
REMARK INTER:                  -8.163
REMARK INTRA:                  -0.303
REMARK UNBOUND:                -0.307
REMARK SMILES O=c1cc(-c2ccc(O)c(O)c2)oc2cc(O)cc(O)c12
REMARK SMILES IDX 4 1 3 2 2 3 1 4 21 5 19 6 18 7 16 8 15 9 14 10 13 11 5 12
REMARK SMILES IDX 6 13 7 14 8 15 12 16 10 17 9 18 11 20 20 22 17 24
REMARK H PARENT 9 19 11 21 20 23 17 25
REMARK Flexibility Score: inf
ROOT
ATOM      1  C   UNL     1       6.083  28.823  13.976  1.00  0.00     0.138 A 
ATOM      2  C   UNL     1       7.089  29.370  13.169  1.00  0.00     0.100 A 
ATOM      3  C   UNL     1       8.211  28.604  12.847  1.00  0.00     0.197 A 
ATOM      4  O   UNL     1       9.126  29.144  12.174  1.00  0.00    -0.289 OA
ATOM      5  C   UNL     1       8.307  27.270  13.310  1.00  0.00     0.107 A 
ATOM      6  C   UNL     1       9.382  26.382  13.011  1.00  0.00     0.134 A 
ATOM      7  C   UNL     1       9.426  25.122  13.621  1.00  0.00     0.093 A 
ATOM      8  C   UNL     1       8.406  24.696  14.470  1.00  0.00     0.123 A 
ATOM      9  C   UNL     1       7.322  25.536  14.728  1.00  0.00     0.094 A 
ATOM     10  C   UNL     1       7.266  26.811  14.161  1.00  0.00     0.146 A 
ATOM     11  O   UNL     1       6.223  27.587  14.443  1.00  0.00    -0.456 OA
ENDROOT
BRANCH   1  12
ATOM     12  C   UNL     1       4.870  29.594  14.348  1.00  0.00     0.021 A 
ATOM     13  C   UNL     1       4.335  30.522  13.437  1.00  0.00     0.016 A 
ATOM     14  C   UNL     1       3.199  31.266  13.764  1.00  0.00     0.051 A 
ATOM     15  C   UNL     1       2.584  31.103  15.012  1.00  0.00     0.157 A 
ATOM     16  C   UNL     1       4.254  29.445  15.605  1.00  0.00     0.062 A 
ATOM     17  C   UNL     1       3.114  30.194  15.935  1.00  0.00     0.158 A 
BRANCH  15  18
ATOM     18  O   UNL     1       1.450  31.843  15.342  1.00  0.00    -0.504 OA
ATOM     19  H   UNL     1       0.576  31.725  14.844  1.00  0.00     0.293 HD
ENDBRANCH  15  18
BRANCH  17  20
ATOM     20  O   UNL     1       2.506  30.043  17.180  1.00  0.00    -0.504 OA
ATOM     21  H   UNL     1       3.024  30.170  18.042  1.00  0.00     0.293 HD
ENDBRANCH  17  20
ENDBRANCH   1  12
BRANCH   6  22
ATOM     22  O   UNL     1      10.409  26.675  12.109  1.00  0.00    -0.507 OA
ATOM     23  H   UNL     1      10.367  26.516  11.115  1.00  0.00     0.293 HD
ENDBRANCH   6  22
BRANCH   8  24
ATOM     24  O   UNL     1       8.476  23.430  15.047  1.00  0.00    -0.508 OA
ATOM     25  H   UNL     1       8.725  22.612  14.503  1.00  0.00     0.293 HD
ENDBRANCH   8  24
TORSDOF 5
ENDMDL
MODEL 6
REMARK VINA RESULT:    -6.740      2.826      6.137
REMARK INTER + INTRA:          -8.229
REMARK INTER:                  -7.912
REMARK INTRA:                  -0.317
REMARK UNBOUND:                -0.307
REMARK SMILES O=c1cc(-c2ccc(O)c(O)c2)oc2cc(O)cc(O)c12
REMARK SMILES IDX 4 1 3 2 2 3 1 4 21 5 19 6 18 7 16 8 15 9 14 10 13 11 5 12
REMARK SMILES IDX 6 13 7 14 8 15 12 16 10 17 9 18 11 20 20 22 17 24
REMARK H PARENT 9 19 11 21 20 23 17 25
REMARK Flexibility Score: inf
ROOT
ATOM      1  C   UNL     1       3.023  29.378  17.063  1.00  0.00     0.138 A 
ATOM      2  C   UNL     1       2.064  30.371  16.821  1.00  0.00     0.100 A 
ATOM      3  C   UNL     1       1.990  30.969  15.562  1.00  0.00     0.197 A 
ATOM      4  O   UNL     1       1.161  31.900  15.394  1.00  0.00    -0.289 OA
ATOM      5  C   UNL     1       2.863  30.545  14.531  1.00  0.00     0.107 A 
ATOM      6  C   UNL     1       2.851  31.053  13.198  1.00  0.00     0.134 A 
ATOM      7  C   UNL     1       3.840  30.642  12.295  1.00  0.00     0.093 A 
ATOM      8  C   UNL     1       4.800  29.698  12.657  1.00  0.00     0.123 A 
ATOM      9  C   UNL     1       4.787  29.154  13.942  1.00  0.00     0.094 A 
ATOM     10  C   UNL     1       3.836  29.569  14.876  1.00  0.00     0.146 A 
ATOM     11  O   UNL     1       3.866  29.038  16.094  1.00  0.00    -0.456 OA
ENDROOT
BRANCH   1  12
ATOM     12  C   UNL     1       3.143  28.710  18.384  1.00  0.00     0.021 A 
ATOM     13  C   UNL     1       2.374  29.174  19.465  1.00  0.00     0.016 A 
ATOM     14  C   UNL     1       2.473  28.568  20.720  1.00  0.00     0.051 A 
ATOM     15  C   UNL     1       3.351  27.494  20.918  1.00  0.00     0.157 A 
ATOM     16  C   UNL     1       4.033  27.639  18.594  1.00  0.00     0.062 A 
ATOM     17  C   UNL     1       4.134  27.031  19.854  1.00  0.00     0.158 A 
BRANCH  15  18
ATOM     18  O   UNL     1       3.453  26.887  22.168  1.00  0.00    -0.504 OA
ATOM     19  H   UNL     1       2.661  26.833  22.798  1.00  0.00     0.293 HD
ENDBRANCH  15  18
BRANCH  17  20
ATOM     20  O   UNL     1       5.015  25.971  20.057  1.00  0.00    -0.504 OA
ATOM     21  H   UNL     1       4.893  25.320  20.825  1.00  0.00     0.293 HD
ENDBRANCH  17  20
ENDBRANCH   1  12
BRANCH   6  22
ATOM     22  O   UNL     1       1.885  31.936  12.707  1.00  0.00    -0.507 OA
ATOM     23  H   UNL     1       2.073  32.869  12.375  1.00  0.00     0.293 HD
ENDBRANCH   6  22
BRANCH   8  24
ATOM     24  O   UNL     1       5.758  29.301  11.727  1.00  0.00    -0.508 OA
ATOM     25  H   UNL     1       5.502  29.031  10.784  1.00  0.00     0.293 HD
ENDBRANCH   8  24
TORSDOF 5
ENDMDL
MODEL 7
REMARK VINA RESULT:    -6.535     13.721     16.559
REMARK INTER + INTRA:          -7.989
REMARK INTER:                  -7.674
REMARK INTRA:                  -0.315
REMARK UNBOUND:                -0.307
REMARK SMILES O=c1cc(-c2ccc(O)c(O)c2)oc2cc(O)cc(O)c12
REMARK SMILES IDX 4 1 3 2 2 3 1 4 21 5 19 6 18 7 16 8 15 9 14 10 13 11 5 12
REMARK SMILES IDX 6 13 7 14 8 15 12 16 10 17 9 18 11 20 20 22 17 24
REMARK H PARENT 9 19 11 21 20 23 17 25
REMARK Flexibility Score: inf
ROOT
ATOM      1  C   UNL     1      -5.468  21.120  23.078  1.00  0.00     0.138 A 
ATOM      2  C   UNL     1      -5.927  20.237  24.065  1.00  0.00     0.100 A 
ATOM      3  C   UNL     1      -5.261  19.028  24.276  1.00  0.00     0.197 A 
ATOM      4  O   UNL     1      -5.735  18.230  25.125  1.00  0.00    -0.289 OA
ATOM      5  C   UNL     1      -4.108  18.719  23.515  1.00  0.00     0.107 A 
ATOM      6  C   UNL     1      -3.325  17.537  23.672  1.00  0.00     0.134 A 
ATOM      7  C   UNL     1      -2.272  17.285  22.783  1.00  0.00     0.093 A 
ATOM      8  C   UNL     1      -1.939  18.197  21.783  1.00  0.00     0.123 A 
ATOM      9  C   UNL     1      -2.664  19.382  21.655  1.00  0.00     0.094 A 
ATOM     10  C   UNL     1      -3.740  19.647  22.504  1.00  0.00     0.146 A 
ATOM     11  O   UNL     1      -4.415  20.780  22.340  1.00  0.00    -0.456 OA
ENDROOT
BRANCH   1  12
ATOM     12  C   UNL     1      -6.139  22.417  22.813  1.00  0.00     0.021 A 
ATOM     13  C   UNL     1      -7.064  22.919  23.746  1.00  0.00     0.016 A 
ATOM     14  C   UNL     1      -7.715  24.134  23.517  1.00  0.00     0.051 A 
ATOM     15  C   UNL     1      -7.460  24.863  22.349  1.00  0.00     0.157 A 
ATOM     16  C   UNL     1      -5.897  23.150  21.635  1.00  0.00     0.062 A 
ATOM     17  C   UNL     1      -6.552  24.368  21.405  1.00  0.00     0.158 A 
BRANCH  15  18
ATOM     18  O   UNL     1      -8.106  26.076  22.118  1.00  0.00    -0.504 OA
ATOM     19  H   UNL     1      -8.967  26.317  22.595  1.00  0.00     0.293 HD
ENDBRANCH  15  18
BRANCH  17  20
ATOM     20  O   UNL     1      -6.309  25.091  20.238  1.00  0.00    -0.504 OA
ATOM     21  H   UNL     1      -5.880  26.010  20.263  1.00  0.00     0.293 HD
ENDBRANCH  17  20
ENDBRANCH   1  12
BRANCH   6  22
ATOM     22  O   UNL     1      -3.520  16.601  24.691  1.00  0.00    -0.507 OA
ATOM     23  H   UNL     1      -2.900  16.463  25.474  1.00  0.00     0.293 HD
ENDBRANCH   6  22
BRANCH   8  24
ATOM     24  O   UNL     1      -0.876  17.919  20.927  1.00  0.00    -0.508 OA
ATOM     25  H   UNL     1      -0.324  17.074  21.022  1.00  0.00     0.293 HD
ENDBRANCH   8  24
TORSDOF 5
ENDMDL
MODEL 8
REMARK VINA RESULT:    -6.313      1.732      2.743
REMARK INTER + INTRA:          -7.728
REMARK INTER:                  -7.419
REMARK INTRA:                  -0.308
REMARK UNBOUND:                -0.307
REMARK SMILES O=c1cc(-c2ccc(O)c(O)c2)oc2cc(O)cc(O)c12
REMARK SMILES IDX 4 1 3 2 2 3 1 4 21 5 19 6 18 7 16 8 15 9 14 10 13 11 5 12
REMARK SMILES IDX 6 13 7 14 8 15 12 16 10 17 9 18 11 20 20 22 17 24
REMARK H PARENT 9 19 11 21 20 23 17 25
REMARK Flexibility Score: inf
ROOT
ATOM      1  C   UNL     1       4.412  28.819  16.247  1.00  0.00     0.138 A 
ATOM      2  C   UNL     1       3.267  29.591  16.011  1.00  0.00     0.100 A 
ATOM      3  C   UNL     1       2.340  29.785  17.037  1.00  0.00     0.197 A 
ATOM      4  O   UNL     1       1.292  30.429  16.777  1.00  0.00    -0.289 OA
ATOM      5  C   UNL     1       2.581  29.227  18.316  1.00  0.00     0.107 A 
ATOM      6  C   UNL     1       1.728  29.393  19.448  1.00  0.00     0.134 A 
ATOM      7  C   UNL     1       2.009  28.698  20.631  1.00  0.00     0.093 A 
ATOM      8  C   UNL     1       3.142  27.893  20.742  1.00  0.00     0.123 A 
ATOM      9  C   UNL     1       4.012  27.766  19.659  1.00  0.00     0.094 A 
ATOM     10  C   UNL     1       3.742  28.420  18.455  1.00  0.00     0.146 A 
ATOM     11  O   UNL     1       4.587  28.262  17.441  1.00  0.00    -0.456 OA
ENDROOT
BRANCH   1  12
ATOM     12  C   UNL     1       5.430  28.583  15.192  1.00  0.00     0.021 A 
ATOM     13  C   UNL     1       5.573  29.516  14.150  1.00  0.00     0.016 A 
ATOM     14  C   UNL     1       6.517  29.314  13.140  1.00  0.00     0.051 A 
ATOM     15  C   UNL     1       7.327  28.171  13.149  1.00  0.00     0.157 A 
ATOM     16  C   UNL     1       6.238  27.430  15.187  1.00  0.00     0.062 A 
ATOM     17  C   UNL     1       7.184  27.226  14.172  1.00  0.00     0.158 A 
BRANCH  15  18
ATOM     18  O   UNL     1       8.270  27.966  12.144  1.00  0.00    -0.504 OA
ATOM     19  H   UNL     1       8.788  27.098  12.071  1.00  0.00     0.293 HD
ENDBRANCH  15  18
BRANCH  17  20
ATOM     20  O   UNL     1       7.984  26.084  14.171  1.00  0.00    -0.504 OA
ATOM     21  H   UNL     1       8.406  25.733  13.318  1.00  0.00     0.293 HD
ENDBRANCH  17  20
ENDBRANCH   1  12
BRANCH   6  22
ATOM     22  O   UNL     1       0.617  30.241  19.471  1.00  0.00    -0.507 OA
ATOM     23  H   UNL     1       0.286  30.780  18.686  1.00  0.00     0.293 HD
ENDBRANCH   6  22
BRANCH   8  24
ATOM     24  O   UNL     1       3.398  27.229  21.940  1.00  0.00    -0.508 OA
ATOM     25  H   UNL     1       2.749  26.549  22.319  1.00  0.00     0.293 HD
ENDBRANCH   8  24
TORSDOF 5
ENDMDL
MODEL 9
REMARK VINA RESULT:    -6.213      1.485      6.775
REMARK INTER + INTRA:          -7.609
REMARK INTER:                  -7.296
REMARK INTRA:                  -0.313
REMARK UNBOUND:                -0.307
REMARK SMILES O=c1cc(-c2ccc(O)c(O)c2)oc2cc(O)cc(O)c12
REMARK SMILES IDX 4 1 3 2 2 3 1 4 21 5 19 6 18 7 16 8 15 9 14 10 13 11 5 12
REMARK SMILES IDX 6 13 7 14 8 15 12 16 10 17 9 18 11 20 20 22 17 24
REMARK H PARENT 9 19 11 21 20 23 17 25
REMARK Flexibility Score: inf
ROOT
ATOM      1  C   UNL     1       3.290  29.444  16.168  1.00  0.00     0.138 A 
ATOM      2  C   UNL     1       2.864  30.244  15.100  1.00  0.00     0.100 A 
ATOM      3  C   UNL     1       3.615  30.286  13.924  1.00  0.00     0.197 A 
ATOM      4  O   UNL     1       3.241  31.062  13.007  1.00  0.00    -0.289 OA
ATOM      5  C   UNL     1       4.784  29.495  13.809  1.00  0.00     0.107 A 
ATOM      6  C   UNL     1       5.605  29.426  12.645  1.00  0.00     0.134 A 
ATOM      7  C   UNL     1       6.801  28.699  12.687  1.00  0.00     0.093 A 
ATOM      8  C   UNL     1       7.175  27.992  13.829  1.00  0.00     0.123 A 
ATOM      9  C   UNL     1       6.352  28.008  14.956  1.00  0.00     0.094 A 
ATOM     10  C   UNL     1       5.169  28.752  14.956  1.00  0.00     0.146 A 
ATOM     11  O   UNL     1       4.420  28.754  16.054  1.00  0.00    -0.456 OA
ENDROOT
BRANCH   1  12
ATOM     12  C   UNL     1       2.528  29.363  17.440  1.00  0.00     0.021 A 
ATOM     13  C   UNL     1       1.186  29.781  17.468  1.00  0.00     0.016 A 
ATOM     14  C   UNL     1       0.448  29.723  18.654  1.00  0.00     0.051 A 
ATOM     15  C   UNL     1       1.042  29.254  19.832  1.00  0.00     0.157 A 
ATOM     16  C   UNL     1       3.122  28.906  18.632  1.00  0.00     0.062 A 
ATOM     17  C   UNL     1       2.382  28.849  19.822  1.00  0.00     0.158 A 
BRANCH  15  18
ATOM     18  O   UNL     1       0.309  29.193  21.016  1.00  0.00    -0.504 OA
ATOM     19  H   UNL     1       0.752  28.984  21.903  1.00  0.00     0.293 HD
ENDBRANCH  15  18
BRANCH  17  20
ATOM     20  O   UNL     1       2.972  28.394  21.000  1.00  0.00    -0.504 OA
ATOM     21  H   UNL     1       3.639  28.961  21.512  1.00  0.00     0.293 HD
ENDBRANCH  17  20
ENDBRANCH   1  12
BRANCH   6  22
ATOM     22  O   UNL     1       5.283  30.026  11.424  1.00  0.00    -0.507 OA
ATOM     23  H   UNL     1       4.602  29.672  10.770  1.00  0.00     0.293 HD
ENDBRANCH   6  22
BRANCH   8  24
ATOM     24  O   UNL     1       8.364  27.266  13.830  1.00  0.00    -0.508 OA
ATOM     25  H   UNL     1       8.858  27.057  14.690  1.00  0.00     0.293 HD
ENDBRANCH   8  24
TORSDOF 5
ENDMDL
