MODEL 1
REMARK VINA RESULT:    -4.043      0.000      0.000
REMARK INTER + INTRA:          -4.883
REMARK INTER:                  -4.752
REMARK INTRA:                  -0.132
REMARK UNBOUND:                -0.132
REMARK SMILES O=C([O-])C=Cc1ccc(O)c(O)c1
REMARK SMILES IDX 6 1 13 2 7 3 11 4 8 5 9 6 5 7 4 8 2 9 1 10 3 11 12 12 10 14
REMARK H PARENT 12 13 10 15
REMARK Flexibility Score: inf
ROOT
ATOM      1  C   UNL     1      53.456  54.605  47.674  1.00  0.00    -0.022 A 
ATOM      2  C   UNL     1      52.734  55.632  47.034  1.00  0.00     0.058 A 
ATOM      3  C   UNL     1      54.558  54.038  47.013  1.00  0.00     0.012 A 
ATOM      4  C   UNL     1      53.125  56.096  45.769  1.00  0.00     0.157 A 
ATOM      5  C   UNL     1      54.948  54.500  45.754  1.00  0.00     0.051 A 
ATOM      6  C   UNL     1      54.237  55.531  45.131  1.00  0.00     0.157 A 
ENDROOT
BRANCH   1   7
ATOM      7  C   UNL     1      53.075  54.072  49.006  1.00  0.00     0.010 C 
ATOM      8  C   UNL     1      52.494  52.877  49.191  1.00  0.00     0.025 C 
BRANCH   8   9
ATOM      9  C   UNL     1      52.118  52.385  50.526  1.00  0.00     0.064 C 
ATOM     10  O   UNL     1      51.601  53.152  51.383  1.00  0.00    -0.545 OA
ATOM     11  O   UNL     1      52.337  51.052  50.849  1.00  0.00    -0.545 OA
ENDBRANCH   8   9
ENDBRANCH   1   7
BRANCH   4  12
ATOM     12  O   UNL     1      52.412  57.114  45.139  1.00  0.00    -0.504 OA
ATOM     13  H   UNL     1      52.250  57.108  44.139  1.00  0.00     0.293 HD
ENDBRANCH   4  12
BRANCH   6  14
ATOM     14  O   UNL     1      54.624  55.998  43.875  1.00  0.00    -0.504 OA
ATOM     15  H   UNL     1      55.063  56.904  43.759  1.00  0.00     0.293 HD
ENDBRANCH   6  14
TORSDOF 4
ENDMDL
MODEL 2
REMARK VINA RESULT:    -3.916      1.259      5.822
REMARK INTER + INTRA:          -4.735
REMARK INTER:                  -4.611
REMARK INTRA:                  -0.123
REMARK UNBOUND:                -0.132
REMARK SMILES O=C([O-])C=Cc1ccc(O)c(O)c1
REMARK SMILES IDX 6 1 13 2 7 3 11 4 8 5 9 6 5 7 4 8 2 9 1 10 3 11 12 12 10 14
REMARK H PARENT 12 13 10 15
REMARK Flexibility Score: inf
ROOT
ATOM      1  C   UNL     1      53.263  53.102  48.054  1.00  0.00    -0.022 A 
ATOM      2  C   UNL     1      52.353  53.362  49.098  1.00  0.00     0.058 A 
ATOM      3  C   UNL     1      54.089  51.969  48.141  1.00  0.00     0.012 A 
ATOM      4  C   UNL     1      52.256  52.490  50.192  1.00  0.00     0.157 A 
ATOM      5  C   UNL     1      53.992  51.100  49.231  1.00  0.00     0.051 A 
ATOM      6  C   UNL     1      53.075  51.355  50.256  1.00  0.00     0.157 A 
ENDROOT
BRANCH   1   7
ATOM      7  C   UNL     1      53.411  54.000  46.881  1.00  0.00     0.010 C 
ATOM      8  C   UNL     1      52.749  55.157  46.741  1.00  0.00     0.025 C 
BRANCH   8   9
ATOM      9  C   UNL     1      52.912  56.018  45.558  1.00  0.00     0.064 C 
ATOM     10  O   UNL     1      54.031  56.519  45.265  1.00  0.00    -0.545 OA
ATOM     11  O   UNL     1      51.814  56.282  44.750  1.00  0.00    -0.545 OA
ENDBRANCH   8   9
ENDBRANCH   1   7
BRANCH   4  12
ATOM     12  O   UNL     1      51.353  52.746  51.222  1.00  0.00    -0.504 OA
ATOM     13  H   UNL     1      50.687  53.508  51.166  1.00  0.00     0.293 HD
ENDBRANCH   4  12
BRANCH   6  14
ATOM     14  O   UNL     1      52.973  50.489  51.344  1.00  0.00    -0.504 OA
ATOM     15  H   UNL     1      53.031  49.484  51.229  1.00  0.00     0.293 HD
ENDBRANCH   6  14
TORSDOF 4
ENDMDL
MODEL 3
REMARK VINA RESULT:    -3.887      1.440      1.956
REMARK INTER + INTRA:          -4.700
REMARK INTER:                  -4.559
REMARK INTRA:                  -0.142
REMARK UNBOUND:                -0.132
REMARK SMILES O=C([O-])C=Cc1ccc(O)c(O)c1
REMARK SMILES IDX 6 1 13 2 7 3 11 4 8 5 9 6 5 7 4 8 2 9 1 10 3 11 12 12 10 14
REMARK H PARENT 12 13 10 15
REMARK Flexibility Score: inf
ROOT
ATOM      1  C   UNL     1      53.210  55.295  47.349  1.00  0.00    -0.022 A 
ATOM      2  C   UNL     1      52.596  55.648  46.131  1.00  0.00     0.058 A 
ATOM      3  C   UNL     1      54.154  56.170  47.911  1.00  0.00     0.012 A 
ATOM      4  C   UNL     1      52.904  56.865  45.504  1.00  0.00     0.157 A 
ATOM      5  C   UNL     1      54.460  57.382  47.287  1.00  0.00     0.051 A 
ATOM      6  C   UNL     1      53.835  57.735  46.086  1.00  0.00     0.157 A 
ENDROOT
BRANCH   1   7
ATOM      7  C   UNL     1      52.928  54.015  48.044  1.00  0.00     0.010 C 
ATOM      8  C   UNL     1      52.689  53.919  49.360  1.00  0.00     0.025 C 
BRANCH   8   9
ATOM      9  C   UNL     1      52.424  52.629  50.019  1.00  0.00     0.064 C 
ATOM     10  O   UNL     1      52.884  51.552  49.553  1.00  0.00    -0.545 OA
ATOM     11  O   UNL     1      51.653  52.598  51.173  1.00  0.00    -0.545 OA
ENDBRANCH   8   9
ENDBRANCH   1   7
BRANCH   4  12
ATOM     12  O   UNL     1      52.292  57.215  44.302  1.00  0.00    -0.504 OA
ATOM     13  H   UNL     1      52.729  57.022  43.409  1.00  0.00     0.293 HD
ENDBRANCH   4  12
BRANCH   6  14
ATOM     14  O   UNL     1      54.135  58.945  45.461  1.00  0.00    -0.504 OA
ATOM     15  H   UNL     1      53.480  59.394  44.832  1.00  0.00     0.293 HD
ENDBRANCH   6  14
TORSDOF 4
ENDMDL
MODEL 4
REMARK VINA RESULT:    -3.854      1.374      5.921
REMARK INTER + INTRA:          -4.662
REMARK INTER:                  -4.525
REMARK INTRA:                  -0.138
REMARK UNBOUND:                -0.132
REMARK SMILES O=C([O-])C=Cc1ccc(O)c(O)c1
REMARK SMILES IDX 6 1 13 2 7 3 11 4 8 5 9 6 5 7 4 8 2 9 1 10 3 11 12 12 10 14
REMARK H PARENT 12 13 10 15
REMARK Flexibility Score: inf
ROOT
ATOM      1  C   UNL     1      53.112  54.191  47.852  1.00  0.00    -0.022 A 
ATOM      2  C   UNL     1      53.052  52.790  47.997  1.00  0.00     0.058 A 
ATOM      3  C   UNL     1      53.096  54.992  49.005  1.00  0.00     0.012 A 
ATOM      4  C   UNL     1      53.003  52.207  49.272  1.00  0.00     0.157 A 
ATOM      5  C   UNL     1      53.050  54.412  50.275  1.00  0.00     0.051 A 
ATOM      6  C   UNL     1      53.006  53.020  50.412  1.00  0.00     0.157 A 
ENDROOT
BRANCH   1   7
ATOM      7  C   UNL     1      53.152  54.856  46.526  1.00  0.00     0.010 C 
ATOM      8  C   UNL     1      52.273  55.791  46.135  1.00  0.00     0.025 C 
BRANCH   8   9
ATOM      9  C   UNL     1      52.336  56.421  44.806  1.00  0.00     0.064 C 
ATOM     10  O   UNL     1      53.415  56.898  44.361  1.00  0.00    -0.545 OA
ATOM     11  O   UNL     1      51.188  56.491  44.029  1.00  0.00    -0.545 OA
ENDBRANCH   8   9
ENDBRANCH   1   7
BRANCH   4  12
ATOM     12  O   UNL     1      52.948  50.822  49.413  1.00  0.00    -0.504 OA
ATOM     13  H   UNL     1      52.757  50.387  50.308  1.00  0.00     0.293 HD
ENDBRANCH   4  12
BRANCH   6  14
ATOM     14  O   UNL     1      52.961  52.436  51.678  1.00  0.00    -0.504 OA
ATOM     15  H   UNL     1      52.313  51.687  51.894  1.00  0.00     0.293 HD
ENDBRANCH   6  14
TORSDOF 4
ENDMDL
MODEL 5
REMARK VINA RESULT:    -3.792      0.843      1.920
REMARK INTER + INTRA:          -4.589
REMARK INTER:                  -4.437
REMARK INTRA:                  -0.152
REMARK UNBOUND:                -0.132
REMARK SMILES O=C([O-])C=Cc1ccc(O)c(O)c1
REMARK SMILES IDX 6 1 13 2 7 3 11 4 8 5 9 6 5 7 4 8 2 9 1 10 3 11 12 12 10 14
REMARK H PARENT 12 13 10 15
REMARK Flexibility Score: inf
ROOT
ATOM      1  C   UNL     1      53.685  53.968  47.292  1.00  0.00    -0.022 A 
ATOM      2  C   UNL     1      54.835  53.807  46.495  1.00  0.00     0.058 A 
ATOM      3  C   UNL     1      52.765  54.977  46.961  1.00  0.00     0.012 A 
ATOM      4  C   UNL     1      55.044  54.624  45.374  1.00  0.00     0.157 A 
ATOM      5  C   UNL     1      52.973  55.789  45.844  1.00  0.00     0.051 A 
ATOM      6  C   UNL     1      54.110  55.614  45.046  1.00  0.00     0.157 A 
ENDROOT
BRANCH   1   7
ATOM      7  C   UNL     1      53.424  53.138  48.495  1.00  0.00     0.010 C 
ATOM      8  C   UNL     1      52.383  53.327  49.319  1.00  0.00     0.025 C 
BRANCH   8   9
ATOM      9  C   UNL     1      52.162  52.491  50.510  1.00  0.00     0.064 C 
ATOM     10  O   UNL     1      51.623  52.963  51.548  1.00  0.00    -0.545 OA
ATOM     11  O   UNL     1      52.554  51.159  50.492  1.00  0.00    -0.545 OA
ENDBRANCH   8   9
ENDBRANCH   1   7
BRANCH   4  12
ATOM     12  O   UNL     1      56.180  54.460  44.583  1.00  0.00    -0.504 OA
ATOM     13  H   UNL     1      56.137  54.000  43.682  1.00  0.00     0.293 HD
ENDBRANCH   4  12
BRANCH   6  14
ATOM     14  O   UNL     1      54.320  56.421  43.929  1.00  0.00    -0.504 OA
ATOM     15  H   UNL     1      53.614  57.071  43.604  1.00  0.00     0.293 HD
ENDBRANCH   6  14
TORSDOF 4
ENDMDL
MODEL 6
REMARK VINA RESULT:    -3.679      4.429      5.740
REMARK INTER + INTRA:          -4.455
REMARK INTER:                  -4.333
REMARK INTRA:                  -0.123
REMARK UNBOUND:                -0.132
REMARK SMILES O=C([O-])C=Cc1ccc(O)c(O)c1
REMARK SMILES IDX 6 1 13 2 7 3 11 4 8 5 9 6 5 7 4 8 2 9 1 10 3 11 12 12 10 14
REMARK H PARENT 12 13 10 15
REMARK Flexibility Score: inf
ROOT
ATOM      1  C   UNL     1      53.076  55.089  52.025  1.00  0.00    -0.022 A 
ATOM      2  C   UNL     1      52.102  55.959  51.496  1.00  0.00     0.058 A 
ATOM      3  C   UNL     1      53.913  55.553  53.053  1.00  0.00     0.012 A 
ATOM      4  C   UNL     1      51.954  57.258  52.006  1.00  0.00     0.157 A 
ATOM      5  C   UNL     1      53.765  56.846  53.562  1.00  0.00     0.051 A 
ATOM      6  C   UNL     1      52.785  57.699  53.044  1.00  0.00     0.157 A 
ENDROOT
BRANCH   1   7
ATOM      7  C   UNL     1      53.280  53.712  51.511  1.00  0.00     0.010 C 
ATOM      8  C   UNL     1      52.495  53.138  50.587  1.00  0.00     0.025 C 
BRANCH   8   9
ATOM      9  C   UNL     1      52.720  51.764  50.109  1.00  0.00     0.064 C 
ATOM     10  O   UNL     1      53.269  51.542  48.996  1.00  0.00    -0.545 OA
ATOM     11  O   UNL     1      52.320  50.694  50.898  1.00  0.00    -0.545 OA
ENDBRANCH   8   9
ENDBRANCH   1   7
BRANCH   4  12
ATOM     12  O   UNL     1      50.987  58.115  51.485  1.00  0.00    -0.504 OA
ATOM     13  H   UNL     1      50.947  58.331  50.496  1.00  0.00     0.293 HD
ENDBRANCH   4  12
BRANCH   6  14
ATOM     14  O   UNL     1      52.632  58.990  53.550  1.00  0.00    -0.504 OA
ATOM     15  H   UNL     1      52.704  59.181  54.543  1.00  0.00     0.293 HD
ENDBRANCH   6  14
TORSDOF 4
ENDMDL
MODEL 7
REMARK VINA RESULT:    -3.658      5.330      8.390
REMARK INTER + INTRA:          -4.431
REMARK INTER:                  -4.298
REMARK INTRA:                  -0.133
REMARK UNBOUND:                -0.132
REMARK SMILES O=C([O-])C=Cc1ccc(O)c(O)c1
REMARK SMILES IDX 6 1 13 2 7 3 11 4 8 5 9 6 5 7 4 8 2 9 1 10 3 11 12 12 10 14
REMARK H PARENT 12 13 10 15
REMARK Flexibility Score: inf
ROOT
ATOM      1  C   UNL     1      53.269  48.206  50.931  1.00  0.00    -0.022 A 
ATOM      2  C   UNL     1      52.401  47.181  51.359  1.00  0.00     0.058 A 
ATOM      3  C   UNL     1      54.259  47.903  49.982  1.00  0.00     0.012 A 
ATOM      4  C   UNL     1      52.509  45.888  50.827  1.00  0.00     0.157 A 
ATOM      5  C   UNL     1      54.366  46.615  49.451  1.00  0.00     0.051 A 
ATOM      6  C   UNL     1      53.491  45.606  49.869  1.00  0.00     0.157 A 
ENDROOT
BRANCH   1   7
ATOM      7  C   UNL     1      53.203  49.586  51.472  1.00  0.00     0.010 C 
ATOM      8  C   UNL     1      52.764  50.641  50.770  1.00  0.00     0.025 C 
BRANCH   8   9
ATOM      9  C   UNL     1      52.724  52.000  51.336  1.00  0.00     0.064 C 
ATOM     10  O   UNL     1      53.686  52.452  52.014  1.00  0.00    -0.545 OA
ATOM     11  O   UNL     1      51.608  52.796  51.119  1.00  0.00    -0.545 OA
ENDBRANCH   8   9
ENDBRANCH   1   7
BRANCH   4  12
ATOM     12  O   UNL     1      51.647  44.877  51.248  1.00  0.00    -0.504 OA
ATOM     13  H   UNL     1      51.258  44.206  50.596  1.00  0.00     0.293 HD
ENDBRANCH   4  12
BRANCH   6  14
ATOM     14  O   UNL     1      53.592  44.320  49.340  1.00  0.00    -0.504 OA
ATOM     15  H   UNL     1      53.734  44.164  48.349  1.00  0.00     0.293 HD
ENDBRANCH   6  14
TORSDOF 4
ENDMDL
MODEL 8
REMARK VINA RESULT:    -3.636     13.832     15.660
REMARK INTER + INTRA:          -4.405
REMARK INTER:                  -4.281
REMARK INTRA:                  -0.125
REMARK UNBOUND:                -0.132
REMARK SMILES O=C([O-])C=Cc1ccc(O)c(O)c1
REMARK SMILES IDX 6 1 13 2 7 3 11 4 8 5 9 6 5 7 4 8 2 9 1 10 3 11 12 12 10 14
REMARK H PARENT 12 13 10 15
REMARK Flexibility Score: inf
ROOT
ATOM      1  C   UNL     1      51.205  51.165  61.531  1.00  0.00    -0.022 A 
ATOM      2  C   UNL     1      50.258  50.744  62.487  1.00  0.00     0.058 A 
ATOM      3  C   UNL     1      52.030  50.204  60.926  1.00  0.00     0.012 A 
ATOM      4  C   UNL     1      50.126  49.385  62.807  1.00  0.00     0.157 A 
ATOM      5  C   UNL     1      51.897  48.850  61.244  1.00  0.00     0.051 A 
ATOM      6  C   UNL     1      50.944  48.437  62.181  1.00  0.00     0.157 A 
ENDROOT
BRANCH   1   7
ATOM      7  C   UNL     1      51.392  52.592  61.167  1.00  0.00     0.010 C 
ATOM      8  C   UNL     1      50.496  53.553  61.437  1.00  0.00     0.025 C 
BRANCH   8   9
ATOM      9  C   UNL     1      50.710  54.957  61.050  1.00  0.00     0.064 C 
ATOM     10  O   UNL     1      51.760  55.316  60.451  1.00  0.00    -0.545 OA
ATOM     11  O   UNL     1      49.738  55.903  61.349  1.00  0.00    -0.545 OA
ENDBRANCH   8   9
ENDBRANCH   1   7
BRANCH   4  12
ATOM     12  O   UNL     1      49.186  48.970  63.749  1.00  0.00    -0.504 OA
ATOM     13  H   UNL     1      48.214  49.249  63.687  1.00  0.00     0.293 HD
ENDBRANCH   4  12
BRANCH   6  14
ATOM     14  O   UNL     1      50.807  47.086  62.501  1.00  0.00    -0.504 OA
ATOM     15  H   UNL     1      50.523  46.786  63.426  1.00  0.00     0.293 HD
ENDBRANCH   6  14
TORSDOF 4
ENDMDL
MODEL 9
REMARK VINA RESULT:    -3.558      5.418      9.439
REMARK INTER + INTRA:          -4.314
REMARK INTER:                  -4.191
REMARK INTRA:                  -0.123
REMARK UNBOUND:                -0.132
REMARK SMILES O=C([O-])C=Cc1ccc(O)c(O)c1
REMARK SMILES IDX 6 1 13 2 7 3 11 4 8 5 9 6 5 7 4 8 2 9 1 10 3 11 12 12 10 14
REMARK H PARENT 12 13 10 15
REMARK Flexibility Score: inf
ROOT
ATOM      1  C   UNL     1      53.349  47.754  52.018  1.00  0.00    -0.022 A 
ATOM      2  C   UNL     1      52.355  46.966  51.403  1.00  0.00     0.058 A 
ATOM      3  C   UNL     1      54.254  47.139  52.897  1.00  0.00     0.012 A 
ATOM      4  C   UNL     1      52.290  45.586  51.646  1.00  0.00     0.157 A 
ATOM      5  C   UNL     1      54.190  45.764  53.138  1.00  0.00     0.051 A 
ATOM      6  C   UNL     1      53.211  44.984  52.512  1.00  0.00     0.157 A 
ENDROOT
BRANCH   1   7
ATOM      7  C   UNL     1      53.452  49.219  51.803  1.00  0.00     0.010 C 
ATOM      8  C   UNL     1      52.638  49.912  50.994  1.00  0.00     0.025 C 
BRANCH   8   9
ATOM      9  C   UNL     1      52.778  51.364  50.795  1.00  0.00     0.064 C 
ATOM     10  O   UNL     1      51.804  52.144  50.977  1.00  0.00    -0.545 OA
ATOM     11  O   UNL     1      54.003  51.884  50.399  1.00  0.00    -0.545 OA
ENDBRANCH   8   9
ENDBRANCH   1   7
BRANCH   4  12
ATOM     12  O   UNL     1      51.310  44.807  51.034  1.00  0.00    -0.504 OA
ATOM     13  H   UNL     1      51.304  43.797  51.119  1.00  0.00     0.293 HD
ENDBRANCH   4  12
BRANCH   6  14
ATOM     14  O   UNL     1      53.144  43.611  52.748  1.00  0.00    -0.504 OA
ATOM     15  H   UNL     1      53.361  43.219  53.657  1.00  0.00     0.293 HD
ENDBRANCH   6  14
TORSDOF 4
ENDMDL
