MODEL 1
REMARK VINA RESULT:    -1.170      0.000      0.000
REMARK INTER + INTRA:          -4.281
REMARK INTER:                  -1.991
REMARK INTRA:                  -2.290
REMARK UNBOUND:                -2.290
REMARK SMILES CCCCCCCCCCCCCC(=O)[O-]
REMARK SMILES IDX 8 1 9 2 10 3 11 4 12 5 13 6 14 7 15 8 16 9 7 10 6 11 5 12
REMARK SMILES IDX 4 13 3 14 2 15 1 16
REMARK H PARENT
REMARK Flexibility Score: inf
ROOT
ATOM      1  C   UNL     1     139.144  53.872 -12.355  1.00  0.00     0.000 C 
ENDROOT
BRANCH   1   2
ATOM      2  C   UNL     1     139.728  52.950 -11.268  1.00  0.00     0.000 C 
BRANCH   2   3
ATOM      3  C   UNL     1     141.262  52.913 -11.275  1.00  0.00     0.000 C 
BRANCH   3   4
ATOM      4  C   UNL     1     141.825  53.255  -9.888  1.00  0.00     0.000 C 
BRANCH   4   5
ATOM      5  C   UNL     1     143.004  54.246  -9.948  1.00  0.00     0.006 C 
BRANCH   5   6
ATOM      6  C   UNL     1     143.684  54.338 -11.323  1.00  0.00     0.053 C 
BRANCH   6   7
ATOM      7  C   UNL     1     145.021  53.663 -11.334  1.00  0.00     0.041 C 
ATOM      8  O   UNL     1     146.070  54.329 -11.129  1.00  0.00    -0.550 OA
ATOM      9  O   UNL     1     145.112  52.303 -11.602  1.00  0.00    -0.550 OA
ENDBRANCH   6   7
ENDBRANCH   5   6
ENDBRANCH   4   5
ENDBRANCH   3   4
ENDBRANCH   2   3
ENDBRANCH   1   2
BRANCH   1  10
ATOM     10  C   UNL     1     140.160  54.821 -13.019  1.00  0.00     0.000 C 
BRANCH  10  11
ATOM     11  C   UNL     1     139.981  56.313 -12.679  1.00  0.00    -0.000 C 
BRANCH  11  12
ATOM     12  C   UNL     1     140.972  56.835 -11.617  1.00  0.00    -0.000 C 
BRANCH  12  13
ATOM     13  C   UNL     1     140.335  56.953 -10.222  1.00  0.00    -0.000 C 
BRANCH  13  14
ATOM     14  C   UNL     1     138.800  57.027 -10.271  1.00  0.00    -0.000 C 
BRANCH  14  15
ATOM     15  C   UNL     1     138.105  56.059  -9.291  1.00  0.00    -0.003 C 
ATOM     16  C   UNL     1     139.106  55.267  -8.448  1.00  0.00     0.004 C 
ENDBRANCH  14  15
ENDBRANCH  13  14
ENDBRANCH  12  13
ENDBRANCH  11  12
ENDBRANCH  10  11
ENDBRANCH   1  10
TORSDOF 12
ENDMDL
MODEL 2
REMARK VINA RESULT:    -1.045      3.447      5.319
REMARK INTER + INTRA:          -4.068
REMARK INTER:                  -2.067
REMARK INTRA:                  -2.001
REMARK UNBOUND:                -2.290
REMARK SMILES CCCCCCCCCCCCCC(=O)[O-]
REMARK SMILES IDX 8 1 9 2 10 3 11 4 12 5 13 6 14 7 15 8 16 9 7 10 6 11 5 12
REMARK SMILES IDX 4 13 3 14 2 15 1 16
REMARK H PARENT
REMARK Flexibility Score: inf
ROOT
ATOM      1  C   UNL     1     139.501  54.783 -12.997  1.00  0.00     0.000 C 
ENDROOT
BRANCH   1   2
ATOM      2  C   UNL     1     140.795  55.618 -12.975  1.00  0.00     0.000 C 
BRANCH   2   3
ATOM      3  C   UNL     1     140.769  56.734 -11.921  1.00  0.00     0.000 C 
BRANCH   3   4
ATOM      4  C   UNL     1     139.326  57.093 -11.538  1.00  0.00     0.000 C 
BRANCH   4   5
ATOM      5  C   UNL     1     139.101  57.125 -10.015  1.00  0.00     0.006 C 
BRANCH   5   6
ATOM      6  C   UNL     1     138.337  55.912  -9.461  1.00  0.00     0.053 C 
BRANCH   6   7
ATOM      7  C   UNL     1     138.035  56.058  -8.001  1.00  0.00     0.041 C 
ATOM      8  O   UNL     1     138.491  55.226  -7.173  1.00  0.00    -0.550 OA
ATOM      9  O   UNL     1     137.221  57.093  -7.560  1.00  0.00    -0.550 OA
ENDBRANCH   6   7
ENDBRANCH   5   6
ENDBRANCH   4   5
ENDBRANCH   3   4
ENDBRANCH   2   3
ENDBRANCH   1   2
BRANCH   1  10
ATOM     10  C   UNL     1     139.680  53.295 -12.640  1.00  0.00     0.000 C 
BRANCH  10  11
ATOM     11  C   UNL     1     140.074  53.015 -11.178  1.00  0.00    -0.000 C 
BRANCH  11  12
ATOM     12  C   UNL     1     141.548  52.592 -10.999  1.00  0.00    -0.000 C 
BRANCH  12  13
ATOM     13  C   UNL     1     142.104  52.960  -9.614  1.00  0.00    -0.000 C 
BRANCH  13  14
ATOM     14  C   UNL     1     141.531  54.280  -9.072  1.00  0.00    -0.000 C 
BRANCH  14  15
ATOM     15  C   UNL     1     142.574  55.414  -8.983  1.00  0.00    -0.003 C 
ATOM     16  C   UNL     1     142.155  56.513  -8.005  1.00  0.00     0.004 C 
ENDBRANCH  14  15
ENDBRANCH  13  14
ENDBRANCH  12  13
ENDBRANCH  11  12
ENDBRANCH  10  11
ENDBRANCH   1  10
TORSDOF 12
ENDMDL
MODEL 3
REMARK VINA RESULT:    -1.043      3.580      5.248
REMARK INTER + INTRA:          -4.064
REMARK INTER:                  -1.835
REMARK INTRA:                  -2.229
REMARK UNBOUND:                -2.290
REMARK SMILES CCCCCCCCCCCCCC(=O)[O-]
REMARK SMILES IDX 8 1 9 2 10 3 11 4 12 5 13 6 14 7 15 8 16 9 7 10 6 11 5 12
REMARK SMILES IDX 4 13 3 14 2 15 1 16
REMARK H PARENT
REMARK Flexibility Score: inf
ROOT
ATOM      1  C   UNL     1     142.529  54.867  -9.816  1.00  0.00     0.000 C 
ENDROOT
BRANCH   1   2
ATOM      2  C   UNL     1     141.705  53.565  -9.836  1.00  0.00     0.000 C 
BRANCH   2   3
ATOM      3  C   UNL     1     140.612  53.531  -8.759  1.00  0.00     0.000 C 
BRANCH   3   4
ATOM      4  C   UNL     1     139.233  53.820  -9.368  1.00  0.00     0.000 C 
BRANCH   4   5
ATOM      5  C   UNL     1     138.621  55.140  -8.862  1.00  0.00     0.006 C 
BRANCH   5   6
ATOM      6  C   UNL     1     139.471  55.871  -7.811  1.00  0.00     0.053 C 
BRANCH   6   7
ATOM      7  C   UNL     1     138.779  55.949  -6.485  1.00  0.00     0.041 C 
ATOM      8  O   UNL     1     138.033  55.010  -6.103  1.00  0.00    -0.550 OA
ATOM      9  O   UNL     1     138.932  57.075  -5.686  1.00  0.00    -0.550 OA
ENDBRANCH   6   7
ENDBRANCH   5   6
ENDBRANCH   4   5
ENDBRANCH   3   4
ENDBRANCH   2   3
ENDBRANCH   1   2
BRANCH   1  10
ATOM     10  C   UNL     1     142.337  55.778 -11.043  1.00  0.00     0.000 C 
BRANCH  10  11
ATOM     11  C   UNL     1     141.324  56.923 -10.856  1.00  0.00    -0.000 C 
BRANCH  11  12
ATOM     12  C   UNL     1     140.050  56.776 -11.716  1.00  0.00    -0.000 C 
BRANCH  12  13
ATOM     13  C   UNL     1     140.274  55.900 -12.959  1.00  0.00    -0.000 C 
BRANCH  13  14
ATOM     14  C   UNL     1     139.432  54.613 -12.941  1.00  0.00    -0.000 C 
BRANCH  14  15
ATOM     15  C   UNL     1     140.249  53.339 -13.239  1.00  0.00    -0.003 C 
ATOM     16  C   UNL     1     139.612  52.086 -12.634  1.00  0.00     0.004 C 
ENDBRANCH  14  15
ENDBRANCH  13  14
ENDBRANCH  12  13
ENDBRANCH  11  12
ENDBRANCH  10  11
ENDBRANCH   1  10
TORSDOF 12
ENDMDL
MODEL 4
REMARK VINA RESULT:    -1.037      3.273      4.386
REMARK INTER + INTRA:          -4.055
REMARK INTER:                  -2.141
REMARK INTRA:                  -1.914
REMARK UNBOUND:                -2.290
REMARK SMILES CCCCCCCCCCCCCC(=O)[O-]
REMARK SMILES IDX 8 1 9 2 10 3 11 4 12 5 13 6 14 7 15 8 16 9 7 10 6 11 5 12
REMARK SMILES IDX 4 13 3 14 2 15 1 16
REMARK H PARENT
REMARK Flexibility Score: inf
ROOT
ATOM      1  C   UNL     1     142.203  54.688 -12.476  1.00  0.00     0.000 C 
ENDROOT
BRANCH   1   2
ATOM      2  C   UNL     1     141.683  54.099 -13.801  1.00  0.00     0.000 C 
BRANCH   2   3
ATOM      3  C   UNL     1     140.643  52.989 -13.595  1.00  0.00     0.000 C 
BRANCH   3   4
ATOM      4  C   UNL     1     139.862  53.204 -12.290  1.00  0.00     0.000 C 
BRANCH   4   5
ATOM      5  C   UNL     1     139.989  52.017 -11.316  1.00  0.00     0.006 C 
BRANCH   5   6
ATOM      6  C   UNL     1     138.656  51.329 -10.979  1.00  0.00     0.053 C 
BRANCH   6   7
ATOM      7  C   UNL     1     138.110  50.563 -12.145  1.00  0.00     0.041 C 
ATOM      8  O   UNL     1     137.134  51.015 -12.799  1.00  0.00    -0.550 OA
ATOM      9  O   UNL     1     138.659  49.333 -12.487  1.00  0.00    -0.550 OA
ENDBRANCH   6   7
ENDBRANCH   5   6
ENDBRANCH   4   5
ENDBRANCH   3   4
ENDBRANCH   2   3
ENDBRANCH   1   2
BRANCH   1  10
ATOM     10  C   UNL     1     142.043  56.214 -12.333  1.00  0.00     0.000 C 
BRANCH  10  11
ATOM     11  C   UNL     1     140.851  56.821 -13.096  1.00  0.00    -0.000 C 
BRANCH  11  12
ATOM     12  C   UNL     1     139.553  56.901 -12.265  1.00  0.00    -0.000 C 
BRANCH  12  13
ATOM     13  C   UNL     1     139.814  56.822 -10.752  1.00  0.00    -0.000 C 
BRANCH  13  14
ATOM     14  C   UNL     1     138.745  56.008 -10.004  1.00  0.00    -0.000 C 
BRANCH  14  15
ATOM     15  C   UNL     1     139.333  54.924  -9.078  1.00  0.00    -0.003 C 
ATOM     16  C   UNL     1     140.857  55.007  -8.980  1.00  0.00     0.004 C 
ENDBRANCH  14  15
ENDBRANCH  13  14
ENDBRANCH  12  13
ENDBRANCH  11  12
ENDBRANCH  10  11
ENDBRANCH   1  10
TORSDOF 12
ENDMDL
MODEL 5
REMARK VINA RESULT:    -1.029     15.525     17.007
REMARK INTER + INTRA:          -4.042
REMARK INTER:                  -2.362
REMARK INTRA:                  -1.680
REMARK UNBOUND:                -2.290
REMARK SMILES CCCCCCCCCCCCCC(=O)[O-]
REMARK SMILES IDX 8 1 9 2 10 3 11 4 12 5 13 6 14 7 15 8 16 9 7 10 6 11 5 12
REMARK SMILES IDX 4 13 3 14 2 15 1 16
REMARK H PARENT
REMARK Flexibility Score: inf
ROOT
ATOM      1  C   UNL     1     145.100  38.895 -11.207  1.00  0.00     0.000 C 
ENDROOT
BRANCH   1   2
ATOM      2  C   UNL     1     144.811  37.663 -10.329  1.00  0.00     0.000 C 
BRANCH   2   3
ATOM      3  C   UNL     1     146.085  37.013  -9.770  1.00  0.00     0.000 C 
BRANCH   3   4
ATOM      4  C   UNL     1     147.334  37.791 -10.209  1.00  0.00     0.000 C 
BRANCH   4   5
ATOM      5  C   UNL     1     148.018  38.529  -9.043  1.00  0.00     0.006 C 
BRANCH   5   6
ATOM      6  C   UNL     1     147.290  38.400  -7.696  1.00  0.00     0.053 C 
BRANCH   6   7
ATOM      7  C   UNL     1     146.666  39.693  -7.268  1.00  0.00     0.041 C 
ATOM      8  O   UNL     1     145.486  39.970  -7.608  1.00  0.00    -0.550 OA
ATOM      9  O   UNL     1     147.400  40.606  -6.522  1.00  0.00    -0.550 OA
ENDBRANCH   6   7
ENDBRANCH   5   6
ENDBRANCH   4   5
ENDBRANCH   3   4
ENDBRANCH   2   3
ENDBRANCH   1   2
BRANCH   1  10
ATOM     10  C   UNL     1     144.760  38.726 -12.700  1.00  0.00     0.000 C 
BRANCH  10  11
ATOM     11  C   UNL     1     144.014  37.427 -13.057  1.00  0.00    -0.000 C 
BRANCH  11  12
ATOM     12  C   UNL     1     142.709  37.654 -13.851  1.00  0.00    -0.000 C 
BRANCH  12  13
ATOM     13  C   UNL     1     141.523  38.022 -12.945  1.00  0.00    -0.000 C 
BRANCH  13  14
ATOM     14  C   UNL     1     141.418  37.120 -11.704  1.00  0.00    -0.000 C 
BRANCH  14  15
ATOM     15  C   UNL     1     141.069  37.889 -10.412  1.00  0.00    -0.003 C 
ATOM     16  C   UNL     1     141.397  39.379 -10.516  1.00  0.00     0.004 C 
ENDBRANCH  14  15
ENDBRANCH  13  14
ENDBRANCH  12  13
ENDBRANCH  11  12
ENDBRANCH  10  11
ENDBRANCH   1  10
TORSDOF 12
ENDMDL
MODEL 6
REMARK VINA RESULT:    -1.029      4.002      5.926
REMARK INTER + INTRA:          -4.042
REMARK INTER:                  -2.070
REMARK INTRA:                  -1.972
REMARK UNBOUND:                -2.290
REMARK SMILES CCCCCCCCCCCCCC(=O)[O-]
REMARK SMILES IDX 8 1 9 2 10 3 11 4 12 5 13 6 14 7 15 8 16 9 7 10 6 11 5 12
REMARK SMILES IDX 4 13 3 14 2 15 1 16
REMARK H PARENT
REMARK Flexibility Score: inf
ROOT
ATOM      1  C   UNL     1     140.029  52.660  -9.416  1.00  0.00     0.000 C 
ENDROOT
BRANCH   1   2
ATOM      2  C   UNL     1     139.507  53.929  -8.716  1.00  0.00     0.000 C 
BRANCH   2   3
ATOM      3  C   UNL     1     140.468  55.120  -8.843  1.00  0.00     0.000 C 
BRANCH   3   4
ATOM      4  C   UNL     1     139.693  56.430  -9.048  1.00  0.00     0.000 C 
BRANCH   4   5
ATOM      5  C   UNL     1     138.269  56.203  -9.592  1.00  0.00     0.006 C 
BRANCH   5   6
ATOM      6  C   UNL     1     137.202  57.124  -8.980  1.00  0.00     0.053 C 
BRANCH   6   7
ATOM      7  C   UNL     1     136.343  56.404  -7.986  1.00  0.00     0.041 C 
ATOM      8  O   UNL     1     136.280  55.147  -7.996  1.00  0.00    -0.550 OA
ATOM      9  O   UNL     1     135.587  57.125  -7.070  1.00  0.00    -0.550 OA
ENDBRANCH   6   7
ENDBRANCH   5   6
ENDBRANCH   4   5
ENDBRANCH   3   4
ENDBRANCH   2   3
ENDBRANCH   1   2
BRANCH   1  10
ATOM     10  C   UNL     1     140.750  52.903 -10.755  1.00  0.00     0.000 C 
BRANCH  10  11
ATOM     11  C   UNL     1     139.873  52.738 -12.010  1.00  0.00    -0.000 C 
BRANCH  11  12
ATOM     12  C   UNL     1     139.370  54.073 -12.600  1.00  0.00    -0.000 C 
BRANCH  12  13
ATOM     13  C   UNL     1     140.515  54.968 -13.100  1.00  0.00    -0.000 C 
BRANCH  13  14
ATOM     14  C   UNL     1     140.381  56.426 -12.629  1.00  0.00    -0.000 C 
BRANCH  14  15
ATOM     15  C   UNL     1     141.722  57.063 -12.209  1.00  0.00    -0.003 C 
ATOM     16  C   UNL     1     142.690  56.040 -11.611  1.00  0.00     0.004 C 
ENDBRANCH  14  15
ENDBRANCH  13  14
ENDBRANCH  12  13
ENDBRANCH  11  12
ENDBRANCH  10  11
ENDBRANCH   1  10
TORSDOF 12
ENDMDL
MODEL 7
REMARK VINA RESULT:    -1.016     14.676     16.625
REMARK INTER + INTRA:          -4.020
REMARK INTER:                  -2.049
REMARK INTRA:                  -1.971
REMARK UNBOUND:                -2.290
REMARK SMILES CCCCCCCCCCCCCC(=O)[O-]
REMARK SMILES IDX 8 1 9 2 10 3 11 4 12 5 13 6 14 7 15 8 16 9 7 10 6 11 5 12
REMARK SMILES IDX 4 13 3 14 2 15 1 16
REMARK H PARENT
REMARK Flexibility Score: inf
ROOT
ATOM      1  C   UNL     1     142.442  38.230  -9.537  1.00  0.00     0.000 C 
ENDROOT
BRANCH   1   2
ATOM      2  C   UNL     1     143.125  36.882  -9.235  1.00  0.00     0.000 C 
BRANCH   2   3
ATOM      3  C   UNL     1     144.650  36.934  -9.403  1.00  0.00     0.000 C 
BRANCH   3   4
ATOM      4  C   UNL     1     145.031  37.431 -10.806  1.00  0.00     0.000 C 
BRANCH   4   5
ATOM      5  C   UNL     1     146.210  38.423 -10.789  1.00  0.00     0.006 C 
BRANCH   5   6
ATOM      6  C   UNL     1     146.117  39.498  -9.695  1.00  0.00     0.053 C 
BRANCH   6   7
ATOM      7  C   UNL     1     147.349  39.540  -8.843  1.00  0.00     0.041 C 
ATOM      8  O   UNL     1     147.975  40.621  -8.687  1.00  0.00    -0.550 OA
ATOM      9  O   UNL     1     147.823  38.377  -8.249  1.00  0.00    -0.550 OA
ENDBRANCH   6   7
ENDBRANCH   5   6
ENDBRANCH   4   5
ENDBRANCH   3   4
ENDBRANCH   2   3
ENDBRANCH   1   2
BRANCH   1  10
ATOM     10  C   UNL     1     141.235  38.149 -10.490  1.00  0.00     0.000 C 
BRANCH  10  11
ATOM     11  C   UNL     1     141.320  37.046 -11.561  1.00  0.00    -0.000 C 
BRANCH  11  12
ATOM     12  C   UNL     1     141.930  37.518 -12.898  1.00  0.00    -0.000 C 
BRANCH  12  13
ATOM     13  C   UNL     1     141.309  38.831 -13.401  1.00  0.00    -0.000 C 
BRANCH  13  14
ATOM     14  C   UNL     1     142.347  39.790 -14.005  1.00  0.00    -0.000 C 
BRANCH  14  15
ATOM     15  C   UNL     1     143.624  39.934 -13.151  1.00  0.00    -0.003 C 
ATOM     16  C   UNL     1     143.427  40.881 -11.966  1.00  0.00     0.004 C 
ENDBRANCH  14  15
ENDBRANCH  13  14
ENDBRANCH  12  13
ENDBRANCH  11  12
ENDBRANCH  10  11
ENDBRANCH   1  10
TORSDOF 12
ENDMDL
MODEL 8
REMARK VINA RESULT:    -1.009     15.123     17.036
REMARK INTER + INTRA:          -4.007
REMARK INTER:                  -1.796
REMARK INTRA:                  -2.211
REMARK UNBOUND:                -2.290
REMARK SMILES CCCCCCCCCCCCCC(=O)[O-]
REMARK SMILES IDX 8 1 9 2 10 3 11 4 12 5 13 6 14 7 15 8 16 9 7 10 6 11 5 12
REMARK SMILES IDX 4 13 3 14 2 15 1 16
REMARK H PARENT
REMARK Flexibility Score: inf
ROOT
ATOM      1  C   UNL     1     144.327  40.527 -11.116  1.00  0.00     0.000 C 
ENDROOT
BRANCH   1   2
ATOM      2  C   UNL     1     144.267  40.216  -9.608  1.00  0.00     0.000 C 
BRANCH   2   3
ATOM      3  C   UNL     1     143.341  39.038  -9.276  1.00  0.00     0.000 C 
BRANCH   3   4
ATOM      4  C   UNL     1     143.938  37.713  -9.775  1.00  0.00     0.000 C 
BRANCH   4   5
ATOM      5  C   UNL     1     142.935  36.875 -10.590  1.00  0.00     0.006 C 
BRANCH   5   6
ATOM      6  C   UNL     1     143.100  36.992 -12.113  1.00  0.00     0.053 C 
BRANCH   6   7
ATOM      7  C   UNL     1     141.992  37.782 -12.739  1.00  0.00     0.041 C 
ATOM      8  O   UNL     1     141.137  38.358 -12.016  1.00  0.00    -0.550 OA
ATOM      9  O   UNL     1     141.885  37.854 -14.122  1.00  0.00    -0.550 OA
ENDBRANCH   6   7
ENDBRANCH   5   6
ENDBRANCH   4   5
ENDBRANCH   3   4
ENDBRANCH   2   3
ENDBRANCH   1   2
BRANCH   1  10
ATOM     10  C   UNL     1     145.738  40.495 -11.733  1.00  0.00     0.000 C 
BRANCH  10  11
ATOM     11  C   UNL     1     146.064  39.236 -12.557  1.00  0.00    -0.000 C 
BRANCH  11  12
ATOM     12  C   UNL     1     146.957  38.218 -11.815  1.00  0.00    -0.000 C 
BRANCH  12  13
ATOM     13  C   UNL     1     147.766  38.860 -10.676  1.00  0.00    -0.000 C 
BRANCH  13  14
ATOM     14  C   UNL     1     147.516  38.189  -9.315  1.00  0.00    -0.000 C 
BRANCH  14  15
ATOM     15  C   UNL     1     147.629  39.159  -8.120  1.00  0.00    -0.003 C 
ATOM     16  C   UNL     1     147.808  40.611  -8.565  1.00  0.00     0.004 C 
ENDBRANCH  14  15
ENDBRANCH  13  14
ENDBRANCH  12  13
ENDBRANCH  11  12
ENDBRANCH  10  11
ENDBRANCH   1  10
TORSDOF 12
ENDMDL
MODEL 9
REMARK VINA RESULT:    -0.983     15.308     16.898
REMARK INTER + INTRA:          -3.964
REMARK INTER:                  -2.102
REMARK INTRA:                  -1.862
REMARK UNBOUND:                -2.290
REMARK SMILES CCCCCCCCCCCCCC(=O)[O-]
REMARK SMILES IDX 8 1 9 2 10 3 11 4 12 5 13 6 14 7 15 8 16 9 7 10 6 11 5 12
REMARK SMILES IDX 4 13 3 14 2 15 1 16
REMARK H PARENT
REMARK Flexibility Score: inf
ROOT
ATOM      1  C   UNL     1     143.832  39.527  -9.904  1.00  0.00     0.000 C 
ENDROOT
BRANCH   1   2
ATOM      2  C   UNL     1     145.059  40.036 -10.682  1.00  0.00     0.000 C 
BRANCH   2   3
ATOM      3  C   UNL     1     145.884  38.903 -11.308  1.00  0.00     0.000 C 
BRANCH   3   4
ATOM      4  C   UNL     1     147.350  38.978 -10.855  1.00  0.00     0.000 C 
BRANCH   4   5
ATOM      5  C   UNL     1     147.672  38.003  -9.706  1.00  0.00     0.006 C 
BRANCH   5   6
ATOM      6  C   UNL     1     147.732  38.659  -8.318  1.00  0.00     0.053 C 
BRANCH   6   7
ATOM      7  C   UNL     1     146.467  38.450  -7.543  1.00  0.00     0.041 C 
ATOM      8  O   UNL     1     145.906  37.323  -7.538  1.00  0.00    -0.550 OA
ATOM      9  O   UNL     1     145.892  39.509  -6.853  1.00  0.00    -0.550 OA
ENDBRANCH   6   7
ENDBRANCH   5   6
ENDBRANCH   4   5
ENDBRANCH   3   4
ENDBRANCH   2   3
ENDBRANCH   1   2
BRANCH   1  10
ATOM     10  C   UNL     1     143.493  38.039 -10.121  1.00  0.00     0.000 C 
BRANCH  10  11
ATOM     11  C   UNL     1     141.989  37.711 -10.166  1.00  0.00    -0.000 C 
BRANCH  11  12
ATOM     12  C   UNL     1     141.568  36.875 -11.393  1.00  0.00    -0.000 C 
BRANCH  12  13
ATOM     13  C   UNL     1     142.135  37.432 -12.710  1.00  0.00    -0.000 C 
BRANCH  13  14
ATOM     14  C   UNL     1     141.380  38.677 -13.205  1.00  0.00    -0.000 C 
BRANCH  14  15
ATOM     15  C   UNL     1     142.286  39.911 -13.395  1.00  0.00    -0.003 C 
ATOM     16  C   UNL     1     143.587  39.571 -14.124  1.00  0.00     0.004 C 
ENDBRANCH  14  15
ENDBRANCH  13  14
ENDBRANCH  12  13
ENDBRANCH  11  12
ENDBRANCH  10  11
ENDBRANCH   1  10
TORSDOF 12
ENDMDL
