MODEL 1
REMARK VINA RESULT:    17.058      0.000      0.000
REMARK INTER + INTRA:          29.992
REMARK INTER:                  31.019
REMARK INTRA:                  -1.027
REMARK UNBOUND:                -1.027
REMARK SMILES CCCCCCCCCCCCCCCC(=O)[O-]
REMARK SMILES IDX 9 1 10 2 11 3 12 4 13 5 14 6 15 7 16 8 17 9 18 10 8 11 7 12
REMARK SMILES IDX 6 13 5 14 4 15 3 16 2 17 1 18
REMARK H PARENT
REMARK Flexibility Score: inf
ROOT
ATOM      1  C   UNL     1     -39.469  24.978 -13.554  1.00  0.00     0.000 C 
ENDROOT
BRANCH   1   2
ATOM      2  C   UNL     1     -39.619  24.068 -12.326  1.00  0.00     0.000 C 
BRANCH   2   3
ATOM      3  C   UNL     1     -40.683  24.613 -11.366  1.00  0.00     0.000 C 
BRANCH   3   4
ATOM      4  C   UNL     1     -42.076  24.072 -11.722  1.00  0.00     0.000 C 
BRANCH   4   5
ATOM      5  C   UNL     1     -43.216  24.999 -11.264  1.00  0.00     0.000 C 
BRANCH   5   6
ATOM      6  C   UNL     1     -43.651  24.820  -9.798  1.00  0.00     0.006 C 
BRANCH   6   7
ATOM      7  C   UNL     1     -45.119  25.194  -9.558  1.00  0.00     0.053 C 
BRANCH   7   8
ATOM      8  C   UNL     1     -45.332  25.584  -8.130  1.00  0.00     0.041 C 
ATOM      9  O   UNL     1     -44.425  25.392  -7.278  1.00  0.00    -0.550 OA
ATOM     10  O   UNL     1     -46.515  26.207  -7.748  1.00  0.00    -0.550 OA
ENDBRANCH   7   8
ENDBRANCH   6   7
ENDBRANCH   5   6
ENDBRANCH   4   5
ENDBRANCH   3   4
ENDBRANCH   2   3
ENDBRANCH   1   2
BRANCH   1  11
ATOM     11  C   UNL     1     -39.964  24.315 -14.850  1.00  0.00     0.000 C 
BRANCH  11  12
ATOM     12  C   UNL     1     -41.307  24.892 -15.332  1.00  0.00    -0.000 C 
BRANCH  12  13
ATOM     13  C   UNL     1     -42.431  23.841 -15.374  1.00  0.00    -0.000 C 
BRANCH  13  14
ATOM     14  C   UNL     1     -42.315  22.783 -16.492  1.00  0.00    -0.000 C 
BRANCH  14  15
ATOM     15  C   UNL     1     -41.550  23.239 -17.751  1.00  0.00    -0.000 C 
BRANCH  15  16
ATOM     16  C   UNL     1     -40.505  22.215 -18.252  1.00  0.00    -0.000 C 
BRANCH  16  17
ATOM     17  C   UNL     1     -39.144  22.845 -18.591  1.00  0.00    -0.003 C 
ATOM     18  C   UNL     1     -38.089  21.808 -18.970  1.00  0.00     0.004 C 
ENDBRANCH  16  17
ENDBRANCH  15  16
ENDBRANCH  14  15
ENDBRANCH  13  14
ENDBRANCH  12  13
ENDBRANCH  11  12
ENDBRANCH   1  11
TORSDOF 14
ENDMDL
MODEL 2
REMARK VINA RESULT:    18.807      5.855      9.487
REMARK INTER + INTRA:          33.172
REMARK INTER:                  34.052
REMARK INTRA:                  -0.879
REMARK UNBOUND:                -1.027
REMARK SMILES CCCCCCCCCCCCCCCC(=O)[O-]
REMARK SMILES IDX 9 1 10 2 11 3 12 4 13 5 14 6 15 7 16 8 17 9 18 10 8 11 7 12
REMARK SMILES IDX 6 13 5 14 4 15 3 16 2 17 1 18
REMARK H PARENT
REMARK Flexibility Score: inf
ROOT
ATOM      1  C   UNL     1     -40.759  22.976 -17.862  1.00  0.00     0.000 C 
ENDROOT
BRANCH   1   2
ATOM      2  C   UNL     1     -40.416  21.593 -18.436  1.00  0.00     0.000 C 
BRANCH   2   3
ATOM      3  C   UNL     1     -38.955  21.537 -18.897  1.00  0.00     0.000 C 
BRANCH   3   4
ATOM      4  C   UNL     1     -38.280  22.909 -18.755  1.00  0.00     0.000 C 
BRANCH   4   5
ATOM      5  C   UNL     1     -37.532  23.345 -20.029  1.00  0.00     0.000 C 
BRANCH   5   6
ATOM      6  C   UNL     1     -38.224  24.454 -20.842  1.00  0.00     0.006 C 
BRANCH   6   7
ATOM      7  C   UNL     1     -37.315  25.661 -21.104  1.00  0.00     0.053 C 
BRANCH   7   8
ATOM      8  C   UNL     1     -38.043  26.700 -21.896  1.00  0.00     0.041 C 
ATOM      9  O   UNL     1     -37.654  27.898 -21.879  1.00  0.00    -0.550 OA
ATOM     10  O   UNL     1     -39.122  26.338 -22.694  1.00  0.00    -0.550 OA
ENDBRANCH   7   8
ENDBRANCH   6   7
ENDBRANCH   5   6
ENDBRANCH   4   5
ENDBRANCH   3   4
ENDBRANCH   2   3
ENDBRANCH   1   2
BRANCH   1  11
ATOM     11  C   UNL     1     -42.081  22.983 -17.077  1.00  0.00     0.000 C 
BRANCH  11  12
ATOM     12  C   UNL     1     -42.047  23.941 -15.873  1.00  0.00    -0.000 C 
BRANCH  12  13
ATOM     13  C   UNL     1     -42.954  23.483 -14.717  1.00  0.00    -0.000 C 
BRANCH  13  14
ATOM     14  C   UNL     1     -42.226  23.062 -13.422  1.00  0.00    -0.000 C 
BRANCH  14  15
ATOM     15  C   UNL     1     -42.018  24.188 -12.390  1.00  0.00    -0.000 C 
BRANCH  15  16
ATOM     16  C   UNL     1     -40.556  24.333 -11.909  1.00  0.00    -0.000 C 
BRANCH  16  17
ATOM     17  C   UNL     1     -39.539  24.421 -13.060  1.00  0.00    -0.003 C 
ATOM     18  C   UNL     1     -38.287  23.584 -12.809  1.00  0.00     0.004 C 
ENDBRANCH  16  17
ENDBRANCH  15  16
ENDBRANCH  14  15
ENDBRANCH  13  14
ENDBRANCH  12  13
ENDBRANCH  11  12
ENDBRANCH   1  11
TORSDOF 14
ENDMDL
MODEL 3
REMARK VINA RESULT:    18.935      3.957      6.096
REMARK INTER + INTRA:          33.404
REMARK INTER:                  33.811
REMARK INTRA:                  -0.407
REMARK UNBOUND:                -1.027
REMARK SMILES CCCCCCCCCCCCCCCC(=O)[O-]
REMARK SMILES IDX 9 1 10 2 11 3 12 4 13 5 14 6 15 7 16 8 17 9 18 10 8 11 7 12
REMARK SMILES IDX 6 13 5 14 4 15 3 16 2 17 1 18
REMARK H PARENT
REMARK Flexibility Score: inf
ROOT
ATOM      1  C   UNL     1     -40.875  21.993 -18.324  1.00  0.00     0.000 C 
ENDROOT
BRANCH   1   2
ATOM      2  C   UNL     1     -42.144  22.589 -17.695  1.00  0.00     0.000 C 
BRANCH   2   3
ATOM      3  C   UNL     1     -41.792  23.557 -16.560  1.00  0.00     0.000 C 
BRANCH   3   4
ATOM      4  C   UNL     1     -42.643  23.278 -15.313  1.00  0.00     0.000 C 
BRANCH   4   5
ATOM      5  C   UNL     1     -42.390  24.284 -14.175  1.00  0.00     0.000 C 
BRANCH   5   6
ATOM      6  C   UNL     1     -41.897  23.662 -12.855  1.00  0.00     0.006 C 
BRANCH   6   7
ATOM      7  C   UNL     1     -40.750  24.452 -12.213  1.00  0.00     0.053 C 
BRANCH   7   8
ATOM      8  C   UNL     1     -39.487  24.265 -12.991  1.00  0.00     0.041 C 
ATOM      9  O   UNL     1     -38.516  23.644 -12.485  1.00  0.00    -0.550 OA
ATOM     10  O   UNL     1     -39.399  24.734 -14.297  1.00  0.00    -0.550 OA
ENDBRANCH   7   8
ENDBRANCH   6   7
ENDBRANCH   5   6
ENDBRANCH   4   5
ENDBRANCH   3   4
ENDBRANCH   2   3
ENDBRANCH   1   2
BRANCH   1  11
ATOM     11  C   UNL     1     -39.703  22.987 -18.354  1.00  0.00     0.000 C 
BRANCH  11  12
ATOM     12  C   UNL     1     -38.367  22.311 -18.708  1.00  0.00    -0.000 C 
BRANCH  12  13
ATOM     13  C   UNL     1     -37.488  23.170 -19.637  1.00  0.00    -0.000 C 
BRANCH  13  14
ATOM     14  C   UNL     1     -38.229  24.268 -20.430  1.00  0.00    -0.000 C 
BRANCH  14  15
ATOM     15  C   UNL     1     -37.334  25.396 -20.982  1.00  0.00    -0.000 C 
BRANCH  15  16
ATOM     16  C   UNL     1     -38.086  26.410 -21.874  1.00  0.00    -0.000 C 
BRANCH  16  17
ATOM     17  C   UNL     1     -37.479  27.822 -21.843  1.00  0.00    -0.003 C 
ATOM     18  C   UNL     1     -38.536  28.921 -21.749  1.00  0.00     0.004 C 
ENDBRANCH  16  17
ENDBRANCH  15  16
ENDBRANCH  14  15
ENDBRANCH  13  14
ENDBRANCH  12  13
ENDBRANCH  11  12
ENDBRANCH   1  11
TORSDOF 14
ENDMDL
MODEL 4
REMARK VINA RESULT:    19.250      5.895      9.653
REMARK INTER + INTRA:          33.978
REMARK INTER:                  34.549
REMARK INTRA:                  -0.572
REMARK UNBOUND:                -1.027
REMARK SMILES CCCCCCCCCCCCCCCC(=O)[O-]
REMARK SMILES IDX 9 1 10 2 11 3 12 4 13 5 14 6 15 7 16 8 17 9 18 10 8 11 7 12
REMARK SMILES IDX 6 13 5 14 4 15 3 16 2 17 1 18
REMARK H PARENT
REMARK Flexibility Score: inf
ROOT
ATOM      1  C   UNL     1     -39.711  23.116 -18.244  1.00  0.00     0.000 C 
ENDROOT
BRANCH   1   2
ATOM      2  C   UNL     1     -38.565  22.397 -18.971  1.00  0.00     0.000 C 
BRANCH   2   3
ATOM      3  C   UNL     1     -37.622  23.403 -19.640  1.00  0.00     0.000 C 
BRANCH   3   4
ATOM      4  C   UNL     1     -38.360  24.222 -20.709  1.00  0.00     0.000 C 
BRANCH   4   5
ATOM      5  C   UNL     1     -37.688  25.577 -20.999  1.00  0.00     0.000 C 
BRANCH   5   6
ATOM      6  C   UNL     1     -38.434  26.471 -22.006  1.00  0.00     0.006 C 
BRANCH   6   7
ATOM      7  C   UNL     1     -37.768  27.839 -22.201  1.00  0.00     0.053 C 
BRANCH   7   8
ATOM      8  C   UNL     1     -38.547  28.905 -21.499  1.00  0.00     0.041 C 
ATOM      9  O   UNL     1     -39.770  29.068 -21.753  1.00  0.00    -0.550 OA
ATOM     10  O   UNL     1     -37.937  29.686 -20.525  1.00  0.00    -0.550 OA
ENDBRANCH   7   8
ENDBRANCH   6   7
ENDBRANCH   5   6
ENDBRANCH   4   5
ENDBRANCH   3   4
ENDBRANCH   2   3
ENDBRANCH   1   2
BRANCH   1  11
ATOM     11  C   UNL     1     -40.991  22.268 -18.168  1.00  0.00     0.000 C 
BRANCH  11  12
ATOM     12  C   UNL     1     -42.043  22.874 -17.222  1.00  0.00    -0.000 C 
BRANCH  12  13
ATOM     13  C   UNL     1     -41.461  23.952 -16.288  1.00  0.00    -0.000 C 
BRANCH  13  14
ATOM     14  C   UNL     1     -42.303  24.278 -15.037  1.00  0.00    -0.000 C 
BRANCH  14  15
ATOM     15  C   UNL     1     -42.070  23.351 -13.827  1.00  0.00    -0.000 C 
BRANCH  15  16
ATOM     16  C   UNL     1     -41.962  24.098 -12.479  1.00  0.00    -0.000 C 
BRANCH  16  17
ATOM     17  C   UNL     1     -40.514  24.293 -12.000  1.00  0.00    -0.003 C 
ATOM     18  C   UNL     1     -39.506  24.299 -13.148  1.00  0.00     0.004 C 
ENDBRANCH  16  17
ENDBRANCH  15  16
ENDBRANCH  14  15
ENDBRANCH  13  14
ENDBRANCH  12  13
ENDBRANCH  11  12
ENDBRANCH   1  11
TORSDOF 14
ENDMDL
MODEL 5
REMARK VINA RESULT:    19.318      7.362     10.159
REMARK INTER + INTRA:          34.102
REMARK INTER:                  34.712
REMARK INTRA:                  -0.610
REMARK UNBOUND:                -1.027
REMARK SMILES CCCCCCCCCCCCCCCC(=O)[O-]
REMARK SMILES IDX 9 1 10 2 11 3 12 4 13 5 14 6 15 7 16 8 17 9 18 10 8 11 7 12
REMARK SMILES IDX 6 13 5 14 4 15 3 16 2 17 1 18
REMARK H PARENT
REMARK Flexibility Score: inf
ROOT
ATOM      1  C   UNL     1     -37.411  27.301 -21.449  1.00  0.00     0.000 C 
ENDROOT
BRANCH   1   2
ATOM      2  C   UNL     1     -38.374  28.339 -22.045  1.00  0.00     0.000 C 
BRANCH   2   3
ATOM      3  C   UNL     1     -38.516  29.552 -21.118  1.00  0.00     0.000 C 
BRANCH   3   4
ATOM      4  C   UNL     1     -39.984  29.777 -20.726  1.00  0.00     0.000 C 
BRANCH   4   5
ATOM      5  C   UNL     1     -40.969  29.424 -21.855  1.00  0.00     0.000 C 
BRANCH   5   6
ATOM      6  C   UNL     1     -41.698  30.627 -22.481  1.00  0.00     0.006 C 
BRANCH   6   7
ATOM      7  C   UNL     1     -43.224  30.472 -22.476  1.00  0.00     0.053 C 
BRANCH   7   8
ATOM      8  C   UNL     1     -43.859  31.587 -21.707  1.00  0.00     0.041 C 
ATOM      9  O   UNL     1     -43.718  31.657 -20.458  1.00  0.00    -0.550 OA
ATOM     10  O   UNL     1     -44.566  32.579 -22.377  1.00  0.00    -0.550 OA
ENDBRANCH   7   8
ENDBRANCH   6   7
ENDBRANCH   5   6
ENDBRANCH   4   5
ENDBRANCH   3   4
ENDBRANCH   2   3
ENDBRANCH   1   2
BRANCH   1  11
ATOM     11  C   UNL     1     -37.917  25.859 -21.611  1.00  0.00     0.000 C 
BRANCH  11  12
ATOM     12  C   UNL     1     -37.419  24.931 -20.489  1.00  0.00    -0.000 C 
BRANCH  12  13
ATOM     13  C   UNL     1     -38.264  23.651 -20.350  1.00  0.00    -0.000 C 
BRANCH  13  14
ATOM     14  C   UNL     1     -37.960  22.780 -19.112  1.00  0.00    -0.000 C 
BRANCH  14  15
ATOM     15  C   UNL     1     -39.191  22.134 -18.445  1.00  0.00    -0.000 C 
BRANCH  15  16
ATOM     16  C   UNL     1     -40.464  23.009 -18.504  1.00  0.00    -0.000 C 
BRANCH  16  17
ATOM     17  C   UNL     1     -41.577  22.536 -17.555  1.00  0.00    -0.003 C 
ATOM     18  C   UNL     1     -41.960  23.590 -16.518  1.00  0.00     0.004 C 
ENDBRANCH  16  17
ENDBRANCH  15  16
ENDBRANCH  14  15
ENDBRANCH  13  14
ENDBRANCH  12  13
ENDBRANCH  11  12
ENDBRANCH   1  11
TORSDOF 14
ENDMDL
MODEL 6
REMARK VINA RESULT:    19.370      4.143      6.536
REMARK INTER + INTRA:          34.196
REMARK INTER:                  34.843
REMARK INTRA:                  -0.647
REMARK UNBOUND:                -1.027
REMARK SMILES CCCCCCCCCCCCCCCC(=O)[O-]
REMARK SMILES IDX 9 1 10 2 11 3 12 4 13 5 14 6 15 7 16 8 17 9 18 10 8 11 7 12
REMARK SMILES IDX 6 13 5 14 4 15 3 16 2 17 1 18
REMARK H PARENT
REMARK Flexibility Score: inf
ROOT
ATOM      1  C   UNL     1     -38.782  22.119 -18.746  1.00  0.00     0.000 C 
ENDROOT
BRANCH   1   2
ATOM      2  C   UNL     1     -39.862  22.997 -18.097  1.00  0.00     0.000 C 
BRANCH   2   3
ATOM      3  C   UNL     1     -41.240  22.330 -18.188  1.00  0.00     0.000 C 
BRANCH   3   4
ATOM      4  C   UNL     1     -42.173  22.839 -17.080  1.00  0.00     0.000 C 
BRANCH   4   5
ATOM      5  C   UNL     1     -41.494  23.853 -16.141  1.00  0.00     0.000 C 
BRANCH   5   6
ATOM      6  C   UNL     1     -42.368  24.340 -14.971  1.00  0.00     0.006 C 
BRANCH   6   7
ATOM      7  C   UNL     1     -42.344  23.388 -13.768  1.00  0.00     0.053 C 
BRANCH   7   8
ATOM      8  C   UNL     1     -41.671  24.038 -12.601  1.00  0.00     0.041 C 
ATOM      9  O   UNL     1     -40.427  24.230 -12.612  1.00  0.00    -0.550 OA
ATOM     10  O   UNL     1     -42.426  24.479 -11.520  1.00  0.00    -0.550 OA
ENDBRANCH   7   8
ENDBRANCH   6   7
ENDBRANCH   5   6
ENDBRANCH   4   5
ENDBRANCH   3   4
ENDBRANCH   2   3
ENDBRANCH   1   2
BRANCH   1  11
ATOM     11  C   UNL     1     -37.784  22.928 -19.589  1.00  0.00     0.000 C 
BRANCH  11  12
ATOM     12  C   UNL     1     -38.388  24.241 -20.117  1.00  0.00    -0.000 C 
BRANCH  12  13
ATOM     13  C   UNL     1     -37.395  25.062 -20.960  1.00  0.00    -0.000 C 
BRANCH  13  14
ATOM     14  C   UNL     1     -38.010  26.215 -21.783  1.00  0.00    -0.000 C 
BRANCH  14  15
ATOM     15  C   UNL     1     -37.375  27.600 -21.547  1.00  0.00    -0.000 C 
BRANCH  15  16
ATOM     16  C   UNL     1     -38.203  28.773 -22.120  1.00  0.00    -0.000 C 
BRANCH  16  17
ATOM     17  C   UNL     1     -38.941  29.585 -21.043  1.00  0.00    -0.003 C 
ATOM     18  C   UNL     1     -40.447  29.662 -21.285  1.00  0.00     0.004 C 
ENDBRANCH  16  17
ENDBRANCH  15  16
ENDBRANCH  14  15
ENDBRANCH  13  14
ENDBRANCH  12  13
ENDBRANCH  11  12
ENDBRANCH   1  11
TORSDOF 14
ENDMDL
MODEL 7
REMARK VINA RESULT:    19.875      4.719      9.010
REMARK INTER + INTRA:          35.115
REMARK INTER:                  35.624
REMARK INTRA:                  -0.509
REMARK UNBOUND:                -1.027
REMARK SMILES CCCCCCCCCCCCCCCC(=O)[O-]
REMARK SMILES IDX 9 1 10 2 11 3 12 4 13 5 14 6 15 7 16 8 17 9 18 10 8 11 7 12
REMARK SMILES IDX 6 13 5 14 4 15 3 16 2 17 1 18
REMARK H PARENT
REMARK Flexibility Score: inf
ROOT
ATOM      1  C   UNL     1     -39.845  24.115 -14.452  1.00  0.00     0.000 C 
ENDROOT
BRANCH   1   2
ATOM      2  C   UNL     1     -41.144  24.538 -15.155  1.00  0.00     0.000 C 
BRANCH   2   3
ATOM      3  C   UNL     1     -42.246  23.492 -14.948  1.00  0.00     0.000 C 
BRANCH   3   4
ATOM      4  C   UNL     1     -42.583  22.778 -16.265  1.00  0.00     0.000 C 
BRANCH   4   5
ATOM      5  C   UNL     1     -41.860  23.387 -17.481  1.00  0.00     0.000 C 
BRANCH   5   6
ATOM      6  C   UNL     1     -40.885  22.437 -18.199  1.00  0.00     0.006 C 
BRANCH   6   7
ATOM      7  C   UNL     1     -39.567  23.117 -18.593  1.00  0.00     0.053 C 
BRANCH   7   8
ATOM      8  C   UNL     1     -38.542  22.094 -18.965  1.00  0.00     0.041 C 
ATOM      9  O   UNL     1     -38.744  20.875 -18.718  1.00  0.00    -0.550 OA
ATOM     10  O   UNL     1     -37.384  22.479 -19.631  1.00  0.00    -0.550 OA
ENDBRANCH   7   8
ENDBRANCH   6   7
ENDBRANCH   5   6
ENDBRANCH   4   5
ENDBRANCH   3   4
ENDBRANCH   2   3
ENDBRANCH   1   2
BRANCH   1  11
ATOM     11  C   UNL     1     -39.558  24.939 -13.187  1.00  0.00     0.000 C 
BRANCH  11  12
ATOM     12  C   UNL     1     -40.105  24.272 -11.913  1.00  0.00    -0.000 C 
BRANCH  12  13
ATOM     13  C   UNL     1     -41.644  24.278 -11.847  1.00  0.00    -0.000 C 
BRANCH  13  14
ATOM     14  C   UNL     1     -42.252  24.667 -10.482  1.00  0.00    -0.000 C 
BRANCH  14  15
ATOM     15  C   UNL     1     -43.762  24.389 -10.333  1.00  0.00    -0.000 C 
BRANCH  15  16
ATOM     16  C   UNL     1     -44.586  25.627  -9.914  1.00  0.00    -0.000 C 
BRANCH  16  17
ATOM     17  C   UNL     1     -45.503  25.373  -8.706  1.00  0.00    -0.003 C 
ATOM     18  C   UNL     1     -44.834  25.704  -7.374  1.00  0.00     0.004 C 
ENDBRANCH  16  17
ENDBRANCH  15  16
ENDBRANCH  14  15
ENDBRANCH  13  14
ENDBRANCH  12  13
ENDBRANCH  11  12
ENDBRANCH   1  11
TORSDOF 14
ENDMDL
