MODEL 1
REMARK VINA RESULT:    20.294      0.000      0.000
REMARK INTER + INTRA:          21.801
REMARK INTER:                  22.073
REMARK INTRA:                  -0.273
REMARK UNBOUND:                -0.273
REMARK SMILES C[C@H]1[C@H](C)CC[C@]2(C(=O)[O-])CC[C@]3(C)C(=CC[C@@H]4[C@@]5(C)CC[C@H](O)C(C)(C)[C@@H]5CC[C@@]43C)[C@H]12
REMARK SMILES IDX 7 1 6 2 11 3 33 4 5 5 12 6 15 7 2 8 3 9 13 10 16 11 1 12
REMARK SMILES IDX 4 13 14 14 31 15 17 16 18 17 30 18 32 19 19 20 29 21 28 22
REMARK SMILES IDX 21 23 20 24 25 25 22 26 23 27 26 28 27 29 8 30 9 31 10 32
REMARK SMILES IDX 24 33
REMARK H PARENT 24 34
REMARK Flexibility Score: inf
ROOT
ATOM      1  C   UNL     1      11.321  21.783   9.165  1.00  0.00     0.017 C 
ATOM      2  C   UNL     1      11.837  23.125   9.766  1.00  0.00     0.014 C 
ATOM      3  C   UNL     1       9.931  22.047   8.505  1.00  0.00     0.014 C 
ATOM      4  C   UNL     1      11.279  20.660  10.283  1.00  0.00     0.030 C 
ATOM      5  C   UNL     1      13.024  22.890  10.698  1.00  0.00     0.004 C 
ATOM      6  C   UNL     1       8.734  21.701   9.403  1.00  0.00     0.013 C 
ATOM      7  C   UNL     1      10.105  19.692  10.059  1.00  0.00    -0.063 C 
ATOM      8  C   UNL     1      11.340  21.216  11.746  1.00  0.00    -0.003 C 
ATOM      9  C   UNL     1      12.594  22.127  11.973  1.00  0.00    -0.011 C 
ATOM     10  C   UNL     1       8.676  20.200   9.876  1.00  0.00    -0.006 C 
ATOM     11  C   UNL     1      10.337  18.373  10.118  1.00  0.00    -0.027 C 
ATOM     12  C   UNL     1      11.341  20.070  12.782  1.00  0.00     0.008 C 
ATOM     13  C   UNL     1      12.352  23.125  13.122  1.00  0.00     0.008 C 
ATOM     14  C   UNL     1       8.029  20.162  11.304  1.00  0.00     0.017 C 
ATOM     15  C   UNL     1       7.844  19.252   8.866  1.00  0.00    -0.020 C 
ATOM     16  C   UNL     1       9.368  17.323   9.664  1.00  0.00     0.032 C 
ATOM     17  C   UNL     1       7.881  17.747   9.383  1.00  0.00     0.006 C 
ATOM     18  C   UNL     1       8.469  19.245   7.419  1.00  0.00     0.008 C 
ATOM     19  C   UNL     1       6.366  19.805   8.786  1.00  0.00     0.012 C 
ATOM     20  C   UNL     1       7.092  16.669   8.450  1.00  0.00    -0.025 C 
ATOM     21  C   UNL     1       8.123  18.019   6.525  1.00  0.00     0.005 C 
ATOM     22  C   UNL     1       6.868  17.265   7.011  1.00  0.00     0.003 C 
ATOM     23  C   UNL     1       5.686  16.301   9.062  1.00  0.00     0.010 C 
ATOM     24  C   UNL     1       7.877  15.316   8.377  1.00  0.00     0.012 C 
ATOM     25  C   UNL     1       6.126  16.334   5.966  1.00  0.00    -0.006 C 
ATOM     26  C   UNL     1       4.540  16.144   8.031  1.00  0.00     0.033 C 
ATOM     27  C   UNL     1       4.967  15.521   6.682  1.00  0.00     0.120 C 
ATOM     28  C   UNL     1       7.102  15.406   5.193  1.00  0.00     0.014 C 
ATOM     29  C   UNL     1       5.451  17.231   4.885  1.00  0.00     0.014 C 
ENDROOT
BRANCH   1  30
ATOM     30  C   UNL     1      12.261  21.330   8.046  1.00  0.00     0.048 C 
ATOM     31  O   UNL     1      12.361  22.012   6.990  1.00  0.00    -0.550 OA
ATOM     32  O   UNL     1      13.083  20.218   8.199  1.00  0.00    -0.550 OA
ENDBRANCH   1  30
BRANCH  27  33
ATOM     33  O   UNL     1       5.286  14.167   6.881  1.00  0.00    -0.393 OA
ATOM     34  H   UNL     1       4.594  13.782   7.480  1.00  0.00     0.210 HD
ENDBRANCH  27  33
TORSDOF 2
ENDMDL
