MODEL 1
REMARK VINA RESULT:     4.149      0.000      0.000
REMARK INTER + INTRA:           4.229
REMARK INTER:                   4.513
REMARK INTRA:                  -0.284
REMARK UNBOUND:                -0.284
REMARK SMILES C[C@H]1[C@H]2C3=CC[C@@H]4[C@@]5(C)CC[C@H](O)C(C)(C)[C@@H]5CC[C@]4(C)[C@@]3(C)CC[C@@]2(C(=O)[O-])CC[C@@H]1C
REMARK SMILES IDX 26 1 30 2 25 3 3 4 31 5 24 6 4 7 2 8 32 9 22 10 5 11 1 12
REMARK SMILES IDX 33 13 23 14 20 15 6 16 7 17 19 18 21 19 8 20 18 21 17 22
REMARK SMILES IDX 10 23 9 24 14 25 11 26 12 27 15 28 16 29 27 30 28 31 29 32
REMARK SMILES IDX 13 33
REMARK H PARENT 13 34
REMARK Flexibility Score: inf
ROOT
ATOM      1  C   UNL     1      -8.683  11.386   0.516  1.00  0.00     0.017 C 
ATOM      2  C   UNL     1      -7.692  10.261   0.072  1.00  0.00     0.014 C 
ATOM      3  C   UNL     1      -9.366  11.996  -0.765  1.00  0.00     0.014 C 
ATOM      4  C   UNL     1      -7.919  12.466   1.408  1.00  0.00     0.030 C 
ATOM      5  C   UNL     1      -6.731   9.875   1.197  1.00  0.00     0.004 C 
ATOM      6  C   UNL     1      -9.220  13.513  -0.946  1.00  0.00     0.013 C 
ATOM      7  C   UNL     1      -8.532  13.882   1.405  1.00  0.00    -0.063 C 
ATOM      8  C   UNL     1      -6.357  12.454   1.274  1.00  0.00    -0.003 C 
ATOM      9  C   UNL     1      -5.758  11.026   1.534  1.00  0.00    -0.011 C 
ATOM     10  C   UNL     1      -9.527  14.345   0.335  1.00  0.00    -0.006 C 
ATOM     11  C   UNL     1      -8.306  14.672   2.471  1.00  0.00    -0.027 C 
ATOM     12  C   UNL     1      -5.821  13.049  -0.040  1.00  0.00     0.008 C 
ATOM     13  C   UNL     1      -5.272  10.887   2.983  1.00  0.00     0.008 C 
ATOM     14  C   UNL     1     -10.962  13.975   0.816  1.00  0.00     0.017 C 
ATOM     15  C   UNL     1      -9.404  15.945   0.066  1.00  0.00    -0.020 C 
ATOM     16  C   UNL     1      -9.093  15.924   2.702  1.00  0.00     0.032 C 
ATOM     17  C   UNL     1      -9.206  16.785   1.418  1.00  0.00     0.006 C 
ATOM     18  C   UNL     1     -10.647  16.478  -0.715  1.00  0.00     0.008 C 
ATOM     19  C   UNL     1      -8.168  16.234  -0.849  1.00  0.00     0.012 C 
ATOM     20  C   UNL     1     -10.115  18.091   1.586  1.00  0.00    -0.025 C 
ATOM     21  C   UNL     1     -10.643  17.998  -0.973  1.00  0.00     0.005 C 
ATOM     22  C   UNL     1     -10.099  18.858   0.212  1.00  0.00     0.003 C 
ATOM     23  C   UNL     1      -9.453  18.997   2.681  1.00  0.00     0.010 C 
ATOM     24  C   UNL     1     -11.580  17.751   2.021  1.00  0.00     0.012 C 
ATOM     25  C   UNL     1     -10.627  20.352   0.230  1.00  0.00    -0.006 C 
ATOM     26  C   UNL     1      -9.982  20.434   2.728  1.00  0.00     0.033 C 
ATOM     27  C   UNL     1      -9.866  21.124   1.356  1.00  0.00     0.120 C 
ATOM     28  C   UNL     1     -12.166  20.484   0.426  1.00  0.00     0.014 C 
ATOM     29  C   UNL     1     -10.280  21.023  -1.125  1.00  0.00     0.014 C 
ENDROOT
BRANCH   1  30
ATOM     30  C   UNL     1      -9.784  10.685   1.332  1.00  0.00     0.048 C 
ATOM     31  O   UNL     1     -10.655   9.986   0.743  1.00  0.00    -0.550 OA
ATOM     32  O   UNL     1      -9.866  10.801   2.717  1.00  0.00    -0.550 OA
ENDBRANCH   1  30
BRANCH  27  33
ATOM     33  O   UNL     1     -10.262  22.472   1.437  1.00  0.00    -0.393 OA
ATOM     34  H   UNL     1      -9.452  23.026   1.595  1.00  0.00     0.210 HD
ENDBRANCH  27  33
TORSDOF 2
ENDMDL
MODEL 2
REMARK VINA RESULT:     5.746      5.401      9.112
REMARK INTER + INTRA:           5.967
REMARK INTER:                   6.198
REMARK INTRA:                  -0.231
REMARK UNBOUND:                -0.284
REMARK SMILES C[C@H]1[C@H]2C3=CC[C@@H]4[C@@]5(C)CC[C@H](O)C(C)(C)[C@@H]5CC[C@]4(C)[C@@]3(C)CC[C@@]2(C(=O)[O-])CC[C@@H]1C
REMARK SMILES IDX 26 1 30 2 25 3 3 4 31 5 24 6 4 7 2 8 32 9 22 10 5 11 1 12
REMARK SMILES IDX 33 13 23 14 20 15 6 16 7 17 19 18 21 19 8 20 18 21 17 22
REMARK SMILES IDX 10 23 9 24 14 25 11 26 12 27 15 28 16 29 27 30 28 31 29 32
REMARK SMILES IDX 13 33
REMARK H PARENT 13 34
REMARK Flexibility Score: inf
ROOT
ATOM      1  C   UNL     1      -8.038  20.678   9.433  1.00  0.00     0.017 C 
ATOM      2  C   UNL     1      -7.636  20.347  10.907  1.00  0.00     0.014 C 
ATOM      3  C   UNL     1      -9.405  19.967   9.107  1.00  0.00     0.014 C 
ATOM      4  C   UNL     1      -6.855  20.275   8.441  1.00  0.00     0.030 C 
ATOM      5  C   UNL     1      -6.171  20.685  11.185  1.00  0.00     0.004 C 
ATOM      6  C   UNL     1      -9.401  19.031   7.890  1.00  0.00     0.013 C 
ATOM      7  C   UNL     1      -7.284  19.952   6.994  1.00  0.00    -0.063 C 
ATOM      8  C   UNL     1      -5.810  19.265   9.029  1.00  0.00    -0.003 C 
ATOM      9  C   UNL     1      -5.216  19.766  10.392  1.00  0.00    -0.011 C 
ATOM     10  C   UNL     1      -8.736  19.633   6.618  1.00  0.00    -0.006 C 
ATOM     11  C   UNL     1      -6.378  20.120   6.013  1.00  0.00    -0.027 C 
ATOM     12  C   UNL     1      -6.311  17.814   9.141  1.00  0.00     0.008 C 
ATOM     13  C   UNL     1      -3.870  20.474  10.182  1.00  0.00     0.008 C 
ATOM     14  C   UNL     1      -9.456  20.975   6.288  1.00  0.00     0.017 C 
ATOM     15  C   UNL     1      -8.808  18.614   5.351  1.00  0.00    -0.020 C 
ATOM     16  C   UNL     1      -6.775  20.132   4.570  1.00  0.00     0.032 C 
ATOM     17  C   UNL     1      -7.726  18.958   4.219  1.00  0.00     0.006 C 
ATOM     18  C   UNL     1     -10.241  18.594   4.730  1.00  0.00     0.008 C 
ATOM     19  C   UNL     1      -8.531  17.151   5.834  1.00  0.00     0.012 C 
ATOM     20  C   UNL     1      -8.254  18.976   2.709  1.00  0.00    -0.025 C 
ATOM     21  C   UNL     1     -10.393  17.691   3.490  1.00  0.00     0.005 C 
ATOM     22  C   UNL     1      -9.173  17.713   2.515  1.00  0.00     0.003 C 
ATOM     23  C   UNL     1      -7.009  18.847   1.765  1.00  0.00     0.010 C 
ATOM     24  C   UNL     1      -9.028  20.291   2.359  1.00  0.00     0.012 C 
ATOM     25  C   UNL     1      -9.524  17.317   1.022  1.00  0.00    -0.006 C 
ATOM     26  C   UNL     1      -7.342  18.497   0.311  1.00  0.00     0.033 C 
ATOM     27  C   UNL     1      -8.187  17.214   0.218  1.00  0.00     0.120 C 
ATOM     28  C   UNL     1     -10.509  18.294   0.316  1.00  0.00     0.014 C 
ATOM     29  C   UNL     1     -10.191  15.916   1.019  1.00  0.00     0.014 C 
ENDROOT
BRANCH   1  30
ATOM     30  C   UNL     1      -8.290  22.196   9.391  1.00  0.00     0.048 C 
ATOM     31  O   UNL     1      -7.371  22.976   9.017  1.00  0.00    -0.550 OA
ATOM     32  O   UNL     1      -9.509  22.754   9.765  1.00  0.00    -0.550 OA
ENDBRANCH   1  30
BRANCH  27  33
ATOM     33  O   UNL     1      -8.402  16.850  -1.125  1.00  0.00    -0.393 OA
ATOM     34  H   UNL     1      -8.849  15.962  -1.140  1.00  0.00     0.210 HD
ENDBRANCH  27  33
TORSDOF 2
ENDMDL
MODEL 3
REMARK VINA RESULT:     5.962      1.804      2.778
REMARK INTER + INTRA:           6.201
REMARK INTER:                   6.357
REMARK INTRA:                  -0.156
REMARK UNBOUND:                -0.284
REMARK SMILES C[C@H]1[C@H]2C3=CC[C@@H]4[C@@]5(C)CC[C@H](O)C(C)(C)[C@@H]5CC[C@]4(C)[C@@]3(C)CC[C@@]2(C(=O)[O-])CC[C@@H]1C
REMARK SMILES IDX 26 1 30 2 25 3 3 4 31 5 24 6 4 7 2 8 32 9 22 10 5 11 1 12
REMARK SMILES IDX 33 13 23 14 20 15 6 16 7 17 19 18 21 19 8 20 18 21 17 22
REMARK SMILES IDX 10 23 9 24 14 25 11 26 12 27 15 28 16 29 27 30 28 31 29 32
REMARK SMILES IDX 13 33
REMARK H PARENT 13 34
REMARK Flexibility Score: inf
ROOT
ATOM      1  C   UNL     1      -7.393  11.669   2.079  1.00  0.00     0.017 C 
ATOM      2  C   UNL     1      -7.285  10.157   1.694  1.00  0.00     0.014 C 
ATOM      3  C   UNL     1      -8.851  11.957   2.602  1.00  0.00     0.014 C 
ATOM      4  C   UNL     1      -6.967  12.580   0.841  1.00  0.00     0.030 C 
ATOM      5  C   UNL     1      -6.044   9.875   0.847  1.00  0.00     0.004 C 
ATOM      6  C   UNL     1      -9.618  13.069   1.872  1.00  0.00     0.013 C 
ATOM      7  C   UNL     1      -7.578  13.996   0.818  1.00  0.00    -0.063 C 
ATOM      8  C   UNL     1      -6.989  11.860  -0.552  1.00  0.00    -0.003 C 
ATOM      9  C   UNL     1      -6.141  10.540  -0.543  1.00  0.00    -0.011 C 
ATOM     10  C   UNL     1      -8.803  14.378   1.658  1.00  0.00    -0.006 C 
ATOM     11  C   UNL     1      -6.909  14.964   0.164  1.00  0.00    -0.027 C 
ATOM     12  C   UNL     1      -8.397  11.611  -1.124  1.00  0.00     0.008 C 
ATOM     13  C   UNL     1      -4.732  10.785  -1.100  1.00  0.00     0.008 C 
ATOM     14  C   UNL     1      -8.301  14.866   3.050  1.00  0.00     0.017 C 
ATOM     15  C   UNL     1      -9.685  15.533   0.925  1.00  0.00    -0.020 C 
ATOM     16  C   UNL     1      -7.250  16.410   0.337  1.00  0.00     0.032 C 
ATOM     17  C   UNL     1      -8.777  16.664   0.242  1.00  0.00     0.006 C 
ATOM     18  C   UNL     1     -10.689  16.188   1.926  1.00  0.00     0.008 C 
ATOM     19  C   UNL     1     -10.562  14.893  -0.201  1.00  0.00     0.012 C 
ATOM     20  C   UNL     1      -9.205  18.182   0.512  1.00  0.00    -0.025 C 
ATOM     21  C   UNL     1     -11.536  17.331   1.333  1.00  0.00     0.005 C 
ATOM     22  C   UNL     1     -10.767  18.268   0.349  1.00  0.00     0.003 C 
ATOM     23  C   UNL     1      -8.529  19.072  -0.588  1.00  0.00     0.010 C 
ATOM     24  C   UNL     1      -8.760  18.689   1.925  1.00  0.00     0.012 C 
ATOM     25  C   UNL     1     -11.384  19.722   0.215  1.00  0.00    -0.006 C 
ATOM     26  C   UNL     1      -9.097  20.490  -0.701  1.00  0.00     0.033 C 
ATOM     27  C   UNL     1     -10.621  20.472  -0.924  1.00  0.00     0.120 C 
ATOM     28  C   UNL     1     -11.353  20.553   1.530  1.00  0.00     0.014 C 
ATOM     29  C   UNL     1     -12.871  19.597  -0.211  1.00  0.00     0.014 C 
ENDROOT
BRANCH   1  30
ATOM     30  C   UNL     1      -6.433  11.876   3.264  1.00  0.00     0.048 C 
ATOM     31  O   UNL     1      -5.660  12.873   3.280  1.00  0.00    -0.550 OA
ATOM     32  O   UNL     1      -6.374  10.986   4.333  1.00  0.00    -0.550 OA
ENDBRANCH   1  30
BRANCH  27  33
ATOM     33  O   UNL     1     -11.114  21.775  -1.125  1.00  0.00    -0.393 OA
ATOM     34  H   UNL     1     -11.031  22.276  -0.271  1.00  0.00     0.210 HD
ENDBRANCH  27  33
TORSDOF 2
ENDMDL
MODEL 4
REMARK VINA RESULT:     6.408      5.455      9.140
REMARK INTER + INTRA:           6.687
REMARK INTER:                   6.957
REMARK INTRA:                  -0.270
REMARK UNBOUND:                -0.284
REMARK SMILES C[C@H]1[C@H]2C3=CC[C@@H]4[C@@]5(C)CC[C@H](O)C(C)(C)[C@@H]5CC[C@]4(C)[C@@]3(C)CC[C@@]2(C(=O)[O-])CC[C@@H]1C
REMARK SMILES IDX 26 1 30 2 25 3 3 4 31 5 24 6 4 7 2 8 32 9 22 10 5 11 1 12
REMARK SMILES IDX 33 13 23 14 20 15 6 16 7 17 19 18 21 19 8 20 18 21 17 22
REMARK SMILES IDX 10 23 9 24 14 25 11 26 12 27 15 28 16 29 27 30 28 31 29 32
REMARK SMILES IDX 13 33
REMARK H PARENT 13 34
REMARK Flexibility Score: inf
ROOT
ATOM      1  C   UNL     1      -7.303  20.123   9.430  1.00  0.00     0.017 C 
ATOM      2  C   UNL     1      -7.330  21.220  10.544  1.00  0.00     0.014 C 
ATOM      3  C   UNL     1      -6.208  20.507   8.365  1.00  0.00     0.014 C 
ATOM      4  C   UNL     1      -8.761  19.938   8.810  1.00  0.00     0.030 C 
ATOM      5  C   UNL     1      -8.590  21.123  11.405  1.00  0.00     0.004 C 
ATOM      6  C   UNL     1      -6.694  20.618   6.913  1.00  0.00     0.013 C 
ATOM      7  C   UNL     1      -8.804  19.401   7.364  1.00  0.00    -0.063 C 
ATOM      8  C   UNL     1      -9.749  21.127   9.070  1.00  0.00    -0.003 C 
ATOM      9  C   UNL     1      -9.859  21.474  10.597  1.00  0.00    -0.011 C 
ATOM     10  C   UNL     1      -7.581  19.428   6.440  1.00  0.00    -0.006 C 
ATOM     11  C   UNL     1      -9.906  18.740   6.967  1.00  0.00    -0.027 C 
ATOM     12  C   UNL     1      -9.471  22.389   8.233  1.00  0.00     0.008 C 
ATOM     13  C   UNL     1     -11.081  20.796  11.231  1.00  0.00     0.008 C 
ATOM     14  C   UNL     1      -6.778  18.111   6.661  1.00  0.00     0.017 C 
ATOM     15  C   UNL     1      -8.022  19.580   4.880  1.00  0.00    -0.020 C 
ATOM     16  C   UNL     1      -9.925  17.926   5.710  1.00  0.00     0.032 C 
ATOM     17  C   UNL     1      -9.305  18.692   4.513  1.00  0.00     0.006 C 
ATOM     18  C   UNL     1      -6.837  19.223   3.927  1.00  0.00     0.008 C 
ATOM     19  C   UNL     1      -8.381  21.071   4.575  1.00  0.00     0.012 C 
ATOM     20  C   UNL     1      -9.218  17.834   3.165  1.00  0.00    -0.025 C 
ATOM     21  C   UNL     1      -7.176  19.290   2.425  1.00  0.00     0.005 C 
ATOM     22  C   UNL     1      -8.598  18.760   2.054  1.00  0.00     0.003 C 
ATOM     23  C   UNL     1     -10.679  17.447   2.747  1.00  0.00     0.010 C 
ATOM     24  C   UNL     1      -8.373  16.527   3.340  1.00  0.00     0.012 C 
ATOM     25  C   UNL     1      -8.739  18.260   0.557  1.00  0.00    -0.006 C 
ATOM     26  C   UNL     1     -10.818  16.931   1.312  1.00  0.00     0.033 C 
ATOM     27  C   UNL     1     -10.244  17.932   0.293  1.00  0.00     0.120 C 
ATOM     28  C   UNL     1      -7.845  17.035   0.206  1.00  0.00     0.014 C 
ATOM     29  C   UNL     1      -8.328  19.413  -0.396  1.00  0.00     0.014 C 
ENDROOT
BRANCH   1  30
ATOM     30  C   UNL     1      -6.836  18.828  10.119  1.00  0.00     0.048 C 
ATOM     31  O   UNL     1      -7.668  17.910  10.363  1.00  0.00    -0.550 OA
ATOM     32  O   UNL     1      -5.513  18.629  10.501  1.00  0.00    -0.550 OA
ENDBRANCH   1  30
BRANCH  27  33
ATOM     33  O   UNL     1     -10.468  17.492  -1.025  1.00  0.00    -0.393 OA
ATOM     34  H   UNL     1     -11.231  16.855  -1.016  1.00  0.00     0.210 HD
ENDBRANCH  27  33
TORSDOF 2
ENDMDL
