MODEL 1
REMARK VINA RESULT:    15.226      0.000      0.000
REMARK INTER + INTRA:          16.559
REMARK INTER:                  16.561
REMARK INTRA:                  -0.002
REMARK UNBOUND:                -0.002
REMARK SMILES C[C@@H]1[C@H](C)CC[C@@]2(C(=O)[O-])CC[C@@]3(C)C(=CC[C@H]4[C@]5(C)CC[C@@H](O)C(C)(C)[C@H]5CC[C@]43C)[C@@H]12
REMARK SMILES IDX 7 1 6 2 11 3 33 4 5 5 12 6 15 7 2 8 3 9 13 10 16 11 1 12
REMARK SMILES IDX 4 13 14 14 31 15 17 16 18 17 30 18 32 19 19 20 29 21 28 22
REMARK SMILES IDX 21 23 20 24 25 25 22 26 23 27 26 28 27 29 8 30 9 31 10 32
REMARK SMILES IDX 24 33
REMARK H PARENT 24 34
REMARK Flexibility Score: inf
ROOT
ATOM      1  C   UNL     1     -44.074  95.994  26.817  1.00  0.00     0.017 C 
ATOM      2  C   UNL     1     -43.551  94.846  27.753  1.00  0.00     0.014 C 
ATOM      3  C   UNL     1     -43.257  95.970  25.459  1.00  0.00     0.014 C 
ATOM      4  C   UNL     1     -45.643  95.909  26.590  1.00  0.00     0.030 C 
ATOM      5  C   UNL     1     -44.411  94.597  28.992  1.00  0.00     0.004 C 
ATOM      6  C   UNL     1     -43.995  95.602  24.135  1.00  0.00     0.013 C 
ATOM      7  C   UNL     1     -46.126  95.298  25.260  1.00  0.00    -0.063 C 
ATOM      8  C   UNL     1     -46.501  95.423  27.813  1.00  0.00    -0.003 C 
ATOM      9  C   UNL     1     -45.840  94.247  28.574  1.00  0.00    -0.011 C 
ATOM     10  C   UNL     1     -45.166  94.587  24.288  1.00  0.00    -0.006 C 
ATOM     11  C   UNL     1     -47.229  95.900  24.761  1.00  0.00    -0.027 C 
ATOM     12  C   UNL     1     -46.874  96.607  28.737  1.00  0.00     0.008 C 
ATOM     13  C   UNL     1     -46.659  93.769  29.783  1.00  0.00     0.008 C 
ATOM     14  C   UNL     1     -44.579  93.281  24.926  1.00  0.00     0.017 C 
ATOM     15  C   UNL     1     -45.935  94.185  22.896  1.00  0.00    -0.020 C 
ATOM     16  C   UNL     1     -47.213  96.428  23.366  1.00  0.00     0.032 C 
ATOM     17  C   UNL     1     -46.946  95.309  22.357  1.00  0.00     0.006 C 
ATOM     18  C   UNL     1     -44.901  93.781  21.787  1.00  0.00     0.008 C 
ATOM     19  C   UNL     1     -46.830  92.916  23.154  1.00  0.00     0.012 C 
ATOM     20  C   UNL     1     -46.727  95.817  20.871  1.00  0.00    -0.025 C 
ATOM     21  C   UNL     1     -45.495  93.530  20.398  1.00  0.00     0.005 C 
ATOM     22  C   UNL     1     -46.599  94.534  19.960  1.00  0.00     0.003 C 
ATOM     23  C   UNL     1     -48.004  96.599  20.412  1.00  0.00     0.010 C 
ATOM     24  C   UNL     1     -45.513  96.792  20.797  1.00  0.00     0.012 C 
ATOM     25  C   UNL     1     -46.715  94.739  18.389  1.00  0.00    -0.006 C 
ATOM     26  C   UNL     1     -48.027  96.903  18.913  1.00  0.00     0.033 C 
ATOM     27  C   UNL     1     -47.983  95.603  18.088  1.00  0.00     0.120 C 
ATOM     28  C   UNL     1     -45.452  95.373  17.729  1.00  0.00     0.014 C 
ATOM     29  C   UNL     1     -46.931  93.350  17.725  1.00  0.00     0.014 C 
ENDROOT
BRANCH   1  30
ATOM     30  C   UNL     1     -43.749  97.336  27.496  1.00  0.00     0.048 C 
ATOM     31  O   UNL     1     -43.149  97.353  28.607  1.00  0.00    -0.550 OA
ATOM     32  O   UNL     1     -44.143  98.552  26.946  1.00  0.00    -0.550 OA
ENDBRANCH   1  30
BRANCH  27  33
ATOM     33  O   UNL     1     -48.124  95.868  16.712  1.00  0.00    -0.393 OA
ATOM     34  H   UNL     1     -47.372  95.439  16.229  1.00  0.00     0.210 HD
ENDBRANCH  27  33
TORSDOF 2
ENDMDL
MODEL 2
REMARK VINA RESULT:    17.323      1.981      8.183
REMARK INTER + INTRA:          18.841
REMARK INTER:                  18.341
REMARK INTRA:                   0.500
REMARK UNBOUND:                -0.002
REMARK SMILES C[C@@H]1[C@H](C)CC[C@@]2(C(=O)[O-])CC[C@@]3(C)C(=CC[C@H]4[C@]5(C)CC[C@@H](O)C(C)(C)[C@H]5CC[C@]43C)[C@@H]12
REMARK SMILES IDX 7 1 6 2 11 3 33 4 5 5 12 6 15 7 2 8 3 9 13 10 16 11 1 12
REMARK SMILES IDX 4 13 14 14 31 15 17 16 18 17 30 18 32 19 19 20 29 21 28 22
REMARK SMILES IDX 21 23 20 24 25 25 22 26 23 27 26 28 27 29 8 30 9 31 10 32
REMARK SMILES IDX 24 33
REMARK H PARENT 24 34
REMARK Flexibility Score: inf
ROOT
ATOM      1  C   UNL     1     -46.256  96.433  20.483  1.00  0.00     0.017 C 
ATOM      2  C   UNL     1     -47.698  96.513  19.864  1.00  0.00     0.014 C 
ATOM      3  C   UNL     1     -46.232  97.234  21.851  1.00  0.00     0.014 C 
ATOM      4  C   UNL     1     -45.759  94.934  20.643  1.00  0.00     0.030 C 
ATOM      5  C   UNL     1     -47.930  95.583  18.674  1.00  0.00     0.004 C 
ATOM      6  C   UNL     1     -46.013  96.455  23.184  1.00  0.00     0.013 C 
ATOM      7  C   UNL     1     -45.845  94.314  22.051  1.00  0.00    -0.063 C 
ATOM      8  C   UNL     1     -46.204  93.927  19.522  1.00  0.00    -0.003 C 
ATOM      9  C   UNL     1     -47.676  94.133  19.087  1.00  0.00    -0.011 C 
ATOM     10  C   UNL     1     -46.588  95.007  23.209  1.00  0.00    -0.006 C 
ATOM     11  C   UNL     1     -44.812  93.491  22.341  1.00  0.00    -0.027 C 
ATOM     12  C   UNL     1     -45.214  93.945  18.333  1.00  0.00     0.008 C 
ATOM     13  C   UNL     1     -48.123  93.165  17.980  1.00  0.00     0.008 C 
ATOM     14  C   UNL     1     -48.125  95.104  22.919  1.00  0.00     0.017 C 
ATOM     15  C   UNL     1     -46.373  94.190  24.614  1.00  0.00    -0.020 C 
ATOM     16  C   UNL     1     -44.009  93.724  23.576  1.00  0.00     0.032 C 
ATOM     17  C   UNL     1     -44.884  93.631  24.828  1.00  0.00     0.006 C 
ATOM     18  C   UNL     1     -46.827  95.061  25.838  1.00  0.00     0.008 C 
ATOM     19  C   UNL     1     -47.296  92.914  24.610  1.00  0.00     0.012 C 
ATOM     20  C   UNL     1     -44.146  94.051  26.166  1.00  0.00    -0.025 C 
ATOM     21  C   UNL     1     -46.534  94.458  27.215  1.00  0.00     0.005 C 
ATOM     22  C   UNL     1     -45.147  93.769  27.354  1.00  0.00     0.003 C 
ATOM     23  C   UNL     1     -42.898  93.124  26.367  1.00  0.00     0.010 C 
ATOM     24  C   UNL     1     -43.641  95.523  26.077  1.00  0.00     0.012 C 
ATOM     25  C   UNL     1     -44.554  93.775  28.827  1.00  0.00    -0.006 C 
ATOM     26  C   UNL     1     -42.263  93.248  27.753  1.00  0.00     0.033 C 
ATOM     27  C   UNL     1     -43.273  92.878  28.856  1.00  0.00     0.120 C 
ATOM     28  C   UNL     1     -44.241  95.195  29.387  1.00  0.00     0.014 C 
ATOM     29  C   UNL     1     -45.595  93.125  29.781  1.00  0.00     0.014 C 
ENDROOT
BRANCH   1  30
ATOM     30  C   UNL     1     -45.297  97.169  19.532  1.00  0.00     0.048 C 
ATOM     31  O   UNL     1     -44.583  98.116  19.963  1.00  0.00    -0.550 OA
ATOM     32  O   UNL     1     -45.224  96.858  18.178  1.00  0.00    -0.550 OA
ENDBRANCH   1  30
BRANCH  27  33
ATOM     33  O   UNL     1     -42.661  92.875  30.125  1.00  0.00    -0.393 OA
ATOM     34  H   UNL     1     -41.685  93.003  30.004  1.00  0.00     0.210 HD
ENDBRANCH  27  33
TORSDOF 2
ENDMDL
MODEL 3
REMARK VINA RESULT:    17.951      1.113      1.317
REMARK INTER + INTRA:          19.523
REMARK INTER:                  19.128
REMARK INTRA:                   0.396
REMARK UNBOUND:                -0.002
REMARK SMILES C[C@@H]1[C@H](C)CC[C@@]2(C(=O)[O-])CC[C@@]3(C)C(=CC[C@H]4[C@]5(C)CC[C@@H](O)C(C)(C)[C@H]5CC[C@]43C)[C@@H]12
REMARK SMILES IDX 7 1 6 2 11 3 33 4 5 5 12 6 15 7 2 8 3 9 13 10 16 11 1 12
REMARK SMILES IDX 4 13 14 14 31 15 17 16 18 17 30 18 32 19 19 20 29 21 28 22
REMARK SMILES IDX 21 23 20 24 25 25 22 26 23 27 26 28 27 29 8 30 9 31 10 32
REMARK SMILES IDX 24 33
REMARK H PARENT 24 34
REMARK Flexibility Score: inf
ROOT
ATOM      1  C   UNL     1     -43.852  94.792  26.902  1.00  0.00     0.017 C 
ATOM      2  C   UNL     1     -44.029  93.535  27.828  1.00  0.00     0.014 C 
ATOM      3  C   UNL     1     -43.257  94.331  25.507  1.00  0.00     0.014 C 
ATOM      4  C   UNL     1     -45.200  95.616  26.751  1.00  0.00     0.030 C 
ATOM      5  C   UNL     1     -44.820  93.797  29.109  1.00  0.00     0.004 C 
ATOM      6  C   UNL     1     -44.134  94.468  24.225  1.00  0.00     0.013 C 
ATOM      7  C   UNL     1     -46.006  95.408  25.454  1.00  0.00    -0.063 C 
ATOM      8  C   UNL     1     -46.124  95.682  28.020  1.00  0.00    -0.003 C 
ATOM      9  C   UNL     1     -46.212  94.327  28.764  1.00  0.00    -0.011 C 
ATOM     10  C   UNL     1     -45.666  94.294  24.447  1.00  0.00    -0.006 C 
ATOM     11  C   UNL     1     -46.595  96.538  25.000  1.00  0.00    -0.027 C 
ATOM     12  C   UNL     1     -45.716  96.854  28.945  1.00  0.00     0.008 C 
ATOM     13  C   UNL     1     -47.100  94.378  30.017  1.00  0.00     0.008 C 
ATOM     14  C   UNL     1     -45.894  92.875  25.073  1.00  0.00     0.017 C 
ATOM     15  C   UNL     1     -46.591  94.422  23.098  1.00  0.00    -0.020 C 
ATOM     16  C   UNL     1     -46.347  96.986  23.599  1.00  0.00     0.032 C 
ATOM     17  C   UNL     1     -46.809  95.929  22.593  1.00  0.00     0.006 C 
ATOM     18  C   UNL     1     -46.022  93.520  21.947  1.00  0.00     0.008 C 
ATOM     19  C   UNL     1     -48.035  93.880  23.415  1.00  0.00     0.012 C 
ATOM     20  C   UNL     1     -46.410  96.247  21.092  1.00  0.00    -0.025 C 
ATOM     21  C   UNL     1     -46.718  93.674  20.591  1.00  0.00     0.005 C 
ATOM     22  C   UNL     1     -47.075  95.133  20.193  1.00  0.00     0.003 C 
ATOM     23  C   UNL     1     -47.038  97.624  20.684  1.00  0.00     0.010 C 
ATOM     24  C   UNL     1     -44.862  96.363  20.947  1.00  0.00     0.012 C 
ATOM     25  C   UNL     1     -47.128  95.393  18.627  1.00  0.00    -0.006 C 
ATOM     26  C   UNL     1     -46.955  97.911  19.184  1.00  0.00     0.033 C 
ATOM     27  C   UNL     1     -47.695  96.829  18.375  1.00  0.00     0.120 C 
ATOM     28  C   UNL     1     -45.761  95.209  17.899  1.00  0.00     0.014 C 
ATOM     29  C   UNL     1     -48.125  94.383  17.992  1.00  0.00     0.014 C 
ENDROOT
BRANCH   1  30
ATOM     30  C   UNL     1     -42.791  95.702  27.547  1.00  0.00     0.048 C 
ATOM     31  O   UNL     1     -43.096  96.872  27.907  1.00  0.00    -0.550 OA
ATOM     32  O   UNL     1     -41.471  95.292  27.704  1.00  0.00    -0.550 OA
ENDBRANCH   1  30
BRANCH  27  33
ATOM     33  O   UNL     1     -47.724  97.150  17.004  1.00  0.00    -0.393 OA
ATOM     34  H   UNL     1     -47.655  96.310  16.482  1.00  0.00     0.210 HD
ENDBRANCH  27  33
TORSDOF 2
ENDMDL
