MODEL 1
REMARK VINA RESULT:    -5.655      0.000      0.000
REMARK INTER + INTRA:          -7.226
REMARK INTER:                  -6.812
REMARK INTRA:                  -0.414
REMARK UNBOUND:                -0.414
REMARK SMILES O=c1c(O)c(-c2ccc(O)cc2O)oc2cc(O)cc(O)c12
REMARK SMILES IDX 5 1 3 2 2 3 1 4 22 5 20 6 19 7 17 8 16 9 15 10 14 11 6 12
REMARK SMILES IDX 8 13 7 14 9 15 11 16 12 17 10 18 13 20 4 22 21 24 18 26
REMARK H PARENT 10 19 13 21 4 23 21 25 18 27
REMARK Flexibility Score: inf
ROOT
ATOM      1  C   UNL     1      53.979  10.061   9.207  1.00  0.00     0.184 A 
ATOM      2  C   UNL     1      55.347  10.281   8.987  1.00  0.00     0.208 A 
ATOM      3  C   UNL     1      55.795  10.530   7.680  1.00  0.00     0.238 A 
ATOM      4  O   UNL     1      57.015  10.780   7.496  1.00  0.00    -0.285 OA
ATOM      5  C   UNL     1      54.868  10.539   6.608  1.00  0.00     0.111 A 
ATOM      6  C   UNL     1      55.215  10.739   5.239  1.00  0.00     0.134 A 
ATOM      7  C   UNL     1      54.202  10.857   4.280  1.00  0.00     0.093 A 
ATOM      8  C   UNL     1      52.860  10.717   4.629  1.00  0.00     0.123 A 
ATOM      9  C   UNL     1      52.512  10.460   5.956  1.00  0.00     0.094 A 
ATOM     10  C   UNL     1      53.498  10.374   6.941  1.00  0.00     0.146 A 
ATOM     11  O   UNL     1      53.124  10.141   8.194  1.00  0.00    -0.451 OA
ENDROOT
BRANCH   1  12
ATOM     12  C   UNL     1      53.444   9.777  10.556  1.00  0.00     0.063 A 
ATOM     13  C   UNL     1      52.480  10.611  12.625  1.00  0.00     0.047 A 
ATOM     14  C   UNL     1      52.996  10.845  11.349  1.00  0.00     0.020 A 
ATOM     15  C   UNL     1      52.393   9.308  13.121  1.00  0.00     0.119 A 
ATOM     16  C   UNL     1      52.816   8.233  12.329  1.00  0.00     0.093 A 
ATOM     17  C   UNL     1      53.329   8.459  11.043  1.00  0.00     0.130 A 
BRANCH  15  18
ATOM     18  O   UNL     1      51.880   9.091  14.398  1.00  0.00    -0.508 OA
ATOM     19  H   UNL     1      51.327   9.794  14.874  1.00  0.00     0.293 HD
ENDBRANCH  15  18
BRANCH  17  20
ATOM     20  O   UNL     1      53.702   7.377  10.244  1.00  0.00    -0.507 OA
ATOM     21  H   UNL     1      54.520   7.412   9.649  1.00  0.00     0.293 HD
ENDBRANCH  17  20
ENDBRANCH   1  12
BRANCH   2  22
ATOM     22  O   UNL     1      56.236  10.285  10.065  1.00  0.00    -0.502 OA
ATOM     23  H   UNL     1      57.235  10.164   9.945  1.00  0.00     0.293 HD
ENDBRANCH   2  22
BRANCH   6  24
ATOM     24  O   UNL     1      56.531  10.802   4.768  1.00  0.00    -0.507 OA
ATOM     25  H   UNL     1      56.794  11.069   3.832  1.00  0.00     0.293 HD
ENDBRANCH   6  24
BRANCH   8  26
ATOM     26  O   UNL     1      51.879  10.824   3.646  1.00  0.00    -0.508 OA
ATOM     27  H   UNL     1      50.895  10.872   3.882  1.00  0.00     0.293 HD
ENDBRANCH   8  26
TORSDOF 6
ENDMDL
MODEL 2
REMARK VINA RESULT:    -5.025      3.145      7.020
REMARK INTER + INTRA:          -6.467
REMARK INTER:                  -6.059
REMARK INTRA:                  -0.408
REMARK UNBOUND:                -0.414
REMARK SMILES O=c1c(O)c(-c2ccc(O)cc2O)oc2cc(O)cc(O)c12
REMARK SMILES IDX 5 1 3 2 2 3 1 4 22 5 20 6 19 7 17 8 16 9 15 10 14 11 6 12
REMARK SMILES IDX 8 13 7 14 9 15 11 16 12 17 10 18 13 20 4 22 21 24 18 26
REMARK H PARENT 10 19 13 21 4 23 21 25 18 27
REMARK Flexibility Score: inf
ROOT
ATOM      1  C   UNL     1      55.764   8.624  10.315  1.00  0.00     0.184 A 
ATOM      2  C   UNL     1      55.234   7.454   9.747  1.00  0.00     0.208 A 
ATOM      3  C   UNL     1      54.116   6.852  10.346  1.00  0.00     0.238 A 
ATOM      4  O   UNL     1      53.614   5.835   9.802  1.00  0.00    -0.285 OA
ATOM      5  C   UNL     1      53.553   7.420  11.516  1.00  0.00     0.111 A 
ATOM      6  C   UNL     1      52.446   6.872  12.230  1.00  0.00     0.134 A 
ATOM      7  C   UNL     1      51.892   7.588  13.299  1.00  0.00     0.093 A 
ATOM      8  C   UNL     1      52.443   8.796  13.720  1.00  0.00     0.123 A 
ATOM      9  C   UNL     1      53.564   9.312  13.067  1.00  0.00     0.094 A 
ATOM     10  C   UNL     1      54.117   8.639  11.974  1.00  0.00     0.146 A 
ATOM     11  O   UNL     1      55.176   9.170  11.373  1.00  0.00    -0.451 OA
ENDROOT
BRANCH   1  12
ATOM     12  C   UNL     1      56.948   9.298   9.745  1.00  0.00     0.063 A 
ATOM     13  C   UNL     1      59.368   9.487   9.613  1.00  0.00     0.047 A 
ATOM     14  C   UNL     1      58.227   8.874  10.137  1.00  0.00     0.020 A 
ATOM     15  C   UNL     1      59.246  10.521   8.682  1.00  0.00     0.119 A 
ATOM     16  C   UNL     1      57.975  10.936   8.266  1.00  0.00     0.093 A 
ATOM     17  C   UNL     1      56.824  10.321   8.783  1.00  0.00     0.130 A 
BRANCH  15  18
ATOM     18  O   UNL     1      60.393  11.125   8.171  1.00  0.00    -0.508 OA
ATOM     19  H   UNL     1      60.341  11.945   7.577  1.00  0.00     0.293 HD
ENDBRANCH  15  18
BRANCH  17  20
ATOM     20  O   UNL     1      55.565  10.711   8.324  1.00  0.00    -0.507 OA
ATOM     21  H   UNL     1      55.042  11.454   8.772  1.00  0.00     0.293 HD
ENDBRANCH  17  20
ENDBRANCH   1  12
BRANCH   2  22
ATOM     22  O   UNL     1      55.798   6.927   8.583  1.00  0.00    -0.502 OA
ATOM     23  H   UNL     1      55.842   5.930   8.405  1.00  0.00     0.293 HD
ENDBRANCH   2  22
BRANCH   6  24
ATOM     24  O   UNL     1      51.876   5.626  11.950  1.00  0.00    -0.507 OA
ATOM     25  H   UNL     1      51.106   5.220  12.457  1.00  0.00     0.293 HD
ENDBRANCH   6  24
BRANCH   8  26
ATOM     26  O   UNL     1      51.875   9.473  14.797  1.00  0.00    -0.508 OA
ATOM     27  H   UNL     1      51.187  10.204  14.660  1.00  0.00     0.293 HD
ENDBRANCH   8  26
TORSDOF 6
ENDMDL
MODEL 3
REMARK VINA RESULT:    -4.621      1.776      7.003
REMARK INTER + INTRA:          -5.981
REMARK INTER:                  -6.237
REMARK INTRA:                   0.256
REMARK UNBOUND:                -0.414
REMARK SMILES O=c1c(O)c(-c2ccc(O)cc2O)oc2cc(O)cc(O)c12
REMARK SMILES IDX 5 1 3 2 2 3 1 4 22 5 20 6 19 7 17 8 16 9 15 10 14 11 6 12
REMARK SMILES IDX 8 13 7 14 9 15 11 16 12 17 10 18 13 20 4 22 21 24 18 26
REMARK H PARENT 10 19 13 21 4 23 21 25 18 27
REMARK Flexibility Score: inf
ROOT
ATOM      1  C   UNL     1      54.178  10.165   7.235  1.00  0.00     0.184 A 
ATOM      2  C   UNL     1      52.988  10.403   7.940  1.00  0.00     0.208 A 
ATOM      3  C   UNL     1      52.948  10.133   9.317  1.00  0.00     0.238 A 
ATOM      4  O   UNL     1      51.895  10.400   9.954  1.00  0.00    -0.285 OA
ATOM      5  C   UNL     1      54.094   9.611   9.967  1.00  0.00     0.111 A 
ATOM      6  C   UNL     1      54.153   9.262  11.349  1.00  0.00     0.134 A 
ATOM      7  C   UNL     1      55.376   8.878  11.912  1.00  0.00     0.093 A 
ATOM      8  C   UNL     1      56.525   8.767  11.131  1.00  0.00     0.123 A 
ATOM      9  C   UNL     1      56.466   9.048   9.765  1.00  0.00     0.094 A 
ATOM     10  C   UNL     1      55.268   9.469   9.182  1.00  0.00     0.146 A 
ATOM     11  O   UNL     1      55.257   9.738   7.882  1.00  0.00    -0.451 OA
ENDROOT
BRANCH   1  12
ATOM     12  C   UNL     1      54.284  10.412   5.782  1.00  0.00     0.063 A 
ATOM     13  C   UNL     1      53.186  10.595   3.621  1.00  0.00     0.047 A 
ATOM     14  C   UNL     1      53.122  10.361   4.996  1.00  0.00     0.020 A 
ATOM     15  C   UNL     1      54.408  10.895   3.014  1.00  0.00     0.119 A 
ATOM     16  C   UNL     1      55.570  10.971   3.793  1.00  0.00     0.093 A 
ATOM     17  C   UNL     1      55.513  10.744   5.176  1.00  0.00     0.130 A 
BRANCH  15  18
ATOM     18  O   UNL     1      54.457  11.122   1.641  1.00  0.00    -0.508 OA
ATOM     19  H   UNL     1      53.878  10.597   0.996  1.00  0.00     0.293 HD
ENDBRANCH  15  18
BRANCH  17  20
ATOM     20  O   UNL     1      56.669  10.871   5.948  1.00  0.00    -0.507 OA
ATOM     21  H   UNL     1      57.521  11.266   5.568  1.00  0.00     0.293 HD
ENDBRANCH  17  20
ENDBRANCH   1  12
BRANCH   2  22
ATOM     22  O   UNL     1      51.879  10.936   7.278  1.00  0.00    -0.502 OA
ATOM     23  H   UNL     1      51.402  11.769   7.602  1.00  0.00     0.293 HD
ENDBRANCH   2  22
BRANCH   6  24
ATOM     24  O   UNL     1      53.043   9.250  12.199  1.00  0.00    -0.507 OA
ATOM     25  H   UNL     1      52.187   8.749  12.020  1.00  0.00     0.293 HD
ENDBRANCH   6  24
BRANCH   8  26
ATOM     26  O   UNL     1      57.721   8.366  11.722  1.00  0.00    -0.508 OA
ATOM     27  H   UNL     1      58.385   9.039  12.085  1.00  0.00     0.293 HD
ENDBRANCH   8  26
TORSDOF 6
ENDMDL
MODEL 4
REMARK VINA RESULT:    -4.373      3.430      6.911
REMARK INTER + INTRA:          -5.682
REMARK INTER:                  -5.588
REMARK INTRA:                  -0.094
REMARK UNBOUND:                -0.414
REMARK SMILES O=c1c(O)c(-c2ccc(O)cc2O)oc2cc(O)cc(O)c12
REMARK SMILES IDX 5 1 3 2 2 3 1 4 22 5 20 6 19 7 17 8 16 9 15 10 14 11 6 12
REMARK SMILES IDX 8 13 7 14 9 15 11 16 12 17 10 18 13 20 4 22 21 24 18 26
REMARK H PARENT 10 19 13 21 4 23 21 25 18 27
REMARK Flexibility Score: inf
ROOT
ATOM      1  C   UNL     1      56.686   8.934   9.807  1.00  0.00     0.184 A 
ATOM      2  C   UNL     1      55.582   9.732  10.145  1.00  0.00     0.208 A 
ATOM      3  C   UNL     1      54.386   9.109  10.534  1.00  0.00     0.238 A 
ATOM      4  O   UNL     1      53.416   9.829  10.888  1.00  0.00    -0.285 OA
ATOM      5  C   UNL     1      54.306   7.694  10.563  1.00  0.00     0.111 A 
ATOM      6  C   UNL     1      53.133   6.956  10.902  1.00  0.00     0.134 A 
ATOM      7  C   UNL     1      53.205   5.563  11.024  1.00  0.00     0.093 A 
ATOM      8  C   UNL     1      54.388   4.877  10.756  1.00  0.00     0.123 A 
ATOM      9  C   UNL     1      55.527   5.584  10.365  1.00  0.00     0.094 A 
ATOM     10  C   UNL     1      55.495   6.977  10.271  1.00  0.00     0.146 A 
ATOM     11  O   UNL     1      56.603   7.612   9.907  1.00  0.00    -0.451 OA
ENDROOT
BRANCH   1  12
ATOM     12  C   UNL     1      57.969   9.526   9.373  1.00  0.00     0.063 A 
ATOM     13  C   UNL     1      60.378   9.693   9.650  1.00  0.00     0.047 A 
ATOM     14  C   UNL     1      59.148   9.156  10.038  1.00  0.00     0.020 A 
ATOM     15  C   UNL     1      60.448  10.595   8.586  1.00  0.00     0.119 A 
ATOM     16  C   UNL     1      59.280  10.952   7.900  1.00  0.00     0.093 A 
ATOM     17  C   UNL     1      58.042  10.413   8.279  1.00  0.00     0.130 A 
BRANCH  15  18
ATOM     18  O   UNL     1      61.681  11.124   8.213  1.00  0.00    -0.508 OA
ATOM     19  H   UNL     1      62.524  10.562   8.221  1.00  0.00     0.293 HD
ENDBRANCH  15  18
BRANCH  17  20
ATOM     20  O   UNL     1      56.893  10.739   7.558  1.00  0.00    -0.507 OA
ATOM     21  H   UNL     1      56.208  11.393   7.916  1.00  0.00     0.293 HD
ENDBRANCH  17  20
ENDBRANCH   1  12
BRANCH   2  22
ATOM     22  O   UNL     1      55.695  11.124  10.125  1.00  0.00    -0.502 OA
ATOM     23  H   UNL     1      55.143  11.722  10.730  1.00  0.00     0.293 HD
ENDBRANCH   2  22
BRANCH   6  24
ATOM     24  O   UNL     1      51.876   7.536  11.101  1.00  0.00    -0.507 OA
ATOM     25  H   UNL     1      51.546   8.366  10.634  1.00  0.00     0.293 HD
ENDBRANCH   6  24
BRANCH   8  26
ATOM     26  O   UNL     1      54.419   3.489  10.872  1.00  0.00    -0.508 OA
ATOM     27  H   UNL     1      54.586   2.893  10.070  1.00  0.00     0.293 HD
ENDBRANCH   8  26
TORSDOF 6
ENDMDL
MODEL 5
REMARK VINA RESULT:    -3.131      2.591      4.525
REMARK INTER + INTRA:          -4.185
REMARK INTER:                  -3.767
REMARK INTRA:                  -0.419
REMARK UNBOUND:                -0.414
REMARK SMILES O=c1c(O)c(-c2ccc(O)cc2O)oc2cc(O)cc(O)c12
REMARK SMILES IDX 5 1 3 2 2 3 1 4 22 5 20 6 19 7 17 8 16 9 15 10 14 11 6 12
REMARK SMILES IDX 8 13 7 14 9 15 11 16 12 17 10 18 13 20 4 22 21 24 18 26
REMARK H PARENT 10 19 13 21 4 23 21 25 18 27
REMARK Flexibility Score: inf
ROOT
ATOM      1  C   UNL     1      54.878   8.445  10.610  1.00  0.00     0.184 A 
ATOM      2  C   UNL     1      54.292   8.877   9.409  1.00  0.00     0.208 A 
ATOM      3  C   UNL     1      55.090   9.533   8.459  1.00  0.00     0.238 A 
ATOM      4  O   UNL     1      54.571   9.869   7.363  1.00  0.00    -0.285 OA
ATOM      5  C   UNL     1      56.461   9.764   8.730  1.00  0.00     0.111 A 
ATOM      6  C   UNL     1      57.354  10.454   7.858  1.00  0.00     0.134 A 
ATOM      7  C   UNL     1      58.718  10.510   8.170  1.00  0.00     0.093 A 
ATOM      8  C   UNL     1      59.211   9.960   9.351  1.00  0.00     0.123 A 
ATOM      9  C   UNL     1      58.336   9.334  10.241  1.00  0.00     0.094 A 
ATOM     10  C   UNL     1      56.976   9.230   9.940  1.00  0.00     0.146 A 
ATOM     11  O   UNL     1      56.180   8.616  10.809  1.00  0.00    -0.451 OA
ENDROOT
BRANCH   1  12
ATOM     12  C   UNL     1      54.092   7.763  11.659  1.00  0.00     0.063 A 
ATOM     13  C   UNL     1      52.994   5.744  12.448  1.00  0.00     0.047 A 
ATOM     14  C   UNL     1      53.733   6.419  11.475  1.00  0.00     0.020 A 
ATOM     15  C   UNL     1      52.615   6.397  13.624  1.00  0.00     0.119 A 
ATOM     16  C   UNL     1      52.988   7.732  13.827  1.00  0.00     0.093 A 
ATOM     17  C   UNL     1      53.736   8.416  12.857  1.00  0.00     0.130 A 
BRANCH  15  18
ATOM     18  O   UNL     1      51.875   5.711  14.584  1.00  0.00    -0.508 OA
ATOM     19  H   UNL     1      51.450   4.813  14.384  1.00  0.00     0.293 HD
ENDBRANCH  15  18
BRANCH  17  20
ATOM     20  O   UNL     1      54.142   9.730  13.093  1.00  0.00    -0.507 OA
ATOM     21  H   UNL     1      55.035   9.941  13.520  1.00  0.00     0.293 HD
ENDBRANCH  17  20
ENDBRANCH   1  12
BRANCH   2  22
ATOM     22  O   UNL     1      52.941   8.619   9.161  1.00  0.00    -0.502 OA
ATOM     23  H   UNL     1      52.563   7.679   9.137  1.00  0.00     0.293 HD
ENDBRANCH   2  22
BRANCH   6  24
ATOM     24  O   UNL     1      56.951  11.120   6.696  1.00  0.00    -0.507 OA
ATOM     25  H   UNL     1      56.629  10.666   5.856  1.00  0.00     0.293 HD
ENDBRANCH   6  24
BRANCH   8  26
ATOM     26  O   UNL     1      60.571  10.048   9.637  1.00  0.00    -0.508 OA
ATOM     27  H   UNL     1      61.002  10.926   9.902  1.00  0.00     0.293 HD
ENDBRANCH   8  26
TORSDOF 6
ENDMDL
