MODEL 1
REMARK VINA RESULT:    -4.749      0.000      0.000
REMARK INTER + INTRA:         -15.765
REMARK INTER:                 -11.968
REMARK INTRA:                  -3.798
REMARK UNBOUND:                -3.798
REMARK SMILES CCCCCCCCCCCCCCCCCCCCCCCCCCCC(=O)[O-]
REMARK SMILES IDX 15 1 16 2 17 3 18 4 19 5 20 6 21 7 22 8 23 9 24 10 25 11
REMARK SMILES IDX 26 12 27 13 28 14 29 15 30 16 14 17 13 18 12 19 11 20 10 21
REMARK SMILES IDX 9 22 8 23 7 24 6 25 5 26 4 27 3 28 2 29 1 30
REMARK H PARENT
REMARK Flexibility Score: inf
ROOT
ATOM      1  C   UNL     1      23.485   5.210  14.941  1.00  0.00     0.000 C 
ENDROOT
BRANCH   1   2
ATOM      2  C   UNL     1      22.876   5.770  13.644  1.00  0.00     0.000 C 
BRANCH   2   3
ATOM      3  C   UNL     1      22.929   7.304  13.582  1.00  0.00     0.000 C 
BRANCH   3   4
ATOM      4  C   UNL     1      24.357   7.860  13.732  1.00  0.00     0.000 C 
BRANCH   4   5
ATOM      5  C   UNL     1      24.482   8.842  14.908  1.00  0.00     0.000 C 
BRANCH   5   6
ATOM      6  C   UNL     1      25.279   8.249  16.084  1.00  0.00     0.000 C 
BRANCH   6   7
ATOM      7  C   UNL     1      24.465   8.184  17.388  1.00  0.00     0.000 C 
BRANCH   7   8
ATOM      8  C   UNL     1      22.936   8.169  17.199  1.00  0.00     0.000 C 
BRANCH   8   9
ATOM      9  C   UNL     1      22.197   9.061  18.212  1.00  0.00     0.000 C 
BRANCH   9  10
ATOM     10  C   UNL     1      21.154   9.975  17.550  1.00  0.00     0.000 C 
BRANCH  10  11
ATOM     11  C   UNL     1      21.747  10.813  16.402  1.00  0.00     0.000 C 
BRANCH  11  12
ATOM     12  C   UNL     1      20.775  10.973  15.223  1.00  0.00     0.006 C 
BRANCH  12  13
ATOM     13  C   UNL     1      21.430  11.623  13.997  1.00  0.00     0.053 C 
BRANCH  13  14
ATOM     14  C   UNL     1      20.508  11.578  12.818  1.00  0.00     0.041 C 
ATOM     15  O   UNL     1      19.929  10.502  12.508  1.00  0.00    -0.550 OA
ATOM     16  O   UNL     1      20.269  12.727  12.076  1.00  0.00    -0.550 OA
ENDBRANCH  13  14
ENDBRANCH  12  13
ENDBRANCH  11  12
ENDBRANCH  10  11
ENDBRANCH   9  10
ENDBRANCH   8   9
ENDBRANCH   7   8
ENDBRANCH   6   7
ENDBRANCH   5   6
ENDBRANCH   4   5
ENDBRANCH   3   4
ENDBRANCH   2   3
ENDBRANCH   1   2
BRANCH   1  17
ATOM     17  C   UNL     1      24.324   3.944  14.701  1.00  0.00     0.000 C 
BRANCH  17  18
ATOM     18  C   UNL     1      24.971   3.892  13.301  1.00  0.00     0.000 C 
BRANCH  18  19
ATOM     19  C   UNL     1      26.353   3.213  13.326  1.00  0.00     0.000 C 
BRANCH  19  20
ATOM     20  C   UNL     1      27.507   4.223  13.145  1.00  0.00     0.000 C 
BRANCH  20  21
ATOM     21  C   UNL     1      27.170   5.643  13.629  1.00  0.00     0.000 C 
BRANCH  21  22
ATOM     22  C   UNL     1      28.113   6.709  13.053  1.00  0.00    -0.000 C 
BRANCH  22  23
ATOM     23  C   UNL     1      28.934   7.379  14.165  1.00  0.00    -0.000 C 
BRANCH  23  24
ATOM     24  C   UNL     1      30.214   8.057  13.644  1.00  0.00    -0.000 C 
BRANCH  24  25
ATOM     25  C   UNL     1      30.036   8.905  12.372  1.00  0.00    -0.000 C 
BRANCH  25  26
ATOM     26  C   UNL     1      30.384  10.389  12.586  1.00  0.00    -0.000 C 
BRANCH  26  27
ATOM     27  C   UNL     1      29.295  11.139  13.372  1.00  0.00    -0.000 C 
BRANCH  27  28
ATOM     28  C   UNL     1      28.362  11.953  12.462  1.00  0.00    -0.000 C 
BRANCH  28  29
ATOM     29  C   UNL     1      26.915  11.462  12.586  1.00  0.00    -0.003 C 
ATOM     30  C   UNL     1      26.758  10.057  12.008  1.00  0.00     0.004 C 
ENDBRANCH  28  29
ENDBRANCH  27  28
ENDBRANCH  26  27
ENDBRANCH  25  26
ENDBRANCH  24  25
ENDBRANCH  23  24
ENDBRANCH  22  23
ENDBRANCH  21  22
ENDBRANCH  20  21
ENDBRANCH  19  20
ENDBRANCH  18  19
ENDBRANCH  17  18
ENDBRANCH   1  17
TORSDOF 26
ENDMDL
MODEL 2
REMARK VINA RESULT:    -4.709      2.236      7.420
REMARK INTER + INTRA:         -15.663
REMARK INTER:                 -11.504
REMARK INTRA:                  -4.160
REMARK UNBOUND:                -3.798
REMARK SMILES CCCCCCCCCCCCCCCCCCCCCCCCCCCC(=O)[O-]
REMARK SMILES IDX 15 1 16 2 17 3 18 4 19 5 20 6 21 7 22 8 23 9 24 10 25 11
REMARK SMILES IDX 26 12 27 13 28 14 29 15 30 16 14 17 13 18 12 19 11 20 10 21
REMARK SMILES IDX 9 22 8 23 7 24 6 25 5 26 4 27 3 28 2 29 1 30
REMARK H PARENT
REMARK Flexibility Score: inf
ROOT
ATOM      1  C   UNL     1      23.998   9.191  14.707  1.00  0.00     0.000 C 
ENDROOT
BRANCH   1   2
ATOM      2  C   UNL     1      23.862   8.206  13.533  1.00  0.00     0.000 C 
BRANCH   2   3
ATOM      3  C   UNL     1      22.547   7.413  13.579  1.00  0.00     0.000 C 
BRANCH   3   4
ATOM      4  C   UNL     1      22.763   5.892  13.475  1.00  0.00     0.000 C 
BRANCH   4   5
ATOM      5  C   UNL     1      23.059   5.248  14.839  1.00  0.00     0.000 C 
BRANCH   5   6
ATOM      6  C   UNL     1      24.563   5.012  15.061  1.00  0.00     0.000 C 
BRANCH   6   7
ATOM      7  C   UNL     1      25.225   4.234  13.910  1.00  0.00     0.000 C 
BRANCH   7   8
ATOM      8  C   UNL     1      26.648   4.700  13.546  1.00  0.00     0.000 C 
BRANCH   8   9
ATOM      9  C   UNL     1      26.958   6.124  14.043  1.00  0.00     0.000 C 
BRANCH   9  10
ATOM     10  C   UNL     1      28.416   6.537  13.791  1.00  0.00     0.000 C 
BRANCH  10  11
ATOM     11  C   UNL     1      28.537   7.695  12.784  1.00  0.00     0.000 C 
BRANCH  11  12
ATOM     12  C   UNL     1      27.215   8.457  12.598  1.00  0.00     0.006 C 
BRANCH  12  13
ATOM     13  C   UNL     1      27.423   9.892  12.096  1.00  0.00     0.053 C 
BRANCH  13  14
ATOM     14  C   UNL     1      26.896  10.881  13.090  1.00  0.00     0.041 C 
ATOM     15  O   UNL     1      26.078  11.769  12.729  1.00  0.00    -0.550 OA
ATOM     16  O   UNL     1      27.290  10.807  14.421  1.00  0.00    -0.550 OA
ENDBRANCH  13  14
ENDBRANCH  12  13
ENDBRANCH  11  12
ENDBRANCH  10  11
ENDBRANCH   9  10
ENDBRANCH   8   9
ENDBRANCH   7   8
ENDBRANCH   6   7
ENDBRANCH   5   6
ENDBRANCH   4   5
ENDBRANCH   3   4
ENDBRANCH   2   3
ENDBRANCH   1   2
BRANCH   1  17
ATOM     17  C   UNL     1      24.788   8.599  15.887  1.00  0.00     0.000 C 
BRANCH  17  18
ATOM     18  C   UNL     1      24.080   8.771  17.248  1.00  0.00     0.000 C 
BRANCH  18  19
ATOM     19  C   UNL     1      22.733   8.028  17.299  1.00  0.00     0.000 C 
BRANCH  19  20
ATOM     20  C   UNL     1      21.581   8.932  17.788  1.00  0.00     0.000 C 
BRANCH  20  21
ATOM     21  C   UNL     1      21.867  10.436  17.640  1.00  0.00     0.000 C 
BRANCH  21  22
ATOM     22  C   UNL     1      20.596  11.294  17.701  1.00  0.00    -0.000 C 
BRANCH  22  23
ATOM     23  C   UNL     1      20.166  11.743  16.296  1.00  0.00    -0.000 C 
BRANCH  23  24
ATOM     24  C   UNL     1      21.266  11.545  15.237  1.00  0.00    -0.000 C 
BRANCH  24  25
ATOM     25  C   UNL     1      20.774  11.057  13.862  1.00  0.00    -0.000 C 
BRANCH  25  26
ATOM     26  C   UNL     1      20.543  12.206  12.865  1.00  0.00    -0.000 C 
BRANCH  26  27
ATOM     27  C   UNL     1      19.506  11.849  11.787  1.00  0.00    -0.000 C 
BRANCH  27  28
ATOM     28  C   UNL     1      19.209  10.343  11.727  1.00  0.00    -0.000 C 
BRANCH  28  29
ATOM     29  C   UNL     1      18.016  10.059  10.806  1.00  0.00    -0.003 C 
ATOM     30  C   UNL     1      18.465   9.901   9.355  1.00  0.00     0.004 C 
ENDBRANCH  28  29
ENDBRANCH  27  28
ENDBRANCH  26  27
ENDBRANCH  25  26
ENDBRANCH  24  25
ENDBRANCH  23  24
ENDBRANCH  22  23
ENDBRANCH  21  22
ENDBRANCH  20  21
ENDBRANCH  19  20
ENDBRANCH  18  19
ENDBRANCH  17  18
ENDBRANCH   1  17
TORSDOF 26
ENDMDL
MODEL 3
REMARK VINA RESULT:    -4.632      3.705      6.521
REMARK INTER + INTRA:         -15.471
REMARK INTER:                 -11.983
REMARK INTRA:                  -3.489
REMARK UNBOUND:                -3.798
REMARK SMILES CCCCCCCCCCCCCCCCCCCCCCCCCCCC(=O)[O-]
REMARK SMILES IDX 15 1 16 2 17 3 18 4 19 5 20 6 21 7 22 8 23 9 24 10 25 11
REMARK SMILES IDX 26 12 27 13 28 14 29 15 30 16 14 17 13 18 12 19 11 20 10 21
REMARK SMILES IDX 9 22 8 23 7 24 6 25 5 26 4 27 3 28 2 29 1 30
REMARK H PARENT
REMARK Flexibility Score: inf
ROOT
ATOM      1  C   UNL     1      26.790   7.379  13.918  1.00  0.00     0.000 C 
ENDROOT
BRANCH   1   2
ATOM      2  C   UNL     1      27.078   7.092  15.401  1.00  0.00     0.000 C 
BRANCH   2   3
ATOM      3  C   UNL     1      26.841   8.319  16.295  1.00  0.00     0.000 C 
BRANCH   3   4
ATOM      4  C   UNL     1      25.564   8.202  17.146  1.00  0.00     0.000 C 
BRANCH   4   5
ATOM      5  C   UNL     1      24.631   9.411  16.972  1.00  0.00     0.000 C 
BRANCH   5   6
ATOM      6  C   UNL     1      23.534   9.158  15.924  1.00  0.00     0.000 C 
BRANCH   6   7
ATOM      7  C   UNL     1      23.230   7.663  15.721  1.00  0.00     0.000 C 
BRANCH   7   8
ATOM      8  C   UNL     1      23.204   7.200  14.252  1.00  0.00     0.000 C 
BRANCH   8   9
ATOM      9  C   UNL     1      22.876   5.703  14.099  1.00  0.00     0.000 C 
BRANCH   9  10
ATOM     10  C   UNL     1      23.483   4.845  15.219  1.00  0.00     0.000 C 
BRANCH  10  11
ATOM     11  C   UNL     1      24.277   3.642  14.678  1.00  0.00     0.000 C 
BRANCH  11  12
ATOM     12  C   UNL     1      24.909   3.921  13.305  1.00  0.00     0.006 C 
BRANCH  12  13
ATOM     13  C   UNL     1      26.435   3.762  13.310  1.00  0.00     0.053 C 
BRANCH  13  14
ATOM     14  C   UNL     1      26.819   2.332  13.088  1.00  0.00     0.041 C 
ATOM     15  O   UNL     1      27.760   1.818  13.749  1.00  0.00    -0.550 OA
ATOM     16  O   UNL     1      26.122   1.559  12.168  1.00  0.00    -0.550 OA
ENDBRANCH  13  14
ENDBRANCH  12  13
ENDBRANCH  11  12
ENDBRANCH  10  11
ENDBRANCH   9  10
ENDBRANCH   8   9
ENDBRANCH   7   8
ENDBRANCH   6   7
ENDBRANCH   5   6
ENDBRANCH   4   5
ENDBRANCH   3   4
ENDBRANCH   2   3
ENDBRANCH   1   2
BRANCH   1  17
ATOM     17  C   UNL     1      26.655   8.882  13.622  1.00  0.00     0.000 C 
BRANCH  17  18
ATOM     18  C   UNL     1      27.199   9.287  12.235  1.00  0.00     0.000 C 
BRANCH  18  19
ATOM     19  C   UNL     1      28.597   8.701  11.967  1.00  0.00     0.000 C 
BRANCH  19  20
ATOM     20  C   UNL     1      29.664   9.797  11.760  1.00  0.00     0.000 C 
BRANCH  20  21
ATOM     21  C   UNL     1      29.884  10.690  12.993  1.00  0.00     0.000 C 
BRANCH  21  22
ATOM     22  C   UNL     1      29.620  12.175  12.709  1.00  0.00    -0.000 C 
BRANCH  22  23
ATOM     23  C   UNL     1      28.764  12.805  13.818  1.00  0.00    -0.000 C 
BRANCH  23  24
ATOM     24  C   UNL     1      27.563  13.599  13.274  1.00  0.00    -0.000 C 
BRANCH  24  25
ATOM     25  C   UNL     1      27.422  13.609  11.741  1.00  0.00    -0.000 C 
BRANCH  25  26
ATOM     26  C   UNL     1      27.953  14.903  11.097  1.00  0.00    -0.000 C 
BRANCH  26  27
ATOM     27  C   UNL     1      26.838  15.727  10.433  1.00  0.00    -0.000 C 
BRANCH  27  28
ATOM     28  C   UNL     1      25.437  15.161  10.711  1.00  0.00    -0.000 C 
BRANCH  28  29
ATOM     29  C   UNL     1      24.742  15.948  11.828  1.00  0.00    -0.003 C 
ATOM     30  C   UNL     1      23.507  16.677  11.304  1.00  0.00     0.004 C 
ENDBRANCH  28  29
ENDBRANCH  27  28
ENDBRANCH  26  27
ENDBRANCH  25  26
ENDBRANCH  24  25
ENDBRANCH  23  24
ENDBRANCH  22  23
ENDBRANCH  21  22
ENDBRANCH  20  21
ENDBRANCH  19  20
ENDBRANCH  18  19
ENDBRANCH  17  18
ENDBRANCH   1  17
TORSDOF 26
ENDMDL
MODEL 4
REMARK VINA RESULT:    -4.612      4.162      9.487
REMARK INTER + INTRA:         -15.419
REMARK INTER:                 -11.730
REMARK INTRA:                  -3.689
REMARK UNBOUND:                -3.798
REMARK SMILES CCCCCCCCCCCCCCCCCCCCCCCCCCCC(=O)[O-]
REMARK SMILES IDX 15 1 16 2 17 3 18 4 19 5 20 6 21 7 22 8 23 9 24 10 25 11
REMARK SMILES IDX 26 12 27 13 28 14 29 15 30 16 14 17 13 18 12 19 11 20 10 21
REMARK SMILES IDX 9 22 8 23 7 24 6 25 5 26 4 27 3 28 2 29 1 30
REMARK H PARENT
REMARK Flexibility Score: inf
ROOT
ATOM      1  C   UNL     1      18.157   9.927  11.001  1.00  0.00     0.000 C 
ENDROOT
BRANCH   1   2
ATOM      2  C   UNL     1      19.138  11.025  11.446  1.00  0.00     0.000 C 
BRANCH   2   3
ATOM      3  C   UNL     1      20.050  10.568  12.595  1.00  0.00     0.000 C 
BRANCH   3   4
ATOM      4  C   UNL     1      20.346  11.691  13.606  1.00  0.00     0.000 C 
BRANCH   4   5
ATOM      5  C   UNL     1      21.844  11.811  13.927  1.00  0.00     0.000 C 
BRANCH   5   6
ATOM      6  C   UNL     1      22.198  11.216  15.301  1.00  0.00     0.000 C 
BRANCH   6   7
ATOM      7  C   UNL     1      20.959  10.796  16.111  1.00  0.00     0.000 C 
BRANCH   7   8
ATOM      8  C   UNL     1      21.188  10.673  17.629  1.00  0.00     0.000 C 
BRANCH   8   9
ATOM      9  C   UNL     1      21.410   9.220  18.087  1.00  0.00     0.000 C 
BRANCH   9  10
ATOM     10  C   UNL     1      22.857   8.949  18.525  1.00  0.00     0.000 C 
BRANCH  10  11
ATOM     11  C   UNL     1      23.773   8.584  17.342  1.00  0.00     0.000 C 
BRANCH  11  12
ATOM     12  C   UNL     1      23.194   7.457  16.472  1.00  0.00     0.006 C 
BRANCH  12  13
ATOM     13  C   UNL     1      23.358   7.724  14.969  1.00  0.00     0.053 C 
BRANCH  13  14
ATOM     14  C   UNL     1      23.967   6.539  14.285  1.00  0.00     0.041 C 
ATOM     15  O   UNL     1      25.214   6.361  14.316  1.00  0.00    -0.550 OA
ATOM     16  O   UNL     1      23.156   5.619  13.634  1.00  0.00    -0.550 OA
ENDBRANCH  13  14
ENDBRANCH  12  13
ENDBRANCH  11  12
ENDBRANCH  10  11
ENDBRANCH   9  10
ENDBRANCH   8   9
ENDBRANCH   7   8
ENDBRANCH   6   7
ENDBRANCH   5   6
ENDBRANCH   4   5
ENDBRANCH   3   4
ENDBRANCH   2   3
ENDBRANCH   1   2
BRANCH   1  17
ATOM     17  C   UNL     1      17.967   9.887   9.475  1.00  0.00     0.000 C 
BRANCH  17  18
ATOM     18  C   UNL     1      16.502  10.089   9.033  1.00  0.00     0.000 C 
BRANCH  18  19
ATOM     19  C   UNL     1      15.633  10.679  10.158  1.00  0.00     0.000 C 
BRANCH  19  20
ATOM     20  C   UNL     1      15.256  12.153   9.898  1.00  0.00     0.000 C 
BRANCH  20  21
ATOM     21  C   UNL     1      16.260  13.162  10.482  1.00  0.00     0.000 C 
BRANCH  21  22
ATOM     22  C   UNL     1      15.592  14.456  10.966  1.00  0.00    -0.000 C 
BRANCH  22  23
ATOM     23  C   UNL     1      16.288  14.999  12.224  1.00  0.00    -0.000 C 
BRANCH  23  24
ATOM     24  C   UNL     1      17.653  14.340  12.488  1.00  0.00    -0.000 C 
BRANCH  24  25
ATOM     25  C   UNL     1      18.124  14.373  13.954  1.00  0.00    -0.000 C 
BRANCH  25  26
ATOM     26  C   UNL     1      16.970  14.575  14.952  1.00  0.00    -0.000 C 
BRANCH  26  27
ATOM     27  C   UNL     1      17.438  14.496  16.414  1.00  0.00    -0.000 C 
BRANCH  27  28
ATOM     28  C   UNL     1      18.736  13.690  16.578  1.00  0.00    -0.000 C 
BRANCH  28  29
ATOM     29  C   UNL     1      19.829  14.544  17.233  1.00  0.00    -0.003 C 
ATOM     30  C   UNL     1      21.083  14.594  16.364  1.00  0.00     0.004 C 
ENDBRANCH  28  29
ENDBRANCH  27  28
ENDBRANCH  26  27
ENDBRANCH  25  26
ENDBRANCH  24  25
ENDBRANCH  23  24
ENDBRANCH  22  23
ENDBRANCH  21  22
ENDBRANCH  20  21
ENDBRANCH  19  20
ENDBRANCH  18  19
ENDBRANCH  17  18
ENDBRANCH   1  17
TORSDOF 26
ENDMDL
MODEL 5
REMARK VINA RESULT:    -4.595      3.233      7.375
REMARK INTER + INTRA:         -15.377
REMARK INTER:                 -11.057
REMARK INTRA:                  -4.320
REMARK UNBOUND:                -3.798
REMARK SMILES CCCCCCCCCCCCCCCCCCCCCCCCCCCC(=O)[O-]
REMARK SMILES IDX 15 1 16 2 17 3 18 4 19 5 20 6 21 7 22 8 23 9 24 10 25 11
REMARK SMILES IDX 26 12 27 13 28 14 29 15 30 16 14 17 13 18 12 19 11 20 10 21
REMARK SMILES IDX 9 22 8 23 7 24 6 25 5 26 4 27 3 28 2 29 1 30
REMARK H PARENT
REMARK Flexibility Score: inf
ROOT
ATOM      1  C   UNL     1      28.811   8.507  12.146  1.00  0.00     0.000 C 
ENDROOT
BRANCH   1   2
ATOM      2  C   UNL     1      28.227   7.179  12.656  1.00  0.00     0.000 C 
BRANCH   2   3
ATOM      3  C   UNL     1      28.602   6.894  14.119  1.00  0.00     0.000 C 
BRANCH   3   4
ATOM      4  C   UNL     1      27.747   7.691  15.121  1.00  0.00     0.000 C 
BRANCH   4   5
ATOM      5  C   UNL     1      26.292   7.199  15.170  1.00  0.00     0.000 C 
BRANCH   5   6
ATOM      6  C   UNL     1      25.314   8.198  14.527  1.00  0.00     0.000 C 
BRANCH   6   7
ATOM      7  C   UNL     1      23.838   7.838  14.773  1.00  0.00     0.000 C 
BRANCH   7   8
ATOM      8  C   UNL     1      23.082   7.321  13.535  1.00  0.00     0.000 C 
BRANCH   8   9
ATOM      9  C   UNL     1      22.751   5.820  13.616  1.00  0.00     0.000 C 
BRANCH   9  10
ATOM     10  C   UNL     1      23.125   5.201  14.972  1.00  0.00     0.000 C 
BRANCH  10  11
ATOM     11  C   UNL     1      24.057   3.985  14.828  1.00  0.00     0.000 C 
BRANCH  11  12
ATOM     12  C   UNL     1      25.239   4.253  13.883  1.00  0.00     0.006 C 
BRANCH  12  13
ATOM     13  C   UNL     1      25.797   2.971  13.251  1.00  0.00     0.053 C 
BRANCH  13  14
ATOM     14  C   UNL     1      27.070   3.255  12.515  1.00  0.00     0.041 C 
ATOM     15  O   UNL     1      28.134   3.479  13.152  1.00  0.00    -0.550 OA
ATOM     16  O   UNL     1      27.087   3.250  11.126  1.00  0.00    -0.550 OA
ENDBRANCH  13  14
ENDBRANCH  12  13
ENDBRANCH  11  12
ENDBRANCH  10  11
ENDBRANCH   9  10
ENDBRANCH   8   9
ENDBRANCH   7   8
ENDBRANCH   6   7
ENDBRANCH   5   6
ENDBRANCH   4   5
ENDBRANCH   3   4
ENDBRANCH   2   3
ENDBRANCH   1   2
BRANCH   1  17
ATOM     17  C   UNL     1      27.736   9.590  11.954  1.00  0.00     0.000 C 
BRANCH  17  18
ATOM     18  C   UNL     1      27.803  10.715  13.010  1.00  0.00     0.000 C 
BRANCH  18  19
ATOM     19  C   UNL     1      27.408  12.083  12.424  1.00  0.00     0.000 C 
BRANCH  19  20
ATOM     20  C   UNL     1      25.882  12.315  12.450  1.00  0.00     0.000 C 
BRANCH  20  21
ATOM     21  C   UNL     1      25.332  12.675  13.840  1.00  0.00     0.000 C 
BRANCH  21  22
ATOM     22  C   UNL     1      24.523  11.535  14.476  1.00  0.00    -0.000 C 
BRANCH  22  23
ATOM     23  C   UNL     1      24.444  11.698  16.001  1.00  0.00    -0.000 C 
BRANCH  23  24
ATOM     24  C   UNL     1      25.549  10.928  16.747  1.00  0.00    -0.000 C 
BRANCH  24  25
ATOM     25  C   UNL     1      25.180  10.460  18.166  1.00  0.00    -0.000 C 
BRANCH  25  26
ATOM     26  C   UNL     1      24.560   9.051  18.192  1.00  0.00    -0.000 C 
BRANCH  26  27
ATOM     27  C   UNL     1      23.083   9.068  18.619  1.00  0.00    -0.000 C 
BRANCH  27  28
ATOM     28  C   UNL     1      22.120   9.086  17.422  1.00  0.00    -0.000 C 
BRANCH  28  29
ATOM     29  C   UNL     1      21.065  10.186  17.587  1.00  0.00    -0.003 C 
ATOM     30  C   UNL     1      21.538  11.261  18.562  1.00  0.00     0.004 C 
ENDBRANCH  28  29
ENDBRANCH  27  28
ENDBRANCH  26  27
ENDBRANCH  25  26
ENDBRANCH  24  25
ENDBRANCH  23  24
ENDBRANCH  22  23
ENDBRANCH  21  22
ENDBRANCH  20  21
ENDBRANCH  19  20
ENDBRANCH  18  19
ENDBRANCH  17  18
ENDBRANCH   1  17
TORSDOF 26
ENDMDL
MODEL 6
REMARK VINA RESULT:    -4.588      3.252      7.448
REMARK INTER + INTRA:         -15.359
REMARK INTER:                 -10.709
REMARK INTRA:                  -4.649
REMARK UNBOUND:                -3.798
REMARK SMILES CCCCCCCCCCCCCCCCCCCCCCCCCCCC(=O)[O-]
REMARK SMILES IDX 15 1 16 2 17 3 18 4 19 5 20 6 21 7 22 8 23 9 24 10 25 11
REMARK SMILES IDX 26 12 27 13 28 14 29 15 30 16 14 17 13 18 12 19 11 20 10 21
REMARK SMILES IDX 9 22 8 23 7 24 6 25 5 26 4 27 3 28 2 29 1 30
REMARK H PARENT
REMARK Flexibility Score: inf
ROOT
ATOM      1  C   UNL     1      28.357   8.986  11.686  1.00  0.00     0.000 C 
ENDROOT
BRANCH   1   2
ATOM      2  C   UNL     1      28.750   8.034  12.830  1.00  0.00     0.000 C 
BRANCH   2   3
ATOM      3  C   UNL     1      27.818   6.816  12.929  1.00  0.00     0.000 C 
BRANCH   3   4
ATOM      4  C   UNL     1      27.306   6.571  14.359  1.00  0.00     0.000 C 
BRANCH   4   5
ATOM      5  C   UNL     1      27.021   7.880  15.112  1.00  0.00     0.000 C 
BRANCH   5   6
ATOM      6  C   UNL     1      25.520   8.087  15.379  1.00  0.00     0.000 C 
BRANCH   6   7
ATOM      7  C   UNL     1      24.701   8.276  14.089  1.00  0.00     0.000 C 
BRANCH   7   8
ATOM      8  C   UNL     1      23.505   7.318  13.935  1.00  0.00     0.000 C 
BRANCH   8   9
ATOM      9  C   UNL     1      23.271   6.444  15.181  1.00  0.00     0.000 C 
BRANCH   9  10
ATOM     10  C   UNL     1      23.065   4.961  14.838  1.00  0.00     0.000 C 
BRANCH  10  11
ATOM     11  C   UNL     1      24.378   4.159  14.869  1.00  0.00     0.000 C 
BRANCH  11  12
ATOM     12  C   UNL     1      24.924   3.862  13.463  1.00  0.00     0.006 C 
BRANCH  12  13
ATOM     13  C   UNL     1      25.934   2.707  13.450  1.00  0.00     0.053 C 
BRANCH  13  14
ATOM     14  C   UNL     1      27.152   3.079  12.662  1.00  0.00     0.041 C 
ATOM     15  O   UNL     1      28.246   3.292  13.249  1.00  0.00    -0.550 OA
ATOM     16  O   UNL     1      27.084   3.168  11.277  1.00  0.00    -0.550 OA
ENDBRANCH  13  14
ENDBRANCH  12  13
ENDBRANCH  11  12
ENDBRANCH  10  11
ENDBRANCH   9  10
ENDBRANCH   8   9
ENDBRANCH   7   8
ENDBRANCH   6   7
ENDBRANCH   5   6
ENDBRANCH   4   5
ENDBRANCH   3   4
ENDBRANCH   2   3
ENDBRANCH   1   2
BRANCH   1  17
ATOM     17  C   UNL     1      27.138   9.857  12.035  1.00  0.00     0.000 C 
BRANCH  17  18
ATOM     18  C   UNL     1      27.496  11.113  12.859  1.00  0.00     0.000 C 
BRANCH  18  19
ATOM     19  C   UNL     1      26.459  12.236  12.683  1.00  0.00     0.000 C 
BRANCH  19  20
ATOM     20  C   UNL     1      25.122  11.917  13.386  1.00  0.00     0.000 C 
BRANCH  20  21
ATOM     21  C   UNL     1      25.239  11.798  14.915  1.00  0.00     0.000 C 
BRANCH  21  22
ATOM     22  C   UNL     1      23.950  12.201  15.645  1.00  0.00    -0.000 C 
BRANCH  22  23
ATOM     23  C   UNL     1      23.204  10.965  16.171  1.00  0.00    -0.000 C 
BRANCH  23  24
ATOM     24  C   UNL     1      22.022  10.549  15.277  1.00  0.00    -0.000 C 
BRANCH  24  25
ATOM     25  C   UNL     1      21.123  11.704  14.799  1.00  0.00    -0.000 C 
BRANCH  25  26
ATOM     26  C   UNL     1      20.832  11.653  13.288  1.00  0.00    -0.000 C 
BRANCH  26  27
ATOM     27  C   UNL     1      20.842  13.047  12.641  1.00  0.00    -0.000 C 
BRANCH  27  28
ATOM     28  C   UNL     1      21.992  13.929  13.150  1.00  0.00    -0.000 C 
BRANCH  28  29
ATOM     29  C   UNL     1      22.301  15.052  12.153  1.00  0.00    -0.003 C 
ATOM     30  C   UNL     1      23.797  15.135  11.861  1.00  0.00     0.004 C 
ENDBRANCH  28  29
ENDBRANCH  27  28
ENDBRANCH  26  27
ENDBRANCH  25  26
ENDBRANCH  24  25
ENDBRANCH  23  24
ENDBRANCH  22  23
ENDBRANCH  21  22
ENDBRANCH  20  21
ENDBRANCH  19  20
ENDBRANCH  18  19
ENDBRANCH  17  18
ENDBRANCH   1  17
TORSDOF 26
ENDMDL
MODEL 7
REMARK VINA RESULT:    -4.548      4.509      7.857
REMARK INTER + INTRA:         -15.259
REMARK INTER:                 -10.451
REMARK INTRA:                  -4.807
REMARK UNBOUND:                -3.798
REMARK SMILES CCCCCCCCCCCCCCCCCCCCCCCCCCCC(=O)[O-]
REMARK SMILES IDX 15 1 16 2 17 3 18 4 19 5 20 6 21 7 22 8 23 9 24 10 25 11
REMARK SMILES IDX 26 12 27 13 28 14 29 15 30 16 14 17 13 18 12 19 11 20 10 21
REMARK SMILES IDX 9 22 8 23 7 24 6 25 5 26 4 27 3 28 2 29 1 30
REMARK H PARENT
REMARK Flexibility Score: inf
ROOT
ATOM      1  C   UNL     1      23.286  10.849  14.946  1.00  0.00     0.000 C 
ENDROOT
BRANCH   1   2
ATOM      2  C   UNL     1      22.471  11.759  14.011  1.00  0.00     0.000 C 
BRANCH   2   3
ATOM      3  C   UNL     1      20.980  11.390  13.983  1.00  0.00     0.000 C 
BRANCH   3   4
ATOM      4  C   UNL     1      20.225  12.044  12.811  1.00  0.00     0.000 C 
BRANCH   4   5
ATOM      5  C   UNL     1      19.476  11.014  11.950  1.00  0.00     0.000 C 
BRANCH   5   6
ATOM      6  C   UNL     1      18.712  11.669  10.786  1.00  0.00     0.000 C 
BRANCH   6   7
ATOM      7  C   UNL     1      18.473  13.175  10.996  1.00  0.00     0.000 C 
BRANCH   7   8
ATOM      8  C   UNL     1      16.992  13.588  11.093  1.00  0.00     0.000 C 
BRANCH   8   9
ATOM      9  C   UNL     1      16.755  14.746  12.080  1.00  0.00     0.000 C 
BRANCH   9  10
ATOM     10  C   UNL     1      17.645  14.654  13.329  1.00  0.00     0.000 C 
BRANCH  10  11
ATOM     11  C   UNL     1      16.830  14.509  14.626  1.00  0.00     0.000 C 
BRANCH  11  12
ATOM     12  C   UNL     1      17.719  14.360  15.870  1.00  0.00     0.006 C 
BRANCH  12  13
ATOM     13  C   UNL     1      16.970  14.661  17.176  1.00  0.00     0.053 C 
BRANCH  13  14
ATOM     14  C   UNL     1      16.782  13.410  17.977  1.00  0.00     0.041 C 
ATOM     15  O   UNL     1      17.385  13.264  19.074  1.00  0.00    -0.550 OA
ATOM     16  O   UNL     1      15.922  12.417  17.526  1.00  0.00    -0.550 OA
ENDBRANCH  13  14
ENDBRANCH  12  13
ENDBRANCH  11  12
ENDBRANCH  10  11
ENDBRANCH   9  10
ENDBRANCH   8   9
ENDBRANCH   7   8
ENDBRANCH   6   7
ENDBRANCH   5   6
ENDBRANCH   4   5
ENDBRANCH   3   4
ENDBRANCH   2   3
ENDBRANCH   1   2
BRANCH   1  17
ATOM     17  C   UNL     1      22.985   9.357  14.728  1.00  0.00     0.000 C 
BRANCH  17  18
ATOM     18  C   UNL     1      23.798   8.424  15.652  1.00  0.00     0.000 C 
BRANCH  18  19
ATOM     19  C   UNL     1      22.930   7.813  16.766  1.00  0.00     0.000 C 
BRANCH  19  20
ATOM     20  C   UNL     1      22.788   8.753  17.983  1.00  0.00     0.000 C 
BRANCH  20  21
ATOM     21  C   UNL     1      21.411   9.430  18.085  1.00  0.00     0.000 C 
BRANCH  21  22
ATOM     22  C   UNL     1      21.506  10.948  18.293  1.00  0.00    -0.000 C 
BRANCH  22  23
ATOM     23  C   UNL     1      20.305  11.668  17.660  1.00  0.00    -0.000 C 
BRANCH  23  24
ATOM     24  C   UNL     1      20.631  13.104  17.214  1.00  0.00    -0.000 C 
BRANCH  24  25
ATOM     25  C   UNL     1      22.124  13.477  17.240  1.00  0.00    -0.000 C 
BRANCH  25  26
ATOM     26  C   UNL     1      22.456  14.692  16.354  1.00  0.00    -0.000 C 
BRANCH  26  27
ATOM     27  C   UNL     1      21.196  15.366  15.787  1.00  0.00    -0.000 C 
BRANCH  27  28
ATOM     28  C   UNL     1      21.150  15.340  14.252  1.00  0.00    -0.000 C 
BRANCH  28  29
ATOM     29  C   UNL     1      22.566  15.313  13.664  1.00  0.00    -0.003 C 
ATOM     30  C   UNL     1      22.530  15.316  12.138  1.00  0.00     0.004 C 
ENDBRANCH  28  29
ENDBRANCH  27  28
ENDBRANCH  26  27
ENDBRANCH  25  26
ENDBRANCH  24  25
ENDBRANCH  23  24
ENDBRANCH  22  23
ENDBRANCH  21  22
ENDBRANCH  20  21
ENDBRANCH  19  20
ENDBRANCH  18  19
ENDBRANCH  17  18
ENDBRANCH   1  17
TORSDOF 26
ENDMDL
MODEL 8
REMARK VINA RESULT:    -4.540      3.110      7.237
REMARK INTER + INTRA:         -15.239
REMARK INTER:                 -11.131
REMARK INTRA:                  -4.108
REMARK UNBOUND:                -3.798
REMARK SMILES CCCCCCCCCCCCCCCCCCCCCCCCCCCC(=O)[O-]
REMARK SMILES IDX 15 1 16 2 17 3 18 4 19 5 20 6 21 7 22 8 23 9 24 10 25 11
REMARK SMILES IDX 26 12 27 13 28 14 29 15 30 16 14 17 13 18 12 19 11 20 10 21
REMARK SMILES IDX 9 22 8 23 7 24 6 25 5 26 4 27 3 28 2 29 1 30
REMARK H PARENT
REMARK Flexibility Score: inf
ROOT
ATOM      1  C   UNL     1      27.221   9.741  12.229  1.00  0.00     0.000 C 
ENDROOT
BRANCH   1   2
ATOM      2  C   UNL     1      28.213   8.736  11.619  1.00  0.00     0.000 C 
BRANCH   2   3
ATOM      3  C   UNL     1      29.629   8.881  12.198  1.00  0.00     0.000 C 
BRANCH   3   4
ATOM      4  C   UNL     1      29.761  10.072  13.165  1.00  0.00     0.000 C 
BRANCH   4   5
ATOM      5  C   UNL     1      31.115  10.787  13.032  1.00  0.00     0.000 C 
BRANCH   5   6
ATOM      6  C   UNL     1      30.958  12.296  12.777  1.00  0.00     0.000 C 
BRANCH   6   7
ATOM      7  C   UNL     1      29.634  12.653  12.078  1.00  0.00     0.000 C 
BRANCH   7   8
ATOM      8  C   UNL     1      28.791  13.725  12.794  1.00  0.00     0.000 C 
BRANCH   8   9
ATOM      9  C   UNL     1      27.687  13.125  13.684  1.00  0.00     0.000 C 
BRANCH   9  10
ATOM     10  C   UNL     1      26.275  13.531  13.235  1.00  0.00     0.000 C 
BRANCH  10  11
ATOM     11  C   UNL     1      26.096  13.451  11.708  1.00  0.00     0.000 C 
BRANCH  11  12
ATOM     12  C   UNL     1      25.335  14.658  11.137  1.00  0.00     0.006 C 
BRANCH  12  13
ATOM     13  C   UNL     1      26.233  15.589  10.311  1.00  0.00     0.053 C 
BRANCH  13  14
ATOM     14  C   UNL     1      26.785  16.687  11.167  1.00  0.00     0.041 C 
ATOM     15  O   UNL     1      27.976  17.071  11.015  1.00  0.00    -0.550 OA
ATOM     16  O   UNL     1      25.979  17.303  12.116  1.00  0.00    -0.550 OA
ENDBRANCH  13  14
ENDBRANCH  12  13
ENDBRANCH  11  12
ENDBRANCH  10  11
ENDBRANCH   9  10
ENDBRANCH   8   9
ENDBRANCH   7   8
ENDBRANCH   6   7
ENDBRANCH   5   6
ENDBRANCH   4   5
ENDBRANCH   3   4
ENDBRANCH   2   3
ENDBRANCH   1   2
BRANCH   1  17
ATOM     17  C   UNL     1      26.289   9.093  13.267  1.00  0.00     0.000 C 
BRANCH  17  18
ATOM     18  C   UNL     1      26.201   9.882  14.591  1.00  0.00     0.000 C 
BRANCH  18  19
ATOM     19  C   UNL     1      26.450   8.986  15.818  1.00  0.00     0.000 C 
BRANCH  19  20
ATOM     20  C   UNL     1      25.660   7.662  15.748  1.00  0.00     0.000 C 
BRANCH  20  21
ATOM     21  C   UNL     1      24.159   7.818  16.048  1.00  0.00     0.000 C 
BRANCH  21  22
ATOM     22  C   UNL     1      23.268   7.111  15.017  1.00  0.00    -0.000 C 
BRANCH  22  23
ATOM     23  C   UNL     1      23.986   5.897  14.408  1.00  0.00    -0.000 C 
BRANCH  23  24
ATOM     24  C   UNL     1      23.618   4.571  15.099  1.00  0.00    -0.000 C 
BRANCH  24  25
ATOM     25  C   UNL     1      24.433   3.346  14.644  1.00  0.00    -0.000 C 
BRANCH  25  26
ATOM     26  C   UNL     1      25.167   3.574  13.310  1.00  0.00    -0.000 C 
BRANCH  26  27
ATOM     27  C   UNL     1      26.396   2.663  13.154  1.00  0.00    -0.000 C 
BRANCH  27  28
ATOM     28  C   UNL     1      27.719   3.445  13.173  1.00  0.00    -0.000 C 
BRANCH  28  29
ATOM     29  C   UNL     1      27.484   4.922  12.835  1.00  0.00    -0.003 C 
ATOM     30  C   UNL     1      28.092   5.835  13.897  1.00  0.00     0.004 C 
ENDBRANCH  28  29
ENDBRANCH  27  28
ENDBRANCH  26  27
ENDBRANCH  25  26
ENDBRANCH  24  25
ENDBRANCH  23  24
ENDBRANCH  22  23
ENDBRANCH  21  22
ENDBRANCH  20  21
ENDBRANCH  19  20
ENDBRANCH  18  19
ENDBRANCH  17  18
ENDBRANCH   1  17
TORSDOF 26
ENDMDL
MODEL 9
REMARK VINA RESULT:    -4.520      1.456      6.001
REMARK INTER + INTRA:         -15.188
REMARK INTER:                  -9.964
REMARK INTRA:                  -5.224
REMARK UNBOUND:                -3.798
REMARK SMILES CCCCCCCCCCCCCCCCCCCCCCCCCCCC(=O)[O-]
REMARK SMILES IDX 15 1 16 2 17 3 18 4 19 5 20 6 21 7 22 8 23 9 24 10 25 11
REMARK SMILES IDX 26 12 27 13 28 14 29 15 30 16 14 17 13 18 12 19 11 20 10 21
REMARK SMILES IDX 9 22 8 23 7 24 6 25 5 26 4 27 3 28 2 29 1 30
REMARK H PARENT
REMARK Flexibility Score: inf
ROOT
ATOM      1  C   UNL     1      26.991   9.493  12.055  1.00  0.00     0.000 C 
ENDROOT
BRANCH   1   2
ATOM      2  C   UNL     1      28.277   8.714  11.731  1.00  0.00     0.000 C 
BRANCH   2   3
ATOM      3  C   UNL     1      29.546   9.543  11.985  1.00  0.00     0.000 C 
BRANCH   3   4
ATOM      4  C   UNL     1      30.174   9.267  13.364  1.00  0.00     0.000 C 
BRANCH   4   5
ATOM      5  C   UNL     1      30.196  10.518  14.257  1.00  0.00     0.000 C 
BRANCH   5   6
ATOM      6  C   UNL     1      29.534  11.732  13.582  1.00  0.00     0.000 C 
BRANCH   6   7
ATOM      7  C   UNL     1      28.353  12.299  14.389  1.00  0.00     0.000 C 
BRANCH   7   8
ATOM      8  C   UNL     1      27.262  12.986  13.546  1.00  0.00     0.000 C 
BRANCH   8   9
ATOM      9  C   UNL     1      25.914  13.095  14.282  1.00  0.00     0.000 C 
BRANCH   9  10
ATOM     10  C   UNL     1      24.889  12.055  13.803  1.00  0.00     0.000 C 
BRANCH  10  11
ATOM     11  C   UNL     1      23.871  11.683  14.897  1.00  0.00     0.000 C 
BRANCH  11  12
ATOM     12  C   UNL     1      22.522  11.231  14.318  1.00  0.00     0.006 C 
BRANCH  12  13
ATOM     13  C   UNL     1      21.741  12.379  13.665  1.00  0.00     0.053 C 
BRANCH  13  14
ATOM     14  C   UNL     1      20.562  11.852  12.905  1.00  0.00     0.041 C 
ATOM     15  O   UNL     1      19.898  12.616  12.155  1.00  0.00    -0.550 OA
ATOM     16  O   UNL     1      20.211  10.512  13.008  1.00  0.00    -0.550 OA
ENDBRANCH  13  14
ENDBRANCH  12  13
ENDBRANCH  11  12
ENDBRANCH  10  11
ENDBRANCH   9  10
ENDBRANCH   8   9
ENDBRANCH   7   8
ENDBRANCH   6   7
ENDBRANCH   5   6
ENDBRANCH   4   5
ENDBRANCH   3   4
ENDBRANCH   2   3
ENDBRANCH   1   2
BRANCH   1  17
ATOM     17  C   UNL     1      26.187   8.855  13.201  1.00  0.00     0.000 C 
BRANCH  17  18
ATOM     18  C   UNL     1      26.868   7.610  13.810  1.00  0.00     0.000 C 
BRANCH  18  19
ATOM     19  C   UNL     1      27.185   7.796  15.305  1.00  0.00     0.000 C 
BRANCH  19  20
ATOM     20  C   UNL     1      26.945   9.244  15.781  1.00  0.00     0.000 C 
BRANCH  20  21
ATOM     21  C   UNL     1      26.431   9.346  17.227  1.00  0.00     0.000 C 
BRANCH  21  22
ATOM     22  C   UNL     1      25.466   8.211  17.598  1.00  0.00    -0.000 C 
BRANCH  22  23
ATOM     23  C   UNL     1      24.032   8.737  17.761  1.00  0.00    -0.000 C 
BRANCH  23  24
ATOM     24  C   UNL     1      23.123   8.385  16.570  1.00  0.00    -0.000 C 
BRANCH  24  25
ATOM     25  C   UNL     1      23.349   6.989  15.962  1.00  0.00    -0.000 C 
BRANCH  25  26
ATOM     26  C   UNL     1      23.253   6.981  14.425  1.00  0.00    -0.000 C 
BRANCH  26  27
ATOM     27  C   UNL     1      23.357   5.563  13.839  1.00  0.00    -0.000 C 
BRANCH  27  28
ATOM     28  C   UNL     1      24.039   4.574  14.796  1.00  0.00    -0.000 C 
BRANCH  28  29
ATOM     29  C   UNL     1      24.750   3.462  14.016  1.00  0.00    -0.003 C 
ATOM     30  C   UNL     1      26.081   3.949  13.449  1.00  0.00     0.004 C 
ENDBRANCH  28  29
ENDBRANCH  27  28
ENDBRANCH  26  27
ENDBRANCH  25  26
ENDBRANCH  24  25
ENDBRANCH  23  24
ENDBRANCH  22  23
ENDBRANCH  21  22
ENDBRANCH  20  21
ENDBRANCH  19  20
ENDBRANCH  18  19
ENDBRANCH  17  18
ENDBRANCH   1  17
TORSDOF 26
ENDMDL
