MODEL 1
REMARK VINA RESULT:    -5.905      0.000      0.000
REMARK INTER + INTRA:          -7.625
REMARK INTER:                  -7.286
REMARK INTRA:                  -0.339
REMARK UNBOUND:                -0.339
REMARK SMILES Oc1cc(O)c2cc(O)c(-c3cc(O)c(O)c(O)c3)[o+]c2c1
REMARK SMILES IDX 10 1 20 2 21 3 22 4 2 5 3 6 4 7 6 8 7 9 8 10 11 11 12 12
REMARK SMILES IDX 13 13 19 14 15 15 17 16 14 17 16 19 18 21 9 23 1 25 5 27
REMARK H PARENT 14 18 16 20 18 22 9 24 1 26 5 28
REMARK Flexibility Score: inf
ROOT
ATOM      1  C   UNL     1     -13.434 -33.832  32.711  1.00  0.00     0.402 A 
ATOM      2  O   UNL     1     -12.358 -33.625  33.465  1.00  0.00    -0.202 OA
ATOM      3  C   UNL     1     -12.313 -32.726  34.442  1.00  0.00     0.368 A 
ATOM      4  C   UNL     1     -11.135 -32.579  35.178  1.00  0.00     0.162 A 
ATOM      5  C   UNL     1     -11.059 -31.640  36.209  1.00  0.00     0.128 A 
ATOM      6  C   UNL     1     -12.168 -30.841  36.505  1.00  0.00     0.093 A 
ATOM      7  C   UNL     1     -13.361 -30.969  35.783  1.00  0.00     0.136 A 
ATOM      8  C   UNL     1     -13.442 -31.924  34.736  1.00  0.00     0.125 A 
ATOM      9  C   UNL     1     -14.600 -32.129  33.968  1.00  0.00     0.078 A 
ATOM     10  C   UNL     1     -14.607 -33.094  32.955  1.00  0.00     0.223 A 
ENDROOT
BRANCH   1  11
ATOM     11  C   UNL     1     -13.356 -34.857  31.644  1.00  0.00     0.091 A 
ATOM     12  C   UNL     1     -13.327 -36.215  31.994  1.00  0.00     0.068 A 
ATOM     13  C   UNL     1     -13.234 -37.204  31.009  1.00  0.00     0.162 A 
ATOM     14  C   UNL     1     -13.252 -34.498  30.290  1.00  0.00     0.068 A 
ATOM     15  C   UNL     1     -13.151 -36.841  29.655  1.00  0.00     0.200 A 
ATOM     16  C   UNL     1     -13.156 -35.482  29.297  1.00  0.00     0.162 A 
BRANCH  13  17
ATOM     17  O   UNL     1     -13.223 -38.544  31.398  1.00  0.00    -0.504 OA
ATOM     18  H   UNL     1     -13.164 -38.822  32.371  1.00  0.00     0.293 HD
ENDBRANCH  13  17
BRANCH  15  19
ATOM     19  O   UNL     1     -13.062 -37.834  28.679  1.00  0.00    -0.502 OA
ATOM     20  H   UNL     1     -13.392 -37.693  27.732  1.00  0.00     0.293 HD
ENDBRANCH  15  19
BRANCH  16  21
ATOM     21  O   UNL     1     -13.059 -35.114  27.956  1.00  0.00    -0.504 OA
ATOM     22  H   UNL     1     -13.781 -35.354  27.285  1.00  0.00     0.293 HD
ENDBRANCH  16  21
ENDBRANCH   1  11
BRANCH  10  23
ATOM     23  O   UNL     1     -15.771 -33.333  32.225  1.00  0.00    -0.500 OA
ATOM     24  H   UNL     1     -16.684 -33.340  32.665  1.00  0.00     0.294 HD
ENDBRANCH  10  23
BRANCH   5  25
ATOM     25  O   UNL     1      -9.875 -31.510  36.931  1.00  0.00    -0.507 OA
ATOM     26  H   UNL     1      -9.880 -31.267  37.915  1.00  0.00     0.293 HD
ENDBRANCH   5  25
BRANCH   7  27
ATOM     27  O   UNL     1     -14.423 -30.131  36.138  1.00  0.00    -0.507 OA
ATOM     28  H   UNL     1     -15.319 -30.118  35.675  1.00  0.00     0.293 HD
ENDBRANCH   7  27
TORSDOF 7
ENDMDL
MODEL 2
REMARK VINA RESULT:    -5.839      0.080      1.795
REMARK INTER + INTRA:          -7.544
REMARK INTER:                  -7.229
REMARK INTRA:                  -0.315
REMARK UNBOUND:                -0.339
REMARK SMILES Oc1cc(O)c2cc(O)c(-c3cc(O)c(O)c(O)c3)[o+]c2c1
REMARK SMILES IDX 10 1 20 2 21 3 22 4 2 5 3 6 4 7 6 8 7 9 8 10 11 11 12 12
REMARK SMILES IDX 13 13 19 14 15 15 17 16 14 17 16 19 18 21 9 23 1 25 5 27
REMARK H PARENT 14 18 16 20 18 22 9 24 1 26 5 28
REMARK Flexibility Score: inf
ROOT
ATOM      1  C   UNL     1     -13.395 -33.820  32.753  1.00  0.00     0.402 A 
ATOM      2  O   UNL     1     -12.322 -33.586  33.503  1.00  0.00    -0.202 OA
ATOM      3  C   UNL     1     -12.294 -32.681  34.475  1.00  0.00     0.368 A 
ATOM      4  C   UNL     1     -11.117 -32.504  35.206  1.00  0.00     0.162 A 
ATOM      5  C   UNL     1     -11.058 -31.559  36.232  1.00  0.00     0.128 A 
ATOM      6  C   UNL     1     -12.184 -30.783  36.528  1.00  0.00     0.093 A 
ATOM      7  C   UNL     1     -13.375 -30.940  35.810  1.00  0.00     0.136 A 
ATOM      8  C   UNL     1     -13.440 -31.903  34.769  1.00  0.00     0.125 A 
ATOM      9  C   UNL     1     -14.595 -32.137  34.006  1.00  0.00     0.078 A 
ATOM     10  C   UNL     1     -14.583 -33.107  32.998  1.00  0.00     0.223 A 
ENDROOT
BRANCH   1  11
ATOM     11  C   UNL     1     -13.298 -34.849  31.692  1.00  0.00     0.091 A 
ATOM     12  C   UNL     1     -13.250 -34.451  30.348  1.00  0.00     0.068 A 
ATOM     13  C   UNL     1     -13.177 -35.402  29.324  1.00  0.00     0.162 A 
ATOM     14  C   UNL     1     -13.310 -36.221  31.999  1.00  0.00     0.068 A 
ATOM     15  C   UNL     1     -13.169 -36.771  29.637  1.00  0.00     0.200 A 
ATOM     16  C   UNL     1     -13.240 -37.180  30.979  1.00  0.00     0.162 A 
BRANCH  13  17
ATOM     17  O   UNL     1     -13.116 -34.964  28.001  1.00  0.00    -0.504 OA
ATOM     18  H   UNL     1     -12.936 -33.996  27.762  1.00  0.00     0.293 HD
ENDBRANCH  13  17
BRANCH  15  19
ATOM     19  O   UNL     1     -13.093 -37.712  28.609  1.00  0.00    -0.502 OA
ATOM     20  H   UNL     1     -13.869 -38.319  28.374  1.00  0.00     0.293 HD
ENDBRANCH  15  19
BRANCH  16  21
ATOM     21  O   UNL     1     -13.246 -38.537  31.296  1.00  0.00    -0.504 OA
ATOM     22  H   UNL     1     -12.453 -38.983  31.743  1.00  0.00     0.293 HD
ENDBRANCH  16  21
ENDBRANCH   1  11
BRANCH  10  23
ATOM     23  O   UNL     1     -15.744 -33.376  32.273  1.00  0.00    -0.500 OA
ATOM     24  H   UNL     1     -15.771 -33.300  31.263  1.00  0.00     0.294 HD
ENDBRANCH  10  23
BRANCH   5  25
ATOM     25  O   UNL     1      -9.875 -31.398  36.950  1.00  0.00    -0.507 OA
ATOM     26  H   UNL     1      -9.881 -31.109  37.921  1.00  0.00     0.293 HD
ENDBRANCH   5  25
BRANCH   7  27
ATOM     27  O   UNL     1     -14.455 -30.125  36.165  1.00  0.00    -0.507 OA
ATOM     28  H   UNL     1     -14.397 -29.126  36.293  1.00  0.00     0.293 HD
ENDBRANCH   7  27
TORSDOF 7
ENDMDL
MODEL 3
REMARK VINA RESULT:    -5.353      1.141      2.603
REMARK INTER + INTRA:          -6.944
REMARK INTER:                  -6.576
REMARK INTRA:                  -0.368
REMARK UNBOUND:                -0.339
REMARK SMILES Oc1cc(O)c2cc(O)c(-c3cc(O)c(O)c(O)c3)[o+]c2c1
REMARK SMILES IDX 10 1 20 2 21 3 22 4 2 5 3 6 4 7 6 8 7 9 8 10 11 11 12 12
REMARK SMILES IDX 13 13 19 14 15 15 17 16 14 17 16 19 18 21 9 23 1 25 5 27
REMARK H PARENT 14 18 16 20 18 22 9 24 1 26 5 28
REMARK Flexibility Score: inf
ROOT
ATOM      1  C   UNL     1     -12.203 -34.324  32.406  1.00  0.00     0.402 A 
ATOM      2  O   UNL     1     -13.101 -33.565  33.028  1.00  0.00    -0.202 OA
ATOM      3  C   UNL     1     -12.794 -32.737  34.021  1.00  0.00     0.368 A 
ATOM      4  C   UNL     1     -13.807 -31.982  34.615  1.00  0.00     0.162 A 
ATOM      5  C   UNL     1     -13.514 -31.106  35.662  1.00  0.00     0.128 A 
ATOM      6  C   UNL     1     -12.198 -30.986  36.121  1.00  0.00     0.093 A 
ATOM      7  C   UNL     1     -11.164 -31.732  35.543  1.00  0.00     0.136 A 
ATOM      8  C   UNL     1     -11.458 -32.621  34.476  1.00  0.00     0.125 A 
ATOM      9  C   UNL     1     -10.483 -33.399  33.829  1.00  0.00     0.078 A 
ATOM     10  C   UNL     1     -10.849 -34.250  32.781  1.00  0.00     0.223 A 
ENDROOT
BRANCH   1  11
ATOM     11  C   UNL     1     -12.672 -35.215  31.319  1.00  0.00     0.091 A 
ATOM     12  C   UNL     1     -12.915 -36.569  31.592  1.00  0.00     0.068 A 
ATOM     13  C   UNL     1     -13.339 -37.437  30.581  1.00  0.00     0.162 A 
ATOM     14  C   UNL     1     -12.825 -34.745  30.003  1.00  0.00     0.068 A 
ATOM     15  C   UNL     1     -13.510 -36.958  29.271  1.00  0.00     0.200 A 
ATOM     16  C   UNL     1     -13.248 -35.608  28.983  1.00  0.00     0.162 A 
BRANCH  13  17
ATOM     17  O   UNL     1     -13.584 -38.773  30.898  1.00  0.00    -0.504 OA
ATOM     18  H   UNL     1     -14.074 -39.395  30.266  1.00  0.00     0.293 HD
ENDBRANCH  13  17
BRANCH  15  19
ATOM     19  O   UNL     1     -13.938 -37.830  28.269  1.00  0.00    -0.502 OA
ATOM     20  H   UNL     1     -14.784 -37.668  27.737  1.00  0.00     0.293 HD
ENDBRANCH  15  19
BRANCH  16  21
ATOM     21  O   UNL     1     -13.402 -35.130  27.683  1.00  0.00    -0.504 OA
ATOM     22  H   UNL     1     -12.811 -34.393  27.314  1.00  0.00     0.293 HD
ENDBRANCH  16  21
ENDBRANCH   1  11
BRANCH  10  23
ATOM     23  O   UNL     1      -9.876 -34.984  32.105  1.00  0.00    -0.500 OA
ATOM     24  H   UNL     1      -9.418 -34.626  31.275  1.00  0.00     0.294 HD
ENDBRANCH  10  23
BRANCH   5  25
ATOM     25  O   UNL     1     -14.539 -30.361  36.240  1.00  0.00    -0.507 OA
ATOM     26  H   UNL     1     -15.288 -29.968  35.681  1.00  0.00     0.293 HD
ENDBRANCH   5  25
BRANCH   7  27
ATOM     27  O   UNL     1      -9.876 -31.558  36.060  1.00  0.00    -0.507 OA
ATOM     28  H   UNL     1      -9.333 -30.714  35.965  1.00  0.00     0.293 HD
ENDBRANCH   7  27
TORSDOF 7
ENDMDL
MODEL 4
REMARK VINA RESULT:    -5.033      1.172      3.172
REMARK INTER + INTRA:          -6.549
REMARK INTER:                  -6.166
REMARK INTRA:                  -0.383
REMARK UNBOUND:                -0.339
REMARK SMILES Oc1cc(O)c2cc(O)c(-c3cc(O)c(O)c(O)c3)[o+]c2c1
REMARK SMILES IDX 10 1 20 2 21 3 22 4 2 5 3 6 4 7 6 8 7 9 8 10 11 11 12 12
REMARK SMILES IDX 13 13 19 14 15 15 17 16 14 17 16 19 18 21 9 23 1 25 5 27
REMARK H PARENT 14 18 16 20 18 22 9 24 1 26 5 28
REMARK Flexibility Score: inf
ROOT
ATOM      1  C   UNL     1     -12.190 -34.315  32.380  1.00  0.00     0.402 A 
ATOM      2  O   UNL     1     -13.080 -33.540  32.993  1.00  0.00    -0.202 OA
ATOM      3  C   UNL     1     -12.774 -32.739  34.008  1.00  0.00     0.368 A 
ATOM      4  C   UNL     1     -13.780 -31.965  34.591  1.00  0.00     0.162 A 
ATOM      5  C   UNL     1     -13.488 -31.116  35.659  1.00  0.00     0.128 A 
ATOM      6  C   UNL     1     -12.181 -31.041  36.152  1.00  0.00     0.093 A 
ATOM      7  C   UNL     1     -11.154 -31.807  35.586  1.00  0.00     0.136 A 
ATOM      8  C   UNL     1     -11.447 -32.669  34.496  1.00  0.00     0.125 A 
ATOM      9  C   UNL     1     -10.480 -33.464  33.859  1.00  0.00     0.078 A 
ATOM     10  C   UNL     1     -10.844 -34.286  32.788  1.00  0.00     0.223 A 
ENDROOT
BRANCH   1  11
ATOM     11  C   UNL     1     -12.657 -35.173  31.266  1.00  0.00     0.091 A 
ATOM     12  C   UNL     1     -12.758 -34.634  29.975  1.00  0.00     0.068 A 
ATOM     13  C   UNL     1     -13.215 -35.415  28.909  1.00  0.00     0.162 A 
ATOM     14  C   UNL     1     -13.056 -36.503  31.485  1.00  0.00     0.068 A 
ATOM     15  C   UNL     1     -13.594 -36.750  29.128  1.00  0.00     0.200 A 
ATOM     16  C   UNL     1     -13.517 -37.292  30.422  1.00  0.00     0.162 A 
BRANCH  13  17
ATOM     17  O   UNL     1     -13.287 -34.845  27.637  1.00  0.00    -0.504 OA
ATOM     18  H   UNL     1     -13.127 -33.857  27.481  1.00  0.00     0.293 HD
ENDBRANCH  13  17
BRANCH  15  19
ATOM     19  O   UNL     1     -14.045 -37.523  28.058  1.00  0.00    -0.502 OA
ATOM     20  H   UNL     1     -13.429 -37.825  27.312  1.00  0.00     0.293 HD
ENDBRANCH  15  19
BRANCH  16  21
ATOM     21  O   UNL     1     -13.905 -38.612  30.649  1.00  0.00    -0.504 OA
ATOM     22  H   UNL     1     -14.877 -38.896  30.599  1.00  0.00     0.293 HD
ENDBRANCH  16  21
ENDBRANCH   1  11
BRANCH  10  23
ATOM     23  O   UNL     1      -9.875 -35.037  32.123  1.00  0.00    -0.500 OA
ATOM     24  H   UNL     1     -10.051 -35.990  31.826  1.00  0.00     0.294 HD
ENDBRANCH  10  23
BRANCH   5  25
ATOM     25  O   UNL     1     -14.505 -30.351  36.226  1.00  0.00    -0.507 OA
ATOM     26  H   UNL     1     -15.479 -30.513  35.997  1.00  0.00     0.293 HD
ENDBRANCH   5  25
BRANCH   7  27
ATOM     27  O   UNL     1      -9.875 -31.679  36.136  1.00  0.00    -0.507 OA
ATOM     28  H   UNL     1      -9.167 -31.047  35.793  1.00  0.00     0.293 HD
ENDBRANCH   7  27
TORSDOF 7
ENDMDL
MODEL 5
REMARK VINA RESULT:    -4.198      2.066      7.214
REMARK INTER + INTRA:          -5.518
REMARK INTER:                  -5.150
REMARK INTRA:                  -0.368
REMARK UNBOUND:                -0.339
REMARK SMILES Oc1cc(O)c2cc(O)c(-c3cc(O)c(O)c(O)c3)[o+]c2c1
REMARK SMILES IDX 10 1 20 2 21 3 22 4 2 5 3 6 4 7 6 8 7 9 8 10 11 11 12 12
REMARK SMILES IDX 13 13 19 14 15 15 17 16 14 17 16 19 18 21 9 23 1 25 5 27
REMARK H PARENT 14 18 16 20 18 22 9 24 1 26 5 28
REMARK Flexibility Score: inf
ROOT
ATOM      1  C   UNL     1     -11.922 -32.581  34.424  1.00  0.00     0.402 A 
ATOM      2  O   UNL     1     -11.070 -33.233  33.639  1.00  0.00    -0.202 OA
ATOM      3  C   UNL     1     -11.455 -34.043  32.658  1.00  0.00     0.368 A 
ATOM      4  C   UNL     1     -10.484 -34.688  31.888  1.00  0.00     0.162 A 
ATOM      5  C   UNL     1     -10.859 -35.546  30.853  1.00  0.00     0.128 A 
ATOM      6  C   UNL     1     -12.215 -35.764  30.586  1.00  0.00     0.093 A 
ATOM      7  C   UNL     1     -13.208 -35.130  31.344  1.00  0.00     0.136 A 
ATOM      8  C   UNL     1     -12.830 -34.254  32.395  1.00  0.00     0.125 A 
ATOM      9  C   UNL     1     -13.755 -33.567  33.197  1.00  0.00     0.078 A 
ATOM     10  C   UNL     1     -13.306 -32.716  34.213  1.00  0.00     0.223 A 
ENDROOT
BRANCH   1  11
ATOM     11  C   UNL     1     -11.369 -31.714  35.491  1.00  0.00     0.091 A 
ATOM     12  C   UNL     1     -11.283 -32.203  36.802  1.00  0.00     0.068 A 
ATOM     13  C   UNL     1     -10.783 -31.400  37.833  1.00  0.00     0.162 A 
ATOM     14  C   UNL     1     -10.979 -30.389  35.228  1.00  0.00     0.068 A 
ATOM     15  C   UNL     1     -10.376 -30.084  37.562  1.00  0.00     0.200 A 
ATOM     16  C   UNL     1     -10.479 -29.577  36.255  1.00  0.00     0.162 A 
BRANCH  13  17
ATOM     17  O   UNL     1     -10.701 -31.930  39.121  1.00  0.00    -0.504 OA
ATOM     18  H   UNL     1     -11.382 -31.709  39.838  1.00  0.00     0.293 HD
ENDBRANCH  13  17
BRANCH  15  19
ATOM     19  O   UNL     1      -9.875 -29.291  38.596  1.00  0.00    -0.502 OA
ATOM     20  H   UNL     1     -10.398 -29.119  39.446  1.00  0.00     0.293 HD
ENDBRANCH  15  19
BRANCH  16  21
ATOM     21  O   UNL     1     -10.089 -28.267  35.983  1.00  0.00    -0.504 OA
ATOM     22  H   UNL     1     -10.302 -27.506  36.618  1.00  0.00     0.293 HD
ENDBRANCH  16  21
ENDBRANCH   1  11
BRANCH  10  23
ATOM     23  O   UNL     1     -14.223 -31.995  34.977  1.00  0.00    -0.500 OA
ATOM     24  H   UNL     1     -14.443 -32.255  35.931  1.00  0.00     0.294 HD
ENDBRANCH  10  23
BRANCH   5  25
ATOM     25  O   UNL     1      -9.876 -36.179  30.096  1.00  0.00    -0.507 OA
ATOM     26  H   UNL     1      -8.971 -36.410  30.490  1.00  0.00     0.293 HD
ENDBRANCH   5  25
BRANCH   7  27
ATOM     27  O   UNL     1     -14.540 -35.401  31.017  1.00  0.00    -0.507 OA
ATOM     28  H   UNL     1     -14.949 -36.324  31.008  1.00  0.00     0.293 HD
ENDBRANCH   7  27
TORSDOF 7
ENDMDL
MODEL 6
REMARK VINA RESULT:    -3.694      2.397      7.485
REMARK INTER + INTRA:          -4.897
REMARK INTER:                  -5.050
REMARK INTRA:                   0.153
REMARK UNBOUND:                -0.339
REMARK SMILES Oc1cc(O)c2cc(O)c(-c3cc(O)c(O)c(O)c3)[o+]c2c1
REMARK SMILES IDX 10 1 20 2 21 3 22 4 2 5 3 6 4 7 6 8 7 9 8 10 11 11 12 12
REMARK SMILES IDX 13 13 19 14 15 15 17 16 14 17 16 19 18 21 9 23 1 25 5 27
REMARK H PARENT 14 18 16 20 18 22 9 24 1 26 5 28
REMARK Flexibility Score: inf
ROOT
ATOM      1  C   UNL     1     -11.913 -33.865  31.164  1.00  0.00     0.402 A 
ATOM      2  O   UNL     1     -12.789 -33.548  30.215  1.00  0.00    -0.202 OA
ATOM      3  C   UNL     1     -12.649 -33.906  28.943  1.00  0.00     0.368 A 
ATOM      4  C   UNL     1     -13.623 -33.523  28.017  1.00  0.00     0.162 A 
ATOM      5  C   UNL     1     -13.500 -33.883  26.675  1.00  0.00     0.128 A 
ATOM      6  C   UNL     1     -12.396 -34.631  26.252  1.00  0.00     0.093 A 
ATOM      7  C   UNL     1     -11.406 -35.027  27.160  1.00  0.00     0.136 A 
ATOM      8  C   UNL     1     -11.529 -34.665  28.527  1.00  0.00     0.125 A 
ATOM      9  C   UNL     1     -10.592 -35.029  29.509  1.00  0.00     0.078 A 
ATOM     10  C   UNL     1     -10.784 -34.639  30.838  1.00  0.00     0.223 A 
ENDROOT
BRANCH   1  11
ATOM     11  C   UNL     1     -12.176 -33.397  32.545  1.00  0.00     0.091 A 
ATOM     12  C   UNL     1     -13.498 -33.184  32.961  1.00  0.00     0.068 A 
ATOM     13  C   UNL     1     -13.775 -32.724  34.253  1.00  0.00     0.162 A 
ATOM     14  C   UNL     1     -11.125 -33.108  33.432  1.00  0.00     0.068 A 
ATOM     15  C   UNL     1     -12.722 -32.455  35.143  1.00  0.00     0.200 A 
ATOM     16  C   UNL     1     -11.393 -32.645  34.728  1.00  0.00     0.162 A 
BRANCH  13  17
ATOM     17  O   UNL     1     -15.105 -32.539  34.632  1.00  0.00    -0.504 OA
ATOM     18  H   UNL     1     -15.397 -32.567  35.601  1.00  0.00     0.293 HD
ENDBRANCH  13  17
BRANCH  15  19
ATOM     19  O   UNL     1     -13.008 -32.000  36.431  1.00  0.00    -0.502 OA
ATOM     20  H   UNL     1     -12.314 -31.998  37.169  1.00  0.00     0.293 HD
ENDBRANCH  15  19
BRANCH  16  21
ATOM     21  O   UNL     1     -10.343 -32.367  35.601  1.00  0.00    -0.504 OA
ATOM     22  H   UNL     1      -9.731 -33.097  35.947  1.00  0.00     0.293 HD
ENDBRANCH  16  21
ENDBRANCH   1  11
BRANCH  10  23
ATOM     23  O   UNL     1      -9.882 -35.042  31.822  1.00  0.00    -0.500 OA
ATOM     24  H   UNL     1     -10.129 -35.041  32.805  1.00  0.00     0.294 HD
ENDBRANCH  10  23
BRANCH   5  25
ATOM     25  O   UNL     1     -14.482 -33.492  25.767  1.00  0.00    -0.507 OA
ATOM     26  H   UNL     1     -14.317 -33.511  24.768  1.00  0.00     0.293 HD
ENDBRANCH   5  25
BRANCH   7  27
ATOM     27  O   UNL     1     -10.332 -35.770  26.659  1.00  0.00    -0.507 OA
ATOM     28  H   UNL     1     -10.426 -36.595  26.088  1.00  0.00     0.293 HD
ENDBRANCH   7  27
TORSDOF 7
ENDMDL
MODEL 7
REMARK VINA RESULT:    -3.648      1.492      7.077
REMARK INTER + INTRA:          -4.840
REMARK INTER:                  -4.536
REMARK INTRA:                  -0.304
REMARK UNBOUND:                -0.339
REMARK SMILES Oc1cc(O)c2cc(O)c(-c3cc(O)c(O)c(O)c3)[o+]c2c1
REMARK SMILES IDX 10 1 20 2 21 3 22 4 2 5 3 6 4 7 6 8 7 9 8 10 11 11 12 12
REMARK SMILES IDX 13 13 19 14 15 15 17 16 14 17 16 19 18 21 9 23 1 25 5 27
REMARK H PARENT 14 18 16 20 18 22 9 24 1 26 5 28
REMARK Flexibility Score: inf
ROOT
ATOM      1  C   UNL     1     -12.816 -34.447  32.284  1.00  0.00     0.402 A 
ATOM      2  O   UNL     1     -12.594 -35.724  32.582  1.00  0.00    -0.202 OA
ATOM      3  C   UNL     1     -12.729 -36.712  31.704  1.00  0.00     0.368 A 
ATOM      4  C   UNL     1     -12.476 -38.024  32.112  1.00  0.00     0.162 A 
ATOM      5  C   UNL     1     -12.612 -39.082  31.212  1.00  0.00     0.128 A 
ATOM      6  C   UNL     1     -13.006 -38.828  29.894  1.00  0.00     0.093 A 
ATOM      7  C   UNL     1     -13.265 -37.523  29.459  1.00  0.00     0.136 A 
ATOM      8  C   UNL     1     -13.125 -36.444  30.371  1.00  0.00     0.125 A 
ATOM      9  C   UNL     1     -13.352 -35.103  30.021  1.00  0.00     0.078 A 
ATOM     10  C   UNL     1     -13.188 -34.093  30.974  1.00  0.00     0.223 A 
ENDROOT
BRANCH   1  11
ATOM     11  C   UNL     1     -12.641 -33.437  33.354  1.00  0.00     0.091 A 
ATOM     12  C   UNL     1     -11.360 -33.196  33.872  1.00  0.00     0.068 A 
ATOM     13  C   UNL     1     -11.168 -32.263  34.896  1.00  0.00     0.162 A 
ATOM     14  C   UNL     1     -13.740 -32.755  33.903  1.00  0.00     0.068 A 
ATOM     15  C   UNL     1     -12.266 -31.568  35.427  1.00  0.00     0.200 A 
ATOM     16  C   UNL     1     -13.557 -31.819  34.930  1.00  0.00     0.162 A 
BRANCH  13  17
ATOM     17  O   UNL     1      -9.875 -32.042  35.373  1.00  0.00    -0.504 OA
ATOM     18  H   UNL     1      -9.464 -32.617  36.098  1.00  0.00     0.293 HD
ENDBRANCH  13  17
BRANCH  15  19
ATOM     19  O   UNL     1     -12.065 -30.636  36.447  1.00  0.00    -0.502 OA
ATOM     20  H   UNL     1     -12.024 -29.640  36.267  1.00  0.00     0.293 HD
ENDBRANCH  15  19
BRANCH  16  21
ATOM     21  O   UNL     1     -14.653 -31.144  35.463  1.00  0.00    -0.504 OA
ATOM     22  H   UNL     1     -15.336 -30.687  34.869  1.00  0.00     0.293 HD
ENDBRANCH  16  21
ENDBRANCH   1  11
BRANCH  10  23
ATOM     23  O   UNL     1     -13.364 -32.757  30.614  1.00  0.00    -0.500 OA
ATOM     24  H   UNL     1     -12.802 -32.320  29.894  1.00  0.00     0.294 HD
ENDBRANCH  10  23
BRANCH   5  25
ATOM     25  O   UNL     1     -12.355 -40.383  31.638  1.00  0.00    -0.507 OA
ATOM     26  H   UNL     1     -12.103 -41.115  30.984  1.00  0.00     0.293 HD
ENDBRANCH   5  25
BRANCH   7  27
ATOM     27  O   UNL     1     -13.657 -37.352  28.128  1.00  0.00    -0.507 OA
ATOM     28  H   UNL     1     -13.231 -36.700  27.487  1.00  0.00     0.293 HD
ENDBRANCH   7  27
TORSDOF 7
ENDMDL
MODEL 8
REMARK VINA RESULT:    -3.267      1.566      7.390
REMARK INTER + INTRA:          -4.370
REMARK INTER:                  -4.144
REMARK INTRA:                  -0.227
REMARK UNBOUND:                -0.339
REMARK SMILES Oc1cc(O)c2cc(O)c(-c3cc(O)c(O)c(O)c3)[o+]c2c1
REMARK SMILES IDX 10 1 20 2 21 3 22 4 2 5 3 6 4 7 6 8 7 9 8 10 11 11 12 12
REMARK SMILES IDX 13 13 19 14 15 15 17 16 14 17 16 19 18 21 9 23 1 25 5 27
REMARK H PARENT 14 18 16 20 18 22 9 24 1 26 5 28
REMARK Flexibility Score: inf
ROOT
ATOM      1  C   UNL     1     -11.716 -33.484  33.037  1.00  0.00     0.402 A 
ATOM      2  O   UNL     1     -12.518 -34.524  32.834  1.00  0.00    -0.202 OA
ATOM      3  C   UNL     1     -12.503 -35.252  31.722  1.00  0.00     0.368 A 
ATOM      4  C   UNL     1     -13.388 -36.326  31.599  1.00  0.00     0.162 A 
ATOM      5  C   UNL     1     -13.395 -37.106  30.441  1.00  0.00     0.128 A 
ATOM      6  C   UNL     1     -12.512 -36.810  29.397  1.00  0.00     0.093 A 
ATOM      7  C   UNL     1     -11.615 -35.739  29.496  1.00  0.00     0.136 A 
ATOM      8  C   UNL     1     -11.603 -34.946  30.673  1.00  0.00     0.125 A 
ATOM      9  C   UNL     1     -10.730 -33.861  30.863  1.00  0.00     0.078 A 
ATOM     10  C   UNL     1     -10.774 -33.128  32.054  1.00  0.00     0.223 A 
ENDROOT
BRANCH   1  11
ATOM     11  C   UNL     1     -11.837 -32.745  34.316  1.00  0.00     0.091 A 
ATOM     12  C   UNL     1     -12.994 -31.995  34.573  1.00  0.00     0.068 A 
ATOM     13  C   UNL     1     -13.127 -31.272  35.763  1.00  0.00     0.162 A 
ATOM     14  C   UNL     1     -10.791 -32.732  35.255  1.00  0.00     0.068 A 
ATOM     15  C   UNL     1     -12.088 -31.279  36.708  1.00  0.00     0.200 A 
ATOM     16  C   UNL     1     -10.916 -32.009  36.450  1.00  0.00     0.162 A 
BRANCH  13  17
ATOM     17  O   UNL     1     -14.300 -30.551  35.986  1.00  0.00    -0.504 OA
ATOM     18  H   UNL     1     -15.204 -31.003  36.059  1.00  0.00     0.293 HD
ENDBRANCH  13  17
BRANCH  15  19
ATOM     19  O   UNL     1     -12.231 -30.558  37.894  1.00  0.00    -0.502 OA
ATOM     20  H   UNL     1     -13.136 -30.383  38.315  1.00  0.00     0.293 HD
ENDBRANCH  15  19
BRANCH  16  21
ATOM     21  O   UNL     1      -9.875 -32.009  37.377  1.00  0.00    -0.504 OA
ATOM     22  H   UNL     1      -9.856 -31.358  38.154  1.00  0.00     0.293 HD
ENDBRANCH  16  21
ENDBRANCH   1  11
BRANCH  10  23
ATOM     23  O   UNL     1      -9.875 -32.083  32.265  1.00  0.00    -0.500 OA
ATOM     24  H   UNL     1     -10.004 -31.174  31.836  1.00  0.00     0.294 HD
ENDBRANCH  10  23
BRANCH   5  25
ATOM     25  O   UNL     1     -14.284 -38.173  30.339  1.00  0.00    -0.507 OA
ATOM     26  H   UNL     1     -15.043 -38.166  29.667  1.00  0.00     0.293 HD
ENDBRANCH   5  25
BRANCH   7  27
ATOM     27  O   UNL     1     -10.767 -35.506  28.408  1.00  0.00    -0.507 OA
ATOM     28  H   UNL     1      -9.825 -35.861  28.333  1.00  0.00     0.293 HD
ENDBRANCH   7  27
TORSDOF 7
ENDMDL
MODEL 9
REMARK VINA RESULT:    -3.238      2.429      7.502
REMARK INTER + INTRA:          -4.334
REMARK INTER:                  -4.586
REMARK INTRA:                   0.252
REMARK UNBOUND:                -0.339
REMARK SMILES Oc1cc(O)c2cc(O)c(-c3cc(O)c(O)c(O)c3)[o+]c2c1
REMARK SMILES IDX 10 1 20 2 21 3 22 4 2 5 3 6 4 7 6 8 7 9 8 10 11 11 12 12
REMARK SMILES IDX 13 13 19 14 15 15 17 16 14 17 16 19 18 21 9 23 1 25 5 27
REMARK H PARENT 14 18 16 20 18 22 9 24 1 26 5 28
REMARK Flexibility Score: inf
ROOT
ATOM      1  C   UNL     1     -11.907 -33.831  31.062  1.00  0.00     0.402 A 
ATOM      2  O   UNL     1     -12.779 -33.533  30.102  1.00  0.00    -0.202 OA
ATOM      3  C   UNL     1     -12.629 -33.910  28.837  1.00  0.00     0.368 A 
ATOM      4  C   UNL     1     -13.598 -33.546  27.899  1.00  0.00     0.162 A 
ATOM      5  C   UNL     1     -13.464 -33.926  26.562  1.00  0.00     0.128 A 
ATOM      6  C   UNL     1     -12.353 -34.675  26.159  1.00  0.00     0.093 A 
ATOM      7  C   UNL     1     -11.368 -35.052  27.079  1.00  0.00     0.136 A 
ATOM      8  C   UNL     1     -11.502 -34.670  28.440  1.00  0.00     0.125 A 
ATOM      9  C   UNL     1     -10.570 -35.014  29.433  1.00  0.00     0.078 A 
ATOM     10  C   UNL     1     -10.773 -34.604  30.755  1.00  0.00     0.223 A 
ENDROOT
BRANCH   1  11
ATOM     11  C   UNL     1     -12.182 -33.344  32.434  1.00  0.00     0.091 A 
ATOM     12  C   UNL     1     -11.112 -33.107  33.309  1.00  0.00     0.068 A 
ATOM     13  C   UNL     1     -11.343 -32.666  34.616  1.00  0.00     0.162 A 
ATOM     14  C   UNL     1     -13.497 -33.167  32.897  1.00  0.00     0.068 A 
ATOM     15  C   UNL     1     -12.658 -32.471  35.069  1.00  0.00     0.200 A 
ATOM     16  C   UNL     1     -13.738 -32.726  34.206  1.00  0.00     0.162 A 
BRANCH  13  17
ATOM     17  O   UNL     1     -10.250 -32.428  35.450  1.00  0.00    -0.504 OA
ATOM     18  H   UNL     1     -10.163 -32.865  36.360  1.00  0.00     0.293 HD
ENDBRANCH  13  17
BRANCH  15  19
ATOM     19  O   UNL     1     -12.879 -32.027  36.373  1.00  0.00    -0.502 OA
ATOM     20  H   UNL     1     -13.436 -32.553  37.036  1.00  0.00     0.293 HD
ENDBRANCH  15  19
BRANCH  16  21
ATOM     21  O   UNL     1     -15.046 -32.549  34.654  1.00  0.00    -0.504 OA
ATOM     22  H   UNL     1     -15.833 -32.564  34.015  1.00  0.00     0.293 HD
ENDBRANCH  16  21
ENDBRANCH   1  11
BRANCH  10  23
ATOM     23  O   UNL     1      -9.875 -34.987  31.751  1.00  0.00    -0.500 OA
ATOM     24  H   UNL     1      -9.115 -34.385  32.044  1.00  0.00     0.294 HD
ENDBRANCH  10  23
BRANCH   5  25
ATOM     25  O   UNL     1     -14.442 -33.554  25.642  1.00  0.00    -0.507 OA
ATOM     26  H   UNL     1     -15.053 -32.764  25.811  1.00  0.00     0.293 HD
ENDBRANCH   5  25
BRANCH   7  27
ATOM     27  O   UNL     1     -10.286 -35.796  26.598  1.00  0.00    -0.507 OA
ATOM     28  H   UNL     1      -9.390 -35.863  27.056  1.00  0.00     0.293 HD
ENDBRANCH   7  27
TORSDOF 7
ENDMDL
