MODEL 1
REMARK VINA RESULT:    -4.205      0.000      0.000
REMARK INTER + INTRA:          -7.306
REMARK INTER:                  -5.803
REMARK INTRA:                  -1.502
REMARK UNBOUND:                -1.502
REMARK SMILES CC[C@H](CC[C@@H](C)[C@@H]1CC[C@@H]2[C@@H]3CC=C4C[C@@H](O)CC[C@@]4(C)[C@H]3CC[C@]21C)C(C)C
REMARK SMILES IDX 5 1 4 2 3 3 2 4 1 5 28 6 29 7 30 8 6 9 7 10 8 11 9 12 26 13
REMARK SMILES IDX 10 14 11 15 25 16 27 17 12 18 24 19 23 20 13 21 21 22 14 23
REMARK SMILES IDX 15 24 20 25 22 26 16 27 19 28 17 29 18 30
REMARK H PARENT 18 31
REMARK Flexibility Score: inf
ROOT
ATOM      1  C   UNL     1      84.347  87.056  74.355  1.00  0.00     0.004 C 
ENDROOT
BRANCH   1   2
ATOM      2  C   UNL     1      84.801  88.483  73.983  1.00  0.00     0.004 C 
BRANCH   2   3
ATOM      3  C   UNL     1      83.816  89.586  74.465  1.00  0.00    -0.009 C 
BRANCH   3   4
ATOM      4  C   UNL     1      84.501  90.687  75.330  1.00  0.00     0.000 C 
ATOM      5  C   UNL     1      83.739  91.141  76.577  1.00  0.00     0.004 C 
ENDBRANCH   3   4
BRANCH   3   6
ATOM      6  C   UNL     1      82.899  90.102  73.306  1.00  0.00    -0.014 C 
ATOM      7  C   UNL     1      82.955  91.619  73.044  1.00  0.00     0.007 C 
ATOM      8  C   UNL     1      81.444  89.634  73.454  1.00  0.00     0.007 C 
ENDBRANCH   3   6
ENDBRANCH   2   3
ENDBRANCH   1   2
BRANCH   1   9
ATOM      9  C   UNL     1      85.557  86.092  74.541  1.00  0.00    -0.011 C 
ATOM     10  C   UNL     1      85.906  85.405  73.210  1.00  0.00     0.008 C 
BRANCH   9  11
ATOM     11  C   UNL     1      86.835  86.676  75.239  1.00  0.00    -0.002 C 
ATOM     12  C   UNL     1      88.167  85.997  74.809  1.00  0.00     0.005 C 
ATOM     13  C   UNL     1      86.928  86.821  76.795  1.00  0.00    -0.026 C 
ATOM     14  C   UNL     1      89.131  86.116  76.001  1.00  0.00     0.005 C 
ATOM     15  C   UNL     1      88.437  87.102  76.928  1.00  0.00    -0.001 C 
ATOM     16  C   UNL     1      86.137  88.040  77.394  1.00  0.00     0.007 C 
ATOM     17  C   UNL     1      86.505  85.496  77.493  1.00  0.00     0.012 C 
ATOM     18  C   UNL     1      88.976  87.351  78.363  1.00  0.00     0.000 C 
ATOM     19  C   UNL     1      86.914  88.848  78.480  1.00  0.00     0.005 C 
ATOM     20  C   UNL     1      87.887  87.953  79.291  1.00  0.00     0.003 C 
ATOM     21  C   UNL     1      89.620  86.167  79.089  1.00  0.00     0.031 C 
ATOM     22  C   UNL     1      88.535  88.590  80.576  1.00  0.00    -0.008 C 
ATOM     23  C   UNL     1      90.184  86.641  80.407  1.00  0.00    -0.027 C 
ATOM     24  C   UNL     1      89.718  87.730  81.075  1.00  0.00    -0.065 C 
ATOM     25  C   UNL     1      89.069  90.028  80.294  1.00  0.00     0.014 C 
ATOM     26  C   UNL     1      87.454  88.644  81.691  1.00  0.00     0.016 C 
ATOM     27  C   UNL     1      90.531  88.276  82.231  1.00  0.00     0.063 C 
ATOM     28  C   UNL     1      89.909  90.610  81.451  1.00  0.00     0.033 C 
ATOM     29  C   UNL     1      91.058  89.673  81.877  1.00  0.00     0.118 C 
BRANCH  29  30
ATOM     30  O   UNL     1      92.009  89.566  80.847  1.00  0.00    -0.393 OA
ATOM     31  H   UNL     1      92.062  90.458  80.414  1.00  0.00     0.210 HD
ENDBRANCH  29  30
ENDBRANCH   9  11
ENDBRANCH   1   9
TORSDOF 7
ENDMDL
MODEL 2
REMARK VINA RESULT:    -4.055     15.452     18.547
REMARK INTER + INTRA:          -7.098
REMARK INTER:                  -4.828
REMARK INTRA:                  -2.270
REMARK UNBOUND:                -1.502
REMARK SMILES CC[C@H](CC[C@@H](C)[C@@H]1CC[C@@H]2[C@@H]3CC=C4C[C@@H](O)CC[C@@]4(C)[C@H]3CC[C@]21C)C(C)C
REMARK SMILES IDX 5 1 4 2 3 3 2 4 1 5 28 6 29 7 30 8 6 9 7 10 8 11 9 12 26 13
REMARK SMILES IDX 10 14 11 15 25 16 27 17 12 18 24 19 23 20 13 21 21 22 14 23
REMARK SMILES IDX 15 24 20 25 22 26 16 27 19 28 17 29 18 30
REMARK H PARENT 18 31
REMARK Flexibility Score: inf
ROOT
ATOM      1  C   UNL     1      76.434  74.256  82.219  1.00  0.00     0.004 C 
ENDROOT
BRANCH   1   2
ATOM      2  C   UNL     1      75.234  73.324  81.951  1.00  0.00     0.004 C 
BRANCH   2   3
ATOM      3  C   UNL     1      73.858  74.020  82.150  1.00  0.00    -0.009 C 
BRANCH   3   4
ATOM      4  C   UNL     1      73.980  75.514  82.576  1.00  0.00     0.000 C 
ATOM      5  C   UNL     1      73.183  75.933  83.814  1.00  0.00     0.004 C 
ENDBRANCH   3   4
BRANCH   3   6
ATOM      6  C   UNL     1      72.875  73.726  80.967  1.00  0.00    -0.014 C 
ATOM      7  C   UNL     1      73.484  72.962  79.776  1.00  0.00     0.007 C 
ATOM      8  C   UNL     1      72.144  74.986  80.480  1.00  0.00     0.007 C 
ENDBRANCH   3   6
ENDBRANCH   2   3
ENDBRANCH   1   2
BRANCH   1   9
ATOM      9  C   UNL     1      77.291  74.481  80.937  1.00  0.00    -0.011 C 
ATOM     10  C   UNL     1      78.451  73.475  80.882  1.00  0.00     0.008 C 
BRANCH   9  11
ATOM     11  C   UNL     1      76.525  74.551  79.568  1.00  0.00    -0.002 C 
ATOM     12  C   UNL     1      77.054  73.566  78.487  1.00  0.00     0.005 C 
ATOM     13  C   UNL     1      76.301  75.908  78.820  1.00  0.00    -0.026 C 
ATOM     14  C   UNL     1      76.766  74.211  77.121  1.00  0.00     0.005 C 
ATOM     15  C   UNL     1      75.833  75.363  77.457  1.00  0.00    -0.001 C 
ATOM     16  C   UNL     1      75.162  76.812  79.416  1.00  0.00     0.007 C 
ATOM     17  C   UNL     1      77.635  76.701  78.718  1.00  0.00     0.012 C 
ATOM     18  C   UNL     1      75.457  76.416  76.378  1.00  0.00     0.000 C 
ATOM     19  C   UNL     1      74.219  77.454  78.352  1.00  0.00     0.005 C 
ATOM     20  C   UNL     1      74.952  77.738  77.014  1.00  0.00     0.003 C 
ATOM     21  C   UNL     1      76.520  76.765  75.334  1.00  0.00     0.031 C 
ATOM     22  C   UNL     1      74.185  78.614  75.956  1.00  0.00    -0.008 C 
ATOM     23  C   UNL     1      75.923  77.705  74.314  1.00  0.00    -0.027 C 
ATOM     24  C   UNL     1      74.871  78.526  74.574  1.00  0.00    -0.065 C 
ATOM     25  C   UNL     1      72.706  78.146  75.790  1.00  0.00     0.014 C 
ATOM     26  C   UNL     1      74.213  80.093  76.432  1.00  0.00     0.016 C 
ATOM     27  C   UNL     1      74.180  79.211  73.413  1.00  0.00     0.063 C 
ATOM     28  C   UNL     1      71.976  78.821  74.609  1.00  0.00     0.033 C 
ATOM     29  C   UNL     1      72.746  78.681  73.281  1.00  0.00     0.118 C 
BRANCH  29  30
ATOM     30  O   UNL     1      72.781  77.335  72.875  1.00  0.00    -0.393 OA
ATOM     31  H   UNL     1      73.318  76.846  73.552  1.00  0.00     0.210 HD
ENDBRANCH  29  30
ENDBRANCH   9  11
ENDBRANCH   1   9
TORSDOF 7
ENDMDL
MODEL 3
REMARK VINA RESULT:    -4.046     14.094     16.944
REMARK INTER + INTRA:          -7.085
REMARK INTER:                  -5.483
REMARK INTRA:                  -1.603
REMARK UNBOUND:                -1.502
REMARK SMILES CC[C@H](CC[C@@H](C)[C@@H]1CC[C@@H]2[C@@H]3CC=C4C[C@@H](O)CC[C@@]4(C)[C@H]3CC[C@]21C)C(C)C
REMARK SMILES IDX 5 1 4 2 3 3 2 4 1 5 28 6 29 7 30 8 6 9 7 10 8 11 9 12 26 13
REMARK SMILES IDX 10 14 11 15 25 16 27 17 12 18 24 19 23 20 13 21 21 22 14 23
REMARK SMILES IDX 15 24 20 25 22 26 16 27 19 28 17 29 18 30
REMARK H PARENT 18 31
REMARK Flexibility Score: inf
ROOT
ATOM      1  C   UNL     1      76.041  82.121  75.545  1.00  0.00     0.004 C 
ENDROOT
BRANCH   1   2
ATOM      2  C   UNL     1      75.961  83.393  76.413  1.00  0.00     0.004 C 
BRANCH   2   3
ATOM      3  C   UNL     1      74.613  83.533  77.177  1.00  0.00    -0.009 C 
BRANCH   3   4
ATOM      4  C   UNL     1      74.777  83.512  78.726  1.00  0.00     0.000 C 
ATOM      5  C   UNL     1      75.869  82.592  79.279  1.00  0.00     0.004 C 
ENDBRANCH   3   4
BRANCH   3   6
ATOM      6  C   UNL     1      73.728  84.689  76.600  1.00  0.00    -0.014 C 
ATOM      7  C   UNL     1      74.469  85.709  75.715  1.00  0.00     0.007 C 
ATOM      8  C   UNL     1      72.917  85.409  77.687  1.00  0.00     0.007 C 
ENDBRANCH   3   6
ENDBRANCH   2   3
ENDBRANCH   1   2
BRANCH   1   9
ATOM      9  C   UNL     1      74.657  81.745  74.936  1.00  0.00    -0.011 C 
ATOM     10  C   UNL     1      74.535  82.288  73.503  1.00  0.00     0.008 C 
BRANCH   9  11
ATOM     11  C   UNL     1      74.226  80.238  75.018  1.00  0.00    -0.002 C 
ATOM     12  C   UNL     1      72.836  79.934  74.388  1.00  0.00     0.005 C 
ATOM     13  C   UNL     1      74.250  79.450  76.370  1.00  0.00    -0.026 C 
ATOM     14  C   UNL     1      72.263  78.723  75.142  1.00  0.00     0.005 C 
ATOM     15  C   UNL     1      73.447  78.205  75.944  1.00  0.00    -0.001 C 
ATOM     16  C   UNL     1      75.676  78.987  76.841  1.00  0.00     0.007 C 
ATOM     17  C   UNL     1      73.539  80.263  77.489  1.00  0.00     0.012 C 
ATOM     18  C   UNL     1      73.250  77.101  77.019  1.00  0.00     0.000 C 
ATOM     19  C   UNL     1      75.741  77.522  77.375  1.00  0.00     0.005 C 
ATOM     20  C   UNL     1      74.413  77.084  78.047  1.00  0.00     0.003 C 
ATOM     21  C   UNL     1      71.930  77.097  77.792  1.00  0.00     0.031 C 
ATOM     22  C   UNL     1      74.435  75.730  78.848  1.00  0.00    -0.008 C 
ATOM     23  C   UNL     1      71.886  75.886  78.693  1.00  0.00    -0.027 C 
ATOM     24  C   UNL     1      72.998  75.257  79.160  1.00  0.00    -0.065 C 
ATOM     25  C   UNL     1      75.150  74.601  78.043  1.00  0.00     0.014 C 
ATOM     26  C   UNL     1      75.183  75.968  80.189  1.00  0.00     0.016 C 
ATOM     27  C   UNL     1      72.843  73.900  79.815  1.00  0.00     0.063 C 
ATOM     28  C   UNL     1      75.004  73.204  78.682  1.00  0.00     0.033 C 
ATOM     29  C   UNL     1      73.533  72.831  78.958  1.00  0.00     0.118 C 
BRANCH  29  30
ATOM     30  O   UNL     1      72.832  72.677  77.749  1.00  0.00    -0.393 OA
ATOM     31  H   UNL     1      72.317  71.832  77.823  1.00  0.00     0.210 HD
ENDBRANCH  29  30
ENDBRANCH   9  11
ENDBRANCH   1   9
TORSDOF 7
ENDMDL
MODEL 4
REMARK VINA RESULT:    -4.045     11.770     14.872
REMARK INTER + INTRA:          -7.084
REMARK INTER:                  -6.008
REMARK INTRA:                  -1.076
REMARK UNBOUND:                -1.502
REMARK SMILES CC[C@H](CC[C@@H](C)[C@@H]1CC[C@@H]2[C@@H]3CC=C4C[C@@H](O)CC[C@@]4(C)[C@H]3CC[C@]21C)C(C)C
REMARK SMILES IDX 5 1 4 2 3 3 2 4 1 5 28 6 29 7 30 8 6 9 7 10 8 11 9 12 26 13
REMARK SMILES IDX 10 14 11 15 25 16 27 17 12 18 24 19 23 20 13 21 21 22 14 23
REMARK SMILES IDX 15 24 20 25 22 26 16 27 19 28 17 29 18 30
REMARK H PARENT 18 31
REMARK Flexibility Score: inf
ROOT
ATOM      1  C   UNL     1      74.813  87.209  73.746  1.00  0.00     0.004 C 
ENDROOT
BRANCH   1   2
ATOM      2  C   UNL     1      74.792  88.647  74.304  1.00  0.00     0.004 C 
BRANCH   2   3
ATOM      3  C   UNL     1      75.050  89.732  73.220  1.00  0.00    -0.009 C 
BRANCH   3   4
ATOM      4  C   UNL     1      73.784  90.572  72.876  1.00  0.00     0.000 C 
ATOM      5  C   UNL     1      73.935  92.093  72.965  1.00  0.00     0.004 C 
ENDBRANCH   3   4
BRANCH   3   6
ATOM      6  C   UNL     1      76.355  90.550  73.506  1.00  0.00    -0.014 C 
ATOM      7  C   UNL     1      77.642  89.980  72.880  1.00  0.00     0.007 C 
ATOM      8  C   UNL     1      76.561  90.826  75.002  1.00  0.00     0.007 C 
ENDBRANCH   3   6
ENDBRANCH   2   3
ENDBRANCH   1   2
BRANCH   1   9
ATOM      9  C   UNL     1      75.589  86.235  74.681  1.00  0.00    -0.011 C 
ATOM     10  C   UNL     1      76.470  87.021  75.666  1.00  0.00     0.008 C 
BRANCH   9  11
ATOM     11  C   UNL     1      74.750  85.130  75.417  1.00  0.00    -0.002 C 
ATOM     12  C   UNL     1      74.518  85.404  76.931  1.00  0.00     0.005 C 
ATOM     13  C   UNL     1      75.127  83.614  75.323  1.00  0.00    -0.026 C 
ATOM     14  C   UNL     1      74.375  84.033  77.612  1.00  0.00     0.005 C 
ATOM     15  C   UNL     1      74.228  83.066  76.448  1.00  0.00    -0.001 C 
ATOM     16  C   UNL     1      74.724  82.914  73.975  1.00  0.00     0.007 C 
ATOM     17  C   UNL     1      76.641  83.408  75.616  1.00  0.00     0.012 C 
ATOM     18  C   UNL     1      74.267  81.531  76.686  1.00  0.00     0.000 C 
ATOM     19  C   UNL     1      74.077  81.504  74.143  1.00  0.00     0.005 C 
ATOM     20  C   UNL     1      74.619  80.755  75.388  1.00  0.00     0.003 C 
ATOM     21  C   UNL     1      75.169  81.015  77.809  1.00  0.00     0.031 C 
ATOM     22  C   UNL     1      74.240  79.234  75.524  1.00  0.00    -0.008 C 
ATOM     23  C   UNL     1      74.974  79.525  77.957  1.00  0.00    -0.027 C 
ATOM     24  C   UNL     1      74.545  78.720  76.949  1.00  0.00    -0.065 C 
ATOM     25  C   UNL     1      72.725  78.994  75.239  1.00  0.00     0.014 C 
ATOM     26  C   UNL     1      75.095  78.426  74.509  1.00  0.00     0.016 C 
ATOM     27  C   UNL     1      74.117  77.305  77.281  1.00  0.00     0.063 C 
ATOM     28  C   UNL     1      72.256  77.563  75.575  1.00  0.00     0.033 C 
ATOM     29  C   UNL     1      72.615  77.146  77.016  1.00  0.00     0.118 C 
BRANCH  29  30
ATOM     30  O   UNL     1      71.892  77.918  77.943  1.00  0.00    -0.393 OA
ATOM     31  H   UNL     1      70.935  77.683  77.826  1.00  0.00     0.210 HD
ENDBRANCH  29  30
ENDBRANCH   9  11
ENDBRANCH   1   9
TORSDOF 7
ENDMDL
MODEL 5
REMARK VINA RESULT:    -4.031      2.756      8.343
REMARK INTER + INTRA:          -7.066
REMARK INTER:                  -5.010
REMARK INTRA:                  -2.055
REMARK UNBOUND:                -1.502
REMARK SMILES CC[C@H](CC[C@@H](C)[C@@H]1CC[C@@H]2[C@@H]3CC=C4C[C@@H](O)CC[C@@]4(C)[C@H]3CC[C@]21C)C(C)C
REMARK SMILES IDX 5 1 4 2 3 3 2 4 1 5 28 6 29 7 30 8 6 9 7 10 8 11 9 12 26 13
REMARK SMILES IDX 10 14 11 15 25 16 27 17 12 18 24 19 23 20 13 21 21 22 14 23
REMARK SMILES IDX 15 24 20 25 22 26 16 27 19 28 17 29 18 30
REMARK H PARENT 18 31
REMARK Flexibility Score: inf
ROOT
ATOM      1  C   UNL     1      88.795  86.773  82.029  1.00  0.00     0.004 C 
ENDROOT
BRANCH   1   2
ATOM      2  C   UNL     1      89.628  86.626  80.739  1.00  0.00     0.004 C 
BRANCH   2   3
ATOM      3  C   UNL     1      91.156  86.803  80.970  1.00  0.00    -0.009 C 
BRANCH   3   4
ATOM      4  C   UNL     1      91.971  85.497  80.727  1.00  0.00     0.000 C 
ATOM      5  C   UNL     1      91.156  84.230  80.455  1.00  0.00     0.004 C 
ENDBRANCH   3   4
BRANCH   3   6
ATOM      6  C   UNL     1      91.710  88.092  80.276  1.00  0.00    -0.014 C 
ATOM      7  C   UNL     1      91.765  89.349  81.164  1.00  0.00     0.007 C 
ATOM      8  C   UNL     1      90.998  88.400  78.950  1.00  0.00     0.007 C 
ENDBRANCH   3   6
ENDBRANCH   2   3
ENDBRANCH   1   2
BRANCH   1   9
ATOM      9  C   UNL     1      88.061  88.146  82.092  1.00  0.00    -0.011 C 
ATOM     10  C   UNL     1      88.698  89.048  83.161  1.00  0.00     0.008 C 
BRANCH   9  11
ATOM     11  C   UNL     1      87.862  88.913  80.737  1.00  0.00    -0.002 C 
ATOM     12  C   UNL     1      88.177  90.435  80.810  1.00  0.00     0.005 C 
ATOM     13  C   UNL     1      86.533  88.803  79.918  1.00  0.00    -0.026 C 
ATOM     14  C   UNL     1      87.297  91.121  79.752  1.00  0.00     0.005 C 
ATOM     15  C   UNL     1      86.756  89.963  78.928  1.00  0.00    -0.001 C 
ATOM     16  C   UNL     1      86.367  87.472  79.100  1.00  0.00     0.007 C 
ATOM     17  C   UNL     1      85.302  89.037  80.841  1.00  0.00     0.012 C 
ATOM     18  C   UNL     1      85.645  90.199  77.868  1.00  0.00     0.000 C 
ATOM     19  C   UNL     1      85.834  87.665  77.646  1.00  0.00     0.005 C 
ATOM     20  C   UNL     1      84.888  88.888  77.526  1.00  0.00     0.003 C 
ATOM     21  C   UNL     1      84.609  91.285  78.164  1.00  0.00     0.031 C 
ATOM     22  C   UNL     1      84.086  89.037  76.181  1.00  0.00    -0.008 C 
ATOM     23  C   UNL     1      83.698  91.440  76.969  1.00  0.00    -0.027 C 
ATOM     24  C   UNL     1      83.467  90.448  76.067  1.00  0.00    -0.065 C 
ATOM     25  C   UNL     1      85.004  88.812  74.940  1.00  0.00     0.014 C 
ATOM     26  C   UNL     1      82.939  87.989  76.177  1.00  0.00     0.016 C 
ATOM     27  C   UNL     1      82.770  90.796  74.768  1.00  0.00     0.063 C 
ATOM     28  C   UNL     1      84.325  89.166  73.600  1.00  0.00     0.033 C 
ATOM     29  C   UNL     1      83.736  90.591  73.594  1.00  0.00     0.118 C 
BRANCH  29  30
ATOM     30  O   UNL     1      84.765  91.546  73.663  1.00  0.00    -0.393 OA
ATOM     31  H   UNL     1      84.906  91.746  74.625  1.00  0.00     0.210 HD
ENDBRANCH  29  30
ENDBRANCH   9  11
ENDBRANCH   1   9
TORSDOF 7
ENDMDL
MODEL 6
REMARK VINA RESULT:    -4.016     15.508     18.897
REMARK INTER + INTRA:          -7.044
REMARK INTER:                  -5.109
REMARK INTRA:                  -1.935
REMARK UNBOUND:                -1.502
REMARK SMILES CC[C@H](CC[C@@H](C)[C@@H]1CC[C@@H]2[C@@H]3CC=C4C[C@@H](O)CC[C@@]4(C)[C@H]3CC[C@]21C)C(C)C
REMARK SMILES IDX 5 1 4 2 3 3 2 4 1 5 28 6 29 7 30 8 6 9 7 10 8 11 9 12 26 13
REMARK SMILES IDX 10 14 11 15 25 16 27 17 12 18 24 19 23 20 13 21 21 22 14 23
REMARK SMILES IDX 15 24 20 25 22 26 16 27 19 28 17 29 18 30
REMARK H PARENT 18 31
REMARK Flexibility Score: inf
ROOT
ATOM      1  C   UNL     1      75.133  75.455  82.108  1.00  0.00     0.004 C 
ENDROOT
BRANCH   1   2
ATOM      2  C   UNL     1      75.299  73.922  82.161  1.00  0.00     0.004 C 
BRANCH   2   3
ATOM      3  C   UNL     1      75.304  73.255  80.755  1.00  0.00    -0.009 C 
BRANCH   3   4
ATOM      4  C   UNL     1      76.728  72.838  80.277  1.00  0.00     0.000 C 
ATOM      5  C   UNL     1      77.292  73.606  79.079  1.00  0.00     0.004 C 
ENDBRANCH   3   4
BRANCH   3   6
ATOM      6  C   UNL     1      74.192  72.162  80.620  1.00  0.00    -0.014 C 
ATOM      7  C   UNL     1      73.615  71.978  79.204  1.00  0.00     0.007 C 
ATOM      8  C   UNL     1      73.060  72.343  81.642  1.00  0.00     0.007 C 
ENDBRANCH   3   6
ENDBRANCH   2   3
ENDBRANCH   1   2
BRANCH   1   9
ATOM      9  C   UNL     1      73.682  75.868  81.719  1.00  0.00    -0.011 C 
ATOM     10  C   UNL     1      72.842  76.130  82.980  1.00  0.00     0.008 C 
BRANCH   9  11
ATOM     11  C   UNL     1      73.525  77.027  80.673  1.00  0.00    -0.002 C 
ATOM     12  C   UNL     1      72.147  77.748  80.716  1.00  0.00     0.005 C 
ATOM     13  C   UNL     1      73.831  76.809  79.153  1.00  0.00    -0.026 C 
ATOM     14  C   UNL     1      71.875  78.270  79.295  1.00  0.00     0.005 C 
ATOM     15  C   UNL     1      73.210  78.101  78.588  1.00  0.00    -0.001 C 
ATOM     16  C   UNL     1      75.358  76.784  78.782  1.00  0.00     0.007 C 
ATOM     17  C   UNL     1      73.118  75.528  78.631  1.00  0.00     0.012 C 
ATOM     18  C   UNL     1      73.324  78.316  77.053  1.00  0.00     0.000 C 
ATOM     19  C   UNL     1      75.730  77.598  77.504  1.00  0.00     0.005 C 
ATOM     20  C   UNL     1      74.578  77.616  76.465  1.00  0.00     0.003 C 
ATOM     21  C   UNL     1      72.116  77.931  76.197  1.00  0.00     0.031 C 
ATOM     22  C   UNL     1      74.918  78.181  75.037  1.00  0.00    -0.008 C 
ATOM     23  C   UNL     1      72.378  78.326  74.763  1.00  0.00    -0.027 C 
ATOM     24  C   UNL     1      73.625  78.456  74.236  1.00  0.00    -0.065 C 
ATOM     25  C   UNL     1      75.723  79.514  75.125  1.00  0.00     0.014 C 
ATOM     26  C   UNL     1      75.756  77.116  74.277  1.00  0.00     0.016 C 
ATOM     27  C   UNL     1      73.776  79.125  72.886  1.00  0.00     0.063 C 
ATOM     28  C   UNL     1      75.887  80.225  73.765  1.00  0.00     0.033 C 
ATOM     29  C   UNL     1      74.540  80.446  73.047  1.00  0.00     0.118 C 
BRANCH  29  30
ATOM     30  O   UNL     1      73.748  81.360  73.762  1.00  0.00    -0.393 OA
ATOM     31  H   UNL     1      73.291  80.844  74.477  1.00  0.00     0.210 HD
ENDBRANCH  29  30
ENDBRANCH   9  11
ENDBRANCH   1   9
TORSDOF 7
ENDMDL
MODEL 7
REMARK VINA RESULT:    -3.975     16.031     18.463
REMARK INTER + INTRA:          -6.988
REMARK INTER:                  -4.823
REMARK INTRA:                  -2.165
REMARK UNBOUND:                -1.502
REMARK SMILES CC[C@H](CC[C@@H](C)[C@@H]1CC[C@@H]2[C@@H]3CC=C4C[C@@H](O)CC[C@@]4(C)[C@H]3CC[C@]21C)C(C)C
REMARK SMILES IDX 5 1 4 2 3 3 2 4 1 5 28 6 29 7 30 8 6 9 7 10 8 11 9 12 26 13
REMARK SMILES IDX 10 14 11 15 25 16 27 17 12 18 24 19 23 20 13 21 21 22 14 23
REMARK SMILES IDX 15 24 20 25 22 26 16 27 19 28 17 29 18 30
REMARK H PARENT 18 31
REMARK Flexibility Score: inf
ROOT
ATOM      1  C   UNL     1      79.399  73.629  76.233  1.00  0.00     0.004 C 
ENDROOT
BRANCH   1   2
ATOM      2  C   UNL     1      79.844  74.959  75.590  1.00  0.00     0.004 C 
BRANCH   2   3
ATOM      3  C   UNL     1      78.694  75.998  75.465  1.00  0.00    -0.009 C 
BRANCH   3   4
ATOM      4  C   UNL     1      78.919  77.274  76.331  1.00  0.00     0.000 C 
ATOM      5  C   UNL     1      77.660  78.018  76.782  1.00  0.00     0.004 C 
ENDBRANCH   3   4
BRANCH   3   6
ATOM      6  C   UNL     1      78.288  76.249  73.973  1.00  0.00    -0.014 C 
ATOM      7  C   UNL     1      76.798  76.033  73.649  1.00  0.00     0.007 C 
ATOM      8  C   UNL     1      79.171  75.475  72.984  1.00  0.00     0.007 C 
ENDBRANCH   3   6
ENDBRANCH   2   3
ENDBRANCH   1   2
BRANCH   1   9
ATOM      9  C   UNL     1      77.925  73.275  75.872  1.00  0.00    -0.011 C 
ATOM     10  C   UNL     1      77.883  72.260  74.718  1.00  0.00     0.008 C 
BRANCH   9  11
ATOM     11  C   UNL     1      76.985  72.843  77.052  1.00  0.00    -0.002 C 
ATOM     12  C   UNL     1      75.839  71.875  76.637  1.00  0.00     0.005 C 
ATOM     13  C   UNL     1      76.316  73.896  77.998  1.00  0.00    -0.026 C 
ATOM     14  C   UNL     1      74.674  72.125  77.610  1.00  0.00     0.005 C 
ATOM     15  C   UNL     1      75.294  72.982  78.702  1.00  0.00    -0.001 C 
ATOM     16  C   UNL     1      77.270  74.510  79.085  1.00  0.00     0.007 C 
ATOM     17  C   UNL     1      75.635  75.021  77.166  1.00  0.00     0.012 C 
ATOM     18  C   UNL     1      74.403  73.641  79.790  1.00  0.00     0.000 C 
ATOM     19  C   UNL     1      76.647  74.617  80.511  1.00  0.00     0.005 C 
ATOM     20  C   UNL     1      75.113  74.845  80.465  1.00  0.00     0.003 C 
ATOM     21  C   UNL     1      72.999  74.087  79.376  1.00  0.00     0.031 C 
ATOM     22  C   UNL     1      74.410  75.224  81.820  1.00  0.00    -0.008 C 
ATOM     23  C   UNL     1      72.258  74.586  80.593  1.00  0.00    -0.027 C 
ATOM     24  C   UNL     1      72.876  75.083  81.698  1.00  0.00    -0.065 C 
ATOM     25  C   UNL     1      74.887  74.307  82.988  1.00  0.00     0.014 C 
ATOM     26  C   UNL     1      74.748  76.705  82.148  1.00  0.00     0.016 C 
ATOM     27  C   UNL     1      72.059  75.287  82.957  1.00  0.00     0.063 C 
ATOM     28  C   UNL     1      74.068  74.487  84.285  1.00  0.00     0.033 C 
ATOM     29  C   UNL     1      72.551  74.332  84.052  1.00  0.00     0.118 C 
BRANCH  29  30
ATOM     30  O   UNL     1      72.244  73.009  83.691  1.00  0.00    -0.393 OA
ATOM     31  H   UNL     1      72.038  73.018  82.720  1.00  0.00     0.210 HD
ENDBRANCH  29  30
ENDBRANCH   9  11
ENDBRANCH   1   9
TORSDOF 7
ENDMDL
MODEL 8
REMARK VINA RESULT:    -3.964      3.390      7.503
REMARK INTER + INTRA:          -6.973
REMARK INTER:                  -4.733
REMARK INTRA:                  -2.240
REMARK UNBOUND:                -1.502
REMARK SMILES CC[C@H](CC[C@@H](C)[C@@H]1CC[C@@H]2[C@@H]3CC=C4C[C@@H](O)CC[C@@]4(C)[C@H]3CC[C@]21C)C(C)C
REMARK SMILES IDX 5 1 4 2 3 3 2 4 1 5 28 6 29 7 30 8 6 9 7 10 8 11 9 12 26 13
REMARK SMILES IDX 10 14 11 15 25 16 27 17 12 18 24 19 23 20 13 21 21 22 14 23
REMARK SMILES IDX 15 24 20 25 22 26 16 27 19 28 17 29 18 30
REMARK H PARENT 18 31
REMARK Flexibility Score: inf
ROOT
ATOM      1  C   UNL     1      88.532  82.131  75.561  1.00  0.00     0.004 C 
ENDROOT
BRANCH   1   2
ATOM      2  C   UNL     1      88.260  82.729  74.165  1.00  0.00     0.004 C 
BRANCH   2   3
ATOM      3  C   UNL     1      89.558  83.098  73.391  1.00  0.00    -0.009 C 
BRANCH   3   4
ATOM      4  C   UNL     1      89.689  84.623  73.101  1.00  0.00     0.000 C 
ATOM      5  C   UNL     1      88.381  85.385  72.876  1.00  0.00     0.004 C 
ENDBRANCH   3   4
BRANCH   3   6
ATOM      6  C   UNL     1      90.824  82.408  74.004  1.00  0.00    -0.014 C 
ATOM      7  C   UNL     1      91.875  83.365  74.597  1.00  0.00     0.007 C 
ATOM      8  C   UNL     1      91.484  81.419  73.032  1.00  0.00     0.007 C 
ENDBRANCH   3   6
ENDBRANCH   2   3
ENDBRANCH   1   2
BRANCH   1   9
ATOM      9  C   UNL     1      88.361  83.191  76.690  1.00  0.00    -0.011 C 
ATOM     10  C   UNL     1      89.519  83.096  77.696  1.00  0.00     0.008 C 
BRANCH   9  11
ATOM     11  C   UNL     1      88.108  84.675  76.244  1.00  0.00    -0.002 C 
ATOM     12  C   UNL     1      89.077  85.710  76.884  1.00  0.00     0.005 C 
ATOM     13  C   UNL     1      86.687  85.328  76.331  1.00  0.00    -0.026 C 
ATOM     14  C   UNL     1      88.313  87.043  76.963  1.00  0.00     0.005 C 
ATOM     15  C   UNL     1      87.079  86.801  76.108  1.00  0.00    -0.001 C 
ATOM     16  C   UNL     1      85.691  84.897  75.195  1.00  0.00     0.007 C 
ATOM     17  C   UNL     1      86.060  85.084  77.734  1.00  0.00     0.012 C 
ATOM     18  C   UNL     1      85.919  87.835  76.086  1.00  0.00     0.000 C 
ATOM     19  C   UNL     1      84.868  86.069  74.574  1.00  0.00     0.005 C 
ATOM     20  C   UNL     1      84.590  87.198  75.601  1.00  0.00     0.003 C 
ATOM     21  C   UNL     1      85.637  88.605  77.377  1.00  0.00     0.031 C 
ATOM     22  C   UNL     1      83.558  88.307  75.174  1.00  0.00    -0.008 C 
ATOM     23  C   UNL     1      84.565  89.636  77.115  1.00  0.00    -0.027 C 
ATOM     24  C   UNL     1      83.639  89.523  76.125  1.00  0.00    -0.065 C 
ATOM     25  C   UNL     1      83.828  88.812  73.723  1.00  0.00     0.014 C 
ATOM     26  C   UNL     1      82.129  87.704  75.259  1.00  0.00     0.016 C 
ATOM     27  C   UNL     1      82.800  90.733  75.774  1.00  0.00     0.063 C 
ATOM     28  C   UNL     1      82.992  90.051  73.337  1.00  0.00     0.033 C 
ATOM     29  C   UNL     1      83.139  91.202  74.353  1.00  0.00     0.118 C 
BRANCH  29  30
ATOM     30  O   UNL     1      84.449  91.712  74.329  1.00  0.00    -0.393 OA
ATOM     31  H   UNL     1      84.807  91.537  73.420  1.00  0.00     0.210 HD
ENDBRANCH  29  30
ENDBRANCH   9  11
ENDBRANCH   1   9
TORSDOF 7
ENDMDL
MODEL 9
REMARK VINA RESULT:    -3.864      6.078      9.790
REMARK INTER + INTRA:          -6.835
REMARK INTER:                  -4.391
REMARK INTRA:                  -2.444
REMARK UNBOUND:                -1.502
REMARK SMILES CC[C@H](CC[C@@H](C)[C@@H]1CC[C@@H]2[C@@H]3CC=C4C[C@@H](O)CC[C@@]4(C)[C@H]3CC[C@]21C)C(C)C
REMARK SMILES IDX 5 1 4 2 3 3 2 4 1 5 28 6 29 7 30 8 6 9 7 10 8 11 9 12 26 13
REMARK SMILES IDX 10 14 11 15 25 16 27 17 12 18 24 19 23 20 13 21 21 22 14 23
REMARK SMILES IDX 15 24 20 25 22 26 16 27 19 28 17 29 18 30
REMARK H PARENT 18 31
REMARK Flexibility Score: inf
ROOT
ATOM      1  C   UNL     1      76.807  88.198  81.512  1.00  0.00     0.004 C 
ENDROOT
BRANCH   1   2
ATOM      2  C   UNL     1      76.337  89.666  81.573  1.00  0.00     0.004 C 
BRANCH   2   3
ATOM      3  C   UNL     1      77.482  90.665  81.902  1.00  0.00    -0.009 C 
BRANCH   3   4
ATOM      4  C   UNL     1      78.842  89.966  82.204  1.00  0.00     0.000 C 
ATOM      5  C   UNL     1      79.443  90.222  83.589  1.00  0.00     0.004 C 
ENDBRANCH   3   4
BRANCH   3   6
ATOM      6  C   UNL     1      77.538  91.852  80.882  1.00  0.00    -0.014 C 
ATOM      7  C   UNL     1      76.295  92.012  79.987  1.00  0.00     0.007 C 
ATOM      8  C   UNL     1      78.816  91.839  80.031  1.00  0.00     0.007 C 
ENDBRANCH   3   6
ENDBRANCH   2   3
ENDBRANCH   1   2
BRANCH   1   9
ATOM      9  C   UNL     1      76.828  87.655  80.052  1.00  0.00    -0.011 C 
ATOM     10  C   UNL     1      75.441  87.126  79.655  1.00  0.00     0.008 C 
BRANCH   9  11
ATOM     11  C   UNL     1      77.421  88.600  78.947  1.00  0.00    -0.002 C 
ATOM     12  C   UNL     1      76.405  89.008  77.841  1.00  0.00     0.005 C 
ATOM     13  C   UNL     1      78.742  88.246  78.186  1.00  0.00    -0.026 C 
ATOM     14  C   UNL     1      77.221  89.261  76.562  1.00  0.00     0.005 C 
ATOM     15  C   UNL     1      78.660  89.286  77.052  1.00  0.00    -0.001 C 
ATOM     16  C   UNL     1      80.062  88.497  79.000  1.00  0.00     0.007 C 
ATOM     17  C   UNL     1      78.693  86.783  77.658  1.00  0.00     0.012 C 
ATOM     18  C   UNL     1      79.838  89.307  76.039  1.00  0.00     0.000 C 
ATOM     19  C   UNL     1      81.203  89.189  78.191  1.00  0.00     0.005 C 
ATOM     20  C   UNL     1      81.162  88.818  76.685  1.00  0.00     0.003 C 
ATOM     21  C   UNL     1      79.646  88.559  74.719  1.00  0.00     0.031 C 
ATOM     22  C   UNL     1      82.402  89.241  75.814  1.00  0.00    -0.008 C 
ATOM     23  C   UNL     1      80.845  88.801  73.833  1.00  0.00    -0.027 C 
ATOM     24  C   UNL     1      82.078  89.121  74.308  1.00  0.00    -0.065 C 
ATOM     25  C   UNL     1      82.825  90.715  76.101  1.00  0.00     0.014 C 
ATOM     26  C   UNL     1      83.581  88.286  76.147  1.00  0.00     0.016 C 
ATOM     27  C   UNL     1      83.127  89.616  73.333  1.00  0.00     0.063 C 
ATOM     28  C   UNL     1      83.888  91.251  75.118  1.00  0.00     0.033 C 
ATOM     29  C   UNL     1      83.470  91.078  73.644  1.00  0.00     0.118 C 
BRANCH  29  30
ATOM     30  O   UNL     1      82.362  91.891  73.351  1.00  0.00    -0.393 OA
ATOM     31  H   UNL     1      81.706  91.320  72.873  1.00  0.00     0.210 HD
ENDBRANCH  29  30
ENDBRANCH   9  11
ENDBRANCH   1   9
TORSDOF 7
ENDMDL
