MODEL 1
REMARK VINA RESULT:    -3.276      0.000      0.000
REMARK INTER + INTRA:         -14.325
REMARK INTER:                  -8.254
REMARK INTRA:                  -6.071
REMARK UNBOUND:                -6.071
REMARK SMILES CCCCCCCCCCCCCCCCCCCCCCCCCCCC(=O)[O-]
REMARK SMILES IDX 15 1 16 2 17 3 18 4 19 5 20 6 21 7 22 8 23 9 24 10 25 11
REMARK SMILES IDX 26 12 27 13 28 14 29 15 30 16 14 17 13 18 12 19 11 20 10 21
REMARK SMILES IDX 9 22 8 23 7 24 6 25 5 26 4 27 3 28 2 29 1 30
REMARK H PARENT
REMARK Flexibility Score: inf
ROOT
ATOM      1  C   UNL     1      20.362  -6.794  30.938  1.00  0.00     0.000 C 
ENDROOT
BRANCH   1   2
ATOM      2  C   UNL     1      20.841  -6.021  29.695  1.00  0.00     0.000 C 
BRANCH   2   3
ATOM      3  C   UNL     1      19.791  -5.941  28.568  1.00  0.00     0.000 C 
BRANCH   3   4
ATOM      4  C   UNL     1      19.908  -7.107  27.569  1.00  0.00     0.000 C 
BRANCH   4   5
ATOM      5  C   UNL     1      18.814  -8.173  27.785  1.00  0.00     0.000 C 
BRANCH   5   6
ATOM      6  C   UNL     1      17.536  -7.626  28.443  1.00  0.00     0.000 C 
BRANCH   6   7
ATOM      7  C   UNL     1      16.723  -8.712  29.167  1.00  0.00     0.000 C 
BRANCH   7   8
ATOM      8  C   UNL     1      16.427  -8.341  30.635  1.00  0.00     0.000 C 
BRANCH   8   9
ATOM      9  C   UNL     1      16.703  -6.863  30.967  1.00  0.00     0.000 C 
BRANCH   9  10
ATOM     10  C   UNL     1      16.949  -6.624  32.464  1.00  0.00     0.000 C 
BRANCH  10  11
ATOM     11  C   UNL     1      16.945  -7.945  33.244  1.00  0.00     0.000 C 
BRANCH  11  12
ATOM     12  C   UNL     1      18.094  -8.046  34.263  1.00  0.00     0.006 C 
BRANCH  12  13
ATOM     13  C   UNL     1      18.875  -6.732  34.455  1.00  0.00     0.053 C 
BRANCH  13  14
ATOM     14  C   UNL     1      20.343  -6.959  34.660  1.00  0.00     0.041 C 
ATOM     15  O   UNL     1      21.109  -5.987  34.894  1.00  0.00    -0.550 OA
ATOM     16  O   UNL     1      20.861  -8.248  34.626  1.00  0.00    -0.550 OA
ENDBRANCH  13  14
ENDBRANCH  12  13
ENDBRANCH  11  12
ENDBRANCH  10  11
ENDBRANCH   9  10
ENDBRANCH   8   9
ENDBRANCH   7   8
ENDBRANCH   6   7
ENDBRANCH   5   6
ENDBRANCH   4   5
ENDBRANCH   3   4
ENDBRANCH   2   3
ENDBRANCH   1   2
BRANCH   1  17
ATOM     17  C   UNL     1      20.907  -8.233  30.975  1.00  0.00     0.000 C 
BRANCH  17  18
ATOM     18  C   UNL     1      19.831  -9.271  31.344  1.00  0.00     0.000 C 
BRANCH  18  19
ATOM     19  C   UNL     1      19.775 -10.507  30.424  1.00  0.00     0.000 C 
BRANCH  19  20
ATOM     20  C   UNL     1      21.102 -11.279  30.277  1.00  0.00     0.000 C 
BRANCH  20  21
ATOM     21  C   UNL     1      21.130 -12.655  30.970  1.00  0.00     0.000 C 
BRANCH  21  22
ATOM     22  C   UNL     1      21.563 -12.625  32.449  1.00  0.00    -0.000 C 
BRANCH  22  23
ATOM     23  C   UNL     1      20.433 -12.884  33.466  1.00  0.00    -0.000 C 
BRANCH  23  24
ATOM     24  C   UNL     1      19.933 -11.641  34.225  1.00  0.00    -0.000 C 
BRANCH  24  25
ATOM     25  C   UNL     1      18.455 -11.745  34.635  1.00  0.00    -0.000 C 
BRANCH  25  26
ATOM     26  C   UNL     1      17.578 -12.391  33.546  1.00  0.00    -0.000 C 
BRANCH  26  27
ATOM     27  C   UNL     1      16.798 -11.400  32.659  1.00  0.00    -0.000 C 
BRANCH  27  28
ATOM     28  C   UNL     1      15.273 -11.376  32.885  1.00  0.00    -0.000 C 
BRANCH  28  29
ATOM     29  C   UNL     1      14.834 -11.553  34.350  1.00  0.00    -0.003 C 
ATOM     30  C   UNL     1      14.869 -10.248  35.143  1.00  0.00     0.004 C 
ENDBRANCH  28  29
ENDBRANCH  27  28
ENDBRANCH  26  27
ENDBRANCH  25  26
ENDBRANCH  24  25
ENDBRANCH  23  24
ENDBRANCH  22  23
ENDBRANCH  21  22
ENDBRANCH  20  21
ENDBRANCH  19  20
ENDBRANCH  18  19
ENDBRANCH  17  18
ENDBRANCH   1  17
TORSDOF 26
ENDMDL
MODEL 2
REMARK VINA RESULT:    -3.249      3.115      5.419
REMARK INTER + INTRA:         -14.257
REMARK INTER:                  -8.517
REMARK INTRA:                  -5.740
REMARK UNBOUND:                -6.071
REMARK SMILES CCCCCCCCCCCCCCCCCCCCCCCCCCCC(=O)[O-]
REMARK SMILES IDX 15 1 16 2 17 3 18 4 19 5 20 6 21 7 22 8 23 9 24 10 25 11
REMARK SMILES IDX 26 12 27 13 28 14 29 15 30 16 14 17 13 18 12 19 11 20 10 21
REMARK SMILES IDX 9 22 8 23 7 24 6 25 5 26 4 27 3 28 2 29 1 30
REMARK H PARENT
REMARK Flexibility Score: inf
ROOT
ATOM      1  C   UNL     1      17.037  -8.699  32.144  1.00  0.00     0.000 C 
ENDROOT
BRANCH   1   2
ATOM      2  C   UNL     1      17.158  -7.164  32.116  1.00  0.00     0.000 C 
BRANCH   2   3
ATOM      3  C   UNL     1      16.630  -6.520  30.819  1.00  0.00     0.000 C 
BRANCH   3   4
ATOM      4  C   UNL     1      17.565  -5.420  30.284  1.00  0.00     0.000 C 
BRANCH   4   5
ATOM      5  C   UNL     1      18.902  -5.365  31.050  1.00  0.00     0.000 C 
BRANCH   5   6
ATOM      6  C   UNL     1      20.105  -4.982  30.171  1.00  0.00     0.000 C 
BRANCH   6   7
ATOM      7  C   UNL     1      20.956  -6.195  29.759  1.00  0.00     0.000 C 
BRANCH   7   8
ATOM      8  C   UNL     1      20.905  -6.456  28.239  1.00  0.00     0.000 C 
BRANCH   8   9
ATOM      9  C   UNL     1      20.141  -7.736  27.855  1.00  0.00     0.000 C 
BRANCH   9  10
ATOM     10  C   UNL     1      18.710  -7.457  27.375  1.00  0.00     0.000 C 
BRANCH  10  11
ATOM     11  C   UNL     1      17.715  -8.446  27.997  1.00  0.00     0.000 C 
BRANCH  11  12
ATOM     12  C   UNL     1      17.953  -9.900  27.549  1.00  0.00     0.006 C 
BRANCH  12  13
ATOM     13  C   UNL     1      17.195 -10.290  26.266  1.00  0.00     0.053 C 
BRANCH  13  14
ATOM     14  C   UNL     1      18.110 -10.766  25.178  1.00  0.00     0.041 C 
ATOM     15  O   UNL     1      19.301 -10.357  25.126  1.00  0.00    -0.550 OA
ATOM     16  O   UNL     1      17.660 -11.686  24.240  1.00  0.00    -0.550 OA
ENDBRANCH  13  14
ENDBRANCH  12  13
ENDBRANCH  11  12
ENDBRANCH  10  11
ENDBRANCH   9  10
ENDBRANCH   8   9
ENDBRANCH   7   8
ENDBRANCH   6   7
ENDBRANCH   5   6
ENDBRANCH   4   5
ENDBRANCH   3   4
ENDBRANCH   2   3
ENDBRANCH   1   2
BRANCH   1  17
ATOM     17  C   UNL     1      18.106  -9.383  31.274  1.00  0.00     0.000 C 
BRANCH  17  18
ATOM     18  C   UNL     1      19.539  -8.959  31.642  1.00  0.00     0.000 C 
BRANCH  18  19
ATOM     19  C   UNL     1      20.656  -9.691  30.869  1.00  0.00     0.000 C 
BRANCH  19  20
ATOM     20  C   UNL     1      20.343 -11.152  30.488  1.00  0.00     0.000 C 
BRANCH  20  21
ATOM     21  C   UNL     1      21.136 -12.210  31.279  1.00  0.00     0.000 C 
BRANCH  21  22
ATOM     22  C   UNL     1      20.269 -13.244  32.025  1.00  0.00    -0.000 C 
BRANCH  22  23
ATOM     23  C   UNL     1      18.794 -12.839  32.221  1.00  0.00    -0.000 C 
BRANCH  23  24
ATOM     24  C   UNL     1      18.306 -12.821  33.682  1.00  0.00    -0.000 C 
BRANCH  24  25
ATOM     25  C   UNL     1      18.356 -11.419  34.311  1.00  0.00    -0.000 C 
BRANCH  25  26
ATOM     26  C   UNL     1      19.755 -11.052  34.841  1.00  0.00    -0.000 C 
BRANCH  26  27
ATOM     27  C   UNL     1      20.037  -9.541  34.954  1.00  0.00    -0.000 C 
BRANCH  27  28
ATOM     28  C   UNL     1      18.914  -8.710  35.606  1.00  0.00    -0.000 C 
BRANCH  28  29
ATOM     29  C   UNL     1      18.910  -7.218  35.228  1.00  0.00    -0.003 C 
ATOM     30  C   UNL     1      20.203  -6.775  34.545  1.00  0.00     0.004 C 
ENDBRANCH  28  29
ENDBRANCH  27  28
ENDBRANCH  26  27
ENDBRANCH  25  26
ENDBRANCH  24  25
ENDBRANCH  23  24
ENDBRANCH  22  23
ENDBRANCH  21  22
ENDBRANCH  20  21
ENDBRANCH  19  20
ENDBRANCH  18  19
ENDBRANCH  17  18
ENDBRANCH   1  17
TORSDOF 26
ENDMDL
MODEL 3
REMARK VINA RESULT:    -3.217      2.528      6.902
REMARK INTER + INTRA:         -14.177
REMARK INTER:                  -8.744
REMARK INTRA:                  -5.433
REMARK UNBOUND:                -6.071
REMARK SMILES CCCCCCCCCCCCCCCCCCCCCCCCCCCC(=O)[O-]
REMARK SMILES IDX 15 1 16 2 17 3 18 4 19 5 20 6 21 7 22 8 23 9 24 10 25 11
REMARK SMILES IDX 26 12 27 13 28 14 29 15 30 16 14 17 13 18 12 19 11 20 10 21
REMARK SMILES IDX 9 22 8 23 7 24 6 25 5 26 4 27 3 28 2 29 1 30
REMARK H PARENT
REMARK Flexibility Score: inf
ROOT
ATOM      1  C   UNL     1      18.064  -9.967  35.624  1.00  0.00     0.000 C 
ENDROOT
BRANCH   1   2
ATOM      2  C   UNL     1      19.540  -9.610  35.878  1.00  0.00     0.000 C 
BRANCH   2   3
ATOM      3  C   UNL     1      20.396  -9.543  34.598  1.00  0.00     0.000 C 
BRANCH   3   4
ATOM      4  C   UNL     1      20.840  -8.108  34.260  1.00  0.00     0.000 C 
BRANCH   4   5
ATOM      5  C   UNL     1      20.381  -7.669  32.854  1.00  0.00     0.000 C 
BRANCH   5   6
ATOM      6  C   UNL     1      20.664  -8.710  31.757  1.00  0.00     0.000 C 
BRANCH   6   7
ATOM      7  C   UNL     1      19.382  -9.259  31.108  1.00  0.00     0.000 C 
BRANCH   7   8
ATOM      8  C   UNL     1      19.448 -10.783  30.880  1.00  0.00     0.000 C 
BRANCH   8   9
ATOM      9  C   UNL     1      20.783 -11.262  30.280  1.00  0.00     0.000 C 
BRANCH   9  10
ATOM     10  C   UNL     1      21.393 -12.443  31.048  1.00  0.00     0.000 C 
BRANCH  10  11
ATOM     11  C   UNL     1      21.138 -12.314  32.556  1.00  0.00     0.000 C 
BRANCH  11  12
ATOM     12  C   UNL     1      20.108 -13.331  33.081  1.00  0.00     0.006 C 
BRANCH  12  13
ATOM     13  C   UNL     1      20.040 -13.414  34.618  1.00  0.00     0.053 C 
BRANCH  13  14
ATOM     14  C   UNL     1      18.856 -14.197  35.101  1.00  0.00     0.041 C 
ATOM     15  O   UNL     1      19.022 -15.263  35.751  1.00  0.00    -0.550 OA
ATOM     16  O   UNL     1      17.569 -13.731  34.863  1.00  0.00    -0.550 OA
ENDBRANCH  13  14
ENDBRANCH  12  13
ENDBRANCH  11  12
ENDBRANCH  10  11
ENDBRANCH   9  10
ENDBRANCH   8   9
ENDBRANCH   7   8
ENDBRANCH   6   7
ENDBRANCH   5   6
ENDBRANCH   4   5
ENDBRANCH   3   4
ENDBRANCH   2   3
ENDBRANCH   1   2
BRANCH   1  17
ATOM     17  C   UNL     1      17.752 -10.121  34.125  1.00  0.00     0.000 C 
BRANCH  17  18
ATOM     18  C   UNL     1      16.778  -9.049  33.603  1.00  0.00     0.000 C 
BRANCH  18  19
ATOM     19  C   UNL     1      17.053  -7.617  34.105  1.00  0.00     0.000 C 
BRANCH  19  20
ATOM     20  C   UNL     1      16.870  -6.505  33.053  1.00  0.00     0.000 C 
BRANCH  20  21
ATOM     21  C   UNL     1      16.624  -7.008  31.617  1.00  0.00     0.000 C 
BRANCH  21  22
ATOM     22  C   UNL     1      17.316  -6.181  30.515  1.00  0.00    -0.000 C 
BRANCH  22  23
ATOM     23  C   UNL     1      18.383  -5.187  31.017  1.00  0.00    -0.000 C 
BRANCH  23  24
ATOM     24  C   UNL     1      19.681  -5.143  30.190  1.00  0.00    -0.000 C 
BRANCH  24  25
ATOM     25  C   UNL     1      19.577  -5.927  28.872  1.00  0.00    -0.000 C 
BRANCH  25  26
ATOM     26  C   UNL     1      20.893  -6.631  28.490  1.00  0.00    -0.000 C 
BRANCH  26  27
ATOM     27  C   UNL     1      20.744  -8.098  28.041  1.00  0.00    -0.000 C 
BRANCH  27  28
ATOM     28  C   UNL     1      19.295  -8.570  27.807  1.00  0.00    -0.000 C 
BRANCH  28  29
ATOM     29  C   UNL     1      19.043  -9.234  26.442  1.00  0.00    -0.003 C 
ATOM     30  C   UNL     1      18.799 -10.739  26.548  1.00  0.00     0.004 C 
ENDBRANCH  28  29
ENDBRANCH  27  28
ENDBRANCH  26  27
ENDBRANCH  25  26
ENDBRANCH  24  25
ENDBRANCH  23  24
ENDBRANCH  22  23
ENDBRANCH  21  22
ENDBRANCH  20  21
ENDBRANCH  19  20
ENDBRANCH  18  19
ENDBRANCH  17  18
ENDBRANCH   1  17
TORSDOF 26
ENDMDL
MODEL 4
REMARK VINA RESULT:    -3.189      3.169      5.603
REMARK INTER + INTRA:         -14.108
REMARK INTER:                  -8.607
REMARK INTRA:                  -5.501
REMARK UNBOUND:                -6.071
REMARK SMILES CCCCCCCCCCCCCCCCCCCCCCCCCCCC(=O)[O-]
REMARK SMILES IDX 15 1 16 2 17 3 18 4 19 5 20 6 21 7 22 8 23 9 24 10 25 11
REMARK SMILES IDX 26 12 27 13 28 14 29 15 30 16 14 17 13 18 12 19 11 20 10 21
REMARK SMILES IDX 9 22 8 23 7 24 6 25 5 26 4 27 3 28 2 29 1 30
REMARK H PARENT
REMARK Flexibility Score: inf
ROOT
ATOM      1  C   UNL     1      17.101  -9.138  30.798  1.00  0.00     0.000 C 
ENDROOT
BRANCH   1   2
ATOM      2  C   UNL     1      17.023  -8.998  29.267  1.00  0.00     0.000 C 
BRANCH   2   3
ATOM      3  C   UNL     1      15.600  -9.159  28.697  1.00  0.00     0.000 C 
BRANCH   3   4
ATOM      4  C   UNL     1      15.175  -7.964  27.824  1.00  0.00     0.000 C 
BRANCH   4   5
ATOM      5  C   UNL     1      15.156  -6.639  28.616  1.00  0.00     0.000 C 
BRANCH   5   6
ATOM      6  C   UNL     1      16.069  -5.551  28.024  1.00  0.00     0.000 C 
BRANCH   6   7
ATOM      7  C   UNL     1      17.266  -5.217  28.930  1.00  0.00     0.000 C 
BRANCH   7   8
ATOM      8  C   UNL     1      18.582  -5.084  28.136  1.00  0.00     0.000 C 
BRANCH   8   9
ATOM      9  C   UNL     1      18.959  -6.350  27.345  1.00  0.00     0.000 C 
BRANCH   9  10
ATOM     10  C   UNL     1      18.980  -6.122  25.827  1.00  0.00     0.000 C 
BRANCH  10  11
ATOM     11  C   UNL     1      18.904  -7.453  25.067  1.00  0.00     0.000 C 
BRANCH  11  12
ATOM     12  C   UNL     1      18.129  -8.541  25.833  1.00  0.00     0.006 C 
BRANCH  12  13
ATOM     13  C   UNL     1      18.888  -9.875  25.962  1.00  0.00     0.053 C 
BRANCH  13  14
ATOM     14  C   UNL     1      18.026 -11.061  25.645  1.00  0.00     0.041 C 
ATOM     15  O   UNL     1      17.880 -11.984  26.491  1.00  0.00    -0.550 OA
ATOM     16  O   UNL     1      17.356 -11.131  24.431  1.00  0.00    -0.550 OA
ENDBRANCH  13  14
ENDBRANCH  12  13
ENDBRANCH  11  12
ENDBRANCH  10  11
ENDBRANCH   9  10
ENDBRANCH   8   9
ENDBRANCH   7   8
ENDBRANCH   6   7
ENDBRANCH   5   6
ENDBRANCH   4   5
ENDBRANCH   3   4
ENDBRANCH   2   3
ENDBRANCH   1   2
BRANCH   1  17
ATOM     17  C   UNL     1      17.429  -7.804  31.490  1.00  0.00     0.000 C 
BRANCH  17  18
ATOM     18  C   UNL     1      18.889  -7.723  31.973  1.00  0.00     0.000 C 
BRANCH  18  19
ATOM     19  C   UNL     1      19.899  -7.230  30.917  1.00  0.00     0.000 C 
BRANCH  19  20
ATOM     20  C   UNL     1      20.960  -8.264  30.489  1.00  0.00     0.000 C 
BRANCH  20  21
ATOM     21  C   UNL     1      20.757  -8.853  29.080  1.00  0.00     0.000 C 
BRANCH  21  22
ATOM     22  C   UNL     1      20.746 -10.394  29.018  1.00  0.00    -0.000 C 
BRANCH  22  23
ATOM     23  C   UNL     1      20.192 -11.093  30.276  1.00  0.00    -0.000 C 
BRANCH  23  24
ATOM     24  C   UNL     1      21.135 -12.121  30.927  1.00  0.00    -0.000 C 
BRANCH  24  25
ATOM     25  C   UNL     1      21.118 -12.059  32.463  1.00  0.00    -0.000 C 
BRANCH  25  26
ATOM     26  C   UNL     1      20.180 -10.965  33.006  1.00  0.00    -0.000 C 
BRANCH  26  27
ATOM     27  C   UNL     1      18.954 -11.480  33.786  1.00  0.00    -0.000 C 
BRANCH  27  28
ATOM     28  C   UNL     1      18.583 -12.954  33.527  1.00  0.00    -0.000 C 
BRANCH  28  29
ATOM     29  C   UNL     1      17.160 -13.177  32.984  1.00  0.00    -0.003 C 
ATOM     30  C   UNL     1      16.267 -11.945  33.133  1.00  0.00     0.004 C 
ENDBRANCH  28  29
ENDBRANCH  27  28
ENDBRANCH  26  27
ENDBRANCH  25  26
ENDBRANCH  24  25
ENDBRANCH  23  24
ENDBRANCH  22  23
ENDBRANCH  21  22
ENDBRANCH  20  21
ENDBRANCH  19  20
ENDBRANCH  18  19
ENDBRANCH  17  18
ENDBRANCH   1  17
TORSDOF 26
ENDMDL
MODEL 5
REMARK VINA RESULT:    -3.186      2.795      4.663
REMARK INTER + INTRA:         -14.099
REMARK INTER:                  -8.365
REMARK INTRA:                  -5.734
REMARK UNBOUND:                -6.071
REMARK SMILES CCCCCCCCCCCCCCCCCCCCCCCCCCCC(=O)[O-]
REMARK SMILES IDX 15 1 16 2 17 3 18 4 19 5 20 6 21 7 22 8 23 9 24 10 25 11
REMARK SMILES IDX 26 12 27 13 28 14 29 15 30 16 14 17 13 18 12 19 11 20 10 21
REMARK SMILES IDX 9 22 8 23 7 24 6 25 5 26 4 27 3 28 2 29 1 30
REMARK H PARENT
REMARK Flexibility Score: inf
ROOT
ATOM      1  C   UNL     1      20.521  -6.837  28.232  1.00  0.00     0.000 C 
ENDROOT
BRANCH   1   2
ATOM      2  C   UNL     1      21.061  -5.883  29.313  1.00  0.00     0.000 C 
BRANCH   2   3
ATOM      3  C   UNL     1      19.974  -5.022  29.986  1.00  0.00     0.000 C 
BRANCH   3   4
ATOM      4  C   UNL     1      19.993  -5.141  31.521  1.00  0.00     0.000 C 
BRANCH   4   5
ATOM      5  C   UNL     1      18.723  -5.821  32.071  1.00  0.00     0.000 C 
BRANCH   5   6
ATOM      6  C   UNL     1      17.720  -6.235  30.981  1.00  0.00     0.000 C 
BRANCH   6   7
ATOM      7  C   UNL     1      16.551  -5.245  30.836  1.00  0.00     0.000 C 
BRANCH   7   8
ATOM      8  C   UNL     1      15.944  -5.260  29.418  1.00  0.00     0.000 C 
BRANCH   8   9
ATOM      9  C   UNL     1      16.575  -6.310  28.485  1.00  0.00     0.000 C 
BRANCH   9  10
ATOM     10  C   UNL     1      17.135  -5.701  27.192  1.00  0.00     0.000 C 
BRANCH  10  11
ATOM     11  C   UNL     1      17.493  -6.793  26.176  1.00  0.00     0.000 C 
BRANCH  11  12
ATOM     12  C   UNL     1      17.451  -8.211  26.776  1.00  0.00     0.006 C 
BRANCH  12  13
ATOM     13  C   UNL     1      18.264  -9.250  25.982  1.00  0.00     0.053 C 
BRANCH  13  14
ATOM     14  C   UNL     1      18.098 -10.642  26.516  1.00  0.00     0.041 C 
ATOM     15  O   UNL     1      19.033 -11.189  27.160  1.00  0.00    -0.550 OA
ATOM     16  O   UNL     1      16.901 -11.321  26.333  1.00  0.00    -0.550 OA
ENDBRANCH  13  14
ENDBRANCH  12  13
ENDBRANCH  11  12
ENDBRANCH  10  11
ENDBRANCH   9  10
ENDBRANCH   8   9
ENDBRANCH   7   8
ENDBRANCH   6   7
ENDBRANCH   5   6
ENDBRANCH   4   5
ENDBRANCH   3   4
ENDBRANCH   2   3
ENDBRANCH   1   2
BRANCH   1  17
ATOM     17  C   UNL     1      20.752  -8.315  28.590  1.00  0.00     0.000 C 
BRANCH  17  18
ATOM     18  C   UNL     1      19.813  -8.816  29.703  1.00  0.00     0.000 C 
BRANCH  18  19
ATOM     19  C   UNL     1      20.491  -9.067  31.065  1.00  0.00     0.000 C 
BRANCH  19  20
ATOM     20  C   UNL     1      20.738 -10.548  31.415  1.00  0.00     0.000 C 
BRANCH  20  21
ATOM     21  C   UNL     1      19.755 -11.539  30.763  1.00  0.00     0.000 C 
BRANCH  21  22
ATOM     22  C   UNL     1      19.404 -12.766  31.628  1.00  0.00    -0.000 C 
BRANCH  22  23
ATOM     23  C   UNL     1      19.561 -12.559  33.148  1.00  0.00    -0.000 C 
BRANCH  23  24
ATOM     24  C   UNL     1      18.279 -12.767  33.975  1.00  0.00    -0.000 C 
BRANCH  24  25
ATOM     25  C   UNL     1      17.020 -12.901  33.103  1.00  0.00    -0.000 C 
BRANCH  25  26
ATOM     26  C   UNL     1      15.988 -11.789  33.369  1.00  0.00    -0.000 C 
BRANCH  26  27
ATOM     27  C   UNL     1      15.863 -10.731  32.255  1.00  0.00    -0.000 C 
BRANCH  27  28
ATOM     28  C   UNL     1      16.967  -9.654  32.246  1.00  0.00    -0.000 C 
BRANCH  28  29
ATOM     29  C   UNL     1      17.127  -8.880  33.566  1.00  0.00    -0.003 C 
ATOM     30  C   UNL     1      18.517  -9.036  34.183  1.00  0.00     0.004 C 
ENDBRANCH  28  29
ENDBRANCH  27  28
ENDBRANCH  26  27
ENDBRANCH  25  26
ENDBRANCH  24  25
ENDBRANCH  23  24
ENDBRANCH  22  23
ENDBRANCH  21  22
ENDBRANCH  20  21
ENDBRANCH  19  20
ENDBRANCH  18  19
ENDBRANCH  17  18
ENDBRANCH   1  17
TORSDOF 26
ENDMDL
MODEL 6
REMARK VINA RESULT:    -3.163      2.830      6.313
REMARK INTER + INTRA:         -14.041
REMARK INTER:                  -9.013
REMARK INTRA:                  -5.028
REMARK UNBOUND:                -6.071
REMARK SMILES CCCCCCCCCCCCCCCCCCCCCCCCCCCC(=O)[O-]
REMARK SMILES IDX 15 1 16 2 17 3 18 4 19 5 20 6 21 7 22 8 23 9 24 10 25 11
REMARK SMILES IDX 26 12 27 13 28 14 29 15 30 16 14 17 13 18 12 19 11 20 10 21
REMARK SMILES IDX 9 22 8 23 7 24 6 25 5 26 4 27 3 28 2 29 1 30
REMARK H PARENT
REMARK Flexibility Score: inf
ROOT
ATOM      1  C   UNL     1      20.381  -9.254  31.820  1.00  0.00     0.000 C 
ENDROOT
BRANCH   1   2
ATOM      2  C   UNL     1      19.326  -9.812  30.847  1.00  0.00     0.000 C 
BRANCH   2   3
ATOM      3  C   UNL     1      19.654 -11.220  30.313  1.00  0.00     0.000 C 
BRANCH   3   4
ATOM      4  C   UNL     1      21.158 -11.542  30.380  1.00  0.00     0.000 C 
BRANCH   4   5
ATOM      5  C   UNL     1      21.451 -12.787  31.243  1.00  0.00     0.000 C 
BRANCH   5   6
ATOM      6  C   UNL     1      20.246 -13.265  32.071  1.00  0.00     0.000 C 
BRANCH   6   7
ATOM      7  C   UNL     1      20.367 -12.911  33.563  1.00  0.00     0.000 C 
BRANCH   7   8
ATOM      8  C   UNL     1      18.991 -12.807  34.253  1.00  0.00     0.000 C 
BRANCH   8   9
ATOM      9  C   UNL     1      18.092 -11.697  33.677  1.00  0.00     0.000 C 
BRANCH   9  10
ATOM     10  C   UNL     1      16.775 -12.235  33.100  1.00  0.00     0.000 C 
BRANCH  10  11
ATOM     11  C   UNL     1      15.705 -11.137  33.047  1.00  0.00     0.000 C 
BRANCH  11  12
ATOM     12  C   UNL     1      15.124 -10.796  34.431  1.00  0.00     0.006 C 
BRANCH  12  13
ATOM     13  C   UNL     1      14.172 -11.870  34.991  1.00  0.00     0.053 C 
BRANCH  13  14
ATOM     14  C   UNL     1      12.729 -11.481  34.872  1.00  0.00     0.041 C 
ATOM     15  O   UNL     1      12.145 -11.543  33.758  1.00  0.00    -0.550 OA
ATOM     16  O   UNL     1      12.020 -11.082  35.998  1.00  0.00    -0.550 OA
ENDBRANCH  13  14
ENDBRANCH  12  13
ENDBRANCH  11  12
ENDBRANCH  10  11
ENDBRANCH   9  10
ENDBRANCH   8   9
ENDBRANCH   7   8
ENDBRANCH   6   7
ENDBRANCH   5   6
ENDBRANCH   4   5
ENDBRANCH   3   4
ENDBRANCH   2   3
ENDBRANCH   1   2
BRANCH   1  17
ATOM     17  C   UNL     1      21.116  -8.031  31.244  1.00  0.00     0.000 C 
BRANCH  17  18
ATOM     18  C   UNL     1      20.701  -7.709  29.797  1.00  0.00     0.000 C 
BRANCH  18  19
ATOM     19  C   UNL     1      20.939  -6.249  29.360  1.00  0.00     0.000 C 
BRANCH  19  20
ATOM     20  C   UNL     1      20.135  -5.794  28.126  1.00  0.00     0.000 C 
BRANCH  20  21
ATOM     21  C   UNL     1      18.837  -5.028  28.446  1.00  0.00     0.000 C 
BRANCH  21  22
ATOM     22  C   UNL     1      17.572  -5.905  28.528  1.00  0.00    -0.000 C 
BRANCH  22  23
ATOM     23  C   UNL     1      17.183  -6.359  29.950  1.00  0.00    -0.000 C 
BRANCH  23  24
ATOM     24  C   UNL     1      17.660  -5.437  31.088  1.00  0.00    -0.000 C 
BRANCH  24  25
ATOM     25  C   UNL     1      18.170  -6.215  32.313  1.00  0.00    -0.000 C 
BRANCH  25  26
ATOM     26  C   UNL     1      17.241  -7.377  32.710  1.00  0.00    -0.000 C 
BRANCH  26  27
ATOM     27  C   UNL     1      17.505  -7.979  34.106  1.00  0.00    -0.000 C 
BRANCH  27  28
ATOM     28  C   UNL     1      18.849  -7.581  34.749  1.00  0.00    -0.000 C 
BRANCH  28  29
ATOM     29  C   UNL     1      19.598  -8.732  35.444  1.00  0.00    -0.003 C 
ATOM     30  C   UNL     1      21.117  -8.594  35.352  1.00  0.00     0.004 C 
ENDBRANCH  28  29
ENDBRANCH  27  28
ENDBRANCH  26  27
ENDBRANCH  25  26
ENDBRANCH  24  25
ENDBRANCH  23  24
ENDBRANCH  22  23
ENDBRANCH  21  22
ENDBRANCH  20  21
ENDBRANCH  19  20
ENDBRANCH  18  19
ENDBRANCH  17  18
ENDBRANCH   1  17
TORSDOF 26
ENDMDL
MODEL 7
REMARK VINA RESULT:    -3.158      2.660      6.581
REMARK INTER + INTRA:         -14.029
REMARK INTER:                  -8.030
REMARK INTRA:                  -5.999
REMARK UNBOUND:                -6.071
REMARK SMILES CCCCCCCCCCCCCCCCCCCCCCCCCCCC(=O)[O-]
REMARK SMILES IDX 15 1 16 2 17 3 18 4 19 5 20 6 21 7 22 8 23 9 24 10 25 11
REMARK SMILES IDX 26 12 27 13 28 14 29 15 30 16 14 17 13 18 12 19 11 20 10 21
REMARK SMILES IDX 9 22 8 23 7 24 6 25 5 26 4 27 3 28 2 29 1 30
REMARK H PARENT
REMARK Flexibility Score: inf
ROOT
ATOM      1  C   UNL     1      19.585  -7.264  27.186  1.00  0.00     0.000 C 
ENDROOT
BRANCH   1   2
ATOM      2  C   UNL     1      20.654  -6.943  28.248  1.00  0.00     0.000 C 
BRANCH   2   3
ATOM      3  C   UNL     1      20.313  -5.724  29.127  1.00  0.00     0.000 C 
BRANCH   3   4
ATOM      4  C   UNL     1      20.069  -6.106  30.598  1.00  0.00     0.000 C 
BRANCH   4   5
ATOM      5  C   UNL     1      19.455  -4.946  31.410  1.00  0.00     0.000 C 
BRANCH   5   6
ATOM      6  C   UNL     1      17.922  -5.010  31.520  1.00  0.00     0.000 C 
BRANCH   6   7
ATOM      7  C   UNL     1      17.347  -6.367  31.081  1.00  0.00     0.000 C 
BRANCH   7   8
ATOM      8  C   UNL     1      17.113  -7.317  32.274  1.00  0.00     0.000 C 
BRANCH   8   9
ATOM      9  C   UNL     1      17.867  -8.655  32.157  1.00  0.00     0.000 C 
BRANCH   9  10
ATOM     10  C   UNL     1      17.612  -9.370  30.823  1.00  0.00     0.000 C 
BRANCH  10  11
ATOM     11  C   UNL     1      18.931  -9.712  30.117  1.00  0.00     0.000 C 
BRANCH  11  12
ATOM     12  C   UNL     1      20.123  -9.815  31.087  1.00  0.00     0.006 C 
BRANCH  12  13
ATOM     13  C   UNL     1      20.794 -11.201  31.106  1.00  0.00     0.053 C 
BRANCH  13  14
ATOM     14  C   UNL     1      20.051 -12.189  31.954  1.00  0.00     0.041 C 
ATOM     15  O   UNL     1      20.096 -13.419  31.682  1.00  0.00    -0.550 OA
ATOM     16  O   UNL     1      19.336 -11.758  33.064  1.00  0.00    -0.550 OA
ENDBRANCH  13  14
ENDBRANCH  12  13
ENDBRANCH  11  12
ENDBRANCH  10  11
ENDBRANCH   9  10
ENDBRANCH   8   9
ENDBRANCH   7   8
ENDBRANCH   6   7
ENDBRANCH   5   6
ENDBRANCH   4   5
ENDBRANCH   3   4
ENDBRANCH   2   3
ENDBRANCH   1   2
BRANCH   1  17
ATOM     17  C   UNL     1      18.211  -6.673  27.544  1.00  0.00     0.000 C 
BRANCH  17  18
ATOM     18  C   UNL     1      17.401  -6.248  26.306  1.00  0.00     0.000 C 
BRANCH  18  19
ATOM     19  C   UNL     1      16.472  -5.035  26.519  1.00  0.00     0.000 C 
BRANCH  19  20
ATOM     20  C   UNL     1      16.418  -4.493  27.961  1.00  0.00     0.000 C 
BRANCH  20  21
ATOM     21  C   UNL     1      15.091  -4.753  28.701  1.00  0.00     0.000 C 
BRANCH  21  22
ATOM     22  C   UNL     1      13.927  -5.210  27.799  1.00  0.00    -0.000 C 
BRANCH  22  23
ATOM     23  C   UNL     1      13.527  -6.692  27.949  1.00  0.00    -0.000 C 
BRANCH  23  24
ATOM     24  C   UNL     1      14.351  -7.495  28.973  1.00  0.00    -0.000 C 
BRANCH  24  25
ATOM     25  C   UNL     1      15.089  -8.688  28.342  1.00  0.00    -0.000 C 
BRANCH  25  26
ATOM     26  C   UNL     1      14.769  -8.864  26.846  1.00  0.00    -0.000 C 
BRANCH  26  27
ATOM     27  C   UNL     1      15.835  -9.626  26.034  1.00  0.00    -0.000 C 
BRANCH  27  28
ATOM     28  C   UNL     1      17.102 -10.022  26.820  1.00  0.00    -0.000 C 
BRANCH  28  29
ATOM     29  C   UNL     1      18.198 -10.701  25.980  1.00  0.00    -0.003 C 
ATOM     30  C   UNL     1      19.487 -10.938  26.765  1.00  0.00     0.004 C 
ENDBRANCH  28  29
ENDBRANCH  27  28
ENDBRANCH  26  27
ENDBRANCH  25  26
ENDBRANCH  24  25
ENDBRANCH  23  24
ENDBRANCH  22  23
ENDBRANCH  21  22
ENDBRANCH  20  21
ENDBRANCH  19  20
ENDBRANCH  18  19
ENDBRANCH  17  18
ENDBRANCH   1  17
TORSDOF 26
ENDMDL
MODEL 8
REMARK VINA RESULT:    -3.153      3.614      5.601
REMARK INTER + INTRA:         -14.015
REMARK INTER:                  -8.088
REMARK INTRA:                  -5.927
REMARK UNBOUND:                -6.071
REMARK SMILES CCCCCCCCCCCCCCCCCCCCCCCCCCCC(=O)[O-]
REMARK SMILES IDX 15 1 16 2 17 3 18 4 19 5 20 6 21 7 22 8 23 9 24 10 25 11
REMARK SMILES IDX 26 12 27 13 28 14 29 15 30 16 14 17 13 18 12 19 11 20 10 21
REMARK SMILES IDX 9 22 8 23 7 24 6 25 5 26 4 27 3 28 2 29 1 30
REMARK H PARENT
REMARK Flexibility Score: inf
ROOT
ATOM      1  C   UNL     1      20.619  -6.785  29.433  1.00  0.00     0.000 C 
ENDROOT
BRANCH   1   2
ATOM      2  C   UNL     1      20.669  -6.795  27.894  1.00  0.00     0.000 C 
BRANCH   2   3
ATOM      3  C   UNL     1      19.797  -5.708  27.234  1.00  0.00     0.000 C 
BRANCH   3   4
ATOM      4  C   UNL     1      19.138  -4.774  28.265  1.00  0.00     0.000 C 
BRANCH   4   5
ATOM      5  C   UNL     1      17.597  -4.815  28.189  1.00  0.00     0.000 C 
BRANCH   5   6
ATOM      6  C   UNL     1      16.921  -5.201  29.516  1.00  0.00     0.000 C 
BRANCH   6   7
ATOM      7  C   UNL     1      16.156  -6.533  29.432  1.00  0.00     0.000 C 
BRANCH   7   8
ATOM      8  C   UNL     1      17.100  -7.741  29.262  1.00  0.00     0.000 C 
BRANCH   8   9
ATOM      9  C   UNL     1      16.375  -9.045  28.883  1.00  0.00     0.000 C 
BRANCH   9  10
ATOM     10  C   UNL     1      16.814  -9.598  27.520  1.00  0.00     0.000 C 
BRANCH  10  11
ATOM     11  C   UNL     1      17.376  -8.484  26.626  1.00  0.00     0.000 C 
BRANCH  11  12
ATOM     12  C   UNL     1      18.619  -8.922  25.830  1.00  0.00     0.006 C 
BRANCH  12  13
ATOM     13  C   UNL     1      18.640 -10.421  25.478  1.00  0.00     0.053 C 
BRANCH  13  14
ATOM     14  C   UNL     1      18.671 -10.666  23.999  1.00  0.00     0.041 C 
ATOM     15  O   UNL     1      19.544 -10.110  23.282  1.00  0.00    -0.550 OA
ATOM     16  O   UNL     1      17.757 -11.534  23.417  1.00  0.00    -0.550 OA
ENDBRANCH  13  14
ENDBRANCH  12  13
ENDBRANCH  11  12
ENDBRANCH  10  11
ENDBRANCH   9  10
ENDBRANCH   8   9
ENDBRANCH   7   8
ENDBRANCH   6   7
ENDBRANCH   5   6
ENDBRANCH   4   5
ENDBRANCH   3   4
ENDBRANCH   2   3
ENDBRANCH   1   2
BRANCH   1  17
ATOM     17  C   UNL     1      20.846  -8.183  30.033  1.00  0.00     0.000 C 
BRANCH  17  18
ATOM     18  C   UNL     1      20.608  -9.316  29.018  1.00  0.00     0.000 C 
BRANCH  18  19
ATOM     19  C   UNL     1      19.762 -10.494  29.543  1.00  0.00     0.000 C 
BRANCH  19  20
ATOM     20  C   UNL     1      19.740 -10.657  31.076  1.00  0.00     0.000 C 
BRANCH  20  21
ATOM     21  C   UNL     1      18.365 -10.421  31.732  1.00  0.00     0.000 C 
BRANCH  21  22
ATOM     22  C   UNL     1      18.383 -10.379  33.272  1.00  0.00    -0.000 C 
BRANCH  22  23
ATOM     23  C   UNL     1      19.741 -10.719  33.920  1.00  0.00    -0.000 C 
BRANCH  23  24
ATOM     24  C   UNL     1      20.444  -9.545  34.626  1.00  0.00    -0.000 C 
BRANCH  24  25
ATOM     25  C   UNL     1      19.463  -8.605  35.344  1.00  0.00    -0.000 C 
BRANCH  25  26
ATOM     26  C   UNL     1      19.566  -7.148  34.856  1.00  0.00    -0.000 C 
BRANCH  26  27
ATOM     27  C   UNL     1      19.821  -6.980  33.344  1.00  0.00    -0.000 C 
BRANCH  27  28
ATOM     28  C   UNL     1      18.654  -6.365  32.545  1.00  0.00    -0.000 C 
BRANCH  28  29
ATOM     29  C   UNL     1      17.265  -6.926  32.896  1.00  0.00    -0.003 C 
ATOM     30  C   UNL     1      16.240  -5.833  33.197  1.00  0.00     0.004 C 
ENDBRANCH  28  29
ENDBRANCH  27  28
ENDBRANCH  26  27
ENDBRANCH  25  26
ENDBRANCH  24  25
ENDBRANCH  23  24
ENDBRANCH  22  23
ENDBRANCH  21  22
ENDBRANCH  20  21
ENDBRANCH  19  20
ENDBRANCH  18  19
ENDBRANCH  17  18
ENDBRANCH   1  17
TORSDOF 26
ENDMDL
MODEL 9
REMARK VINA RESULT:    -3.103      2.578      6.183
REMARK INTER + INTRA:         -13.889
REMARK INTER:                  -8.163
REMARK INTRA:                  -5.727
REMARK UNBOUND:                -6.071
REMARK SMILES CCCCCCCCCCCCCCCCCCCCCCCCCCCC(=O)[O-]
REMARK SMILES IDX 15 1 16 2 17 3 18 4 19 5 20 6 21 7 22 8 23 9 24 10 25 11
REMARK SMILES IDX 26 12 27 13 28 14 29 15 30 16 14 17 13 18 12 19 11 20 10 21
REMARK SMILES IDX 9 22 8 23 7 24 6 25 5 26 4 27 3 28 2 29 1 30
REMARK H PARENT
REMARK Flexibility Score: inf
ROOT
ATOM      1  C   UNL     1      16.579  -8.213  28.987  1.00  0.00     0.000 C 
ENDROOT
BRANCH   1   2
ATOM      2  C   UNL     1      15.655  -8.405  27.770  1.00  0.00     0.000 C 
BRANCH   2   3
ATOM      3  C   UNL     1      15.871  -9.739  27.027  1.00  0.00     0.000 C 
BRANCH   3   4
ATOM      4  C   UNL     1      16.638  -9.560  25.704  1.00  0.00     0.000 C 
BRANCH   4   5
ATOM      5  C   UNL     1      18.165  -9.511  25.916  1.00  0.00     0.000 C 
BRANCH   5   6
ATOM      6  C   UNL     1      18.690 -10.579  26.891  1.00  0.00     0.000 C 
BRANCH   6   7
ATOM      7  C   UNL     1      20.061 -10.219  27.490  1.00  0.00     0.000 C 
BRANCH   7   8
ATOM      8  C   UNL     1      20.179 -10.637  28.971  1.00  0.00     0.000 C 
BRANCH   8   9
ATOM      9  C   UNL     1      20.576  -9.484  29.910  1.00  0.00     0.000 C 
BRANCH   9  10
ATOM     10  C   UNL     1      19.562  -9.259  31.041  1.00  0.00     0.000 C 
BRANCH  10  11
ATOM     11  C   UNL     1      20.206  -9.490  32.415  1.00  0.00     0.000 C 
BRANCH  11  12
ATOM     12  C   UNL     1      19.519 -10.609  33.220  1.00  0.00     0.006 C 
BRANCH  12  13
ATOM     13  C   UNL     1      20.367 -11.888  33.361  1.00  0.00     0.053 C 
BRANCH  13  14
ATOM     14  C   UNL     1      20.405 -12.696  32.098  1.00  0.00     0.041 C 
ATOM     15  O   UNL     1      21.501 -12.909  31.515  1.00  0.00    -0.550 OA
ATOM     16  O   UNL     1      19.237 -13.242  31.584  1.00  0.00    -0.550 OA
ENDBRANCH  13  14
ENDBRANCH  12  13
ENDBRANCH  11  12
ENDBRANCH  10  11
ENDBRANCH   9  10
ENDBRANCH   8   9
ENDBRANCH   7   8
ENDBRANCH   6   7
ENDBRANCH   5   6
ENDBRANCH   4   5
ENDBRANCH   3   4
ENDBRANCH   2   3
ENDBRANCH   1   2
BRANCH   1  17
ATOM     17  C   UNL     1      16.351  -6.860  29.684  1.00  0.00     0.000 C 
BRANCH  17  18
ATOM     18  C   UNL     1      15.602  -5.849  28.798  1.00  0.00     0.000 C 
BRANCH  18  19
ATOM     19  C   UNL     1      16.484  -4.748  28.173  1.00  0.00     0.000 C 
BRANCH  19  20
ATOM     20  C   UNL     1      16.654  -4.831  26.643  1.00  0.00     0.000 C 
BRANCH  20  21
ATOM     21  C   UNL     1      17.683  -5.874  26.162  1.00  0.00     0.000 C 
BRANCH  21  22
ATOM     22  C   UNL     1      19.130  -5.615  26.625  1.00  0.00    -0.000 C 
BRANCH  22  23
ATOM     23  C   UNL     1      19.657  -6.590  27.698  1.00  0.00    -0.000 C 
BRANCH  23  24
ATOM     24  C   UNL     1      21.090  -6.314  28.190  1.00  0.00    -0.000 C 
BRANCH  24  25
ATOM     25  C   UNL     1      21.136  -5.811  29.643  1.00  0.00    -0.000 C 
BRANCH  25  26
ATOM     26  C   UNL     1      19.736  -5.547  30.228  1.00  0.00    -0.000 C 
BRANCH  26  27
ATOM     27  C   UNL     1      19.645  -5.613  31.766  1.00  0.00    -0.000 C 
BRANCH  27  28
ATOM     28  C   UNL     1      18.226  -5.827  32.331  1.00  0.00    -0.000 C 
BRANCH  28  29
ATOM     29  C   UNL     1      18.148  -6.783  33.534  1.00  0.00    -0.003 C 
ATOM     30  C   UNL     1      16.982  -7.766  33.438  1.00  0.00     0.004 C 
ENDBRANCH  28  29
ENDBRANCH  27  28
ENDBRANCH  26  27
ENDBRANCH  25  26
ENDBRANCH  24  25
ENDBRANCH  23  24
ENDBRANCH  22  23
ENDBRANCH  21  22
ENDBRANCH  20  21
ENDBRANCH  19  20
ENDBRANCH  18  19
ENDBRANCH  17  18
ENDBRANCH   1  17
TORSDOF 26
ENDMDL
