MODEL 1
REMARK VINA RESULT:    -5.348      0.000      0.000
REMARK INTER + INTRA:         -12.557
REMARK INTER:                 -10.350
REMARK INTRA:                  -2.206
REMARK UNBOUND:                -2.206
REMARK SMILES CCCCCCCCCCCCCCCCCC(=O)[O-]
REMARK SMILES IDX 10 1 11 2 12 3 13 4 14 5 15 6 16 7 17 8 18 9 19 10 20 11
REMARK SMILES IDX 9 12 8 13 7 14 6 15 5 16 4 17 3 18 2 19 1 20
REMARK H PARENT
REMARK Flexibility Score: inf
ROOT
ATOM      1  C   UNL     1     123.692 179.082 128.451  1.00  0.00     0.000 C 
ENDROOT
BRANCH   1   2
ATOM      2  C   UNL     1     123.511 179.380 126.953  1.00  0.00     0.000 C 
BRANCH   2   3
ATOM      3  C   UNL     1     123.936 178.202 126.058  1.00  0.00     0.000 C 
BRANCH   3   4
ATOM      4  C   UNL     1     122.954 177.861 124.919  1.00  0.00     0.000 C 
BRANCH   4   5
ATOM      5  C   UNL     1     123.406 176.729 123.977  1.00  0.00     0.000 C 
BRANCH   5   6
ATOM      6  C   UNL     1     123.519 177.182 122.511  1.00  0.00     0.000 C 
BRANCH   6   7
ATOM      7  C   UNL     1     124.974 177.454 122.084  1.00  0.00     0.006 C 
BRANCH   7   8
ATOM      8  C   UNL     1     126.025 176.635 122.850  1.00  0.00     0.053 C 
BRANCH   8   9
ATOM      9  C   UNL     1     126.729 175.656 121.963  1.00  0.00     0.041 C 
ATOM     10  O   UNL     1     126.319 175.454 120.790  1.00  0.00    -0.550 OA
ATOM     11  O   UNL     1     127.859 174.990 122.422  1.00  0.00    -0.550 OA
ENDBRANCH   8   9
ENDBRANCH   7   8
ENDBRANCH   6   7
ENDBRANCH   5   6
ENDBRANCH   4   5
ENDBRANCH   3   4
ENDBRANCH   2   3
ENDBRANCH   1   2
BRANCH   1  12
ATOM     12  C   UNL     1     122.352 178.989 129.198  1.00  0.00     0.000 C 
BRANCH  12  13
ATOM     13  C   UNL     1     121.885 177.536 129.389  1.00  0.00    -0.000 C 
BRANCH  13  14
ATOM     14  C   UNL     1     120.463 177.298 128.856  1.00  0.00    -0.000 C 
BRANCH  14  15
ATOM     15  C   UNL     1     120.368 177.467 127.330  1.00  0.00    -0.000 C 
BRANCH  15  16
ATOM     16  C   UNL     1     119.197 178.386 126.917  1.00  0.00    -0.000 C 
BRANCH  16  17
ATOM     17  C   UNL     1     119.606 179.856 126.730  1.00  0.00    -0.000 C 
BRANCH  17  18
ATOM     18  C   UNL     1     120.275 180.122 125.371  1.00  0.00    -0.000 C 
BRANCH  18  19
ATOM     19  C   UNL     1     119.604 179.351 124.224  1.00  0.00    -0.003 C 
ATOM     20  C   UNL     1     120.432 179.366 122.939  1.00  0.00     0.004 C 
ENDBRANCH  18  19
ENDBRANCH  17  18
ENDBRANCH  16  17
ENDBRANCH  15  16
ENDBRANCH  14  15
ENDBRANCH  13  14
ENDBRANCH  12  13
ENDBRANCH   1  12
TORSDOF 16
ENDMDL
MODEL 2
REMARK VINA RESULT:    -5.345      3.019      5.755
REMARK INTER + INTRA:         -12.552
REMARK INTER:                 -10.075
REMARK INTRA:                  -2.476
REMARK UNBOUND:                -2.206
REMARK SMILES CCCCCCCCCCCCCCCCCC(=O)[O-]
REMARK SMILES IDX 10 1 11 2 12 3 13 4 14 5 15 6 16 7 17 8 18 9 19 10 20 11
REMARK SMILES IDX 9 12 8 13 7 14 6 15 5 16 4 17 3 18 2 19 1 20
REMARK H PARENT
REMARK Flexibility Score: inf
ROOT
ATOM      1  C   UNL     1     120.498 175.751 130.624  1.00  0.00     0.000 C 
ENDROOT
BRANCH   1   2
ATOM      2  C   UNL     1     118.991 176.001 130.442  1.00  0.00     0.000 C 
BRANCH   2   3
ATOM      3  C   UNL     1     118.668 176.749 129.136  1.00  0.00     0.000 C 
BRANCH   3   4
ATOM      4  C   UNL     1     119.372 176.202 127.878  1.00  0.00     0.000 C 
BRANCH   4   5
ATOM      5  C   UNL     1     120.097 177.255 127.019  1.00  0.00     0.000 C 
BRANCH   5   6
ATOM      6  C   UNL     1     119.975 178.678 127.590  1.00  0.00     0.000 C 
BRANCH   6   7
ATOM      7  C   UNL     1     119.331 179.663 126.596  1.00  0.00     0.006 C 
BRANCH   7   8
ATOM      8  C   UNL     1     120.262 180.123 125.463  1.00  0.00     0.053 C 
BRANCH   8   9
ATOM      9  C   UNL     1     119.905 179.494 124.152  1.00  0.00     0.041 C 
ATOM     10  O   UNL     1     120.777 179.364 123.253  1.00  0.00    -0.550 OA
ATOM     11  O   UNL     1     118.618 179.020 123.936  1.00  0.00    -0.550 OA
ENDBRANCH   8   9
ENDBRANCH   7   8
ENDBRANCH   6   7
ENDBRANCH   5   6
ENDBRANCH   4   5
ENDBRANCH   3   4
ENDBRANCH   2   3
ENDBRANCH   1   2
BRANCH   1  12
ATOM     12  C   UNL     1     121.264 177.029 131.001  1.00  0.00     0.000 C 
BRANCH  12  13
ATOM     13  C   UNL     1     122.621 177.134 130.284  1.00  0.00    -0.000 C 
BRANCH  13  14
ATOM     14  C   UNL     1     123.251 178.530 130.414  1.00  0.00    -0.000 C 
BRANCH  14  15
ATOM     15  C   UNL     1     123.599 179.151 129.050  1.00  0.00    -0.000 C 
BRANCH  15  16
ATOM     16  C   UNL     1     123.586 178.105 127.913  1.00  0.00    -0.000 C 
BRANCH  16  17
ATOM     17  C   UNL     1     123.471 178.725 126.511  1.00  0.00    -0.000 C 
BRANCH  17  18
ATOM     18  C   UNL     1     124.144 177.870 125.424  1.00  0.00    -0.000 C 
BRANCH  18  19
ATOM     19  C   UNL     1     123.129 177.088 124.576  1.00  0.00    -0.003 C 
ATOM     20  C   UNL     1     122.851 175.690 125.128  1.00  0.00     0.004 C 
ENDBRANCH  18  19
ENDBRANCH  17  18
ENDBRANCH  16  17
ENDBRANCH  15  16
ENDBRANCH  14  15
ENDBRANCH  13  14
ENDBRANCH  12  13
ENDBRANCH   1  12
TORSDOF 16
ENDMDL
MODEL 3
REMARK VINA RESULT:    -5.305      1.617      3.289
REMARK INTER + INTRA:         -12.473
REMARK INTER:                 -10.029
REMARK INTRA:                  -2.444
REMARK UNBOUND:                -2.206
REMARK SMILES CCCCCCCCCCCCCCCCCC(=O)[O-]
REMARK SMILES IDX 10 1 11 2 12 3 13 4 14 5 15 6 16 7 17 8 18 9 19 10 20 11
REMARK SMILES IDX 9 12 8 13 7 14 6 15 5 16 4 17 3 18 2 19 1 20
REMARK H PARENT
REMARK Flexibility Score: inf
ROOT
ATOM      1  C   UNL     1     121.233 176.140 130.052  1.00  0.00     0.000 C 
ENDROOT
BRANCH   1   2
ATOM      2  C   UNL     1     121.902 177.229 130.907  1.00  0.00     0.000 C 
BRANCH   2   3
ATOM      3  C   UNL     1     122.776 178.184 130.074  1.00  0.00     0.000 C 
BRANCH   3   4
ATOM      4  C   UNL     1     122.059 178.858 128.887  1.00  0.00     0.000 C 
BRANCH   4   5
ATOM      5  C   UNL     1     122.912 179.038 127.618  1.00  0.00     0.000 C 
BRANCH   5   6
ATOM      6  C   UNL     1     122.833 177.830 126.669  1.00  0.00     0.000 C 
BRANCH   6   7
ATOM      7  C   UNL     1     123.909 177.869 125.567  1.00  0.00     0.006 C 
BRANCH   7   8
ATOM      8  C   UNL     1     123.778 176.759 124.511  1.00  0.00     0.053 C 
BRANCH   8   9
ATOM      9  C   UNL     1     124.251 177.208 123.164  1.00  0.00     0.041 C 
ATOM     10  O   UNL     1     125.455 177.536 122.991  1.00  0.00    -0.550 OA
ATOM     11  O   UNL     1     123.371 177.230 122.090  1.00  0.00    -0.550 OA
ENDBRANCH   8   9
ENDBRANCH   7   8
ENDBRANCH   6   7
ENDBRANCH   5   6
ENDBRANCH   4   5
ENDBRANCH   3   4
ENDBRANCH   2   3
ENDBRANCH   1   2
BRANCH   1  12
ATOM     12  C   UNL     1     119.716 176.056 130.290  1.00  0.00     0.000 C 
BRANCH  12  13
ATOM     13  C   UNL     1     118.908 176.760 129.187  1.00  0.00    -0.000 C 
BRANCH  13  14
ATOM     14  C   UNL     1     119.006 176.041 127.832  1.00  0.00    -0.000 C 
BRANCH  14  15
ATOM     15  C   UNL     1     119.291 177.008 126.669  1.00  0.00    -0.000 C 
BRANCH  15  16
ATOM     16  C   UNL     1     118.914 178.464 127.016  1.00  0.00    -0.000 C 
BRANCH  16  17
ATOM     17  C   UNL     1     119.556 179.504 126.083  1.00  0.00    -0.000 C 
BRANCH  17  18
ATOM     18  C   UNL     1     119.487 179.099 124.601  1.00  0.00    -0.000 C 
BRANCH  18  19
ATOM     19  C   UNL     1     120.835 179.263 123.882  1.00  0.00    -0.003 C 
ATOM     20  C   UNL     1     120.679 179.460 122.374  1.00  0.00     0.004 C 
ENDBRANCH  18  19
ENDBRANCH  17  18
ENDBRANCH  16  17
ENDBRANCH  15  16
ENDBRANCH  14  15
ENDBRANCH  13  14
ENDBRANCH  12  13
ENDBRANCH   1  12
TORSDOF 16
ENDMDL
MODEL 4
REMARK VINA RESULT:    -5.274      3.264      6.023
REMARK INTER + INTRA:         -12.414
REMARK INTER:                  -9.586
REMARK INTRA:                  -2.828
REMARK UNBOUND:                -2.206
REMARK SMILES CCCCCCCCCCCCCCCCCC(=O)[O-]
REMARK SMILES IDX 10 1 11 2 12 3 13 4 14 5 15 6 16 7 17 8 18 9 19 10 20 11
REMARK SMILES IDX 9 12 8 13 7 14 6 15 5 16 4 17 3 18 2 19 1 20
REMARK H PARENT
REMARK Flexibility Score: inf
ROOT
ATOM      1  C   UNL     1     123.159 177.505 123.712  1.00  0.00     0.000 C 
ENDROOT
BRANCH   1   2
ATOM      2  C   UNL     1     122.661 176.540 124.801  1.00  0.00     0.000 C 
BRANCH   2   3
ATOM      3  C   UNL     1     122.681 177.168 126.206  1.00  0.00     0.000 C 
BRANCH   3   4
ATOM      4  C   UNL     1     123.677 178.332 126.387  1.00  0.00     0.000 C 
BRANCH   4   5
ATOM      5  C   UNL     1     123.311 179.346 127.486  1.00  0.00     0.000 C 
BRANCH   5   6
ATOM      6  C   UNL     1     122.021 178.974 128.236  1.00  0.00     0.000 C 
BRANCH   6   7
ATOM      7  C   UNL     1     122.188 179.023 129.767  1.00  0.00     0.006 C 
BRANCH   7   8
ATOM      8  C   UNL     1     121.988 177.672 130.472  1.00  0.00     0.053 C 
BRANCH   8   9
ATOM      9  C   UNL     1     123.041 176.678 130.092  1.00  0.00     0.041 C 
ATOM     10  O   UNL     1     124.233 176.843 130.466  1.00  0.00    -0.550 OA
ATOM     11  O   UNL     1     122.701 175.552 129.354  1.00  0.00    -0.550 OA
ENDBRANCH   8   9
ENDBRANCH   7   8
ENDBRANCH   6   7
ENDBRANCH   5   6
ENDBRANCH   4   5
ENDBRANCH   3   4
ENDBRANCH   2   3
ENDBRANCH   1   2
BRANCH   1  12
ATOM     12  C   UNL     1     122.144 177.677 122.570  1.00  0.00     0.000 C 
BRANCH  12  13
ATOM     13  C   UNL     1     121.407 179.026 122.637  1.00  0.00    -0.000 C 
BRANCH  13  14
ATOM     14  C   UNL     1     120.200 178.993 123.589  1.00  0.00    -0.000 C 
BRANCH  14  15
ATOM     15  C   UNL     1     120.407 179.869 124.836  1.00  0.00    -0.000 C 
BRANCH  15  16
ATOM     16  C   UNL     1     119.462 179.472 125.991  1.00  0.00    -0.000 C 
BRANCH  16  17
ATOM     17  C   UNL     1     118.625 178.216 125.695  1.00  0.00    -0.000 C 
BRANCH  17  18
ATOM     18  C   UNL     1     119.030 177.011 126.561  1.00  0.00    -0.000 C 
BRANCH  18  19
ATOM     19  C   UNL     1     119.027 177.337 128.062  1.00  0.00    -0.003 C 
ATOM     20  C   UNL     1     119.054 176.085 128.938  1.00  0.00     0.004 C 
ENDBRANCH  18  19
ENDBRANCH  17  18
ENDBRANCH  16  17
ENDBRANCH  15  16
ENDBRANCH  14  15
ENDBRANCH  13  14
ENDBRANCH  12  13
ENDBRANCH   1  12
TORSDOF 16
ENDMDL
MODEL 5
REMARK VINA RESULT:    -5.272      3.412      6.022
REMARK INTER + INTRA:         -12.409
REMARK INTER:                 -10.177
REMARK INTRA:                  -2.232
REMARK UNBOUND:                -2.206
REMARK SMILES CCCCCCCCCCCCCCCCCC(=O)[O-]
REMARK SMILES IDX 10 1 11 2 12 3 13 4 14 5 15 6 16 7 17 8 18 9 19 10 20 11
REMARK SMILES IDX 9 12 8 13 7 14 6 15 5 16 4 17 3 18 2 19 1 20
REMARK H PARENT
REMARK Flexibility Score: inf
ROOT
ATOM      1  C   UNL     1     121.156 176.058 130.031  1.00  0.00     0.000 C 
ENDROOT
BRANCH   1   2
ATOM      2  C   UNL     1     119.663 176.106 130.397  1.00  0.00     0.000 C 
BRANCH   2   3
ATOM      3  C   UNL     1     118.748 176.103 129.159  1.00  0.00     0.000 C 
BRANCH   3   4
ATOM      4  C   UNL     1     119.462 175.831 127.820  1.00  0.00     0.000 C 
BRANCH   4   5
ATOM      5  C   UNL     1     119.316 176.937 126.759  1.00  0.00     0.000 C 
BRANCH   5   6
ATOM      6  C   UNL     1     119.481 178.351 127.343  1.00  0.00     0.000 C 
BRANCH   6   7
ATOM      7  C   UNL     1     119.462 179.447 126.261  1.00  0.00     0.006 C 
BRANCH   7   8
ATOM      8  C   UNL     1     119.528 178.918 124.819  1.00  0.00     0.053 C 
BRANCH   8   9
ATOM      9  C   UNL     1     118.210 179.031 124.118  1.00  0.00     0.041 C 
ATOM     10  O   UNL     1     117.164 179.285 124.772  1.00  0.00    -0.550 OA
ATOM     11  O   UNL     1     118.143 178.888 122.738  1.00  0.00    -0.550 OA
ENDBRANCH   8   9
ENDBRANCH   7   8
ENDBRANCH   6   7
ENDBRANCH   5   6
ENDBRANCH   4   5
ENDBRANCH   3   4
ENDBRANCH   2   3
ENDBRANCH   1   2
BRANCH   1  12
ATOM     12  C   UNL     1     121.971 177.150 130.744  1.00  0.00     0.000 C 
BRANCH  12  13
ATOM     13  C   UNL     1     122.231 178.371 129.846  1.00  0.00    -0.000 C 
BRANCH  13  14
ATOM     14  C   UNL     1     123.408 178.154 128.881  1.00  0.00    -0.000 C 
BRANCH  14  15
ATOM     15  C   UNL     1     123.786 179.432 128.113  1.00  0.00    -0.000 C 
BRANCH  15  16
ATOM     16  C   UNL     1     123.145 179.481 126.709  1.00  0.00    -0.000 C 
BRANCH  16  17
ATOM     17  C   UNL     1     123.084 178.110 126.014  1.00  0.00    -0.000 C 
BRANCH  17  18
ATOM     18  C   UNL     1     124.387 177.755 125.279  1.00  0.00    -0.000 C 
BRANCH  18  19
ATOM     19  C   UNL     1     124.134 177.051 123.937  1.00  0.00    -0.003 C 
ATOM     20  C   UNL     1     122.748 177.351 123.365  1.00  0.00     0.004 C 
ENDBRANCH  18  19
ENDBRANCH  17  18
ENDBRANCH  16  17
ENDBRANCH  15  16
ENDBRANCH  14  15
ENDBRANCH  13  14
ENDBRANCH  12  13
ENDBRANCH   1  12
TORSDOF 16
ENDMDL
MODEL 6
REMARK VINA RESULT:    -5.226      2.093      4.464
REMARK INTER + INTRA:         -12.320
REMARK INTER:                  -9.602
REMARK INTRA:                  -2.718
REMARK UNBOUND:                -2.206
REMARK SMILES CCCCCCCCCCCCCCCCCC(=O)[O-]
REMARK SMILES IDX 10 1 11 2 12 3 13 4 14 5 15 6 16 7 17 8 18 9 19 10 20 11
REMARK SMILES IDX 9 12 8 13 7 14 6 15 5 16 4 17 3 18 2 19 1 20
REMARK H PARENT
REMARK Flexibility Score: inf
ROOT
ATOM      1  C   UNL     1     122.122 179.186 126.260  1.00  0.00     0.000 C 
ENDROOT
BRANCH   1   2
ATOM      2  C   UNL     1     120.815 179.364 127.050  1.00  0.00     0.000 C 
BRANCH   2   3
ATOM      3  C   UNL     1     120.017 178.054 127.181  1.00  0.00     0.000 C 
BRANCH   3   4
ATOM      4  C   UNL     1     120.424 176.940 126.195  1.00  0.00     0.000 C 
BRANCH   4   5
ATOM      5  C   UNL     1     121.011 175.671 126.840  1.00  0.00     0.000 C 
BRANCH   5   6
ATOM      6  C   UNL     1     122.301 175.193 126.152  1.00  0.00     0.000 C 
BRANCH   6   7
ATOM      7  C   UNL     1     122.615 175.981 124.866  1.00  0.00     0.006 C 
BRANCH   7   8
ATOM      8  C   UNL     1     124.112 176.231 124.623  1.00  0.00     0.053 C 
BRANCH   8   9
ATOM      9  C   UNL     1     124.350 177.086 123.417  1.00  0.00     0.041 C 
ATOM     10  O   UNL     1     125.424 177.735 123.302  1.00  0.00    -0.550 OA
ATOM     11  O   UNL     1     123.401 177.140 122.405  1.00  0.00    -0.550 OA
ENDBRANCH   8   9
ENDBRANCH   7   8
ENDBRANCH   6   7
ENDBRANCH   5   6
ENDBRANCH   4   5
ENDBRANCH   3   4
ENDBRANCH   2   3
ENDBRANCH   1   2
BRANCH   1  12
ATOM     12  C   UNL     1     123.368 179.312 127.151  1.00  0.00     0.000 C 
BRANCH  12  13
ATOM     13  C   UNL     1     123.349 178.325 128.332  1.00  0.00    -0.000 C 
BRANCH  13  14
ATOM     14  C   UNL     1     123.284 179.035 129.693  1.00  0.00    -0.000 C 
BRANCH  14  15
ATOM     15  C   UNL     1     122.368 178.310 130.695  1.00  0.00    -0.000 C 
BRANCH  15  16
ATOM     16  C   UNL     1     121.827 176.978 130.131  1.00  0.00    -0.000 C 
BRANCH  16  17
ATOM     17  C   UNL     1     120.739 176.336 131.009  1.00  0.00    -0.000 C 
BRANCH  17  18
ATOM     18  C   UNL     1     120.277 174.968 130.481  1.00  0.00    -0.000 C 
BRANCH  18  19
ATOM     19  C   UNL     1     118.931 175.044 129.744  1.00  0.00    -0.003 C 
ATOM     20  C   UNL     1     118.152 176.318 130.069  1.00  0.00     0.004 C 
ENDBRANCH  18  19
ENDBRANCH  17  18
ENDBRANCH  16  17
ENDBRANCH  15  16
ENDBRANCH  14  15
ENDBRANCH  13  14
ENDBRANCH  12  13
ENDBRANCH   1  12
TORSDOF 16
ENDMDL
MODEL 7
REMARK VINA RESULT:    -5.217      3.716      5.491
REMARK INTER + INTRA:         -12.304
REMARK INTER:                  -9.803
REMARK INTRA:                  -2.500
REMARK UNBOUND:                -2.206
REMARK SMILES CCCCCCCCCCCCCCCCCC(=O)[O-]
REMARK SMILES IDX 10 1 11 2 12 3 13 4 14 5 15 6 16 7 17 8 18 9 19 10 20 11
REMARK SMILES IDX 9 12 8 13 7 14 6 15 5 16 4 17 3 18 2 19 1 20
REMARK H PARENT
REMARK Flexibility Score: inf
ROOT
ATOM      1  C   UNL     1     122.189 178.627 130.496  1.00  0.00     0.000 C 
ENDROOT
BRANCH   1   2
ATOM      2  C   UNL     1     121.717 177.305 131.125  1.00  0.00     0.000 C 
BRANCH   2   3
ATOM      3  C   UNL     1     121.208 176.298 130.078  1.00  0.00     0.000 C 
BRANCH   3   4
ATOM      4  C   UNL     1     119.822 175.689 130.376  1.00  0.00     0.000 C 
BRANCH   4   5
ATOM      5  C   UNL     1     118.673 176.201 129.488  1.00  0.00     0.000 C 
BRANCH   5   6
ATOM      6  C   UNL     1     119.166 177.058 128.310  1.00  0.00     0.000 C 
BRANCH   6   7
ATOM      7  C   UNL     1     119.206 176.276 126.983  1.00  0.00     0.006 C 
BRANCH   7   8
ATOM      8  C   UNL     1     120.551 175.592 126.689  1.00  0.00     0.053 C 
BRANCH   8   9
ATOM      9  C   UNL     1     120.459 174.102 126.800  1.00  0.00     0.041 C 
ATOM     10  O   UNL     1     120.962 173.507 127.791  1.00  0.00    -0.550 OA
ATOM     11  O   UNL     1     119.790 173.372 125.826  1.00  0.00    -0.550 OA
ENDBRANCH   8   9
ENDBRANCH   7   8
ENDBRANCH   6   7
ENDBRANCH   5   6
ENDBRANCH   4   5
ENDBRANCH   3   4
ENDBRANCH   2   3
ENDBRANCH   1   2
BRANCH   1  12
ATOM     12  C   UNL     1     122.241 178.561 128.961  1.00  0.00     0.000 C 
BRANCH  12  13
ATOM     13  C   UNL     1     123.681 178.595 128.420  1.00  0.00    -0.000 C 
BRANCH  13  14
ATOM     14  C   UNL     1     123.736 178.552 126.885  1.00  0.00    -0.000 C 
BRANCH  14  15
ATOM     15  C   UNL     1     122.601 179.359 126.230  1.00  0.00    -0.000 C 
BRANCH  15  16
ATOM     16  C   UNL     1     121.830 178.532 125.179  1.00  0.00    -0.000 C 
BRANCH  16  17
ATOM     17  C   UNL     1     120.489 179.162 124.766  1.00  0.00    -0.000 C 
BRANCH  17  18
ATOM     18  C   UNL     1     119.906 180.086 125.847  1.00  0.00    -0.000 C 
BRANCH  18  19
ATOM     19  C   UNL     1     118.417 179.815 126.115  1.00  0.00    -0.003 C 
ATOM     20  C   UNL     1     117.602 179.673 124.829  1.00  0.00     0.004 C 
ENDBRANCH  18  19
ENDBRANCH  17  18
ENDBRANCH  16  17
ENDBRANCH  15  16
ENDBRANCH  14  15
ENDBRANCH  13  14
ENDBRANCH  12  13
ENDBRANCH   1  12
TORSDOF 16
ENDMDL
MODEL 8
REMARK VINA RESULT:    -5.177      3.989      5.204
REMARK INTER + INTRA:         -12.226
REMARK INTER:                  -9.156
REMARK INTRA:                  -3.071
REMARK UNBOUND:                -2.206
REMARK SMILES CCCCCCCCCCCCCCCCCC(=O)[O-]
REMARK SMILES IDX 10 1 11 2 12 3 13 4 14 5 15 6 16 7 17 8 18 9 19 10 20 11
REMARK SMILES IDX 9 12 8 13 7 14 6 15 5 16 4 17 3 18 2 19 1 20
REMARK H PARENT
REMARK Flexibility Score: inf
ROOT
ATOM      1  C   UNL     1     120.260 176.001 131.097  1.00  0.00     0.000 C 
ENDROOT
BRANCH   1   2
ATOM      2  C   UNL     1     118.935 176.027 130.317  1.00  0.00     0.000 C 
BRANCH   2   3
ATOM      3  C   UNL     1     119.119 176.440 128.846  1.00  0.00     0.000 C 
BRANCH   3   4
ATOM      4  C   UNL     1     119.703 175.346 127.928  1.00  0.00     0.000 C 
BRANCH   4   5
ATOM      5  C   UNL     1     120.486 175.861 126.706  1.00  0.00     0.000 C 
BRANCH   5   6
ATOM      6  C   UNL     1     121.954 175.400 126.701  1.00  0.00     0.000 C 
BRANCH   6   7
ATOM      7  C   UNL     1     122.231 174.287 127.730  1.00  0.00     0.006 C 
BRANCH   7   8
ATOM      8  C   UNL     1     122.726 172.967 127.119  1.00  0.00     0.053 C 
BRANCH   8   9
ATOM      9  C   UNL     1     121.628 171.955 127.003  1.00  0.00     0.041 C 
ATOM     10  O   UNL     1     120.994 171.828 125.921  1.00  0.00    -0.550 OA
ATOM     11  O   UNL     1     121.328 171.128 128.078  1.00  0.00    -0.550 OA
ENDBRANCH   8   9
ENDBRANCH   7   8
ENDBRANCH   6   7
ENDBRANCH   5   6
ENDBRANCH   4   5
ENDBRANCH   3   4
ENDBRANCH   2   3
ENDBRANCH   1   2
BRANCH   1  12
ATOM     12  C   UNL     1     121.182 177.174 130.727  1.00  0.00     0.000 C 
BRANCH  12  13
ATOM     13  C   UNL     1     122.609 176.714 130.382  1.00  0.00    -0.000 C 
BRANCH  13  14
ATOM     14  C   UNL     1     123.259 177.578 129.289  1.00  0.00    -0.000 C 
BRANCH  14  15
ATOM     15  C   UNL     1     122.301 178.645 128.731  1.00  0.00    -0.000 C 
BRANCH  15  16
ATOM     16  C   UNL     1     122.691 179.090 127.305  1.00  0.00    -0.000 C 
BRANCH  16  17
ATOM     17  C   UNL     1     121.487 179.487 126.434  1.00  0.00    -0.000 C 
BRANCH  17  18
ATOM     18  C   UNL     1     120.169 179.537 127.225  1.00  0.00    -0.000 C 
BRANCH  18  19
ATOM     19  C   UNL     1     118.936 179.611 126.312  1.00  0.00    -0.003 C 
ATOM     20  C   UNL     1     119.173 178.965 124.947  1.00  0.00     0.004 C 
ENDBRANCH  18  19
ENDBRANCH  17  18
ENDBRANCH  16  17
ENDBRANCH  15  16
ENDBRANCH  14  15
ENDBRANCH  13  14
ENDBRANCH  12  13
ENDBRANCH   1  12
TORSDOF 16
ENDMDL
MODEL 9
REMARK VINA RESULT:    -5.131      3.295      6.365
REMARK INTER + INTRA:         -12.137
REMARK INTER:                  -9.544
REMARK INTRA:                  -2.593
REMARK UNBOUND:                -2.206
REMARK SMILES CCCCCCCCCCCCCCCCCC(=O)[O-]
REMARK SMILES IDX 10 1 11 2 12 3 13 4 14 5 15 6 16 7 17 8 18 9 19 10 20 11
REMARK SMILES IDX 9 12 8 13 7 14 6 15 5 16 4 17 3 18 2 19 1 20
REMARK H PARENT
REMARK Flexibility Score: inf
ROOT
ATOM      1  C   UNL     1     118.870 176.723 127.004  1.00  0.00     0.000 C 
ENDROOT
BRANCH   1   2
ATOM      2  C   UNL     1     119.318 177.083 128.430  1.00  0.00     0.000 C 
BRANCH   2   3
ATOM      3  C   UNL     1     118.513 176.339 129.511  1.00  0.00     0.000 C 
BRANCH   3   4
ATOM      4  C   UNL     1     119.304 175.987 130.788  1.00  0.00     0.000 C 
BRANCH   4   5
ATOM      5  C   UNL     1     119.902 174.569 130.822  1.00  0.00     0.000 C 
BRANCH   5   6
ATOM      6  C   UNL     1     119.182 173.595 129.874  1.00  0.00     0.000 C 
BRANCH   6   7
ATOM      7  C   UNL     1     120.106 173.048 128.769  1.00  0.00     0.006 C 
BRANCH   7   8
ATOM      8  C   UNL     1     121.342 173.917 128.487  1.00  0.00     0.053 C 
BRANCH   8   9
ATOM      9  C   UNL     1     121.489 174.230 127.030  1.00  0.00     0.041 C 
ATOM     10  O   UNL     1     120.807 173.604 126.175  1.00  0.00    -0.550 OA
ATOM     11  O   UNL     1     122.354 175.235 126.618  1.00  0.00    -0.550 OA
ENDBRANCH   8   9
ENDBRANCH   7   8
ENDBRANCH   6   7
ENDBRANCH   5   6
ENDBRANCH   4   5
ENDBRANCH   3   4
ENDBRANCH   2   3
ENDBRANCH   1   2
BRANCH   1  12
ATOM     12  C   UNL     1     118.831 177.946 126.074  1.00  0.00     0.000 C 
BRANCH  12  13
ATOM     13  C   UNL     1     119.313 179.230 126.771  1.00  0.00    -0.000 C 
BRANCH  13  14
ATOM     14  C   UNL     1     120.468 179.911 126.020  1.00  0.00    -0.000 C 
BRANCH  14  15
ATOM     15  C   UNL     1     121.190 178.955 125.054  1.00  0.00    -0.000 C 
BRANCH  15  16
ATOM     16  C   UNL     1     122.580 178.535 125.579  1.00  0.00    -0.000 C 
BRANCH  16  17
ATOM     17  C   UNL     1     123.057 179.362 126.785  1.00  0.00    -0.000 C 
BRANCH  17  18
ATOM     18  C   UNL     1     123.807 178.518 127.828  1.00  0.00    -0.000 C 
BRANCH  18  19
ATOM     19  C   UNL     1     122.866 177.896 128.871  1.00  0.00    -0.003 C 
ATOM     20  C   UNL     1     122.231 178.940 129.790  1.00  0.00     0.004 C 
ENDBRANCH  18  19
ENDBRANCH  17  18
ENDBRANCH  16  17
ENDBRANCH  15  16
ENDBRANCH  14  15
ENDBRANCH  13  14
ENDBRANCH  12  13
ENDBRANCH   1  12
TORSDOF 16
ENDMDL
