MODEL 1
REMARK VINA RESULT:    -3.382      0.000      0.000
REMARK INTER + INTRA:          -8.058
REMARK INTER:                  -6.150
REMARK INTRA:                  -1.908
REMARK UNBOUND:                -1.908
REMARK SMILES CCCCCCCCCCCCCCCC(=O)[O-]
REMARK SMILES IDX 9 1 10 2 11 3 12 4 13 5 14 6 15 7 16 8 17 9 18 10 8 11 7 12
REMARK SMILES IDX 6 13 5 14 4 15 3 16 2 17 1 18
REMARK H PARENT
REMARK Flexibility Score: inf
ROOT
ATOM      1  C   UNL     1     482.159  39.420 462.043  1.00  0.00     0.000 C 
ENDROOT
BRANCH   1   2
ATOM      2  C   UNL     1     481.305  39.890 463.234  1.00  0.00     0.000 C 
BRANCH   2   3
ATOM      3  C   UNL     1     480.145  38.920 463.537  1.00  0.00     0.000 C 
BRANCH   3   4
ATOM      4  C   UNL     1     478.760  39.483 463.171  1.00  0.00     0.000 C 
BRANCH   4   5
ATOM      5  C   UNL     1     478.160  38.827 461.921  1.00  0.00     0.000 C 
BRANCH   5   6
ATOM      6  C   UNL     1     478.383  37.307 461.934  1.00  0.00     0.006 C 
BRANCH   6   7
ATOM      7  C   UNL     1     478.711  36.756 460.540  1.00  0.00     0.053 C 
BRANCH   7   8
ATOM      8  C   UNL     1     478.782  35.259 460.537  1.00  0.00     0.041 C 
ATOM      9  O   UNL     1     478.126  34.593 461.380  1.00  0.00    -0.550 OA
ATOM     10  O   UNL     1     479.597  34.602 459.624  1.00  0.00    -0.550 OA
ENDBRANCH   7   8
ENDBRANCH   6   7
ENDBRANCH   5   6
ENDBRANCH   4   5
ENDBRANCH   3   4
ENDBRANCH   2   3
ENDBRANCH   1   2
BRANCH   1  11
ATOM     11  C   UNL     1     481.577  39.855 460.688  1.00  0.00     0.000 C 
BRANCH  11  12
ATOM     12  C   UNL     1     481.709  38.768 459.610  1.00  0.00    -0.000 C 
BRANCH  12  13
ATOM     13  C   UNL     1     482.814  39.121 458.608  1.00  0.00    -0.000 C 
BRANCH  13  14
ATOM     14  C   UNL     1     484.001  38.154 458.736  1.00  0.00    -0.000 C 
BRANCH  14  15
ATOM     15  C   UNL     1     485.311  38.871 459.100  1.00  0.00    -0.000 C 
BRANCH  15  16
ATOM     16  C   UNL     1     485.473  39.075 460.616  1.00  0.00    -0.000 C 
BRANCH  16  17
ATOM     17  C   UNL     1     485.683  40.550 460.993  1.00  0.00    -0.003 C 
ATOM     18  C   UNL     1     485.363  41.504 459.841  1.00  0.00     0.004 C 
ENDBRANCH  16  17
ENDBRANCH  15  16
ENDBRANCH  14  15
ENDBRANCH  13  14
ENDBRANCH  12  13
ENDBRANCH  11  12
ENDBRANCH   1  11
TORSDOF 14
ENDMDL
MODEL 2
REMARK VINA RESULT:    -3.347      3.374      7.614
REMARK INTER + INTRA:          -7.995
REMARK INTER:                  -7.054
REMARK INTRA:                  -0.941
REMARK UNBOUND:                -1.908
REMARK SMILES CCCCCCCCCCCCCCCC(=O)[O-]
REMARK SMILES IDX 9 1 10 2 11 3 12 4 13 5 14 6 15 7 16 8 17 9 18 10 8 11 7 12
REMARK SMILES IDX 6 13 5 14 4 15 3 16 2 17 1 18
REMARK H PARENT
REMARK Flexibility Score: inf
ROOT
ATOM      1  C   UNL     1     481.139  39.551 459.932  1.00  0.00     0.000 C 
ENDROOT
BRANCH   1   2
ATOM      2  C   UNL     1     481.736  38.435 459.057  1.00  0.00     0.000 C 
BRANCH   2   3
ATOM      3  C   UNL     1     482.995  38.902 458.296  1.00  0.00     0.000 C 
BRANCH   3   4
ATOM      4  C   UNL     1     484.303  38.312 458.851  1.00  0.00     0.000 C 
BRANCH   4   5
ATOM      5  C   UNL     1     485.363  39.381 459.148  1.00  0.00     0.000 C 
BRANCH   5   6
ATOM      6  C   UNL     1     484.956  40.242 460.353  1.00  0.00     0.006 C 
BRANCH   6   7
ATOM      7  C   UNL     1     484.704  39.399 461.610  1.00  0.00     0.053 C 
BRANCH   7   8
ATOM      8  C   UNL     1     484.242  40.242 462.760  1.00  0.00     0.041 C 
ATOM      9  O   UNL     1     484.287  39.791 463.934  1.00  0.00    -0.550 OA
ATOM     10  O   UNL     1     483.731  41.513 462.531  1.00  0.00    -0.550 OA
ENDBRANCH   7   8
ENDBRANCH   6   7
ENDBRANCH   5   6
ENDBRANCH   4   5
ENDBRANCH   3   4
ENDBRANCH   2   3
ENDBRANCH   1   2
BRANCH   1  11
ATOM     11  C   UNL     1     479.625  39.394 460.143  1.00  0.00     0.000 C 
BRANCH  11  12
ATOM     12  C   UNL     1     479.194  37.924 460.267  1.00  0.00    -0.000 C 
BRANCH  12  13
ATOM     13  C   UNL     1     478.950  37.546 461.733  1.00  0.00    -0.000 C 
BRANCH  13  14
ATOM     14  C   UNL     1     477.697  36.668 461.872  1.00  0.00    -0.000 C 
BRANCH  14  15
ATOM     15  C   UNL     1     477.934  35.222 461.410  1.00  0.00    -0.000 C 
BRANCH  15  16
ATOM     16  C   UNL     1     477.235  34.190 462.312  1.00  0.00    -0.000 C 
BRANCH  16  17
ATOM     17  C   UNL     1     476.023  34.780 463.052  1.00  0.00    -0.003 C 
ATOM     18  C   UNL     1     475.145  33.706 463.695  1.00  0.00     0.004 C 
ENDBRANCH  16  17
ENDBRANCH  15  16
ENDBRANCH  14  15
ENDBRANCH  13  14
ENDBRANCH  12  13
ENDBRANCH  11  12
ENDBRANCH   1  11
TORSDOF 14
ENDMDL
MODEL 3
REMARK VINA RESULT:    -3.311      2.762      6.647
REMARK INTER + INTRA:          -7.929
REMARK INTER:                  -6.472
REMARK INTRA:                  -1.457
REMARK UNBOUND:                -1.908
REMARK SMILES CCCCCCCCCCCCCCCC(=O)[O-]
REMARK SMILES IDX 9 1 10 2 11 3 12 4 13 5 14 6 15 7 16 8 17 9 18 10 8 11 7 12
REMARK SMILES IDX 6 13 5 14 4 15 3 16 2 17 1 18
REMARK H PARENT
REMARK Flexibility Score: inf
ROOT
ATOM      1  C   UNL     1     480.303  39.739 464.054  1.00  0.00     0.000 C 
ENDROOT
BRANCH   1   2
ATOM      2  C   UNL     1     481.758  40.227 463.941  1.00  0.00     0.000 C 
BRANCH   2   3
ATOM      3  C   UNL     1     482.715  39.102 463.494  1.00  0.00     0.000 C 
BRANCH   3   4
ATOM      4  C   UNL     1     483.652  39.512 462.344  1.00  0.00     0.000 C 
BRANCH   4   5
ATOM      5  C   UNL     1     483.051  40.599 461.442  1.00  0.00     0.000 C 
BRANCH   5   6
ATOM      6  C   UNL     1     482.313  39.977 460.247  1.00  0.00     0.006 C 
BRANCH   6   7
ATOM      7  C   UNL     1     482.947  38.655 459.796  1.00  0.00     0.053 C 
BRANCH   7   8
ATOM      8  C   UNL     1     483.836  38.844 458.603  1.00  0.00     0.041 C 
ATOM      9  O   UNL     1     484.525  37.884 458.169  1.00  0.00    -0.550 OA
ATOM     10  O   UNL     1     483.926  40.088 457.992  1.00  0.00    -0.550 OA
ENDBRANCH   7   8
ENDBRANCH   6   7
ENDBRANCH   5   6
ENDBRANCH   4   5
ENDBRANCH   3   4
ENDBRANCH   2   3
ENDBRANCH   1   2
BRANCH   1  11
ATOM     11  C   UNL     1     479.978  38.607 463.066  1.00  0.00     0.000 C 
BRANCH  11  12
ATOM     12  C   UNL     1     479.099  39.076 461.896  1.00  0.00    -0.000 C 
BRANCH  12  13
ATOM     13  C   UNL     1     478.011  38.044 461.580  1.00  0.00    -0.000 C 
BRANCH  13  14
ATOM     14  C   UNL     1     478.520  36.998 460.576  1.00  0.00    -0.000 C 
BRANCH  14  15
ATOM     15  C   UNL     1     478.308  35.556 461.064  1.00  0.00    -0.000 C 
BRANCH  15  16
ATOM     16  C   UNL     1     477.278  35.463 462.203  1.00  0.00    -0.000 C 
BRANCH  16  17
ATOM     17  C   UNL     1     476.772  34.028 462.424  1.00  0.00    -0.003 C 
ATOM     18  C   UNL     1     475.611  33.959 463.415  1.00  0.00     0.004 C 
ENDBRANCH  16  17
ENDBRANCH  15  16
ENDBRANCH  14  15
ENDBRANCH  13  14
ENDBRANCH  12  13
ENDBRANCH  11  12
ENDBRANCH   1  11
TORSDOF 14
ENDMDL
MODEL 4
REMARK VINA RESULT:    -3.300      2.099      3.422
REMARK INTER + INTRA:          -7.909
REMARK INTER:                  -5.531
REMARK INTRA:                  -2.377
REMARK UNBOUND:                -1.908
REMARK SMILES CCCCCCCCCCCCCCCC(=O)[O-]
REMARK SMILES IDX 9 1 10 2 11 3 12 4 13 5 14 6 15 7 16 8 17 9 18 10 8 11 7 12
REMARK SMILES IDX 6 13 5 14 4 15 3 16 2 17 1 18
REMARK H PARENT
REMARK Flexibility Score: inf
ROOT
ATOM      1  C   UNL     1     484.451  41.396 457.847  1.00  0.00     0.000 C 
ENDROOT
BRANCH   1   2
ATOM      2  C   UNL     1     483.806  42.116 459.044  1.00  0.00     0.000 C 
BRANCH   2   3
ATOM      3  C   UNL     1     482.274  41.937 459.074  1.00  0.00     0.000 C 
BRANCH   3   4
ATOM      4  C   UNL     1     481.810  40.745 459.929  1.00  0.00     0.000 C 
BRANCH   4   5
ATOM      5  C   UNL     1     481.211  39.607 459.092  1.00  0.00     0.000 C 
BRANCH   5   6
ATOM      6  C   UNL     1     480.604  38.521 459.993  1.00  0.00     0.006 C 
BRANCH   6   7
ATOM      7  C   UNL     1     479.965  37.384 459.183  1.00  0.00     0.053 C 
BRANCH   7   8
ATOM      8  C   UNL     1     479.248  36.409 460.066  1.00  0.00     0.041 C 
ATOM      9  O   UNL     1     478.442  36.820 460.941  1.00  0.00    -0.550 OA
ATOM     10  O   UNL     1     479.493  35.047 459.943  1.00  0.00    -0.550 OA
ENDBRANCH   7   8
ENDBRANCH   6   7
ENDBRANCH   5   6
ENDBRANCH   4   5
ENDBRANCH   3   4
ENDBRANCH   2   3
ENDBRANCH   1   2
BRANCH   1  11
ATOM     11  C   UNL     1     485.323  40.203 458.271  1.00  0.00     0.000 C 
BRANCH  11  12
ATOM     12  C   UNL     1     484.603  38.856 458.109  1.00  0.00    -0.000 C 
BRANCH  12  13
ATOM     13  C   UNL     1     484.668  38.040 459.406  1.00  0.00    -0.000 C 
BRANCH  13  14
ATOM     14  C   UNL     1     485.422  38.810 460.502  1.00  0.00    -0.000 C 
BRANCH  14  15
ATOM     15  C   UNL     1     484.509  39.230 461.664  1.00  0.00    -0.000 C 
BRANCH  15  16
ATOM     16  C   UNL     1     484.858  40.622 462.218  1.00  0.00    -0.000 C 
BRANCH  16  17
ATOM     17  C   UNL     1     486.289  41.056 461.860  1.00  0.00    -0.003 C 
ATOM     18  C   UNL     1     486.413  42.566 461.658  1.00  0.00     0.004 C 
ENDBRANCH  16  17
ENDBRANCH  15  16
ENDBRANCH  14  15
ENDBRANCH  13  14
ENDBRANCH  12  13
ENDBRANCH  11  12
ENDBRANCH   1  11
TORSDOF 14
ENDMDL
MODEL 5
REMARK VINA RESULT:    -3.296      3.626      7.466
REMARK INTER + INTRA:          -7.902
REMARK INTER:                  -6.544
REMARK INTRA:                  -1.358
REMARK UNBOUND:                -1.908
REMARK SMILES CCCCCCCCCCCCCCCC(=O)[O-]
REMARK SMILES IDX 9 1 10 2 11 3 12 4 13 5 14 6 15 7 16 8 17 9 18 10 8 11 7 12
REMARK SMILES IDX 6 13 5 14 4 15 3 16 2 17 1 18
REMARK H PARENT
REMARK Flexibility Score: inf
ROOT
ATOM      1  C   UNL     1     481.684  37.927 457.019  1.00  0.00     0.000 C 
ENDROOT
BRANCH   1   2
ATOM      2  C   UNL     1     483.200  37.932 456.753  1.00  0.00     0.000 C 
BRANCH   2   3
ATOM      3  C   UNL     1     483.793  39.356 456.795  1.00  0.00     0.000 C 
BRANCH   3   4
ATOM      4  C   UNL     1     484.740  39.593 457.984  1.00  0.00     0.000 C 
BRANCH   4   5
ATOM      5  C   UNL     1     484.850  38.376 458.913  1.00  0.00     0.000 C 
BRANCH   5   6
ATOM      6  C   UNL     1     484.522  38.757 460.364  1.00  0.00     0.006 C 
BRANCH   6   7
ATOM      7  C   UNL     1     484.114  40.230 460.499  1.00  0.00     0.053 C 
BRANCH   7   8
ATOM      8  C   UNL     1     485.077  40.997 461.354  1.00  0.00     0.041 C 
ATOM      9  O   UNL     1     485.925  41.762 460.823  1.00  0.00    -0.550 OA
ATOM     10  O   UNL     1     485.060  40.843 462.734  1.00  0.00    -0.550 OA
ENDBRANCH   7   8
ENDBRANCH   6   7
ENDBRANCH   5   6
ENDBRANCH   4   5
ENDBRANCH   3   4
ENDBRANCH   2   3
ENDBRANCH   1   2
BRANCH   1  11
ATOM     11  C   UNL     1     481.270  38.924 458.113  1.00  0.00     0.000 C 
BRANCH  11  12
ATOM     12  C   UNL     1     480.410  38.277 459.209  1.00  0.00    -0.000 C 
BRANCH  12  13
ATOM     13  C   UNL     1     479.974  36.865 458.801  1.00  0.00    -0.000 C 
BRANCH  13  14
ATOM     14  C   UNL     1     479.255  36.156 459.958  1.00  0.00    -0.000 C 
BRANCH  14  15
ATOM     15  C   UNL     1     478.522  37.135 460.889  1.00  0.00    -0.000 C 
BRANCH  15  16
ATOM     16  C   UNL     1     477.740  36.420 462.004  1.00  0.00    -0.000 C 
BRANCH  16  17
ATOM     17  C   UNL     1     477.589  34.912 461.743  1.00  0.00    -0.003 C 
ATOM     18  C   UNL     1     477.043  34.157 462.954  1.00  0.00     0.004 C 
ENDBRANCH  16  17
ENDBRANCH  15  16
ENDBRANCH  14  15
ENDBRANCH  13  14
ENDBRANCH  12  13
ENDBRANCH  11  12
ENDBRANCH   1  11
TORSDOF 14
ENDMDL
MODEL 6
REMARK VINA RESULT:    -3.289      2.962      6.888
REMARK INTER + INTRA:          -7.889
REMARK INTER:                  -6.531
REMARK INTRA:                  -1.358
REMARK UNBOUND:                -1.908
REMARK SMILES CCCCCCCCCCCCCCCC(=O)[O-]
REMARK SMILES IDX 9 1 10 2 11 3 12 4 13 5 14 6 15 7 16 8 17 9 18 10 8 11 7 12
REMARK SMILES IDX 6 13 5 14 4 15 3 16 2 17 1 18
REMARK H PARENT
REMARK Flexibility Score: inf
ROOT
ATOM      1  C   UNL     1     480.937  39.818 459.785  1.00  0.00     0.000 C 
ENDROOT
BRANCH   1   2
ATOM      2  C   UNL     1     481.901  40.443 460.810  1.00  0.00     0.000 C 
BRANCH   2   3
ATOM      3  C   UNL     1     482.969  39.438 461.290  1.00  0.00     0.000 C 
BRANCH   3   4
ATOM      4  C   UNL     1     484.362  39.685 460.684  1.00  0.00     0.000 C 
BRANCH   4   5
ATOM      5  C   UNL     1     484.871  38.499 459.854  1.00  0.00     0.000 C 
BRANCH   5   6
ATOM      6  C   UNL     1     484.933  38.856 458.362  1.00  0.00     0.006 C 
BRANCH   6   7
ATOM      7  C   UNL     1     483.975  38.003 457.520  1.00  0.00     0.053 C 
BRANCH   7   8
ATOM      8  C   UNL     1     483.353  38.796 456.412  1.00  0.00     0.041 C 
ATOM      9  O   UNL     1     482.387  39.568 456.650  1.00  0.00    -0.550 OA
ATOM     10  O   UNL     1     483.819  38.660 455.111  1.00  0.00    -0.550 OA
ENDBRANCH   7   8
ENDBRANCH   6   7
ENDBRANCH   5   6
ENDBRANCH   4   5
ENDBRANCH   3   4
ENDBRANCH   2   3
ENDBRANCH   1   2
BRANCH   1  11
ATOM     11  C   UNL     1     481.054  38.287 459.717  1.00  0.00     0.000 C 
BRANCH  11  12
ATOM     12  C   UNL     1     479.701  37.601 459.471  1.00  0.00    -0.000 C 
BRANCH  12  13
ATOM     13  C   UNL     1     478.544  38.591 459.649  1.00  0.00    -0.000 C 
BRANCH  13  14
ATOM     14  C   UNL     1     477.651  38.186 460.832  1.00  0.00    -0.000 C 
BRANCH  14  15
ATOM     15  C   UNL     1     478.203  36.977 461.603  1.00  0.00    -0.000 C 
BRANCH  15  16
ATOM     16  C   UNL     1     477.096  36.158 462.290  1.00  0.00    -0.000 C 
BRANCH  16  17
ATOM     17  C   UNL     1     477.247  34.648 462.052  1.00  0.00    -0.003 C 
ATOM     18  C   UNL     1     476.260  33.820 462.875  1.00  0.00     0.004 C 
ENDBRANCH  16  17
ENDBRANCH  15  16
ENDBRANCH  14  15
ENDBRANCH  13  14
ENDBRANCH  12  13
ENDBRANCH  11  12
ENDBRANCH   1  11
TORSDOF 14
ENDMDL
MODEL 7
REMARK VINA RESULT:    -3.264      2.545      6.409
REMARK INTER + INTRA:          -7.844
REMARK INTER:                  -6.280
REMARK INTRA:                  -1.564
REMARK UNBOUND:                -1.908
REMARK SMILES CCCCCCCCCCCCCCCC(=O)[O-]
REMARK SMILES IDX 9 1 10 2 11 3 12 4 13 5 14 6 15 7 16 8 17 9 18 10 8 11 7 12
REMARK SMILES IDX 6 13 5 14 4 15 3 16 2 17 1 18
REMARK H PARENT
REMARK Flexibility Score: inf
ROOT
ATOM      1  C   UNL     1     482.273  39.371 461.416  1.00  0.00     0.000 C 
ENDROOT
BRANCH   1   2
ATOM      2  C   UNL     1     483.375  40.429 461.229  1.00  0.00     0.000 C 
BRANCH   2   3
ATOM      3  C   UNL     1     484.775  39.879 461.573  1.00  0.00     0.000 C 
BRANCH   3   4
ATOM      4  C   UNL     1     485.254  38.775 460.615  1.00  0.00     0.000 C 
BRANCH   4   5
ATOM      5  C   UNL     1     485.375  39.253 459.162  1.00  0.00     0.000 C 
BRANCH   5   6
ATOM      6  C   UNL     1     484.479  38.424 458.231  1.00  0.00     0.006 C 
BRANCH   6   7
ATOM      7  C   UNL     1     483.841  39.277 457.127  1.00  0.00     0.053 C 
BRANCH   7   8
ATOM      8  C   UNL     1     483.268  38.430 456.032  1.00  0.00     0.041 C 
ATOM      9  O   UNL     1     483.540  38.682 454.829  1.00  0.00    -0.550 OA
ATOM     10  O   UNL     1     482.409  37.383 456.338  1.00  0.00    -0.550 OA
ENDBRANCH   7   8
ENDBRANCH   6   7
ENDBRANCH   5   6
ENDBRANCH   4   5
ENDBRANCH   3   4
ENDBRANCH   2   3
ENDBRANCH   1   2
BRANCH   1  11
ATOM     11  C   UNL     1     481.112  39.542 460.424  1.00  0.00     0.000 C 
BRANCH  11  12
ATOM     12  C   UNL     1     480.994  38.366 459.441  1.00  0.00    -0.000 C 
BRANCH  12  13
ATOM     13  C   UNL     1     479.552  37.849 459.375  1.00  0.00    -0.000 C 
BRANCH  13  14
ATOM     14  C   UNL     1     479.501  36.331 459.605  1.00  0.00    -0.000 C 
BRANCH  14  15
ATOM     15  C   UNL     1     478.618  35.944 460.801  1.00  0.00    -0.000 C 
BRANCH  15  16
ATOM     16  C   UNL     1     478.307  37.138 461.720  1.00  0.00    -0.000 C 
BRANCH  16  17
ATOM     17  C   UNL     1     476.798  37.352 461.918  1.00  0.00    -0.003 C 
ATOM     18  C   UNL     1     476.335  38.738 461.471  1.00  0.00     0.004 C 
ENDBRANCH  16  17
ENDBRANCH  15  16
ENDBRANCH  14  15
ENDBRANCH  13  14
ENDBRANCH  12  13
ENDBRANCH  11  12
ENDBRANCH   1  11
TORSDOF 14
ENDMDL
MODEL 8
REMARK VINA RESULT:    -3.250      1.825      3.327
REMARK INTER + INTRA:          -7.818
REMARK INTER:                  -6.572
REMARK INTRA:                  -1.245
REMARK UNBOUND:                -1.908
REMARK SMILES CCCCCCCCCCCCCCCC(=O)[O-]
REMARK SMILES IDX 9 1 10 2 11 3 12 4 13 5 14 6 15 7 16 8 17 9 18 10 8 11 7 12
REMARK SMILES IDX 6 13 5 14 4 15 3 16 2 17 1 18
REMARK H PARENT
REMARK Flexibility Score: inf
ROOT
ATOM      1  C   UNL     1     482.174  39.584 462.101  1.00  0.00     0.000 C 
ENDROOT
BRANCH   1   2
ATOM      2  C   UNL     1     481.477  40.054 460.812  1.00  0.00     0.000 C 
BRANCH   2   3
ATOM      3  C   UNL     1     479.969  39.729 460.814  1.00  0.00     0.000 C 
BRANCH   3   4
ATOM      4  C   UNL     1     479.636  38.353 461.418  1.00  0.00     0.000 C 
BRANCH   4   5
ATOM      5  C   UNL     1     478.383  37.717 460.802  1.00  0.00     0.000 C 
BRANCH   5   6
ATOM      6  C   UNL     1     478.123  36.325 461.395  1.00  0.00     0.006 C 
BRANCH   6   7
ATOM      7  C   UNL     1     476.888  36.302 462.305  1.00  0.00     0.053 C 
BRANCH   7   8
ATOM      8  C   UNL     1     476.567  34.915 462.772  1.00  0.00     0.041 C 
ATOM      9  O   UNL     1     475.531  34.700 463.454  1.00  0.00    -0.550 OA
ATOM     10  O   UNL     1     477.428  33.865 462.480  1.00  0.00    -0.550 OA
ENDBRANCH   7   8
ENDBRANCH   6   7
ENDBRANCH   5   6
ENDBRANCH   4   5
ENDBRANCH   3   4
ENDBRANCH   2   3
ENDBRANCH   1   2
BRANCH   1  11
ATOM     11  C   UNL     1     483.696  39.452 461.939  1.00  0.00     0.000 C 
BRANCH  11  12
ATOM     12  C   UNL     1     484.150  39.592 460.477  1.00  0.00    -0.000 C 
BRANCH  12  13
ATOM     13  C   UNL     1     484.994  38.386 460.048  1.00  0.00    -0.000 C 
BRANCH  13  14
ATOM     14  C   UNL     1     484.609  37.921 458.635  1.00  0.00    -0.000 C 
BRANCH  14  15
ATOM     15  C   UNL     1     483.324  38.589 458.122  1.00  0.00    -0.000 C 
BRANCH  15  16
ATOM     16  C   UNL     1     483.053  38.289 456.637  1.00  0.00    -0.000 C 
BRANCH  16  17
ATOM     17  C   UNL     1     481.729  37.539 456.421  1.00  0.00    -0.003 C 
ATOM     18  C   UNL     1     480.776  37.670 457.608  1.00  0.00     0.004 C 
ENDBRANCH  16  17
ENDBRANCH  15  16
ENDBRANCH  14  15
ENDBRANCH  13  14
ENDBRANCH  12  13
ENDBRANCH  11  12
ENDBRANCH   1  11
TORSDOF 14
ENDMDL
MODEL 9
REMARK VINA RESULT:    -3.229      3.095      6.641
REMARK INTER + INTRA:          -7.779
REMARK INTER:                  -5.833
REMARK INTRA:                  -1.946
REMARK UNBOUND:                -1.908
REMARK SMILES CCCCCCCCCCCCCCCC(=O)[O-]
REMARK SMILES IDX 9 1 10 2 11 3 12 4 13 5 14 6 15 7 16 8 17 9 18 10 8 11 7 12
REMARK SMILES IDX 6 13 5 14 4 15 3 16 2 17 1 18
REMARK H PARENT
REMARK Flexibility Score: inf
ROOT
ATOM      1  C   UNL     1     478.878  41.423 459.862  1.00  0.00     0.000 C 
ENDROOT
BRANCH   1   2
ATOM      2  C   UNL     1     478.252  40.682 458.667  1.00  0.00     0.000 C 
BRANCH   2   3
ATOM      3  C   UNL     1     478.514  39.162 458.723  1.00  0.00     0.000 C 
BRANCH   3   4
ATOM      4  C   UNL     1     479.854  38.746 458.091  1.00  0.00     0.000 C 
BRANCH   4   5
ATOM      5  C   UNL     1     480.691  37.841 459.005  1.00  0.00     0.000 C 
BRANCH   5   6
ATOM      6  C   UNL     1     482.016  38.516 459.386  1.00  0.00     0.006 C 
BRANCH   6   7
ATOM      7  C   UNL     1     482.734  39.114 458.169  1.00  0.00     0.053 C 
BRANCH   7   8
ATOM      8  C   UNL     1     483.917  38.289 457.761  1.00  0.00     0.041 C 
ATOM      9  O   UNL     1     484.114  38.022 456.547  1.00  0.00    -0.550 OA
ATOM     10  O   UNL     1     484.783  37.789 458.724  1.00  0.00    -0.550 OA
ENDBRANCH   7   8
ENDBRANCH   6   7
ENDBRANCH   5   6
ENDBRANCH   4   5
ENDBRANCH   3   4
ENDBRANCH   2   3
ENDBRANCH   1   2
BRANCH   1  11
ATOM     11  C   UNL     1     478.670  40.684 461.193  1.00  0.00     0.000 C 
BRANCH  11  12
ATOM     12  C   UNL     1     479.993  40.366 461.907  1.00  0.00    -0.000 C 
BRANCH  12  13
ATOM     13  C   UNL     1     479.959  38.963 462.524  1.00  0.00    -0.000 C 
BRANCH  13  14
ATOM     14  C   UNL     1     478.542  38.372 462.469  1.00  0.00    -0.000 C 
BRANCH  14  15
ATOM     15  C   UNL     1     478.509  36.972 461.835  1.00  0.00    -0.000 C 
BRANCH  15  16
ATOM     16  C   UNL     1     477.156  36.266 462.029  1.00  0.00    -0.000 C 
BRANCH  16  17
ATOM     17  C   UNL     1     477.287  34.735 462.034  1.00  0.00    -0.003 C 
ATOM     18  C   UNL     1     476.525  34.083 463.188  1.00  0.00     0.004 C 
ENDBRANCH  16  17
ENDBRANCH  15  16
ENDBRANCH  14  15
ENDBRANCH  13  14
ENDBRANCH  12  13
ENDBRANCH  11  12
ENDBRANCH   1  11
TORSDOF 14
ENDMDL
