MODEL 1
REMARK VINA RESULT:    -3.648      0.000      0.000
REMARK INTER + INTRA:         -15.388
REMARK INTER:                  -9.621
REMARK INTRA:                  -5.768
REMARK UNBOUND:                -5.768
REMARK SMILES CCCCCCCCCCCCCCCCCCCCCCCCCCCCCC(=O)[O-]
REMARK SMILES IDX 16 1 17 2 18 3 19 4 20 5 21 6 22 7 23 8 24 9 25 10 26 11
REMARK SMILES IDX 27 12 28 13 29 14 30 15 31 16 32 17 15 18 14 19 13 20 12 21
REMARK SMILES IDX 11 22 10 23 9 24 8 25 7 26 6 27 5 28 4 29 3 30 2 31 1 32
REMARK H PARENT
REMARK Flexibility Score: inf
ROOT
ATOM      1  C   UNL     1     -23.002   4.658  20.583  1.00  0.00     0.000 C 
ENDROOT
BRANCH   1   2
ATOM      2  C   UNL     1     -21.688   4.172  19.933  1.00  0.00     0.000 C 
BRANCH   2   3
ATOM      3  C   UNL     1     -21.079   2.929  20.611  1.00  0.00     0.000 C 
BRANCH   3   4
ATOM      4  C   UNL     1     -20.178   3.223  21.823  1.00  0.00     0.000 C 
BRANCH   4   5
ATOM      5  C   UNL     1     -20.810   2.914  23.197  1.00  0.00     0.000 C 
BRANCH   5   6
ATOM      6  C   UNL     1     -21.541   4.100  23.861  1.00  0.00     0.000 C 
BRANCH   6   7
ATOM      7  C   UNL     1     -22.979   3.800  24.321  1.00  0.00     0.000 C 
BRANCH   7   8
ATOM      8  C   UNL     1     -23.468   2.368  24.026  1.00  0.00     0.000 C 
BRANCH   8   9
ATOM      9  C   UNL     1     -24.782   2.317  23.215  1.00  0.00     0.000 C 
BRANCH   9  10
ATOM     10  C   UNL     1     -24.599   1.652  21.839  1.00  0.00     0.000 C 
BRANCH  10  11
ATOM     11  C   UNL     1     -24.231   0.158  21.935  1.00  0.00     0.000 C 
BRANCH  11  12
ATOM     12  C   UNL     1     -23.432  -0.393  20.740  1.00  0.00     0.000 C 
BRANCH  12  13
ATOM     13  C   UNL     1     -21.931  -0.547  21.039  1.00  0.00     0.006 C 
BRANCH  13  14
ATOM     14  C   UNL     1     -21.634  -0.494  22.544  1.00  0.00     0.053 C 
BRANCH  14  15
ATOM     15  C   UNL     1     -21.183  -1.825  23.062  1.00  0.00     0.041 C 
ATOM     16  O   UNL     1     -22.017  -2.623  23.564  1.00  0.00    -0.550 OA
ATOM     17  O   UNL     1     -19.852  -2.204  22.945  1.00  0.00    -0.550 OA
ENDBRANCH  14  15
ENDBRANCH  13  14
ENDBRANCH  12  13
ENDBRANCH  11  12
ENDBRANCH  10  11
ENDBRANCH   9  10
ENDBRANCH   8   9
ENDBRANCH   7   8
ENDBRANCH   6   7
ENDBRANCH   5   6
ENDBRANCH   4   5
ENDBRANCH   3   4
ENDBRANCH   2   3
ENDBRANCH   1   2
BRANCH   1  18
ATOM     18  C   UNL     1     -22.846   6.015  21.294  1.00  0.00     0.000 C 
BRANCH  18  19
ATOM     19  C   UNL     1     -24.071   6.924  21.108  1.00  0.00     0.000 C 
BRANCH  19  20
ATOM     20  C   UNL     1     -23.816   8.067  20.112  1.00  0.00     0.000 C 
BRANCH  20  21
ATOM     21  C   UNL     1     -22.318   8.347  19.907  1.00  0.00     0.000 C 
BRANCH  21  22
ATOM     22  C   UNL     1     -21.914   8.328  18.424  1.00  0.00     0.000 C 
BRANCH  22  23
ATOM     23  C   UNL     1     -22.464   7.106  17.672  1.00  0.00     0.000 C 
BRANCH  23  24
ATOM     24  C   UNL     1     -21.355   6.273  17.005  1.00  0.00    -0.000 C 
BRANCH  24  25
ATOM     25  C   UNL     1     -20.450   7.125  16.101  1.00  0.00    -0.000 C 
BRANCH  25  26
ATOM     26  C   UNL     1     -18.973   7.052  16.524  1.00  0.00    -0.000 C 
BRANCH  26  27
ATOM     27  C   UNL     1     -18.740   6.100  17.709  1.00  0.00    -0.000 C 
BRANCH  27  28
ATOM     28  C   UNL     1     -18.411   6.785  19.054  1.00  0.00    -0.000 C 
BRANCH  28  29
ATOM     29  C   UNL     1     -19.275   6.350  20.257  1.00  0.00    -0.000 C 
BRANCH  29  30
ATOM     30  C   UNL     1     -18.715   6.774  21.633  1.00  0.00    -0.000 C 
BRANCH  30  31
ATOM     31  C   UNL     1     -19.692   7.620  22.467  1.00  0.00    -0.003 C 
ATOM     32  C   UNL     1     -19.477   9.122  22.298  1.00  0.00     0.004 C 
ENDBRANCH  30  31
ENDBRANCH  29  30
ENDBRANCH  28  29
ENDBRANCH  27  28
ENDBRANCH  26  27
ENDBRANCH  25  26
ENDBRANCH  24  25
ENDBRANCH  23  24
ENDBRANCH  22  23
ENDBRANCH  21  22
ENDBRANCH  20  21
ENDBRANCH  19  20
ENDBRANCH  18  19
ENDBRANCH   1  18
TORSDOF 28
ENDMDL
MODEL 2
REMARK VINA RESULT:    -3.616      1.547      2.954
REMARK INTER + INTRA:         -15.302
REMARK INTER:                  -9.544
REMARK INTRA:                  -5.758
REMARK UNBOUND:                -5.768
REMARK SMILES CCCCCCCCCCCCCCCCCCCCCCCCCCCCCC(=O)[O-]
REMARK SMILES IDX 16 1 17 2 18 3 19 4 20 5 21 6 22 7 23 8 24 9 25 10 26 11
REMARK SMILES IDX 27 12 28 13 29 14 30 15 31 16 32 17 15 18 14 19 13 20 12 21
REMARK SMILES IDX 11 22 10 23 9 24 8 25 7 26 6 27 5 28 4 29 3 30 2 31 1 32
REMARK H PARENT
REMARK Flexibility Score: inf
ROOT
ATOM      1  C   UNL     1     -22.920   4.399  20.785  1.00  0.00     0.000 C 
ENDROOT
BRANCH   1   2
ATOM      2  C   UNL     1     -21.658   3.869  20.070  1.00  0.00     0.000 C 
BRANCH   2   3
ATOM      3  C   UNL     1     -20.815   2.903  20.926  1.00  0.00     0.000 C 
BRANCH   3   4
ATOM      4  C   UNL     1     -20.929   1.418  20.536  1.00  0.00     0.000 C 
BRANCH   4   5
ATOM      5  C   UNL     1     -21.816   0.564  21.466  1.00  0.00     0.000 C 
BRANCH   5   6
ATOM      6  C   UNL     1     -23.218   0.238  20.913  1.00  0.00     0.000 C 
BRANCH   6   7
ATOM      7  C   UNL     1     -24.349   0.257  21.957  1.00  0.00     0.000 C 
BRANCH   7   8
ATOM      8  C   UNL     1     -24.871   1.661  22.322  1.00  0.00     0.000 C 
BRANCH   8   9
ATOM      9  C   UNL     1     -25.932   1.656  23.445  1.00  0.00     0.000 C 
BRANCH   9  10
ATOM     10  C   UNL     1     -26.086   3.033  24.115  1.00  0.00     0.000 C 
BRANCH  10  11
ATOM     11  C   UNL     1     -24.919   3.989  23.804  1.00  0.00     0.000 C 
BRANCH  11  12
ATOM     12  C   UNL     1     -24.022   4.332  25.007  1.00  0.00     0.000 C 
BRANCH  12  13
ATOM     13  C   UNL     1     -22.521   4.179  24.703  1.00  0.00     0.006 C 
BRANCH  13  14
ATOM     14  C   UNL     1     -22.155   2.739  24.317  1.00  0.00     0.053 C 
BRANCH  14  15
ATOM     15  C   UNL     1     -22.367   1.794  25.458  1.00  0.00     0.041 C 
ATOM     16  O   UNL     1     -21.946   2.087  26.608  1.00  0.00    -0.550 OA
ATOM     17  O   UNL     1     -23.072   0.613  25.264  1.00  0.00    -0.550 OA
ENDBRANCH  14  15
ENDBRANCH  13  14
ENDBRANCH  12  13
ENDBRANCH  11  12
ENDBRANCH  10  11
ENDBRANCH   9  10
ENDBRANCH   8   9
ENDBRANCH   7   8
ENDBRANCH   6   7
ENDBRANCH   5   6
ENDBRANCH   4   5
ENDBRANCH   3   4
ENDBRANCH   2   3
ENDBRANCH   1   2
BRANCH   1  18
ATOM     18  C   UNL     1     -22.741   5.831  21.320  1.00  0.00     0.000 C 
BRANCH  18  19
ATOM     19  C   UNL     1     -23.999   6.694  21.131  1.00  0.00     0.000 C 
BRANCH  19  20
ATOM     20  C   UNL     1     -23.821   7.771  20.049  1.00  0.00     0.000 C 
BRANCH  20  21
ATOM     21  C   UNL     1     -22.344   8.034  19.715  1.00  0.00     0.000 C 
BRANCH  21  22
ATOM     22  C   UNL     1     -22.044   7.883  18.214  1.00  0.00     0.000 C 
BRANCH  22  23
ATOM     23  C   UNL     1     -22.391   6.485  17.676  1.00  0.00     0.000 C 
BRANCH  23  24
ATOM     24  C   UNL     1     -21.519   6.082  16.474  1.00  0.00    -0.000 C 
BRANCH  24  25
ATOM     25  C   UNL     1     -20.383   7.085  16.215  1.00  0.00    -0.000 C 
BRANCH  25  26
ATOM     26  C   UNL     1     -18.994   6.449  16.402  1.00  0.00    -0.000 C 
BRANCH  26  27
ATOM     27  C   UNL     1     -18.345   6.821  17.745  1.00  0.00    -0.000 C 
BRANCH  27  28
ATOM     28  C   UNL     1     -18.696   5.893  18.929  1.00  0.00    -0.000 C 
BRANCH  28  29
ATOM     29  C   UNL     1     -19.100   6.602  20.239  1.00  0.00    -0.000 C 
BRANCH  29  30
ATOM     30  C   UNL     1     -18.428   6.030  21.508  1.00  0.00    -0.000 C 
BRANCH  30  31
ATOM     31  C   UNL     1     -19.415   5.716  22.646  1.00  0.00    -0.003 C 
ATOM     32  C   UNL     1     -19.310   6.691  23.815  1.00  0.00     0.004 C 
ENDBRANCH  30  31
ENDBRANCH  29  30
ENDBRANCH  28  29
ENDBRANCH  27  28
ENDBRANCH  26  27
ENDBRANCH  25  26
ENDBRANCH  24  25
ENDBRANCH  23  24
ENDBRANCH  22  23
ENDBRANCH  21  22
ENDBRANCH  20  21
ENDBRANCH  19  20
ENDBRANCH  18  19
ENDBRANCH   1  18
TORSDOF 28
ENDMDL
MODEL 3
REMARK VINA RESULT:    -3.572      1.596      3.846
REMARK INTER + INTRA:         -15.186
REMARK INTER:                  -9.212
REMARK INTRA:                  -5.974
REMARK UNBOUND:                -5.768
REMARK SMILES CCCCCCCCCCCCCCCCCCCCCCCCCCCCCC(=O)[O-]
REMARK SMILES IDX 16 1 17 2 18 3 19 4 20 5 21 6 22 7 23 8 24 9 25 10 26 11
REMARK SMILES IDX 27 12 28 13 29 14 30 15 31 16 32 17 15 18 14 19 13 20 12 21
REMARK SMILES IDX 11 22 10 23 9 24 8 25 7 26 6 27 5 28 4 29 3 30 2 31 1 32
REMARK H PARENT
REMARK Flexibility Score: inf
ROOT
ATOM      1  C   UNL     1     -18.525   6.606  18.208  1.00  0.00     0.000 C 
ENDROOT
BRANCH   1   2
ATOM      2  C   UNL     1     -17.925   5.267  18.691  1.00  0.00     0.000 C 
BRANCH   2   3
ATOM      3  C   UNL     1     -18.938   4.349  19.402  1.00  0.00     0.000 C 
BRANCH   3   4
ATOM      4  C   UNL     1     -20.290   5.005  19.736  1.00  0.00     0.000 C 
BRANCH   4   5
ATOM      5  C   UNL     1     -21.450   4.019  19.989  1.00  0.00     0.000 C 
BRANCH   5   6
ATOM      6  C   UNL     1     -22.778   4.670  20.425  1.00  0.00     0.000 C 
BRANCH   6   7
ATOM      7  C   UNL     1     -22.820   5.143  21.890  1.00  0.00     0.000 C 
BRANCH   7   8
ATOM      8  C   UNL     1     -24.192   4.999  22.578  1.00  0.00     0.000 C 
BRANCH   8   9
ATOM      9  C   UNL     1     -24.186   4.023  23.775  1.00  0.00     0.000 C 
BRANCH   9  10
ATOM     10  C   UNL     1     -25.496   3.223  23.890  1.00  0.00     0.000 C 
BRANCH  10  11
ATOM     11  C   UNL     1     -25.404   1.820  23.259  1.00  0.00     0.000 C 
BRANCH  11  12
ATOM     12  C   UNL     1     -24.800   1.783  21.844  1.00  0.00     0.000 C 
BRANCH  12  13
ATOM     13  C   UNL     1     -23.784   0.644  21.652  1.00  0.00     0.006 C 
BRANCH  13  14
ATOM     14  C   UNL     1     -22.340   1.114  21.872  1.00  0.00     0.053 C 
BRANCH  14  15
ATOM     15  C   UNL     1     -21.401   0.482  20.893  1.00  0.00     0.041 C 
ATOM     16  O   UNL     1     -20.181   0.793  20.897  1.00  0.00    -0.550 OA
ATOM     17  O   UNL     1     -21.861  -0.486  20.010  1.00  0.00    -0.550 OA
ENDBRANCH  14  15
ENDBRANCH  13  14
ENDBRANCH  12  13
ENDBRANCH  11  12
ENDBRANCH  10  11
ENDBRANCH   9  10
ENDBRANCH   8   9
ENDBRANCH   7   8
ENDBRANCH   6   7
ENDBRANCH   5   6
ENDBRANCH   4   5
ENDBRANCH   3   4
ENDBRANCH   2   3
ENDBRANCH   1   2
BRANCH   1  18
ATOM     18  C   UNL     1     -18.674   6.671  16.676  1.00  0.00     0.000 C 
BRANCH  18  19
ATOM     19  C   UNL     1     -20.058   7.176  16.238  1.00  0.00     0.000 C 
BRANCH  19  20
ATOM     20  C   UNL     1     -21.130   6.075  16.280  1.00  0.00     0.000 C 
BRANCH  20  21
ATOM     21  C   UNL     1     -22.320   6.444  17.181  1.00  0.00     0.000 C 
BRANCH  21  22
ATOM     22  C   UNL     1     -22.086   7.750  17.959  1.00  0.00     0.000 C 
BRANCH  22  23
ATOM     23  C   UNL     1     -23.126   7.976  19.067  1.00  0.00     0.000 C 
BRANCH  23  24
ATOM     24  C   UNL     1     -22.488   8.425  20.394  1.00  0.00    -0.000 C 
BRANCH  24  25
ATOM     25  C   UNL     1     -20.968   8.619  20.274  1.00  0.00    -0.000 C 
BRANCH  25  26
ATOM     26  C   UNL     1     -20.292   8.771  21.647  1.00  0.00    -0.000 C 
BRANCH  26  27
ATOM     27  C   UNL     1     -19.808   7.430  22.224  1.00  0.00    -0.000 C 
BRANCH  27  28
ATOM     28  C   UNL     1     -18.319   7.104  21.978  1.00  0.00    -0.000 C 
BRANCH  28  29
ATOM     29  C   UNL     1     -17.632   6.251  23.066  1.00  0.00    -0.000 C 
BRANCH  29  30
ATOM     30  C   UNL     1     -17.547   4.743  22.736  1.00  0.00    -0.000 C 
BRANCH  30  31
ATOM     31  C   UNL     1     -18.342   3.850  23.705  1.00  0.00    -0.003 C 
ATOM     32  C   UNL     1     -19.740   3.511  23.195  1.00  0.00     0.004 C 
ENDBRANCH  30  31
ENDBRANCH  29  30
ENDBRANCH  28  29
ENDBRANCH  27  28
ENDBRANCH  26  27
ENDBRANCH  25  26
ENDBRANCH  24  25
ENDBRANCH  23  24
ENDBRANCH  22  23
ENDBRANCH  21  22
ENDBRANCH  20  21
ENDBRANCH  19  20
ENDBRANCH  18  19
ENDBRANCH   1  18
TORSDOF 28
ENDMDL
MODEL 4
REMARK VINA RESULT:    -3.536      2.322      7.219
REMARK INTER + INTRA:         -15.092
REMARK INTER:                  -9.103
REMARK INTRA:                  -5.989
REMARK UNBOUND:                -5.768
REMARK SMILES CCCCCCCCCCCCCCCCCCCCCCCCCCCCCC(=O)[O-]
REMARK SMILES IDX 16 1 17 2 18 3 19 4 20 5 21 6 22 7 23 8 24 9 25 10 26 11
REMARK SMILES IDX 27 12 28 13 29 14 30 15 31 16 32 17 15 18 14 19 13 20 12 21
REMARK SMILES IDX 11 22 10 23 9 24 8 25 7 26 6 27 5 28 4 29 3 30 2 31 1 32
REMARK H PARENT
REMARK Flexibility Score: inf
ROOT
ATOM      1  C   UNL     1     -22.375   8.224  20.543  1.00  0.00     0.000 C 
ENDROOT
BRANCH   1   2
ATOM      2  C   UNL     1     -22.042   8.621  19.088  1.00  0.00     0.000 C 
BRANCH   2   3
ATOM      3  C   UNL     1     -22.668   7.693  18.029  1.00  0.00     0.000 C 
BRANCH   3   4
ATOM      4  C   UNL     1     -21.942   6.350  17.828  1.00  0.00     0.000 C 
BRANCH   4   5
ATOM      5  C   UNL     1     -21.249   6.180  16.460  1.00  0.00     0.000 C 
BRANCH   5   6
ATOM      6  C   UNL     1     -19.967   7.017  16.269  1.00  0.00     0.000 C 
BRANCH   6   7
ATOM      7  C   UNL     1     -18.654   6.215  16.321  1.00  0.00     0.000 C 
BRANCH   7   8
ATOM      8  C   UNL     1     -18.127   5.927  17.741  1.00  0.00     0.000 C 
BRANCH   8   9
ATOM      9  C   UNL     1     -17.740   7.199  18.528  1.00  0.00     0.000 C 
BRANCH   9  10
ATOM     10  C   UNL     1     -18.676   7.461  19.721  1.00  0.00     0.000 C 
BRANCH  10  11
ATOM     11  C   UNL     1     -19.334   6.178  20.264  1.00  0.00     0.000 C 
BRANCH  11  12
ATOM     12  C   UNL     1     -18.809   5.708  21.633  1.00  0.00     0.000 C 
BRANCH  12  13
ATOM     13  C   UNL     1     -17.457   4.980  21.541  1.00  0.00     0.006 C 
BRANCH  13  14
ATOM     14  C   UNL     1     -17.623   3.454  21.521  1.00  0.00     0.053 C 
BRANCH  14  15
ATOM     15  C   UNL     1     -17.205   2.873  20.207  1.00  0.00     0.041 C 
ATOM     16  O   UNL     1     -15.993   2.604  19.992  1.00  0.00    -0.550 OA
ATOM     17  O   UNL     1     -18.156   2.582  19.238  1.00  0.00    -0.550 OA
ENDBRANCH  14  15
ENDBRANCH  13  14
ENDBRANCH  12  13
ENDBRANCH  11  12
ENDBRANCH  10  11
ENDBRANCH   9  10
ENDBRANCH   8   9
ENDBRANCH   7   8
ENDBRANCH   6   7
ENDBRANCH   5   6
ENDBRANCH   4   5
ENDBRANCH   3   4
ENDBRANCH   2   3
ENDBRANCH   1   2
BRANCH   1  18
ATOM     18  C   UNL     1     -23.880   7.983  20.762  1.00  0.00     0.000 C 
BRANCH  18  19
ATOM     19  C   UNL     1     -24.188   6.547  21.215  1.00  0.00     0.000 C 
BRANCH  19  20
ATOM     20  C   UNL     1     -22.917   5.706  21.423  1.00  0.00     0.000 C 
BRANCH  20  21
ATOM     21  C   UNL     1     -23.134   4.219  21.103  1.00  0.00     0.000 C 
BRANCH  21  22
ATOM     22  C   UNL     1     -21.955   3.605  20.330  1.00  0.00     0.000 C 
BRANCH  22  23
ATOM     23  C   UNL     1     -21.083   2.690  21.204  1.00  0.00     0.000 C 
BRANCH  23  24
ATOM     24  C   UNL     1     -21.606   2.578  22.647  1.00  0.00    -0.000 C 
BRANCH  24  25
ATOM     25  C   UNL     1     -20.801   3.445  23.628  1.00  0.00    -0.000 C 
BRANCH  25  26
ATOM     26  C   UNL     1     -21.511   3.597  24.985  1.00  0.00    -0.000 C 
BRANCH  26  27
ATOM     27  C   UNL     1     -22.978   3.140  24.943  1.00  0.00    -0.000 C 
BRANCH  27  28
ATOM     28  C   UNL     1     -24.018   4.269  24.769  1.00  0.00    -0.000 C 
BRANCH  28  29
ATOM     29  C   UNL     1     -25.287   3.895  23.974  1.00  0.00    -0.000 C 
BRANCH  29  30
ATOM     30  C   UNL     1     -25.596   2.381  23.940  1.00  0.00    -0.000 C 
BRANCH  30  31
ATOM     31  C   UNL     1     -25.339   1.725  22.572  1.00  0.00    -0.003 C 
ATOM     32  C   UNL     1     -24.493   0.458  22.666  1.00  0.00     0.004 C 
ENDBRANCH  30  31
ENDBRANCH  29  30
ENDBRANCH  28  29
ENDBRANCH  27  28
ENDBRANCH  26  27
ENDBRANCH  25  26
ENDBRANCH  24  25
ENDBRANCH  23  24
ENDBRANCH  22  23
ENDBRANCH  21  22
ENDBRANCH  20  21
ENDBRANCH  19  20
ENDBRANCH  18  19
ENDBRANCH   1  18
TORSDOF 28
ENDMDL
MODEL 5
REMARK VINA RESULT:    -3.531      1.693      3.291
REMARK INTER + INTRA:         -15.079
REMARK INTER:                  -9.431
REMARK INTRA:                  -5.648
REMARK UNBOUND:                -5.768
REMARK SMILES CCCCCCCCCCCCCCCCCCCCCCCCCCCCCC(=O)[O-]
REMARK SMILES IDX 16 1 17 2 18 3 19 4 20 5 21 6 22 7 23 8 24 9 25 10 26 11
REMARK SMILES IDX 27 12 28 13 29 14 30 15 31 16 32 17 15 18 14 19 13 20 12 21
REMARK SMILES IDX 11 22 10 23 9 24 8 25 7 26 6 27 5 28 4 29 3 30 2 31 1 32
REMARK H PARENT
REMARK Flexibility Score: inf
ROOT
ATOM      1  C   UNL     1     -23.848   5.329  21.921  1.00  0.00     0.000 C 
ENDROOT
BRANCH   1   2
ATOM      2  C   UNL     1     -24.960   5.135  22.976  1.00  0.00     0.000 C 
BRANCH   2   3
ATOM      3  C   UNL     1     -24.565   4.198  24.134  1.00  0.00     0.000 C 
BRANCH   3   4
ATOM      4  C   UNL     1     -23.092   3.752  24.138  1.00  0.00     0.000 C 
BRANCH   4   5
ATOM      5  C   UNL     1     -22.862   2.256  23.836  1.00  0.00     0.000 C 
BRANCH   5   6
ATOM      6  C   UNL     1     -24.146   1.413  23.696  1.00  0.00     0.000 C 
BRANCH   6   7
ATOM      7  C   UNL     1     -24.543   1.069  22.249  1.00  0.00     0.000 C 
BRANCH   7   8
ATOM      8  C   UNL     1     -23.438   1.308  21.200  1.00  0.00     0.000 C 
BRANCH   8   9
ATOM      9  C   UNL     1     -23.067   0.045  20.392  1.00  0.00     0.000 C 
BRANCH   9  10
ATOM     10  C   UNL     1     -21.563  -0.275  20.456  1.00  0.00     0.000 C 
BRANCH  10  11
ATOM     11  C   UNL     1     -20.984  -0.163  21.880  1.00  0.00     0.000 C 
BRANCH  11  12
ATOM     12  C   UNL     1     -20.938  -1.484  22.669  1.00  0.00     0.000 C 
BRANCH  12  13
ATOM     13  C   UNL     1     -22.275  -1.825  23.350  1.00  0.00     0.006 C 
BRANCH  13  14
ATOM     14  C   UNL     1     -22.974  -3.017  22.684  1.00  0.00     0.053 C 
BRANCH  14  15
ATOM     15  C   UNL     1     -24.412  -2.718  22.393  1.00  0.00     0.041 C 
ATOM     16  O   UNL     1     -25.156  -2.250  23.296  1.00  0.00    -0.550 OA
ATOM     17  O   UNL     1     -24.919  -2.908  21.114  1.00  0.00    -0.550 OA
ENDBRANCH  14  15
ENDBRANCH  13  14
ENDBRANCH  12  13
ENDBRANCH  11  12
ENDBRANCH  10  11
ENDBRANCH   9  10
ENDBRANCH   8   9
ENDBRANCH   7   8
ENDBRANCH   6   7
ENDBRANCH   5   6
ENDBRANCH   4   5
ENDBRANCH   3   4
ENDBRANCH   2   3
ENDBRANCH   1   2
BRANCH   1  18
ATOM     18  C   UNL     1     -23.945   6.687  21.201  1.00  0.00     0.000 C 
BRANCH  18  19
ATOM     19  C   UNL     1     -23.411   6.630  19.760  1.00  0.00     0.000 C 
BRANCH  19  20
ATOM     20  C   UNL     1     -22.775   7.956  19.312  1.00  0.00     0.000 C 
BRANCH  20  21
ATOM     21  C   UNL     1     -22.094   7.850  17.938  1.00  0.00     0.000 C 
BRANCH  21  22
ATOM     22  C   UNL     1     -22.191   6.436  17.341  1.00  0.00     0.000 C 
BRANCH  22  23
ATOM     23  C   UNL     1     -21.053   6.127  16.357  1.00  0.00     0.000 C 
BRANCH  23  24
ATOM     24  C   UNL     1     -19.938   7.187  16.390  1.00  0.00    -0.000 C 
BRANCH  24  25
ATOM     25  C   UNL     1     -18.552   6.569  16.635  1.00  0.00    -0.000 C 
BRANCH  25  26
ATOM     26  C   UNL     1     -18.548   5.617  17.844  1.00  0.00    -0.000 C 
BRANCH  26  27
ATOM     27  C   UNL     1     -18.661   6.359  19.186  1.00  0.00    -0.000 C 
BRANCH  27  28
ATOM     28  C   UNL     1     -19.785   5.863  20.123  1.00  0.00    -0.000 C 
BRANCH  28  29
ATOM     29  C   UNL     1     -20.366   4.472  19.793  1.00  0.00    -0.000 C 
BRANCH  29  30
ATOM     30  C   UNL     1     -20.787   3.646  21.030  1.00  0.00    -0.000 C 
BRANCH  30  31
ATOM     31  C   UNL     1     -19.611   3.249  21.941  1.00  0.00    -0.003 C 
ATOM     32  C   UNL     1     -18.470   2.575  21.184  1.00  0.00     0.004 C 
ENDBRANCH  30  31
ENDBRANCH  29  30
ENDBRANCH  28  29
ENDBRANCH  27  28
ENDBRANCH  26  27
ENDBRANCH  25  26
ENDBRANCH  24  25
ENDBRANCH  23  24
ENDBRANCH  22  23
ENDBRANCH  21  22
ENDBRANCH  20  21
ENDBRANCH  19  20
ENDBRANCH  18  19
ENDBRANCH   1  18
TORSDOF 28
ENDMDL
MODEL 6
REMARK VINA RESULT:    -3.490      3.194      8.236
REMARK INTER + INTRA:         -14.971
REMARK INTER:                  -9.485
REMARK INTRA:                  -5.486
REMARK UNBOUND:                -5.768
REMARK SMILES CCCCCCCCCCCCCCCCCCCCCCCCCCCCCC(=O)[O-]
REMARK SMILES IDX 16 1 17 2 18 3 19 4 20 5 21 6 22 7 23 8 24 9 25 10 26 11
REMARK SMILES IDX 27 12 28 13 29 14 30 15 31 16 32 17 15 18 14 19 13 20 12 21
REMARK SMILES IDX 11 22 10 23 9 24 8 25 7 26 6 27 5 28 4 29 3 30 2 31 1 32
REMARK H PARENT
REMARK Flexibility Score: inf
ROOT
ATOM      1  C   UNL     1     -24.030   7.001  20.817  1.00  0.00     0.000 C 
ENDROOT
BRANCH   1   2
ATOM      2  C   UNL     1     -23.507   8.229  20.041  1.00  0.00     0.000 C 
BRANCH   2   3
ATOM      3  C   UNL     1     -22.024   8.126  19.634  1.00  0.00     0.000 C 
BRANCH   3   4
ATOM      4  C   UNL     1     -21.769   8.026  18.119  1.00  0.00     0.000 C 
BRANCH   4   5
ATOM      5  C   UNL     1     -22.312   6.746  17.449  1.00  0.00     0.000 C 
BRANCH   5   6
ATOM      6  C   UNL     1     -21.417   6.162  16.336  1.00  0.00     0.000 C 
BRANCH   6   7
ATOM      7  C   UNL     1     -20.239   7.058  15.913  1.00  0.00     0.000 C 
BRANCH   7   8
ATOM      8  C   UNL     1     -18.842   6.471  16.203  1.00  0.00     0.000 C 
BRANCH   8   9
ATOM      9  C   UNL     1     -18.348   6.731  17.643  1.00  0.00     0.000 C 
BRANCH   9  10
ATOM     10  C   UNL     1     -18.236   5.437  18.470  1.00  0.00     0.000 C 
BRANCH  10  11
ATOM     11  C   UNL     1     -19.504   5.136  19.293  1.00  0.00     0.000 C 
BRANCH  11  12
ATOM     12  C   UNL     1     -19.281   5.025  20.812  1.00  0.00     0.000 C 
BRANCH  12  13
ATOM     13  C   UNL     1     -19.276   6.390  21.521  1.00  0.00     0.006 C 
BRANCH  13  14
ATOM     14  C   UNL     1     -17.852   6.907  21.768  1.00  0.00     0.053 C 
BRANCH  14  15
ATOM     15  C   UNL     1     -17.627   8.233  21.112  1.00  0.00     0.041 C 
ATOM     16  O   UNL     1     -16.485   8.765  21.136  1.00  0.00    -0.550 OA
ATOM     17  O   UNL     1     -18.663   8.860  20.432  1.00  0.00    -0.550 OA
ENDBRANCH  14  15
ENDBRANCH  13  14
ENDBRANCH  12  13
ENDBRANCH  11  12
ENDBRANCH  10  11
ENDBRANCH   9  10
ENDBRANCH   8   9
ENDBRANCH   7   8
ENDBRANCH   6   7
ENDBRANCH   5   6
ENDBRANCH   4   5
ENDBRANCH   3   4
ENDBRANCH   2   3
ENDBRANCH   1   2
BRANCH   1  18
ATOM     18  C   UNL     1     -22.912   6.003  21.170  1.00  0.00     0.000 C 
BRANCH  18  19
ATOM     19  C   UNL     1     -23.016   4.692  20.373  1.00  0.00     0.000 C 
BRANCH  19  20
ATOM     20  C   UNL     1     -23.026   3.449  21.276  1.00  0.00     0.000 C 
BRANCH  20  21
ATOM     21  C   UNL     1     -22.298   3.682  22.610  1.00  0.00     0.000 C 
BRANCH  21  22
ATOM     22  C   UNL     1     -21.230   2.612  22.892  1.00  0.00     0.000 C 
BRANCH  22  23
ATOM     23  C   UNL     1     -21.016   1.658  21.707  1.00  0.00     0.000 C 
BRANCH  23  24
ATOM     24  C   UNL     1     -21.421   0.210  22.034  1.00  0.00    -0.000 C 
BRANCH  24  25
ATOM     25  C   UNL     1     -21.969  -0.535  20.806  1.00  0.00    -0.000 C 
BRANCH  25  26
ATOM     26  C   UNL     1     -23.498  -0.418  20.692  1.00  0.00    -0.000 C 
BRANCH  26  27
ATOM     27  C   UNL     1     -24.222  -1.732  21.030  1.00  0.00    -0.000 C 
BRANCH  27  28
ATOM     28  C   UNL     1     -24.210  -2.130  22.522  1.00  0.00    -0.000 C 
BRANCH  28  29
ATOM     29  C   UNL     1     -25.042  -1.231  23.462  1.00  0.00    -0.000 C 
BRANCH  29  30
ATOM     30  C   UNL     1     -24.202  -0.364  24.427  1.00  0.00    -0.000 C 
BRANCH  30  31
ATOM     31  C   UNL     1     -24.432   1.148  24.263  1.00  0.00    -0.003 C 
ATOM     32  C   UNL     1     -25.481   1.483  23.207  1.00  0.00     0.004 C 
ENDBRANCH  30  31
ENDBRANCH  29  30
ENDBRANCH  28  29
ENDBRANCH  27  28
ENDBRANCH  26  27
ENDBRANCH  25  26
ENDBRANCH  24  25
ENDBRANCH  23  24
ENDBRANCH  22  23
ENDBRANCH  21  22
ENDBRANCH  20  21
ENDBRANCH  19  20
ENDBRANCH  18  19
ENDBRANCH   1  18
TORSDOF 28
ENDMDL
MODEL 7
REMARK VINA RESULT:    -3.489      1.839      6.118
REMARK INTER + INTRA:         -14.967
REMARK INTER:                  -9.239
REMARK INTRA:                  -5.728
REMARK UNBOUND:                -5.768
REMARK SMILES CCCCCCCCCCCCCCCCCCCCCCCCCCCCCC(=O)[O-]
REMARK SMILES IDX 16 1 17 2 18 3 19 4 20 5 21 6 22 7 23 8 24 9 25 10 26 11
REMARK SMILES IDX 27 12 28 13 29 14 30 15 31 16 32 17 15 18 14 19 13 20 12 21
REMARK SMILES IDX 11 22 10 23 9 24 8 25 7 26 6 27 5 28 4 29 3 30 2 31 1 32
REMARK H PARENT
REMARK Flexibility Score: inf
ROOT
ATOM      1  C   UNL     1     -18.618   5.831  17.559  1.00  0.00     0.000 C 
ENDROOT
BRANCH   1   2
ATOM      2  C   UNL     1     -19.001   6.502  16.222  1.00  0.00     0.000 C 
BRANCH   2   3
ATOM      3  C   UNL     1     -20.436   7.064  16.194  1.00  0.00     0.000 C 
BRANCH   3   4
ATOM      4  C   UNL     1     -21.359   6.551  17.315  1.00  0.00     0.000 C 
BRANCH   4   5
ATOM      5  C   UNL     1     -22.401   7.570  17.821  1.00  0.00     0.000 C 
BRANCH   5   6
ATOM      6  C   UNL     1     -21.869   8.594  18.845  1.00  0.00     0.000 C 
BRANCH   6   7
ATOM      7  C   UNL     1     -22.320   8.353  20.297  1.00  0.00     0.000 C 
BRANCH   7   8
ATOM      8  C   UNL     1     -23.808   7.984  20.461  1.00  0.00     0.000 C 
BRANCH   8   9
ATOM      9  C   UNL     1     -24.036   6.564  21.023  1.00  0.00     0.000 C 
BRANCH   9  10
ATOM     10  C   UNL     1     -22.722   5.782  21.201  1.00  0.00     0.000 C 
BRANCH  10  11
ATOM     11  C   UNL     1     -22.559   4.637  20.182  1.00  0.00     0.000 C 
BRANCH  11  12
ATOM     12  C   UNL     1     -22.751   3.223  20.759  1.00  0.00     0.000 C 
BRANCH  12  13
ATOM     13  C   UNL     1     -23.855   3.153  21.828  1.00  0.00     0.006 C 
BRANCH  13  14
ATOM     14  C   UNL     1     -23.305   2.737  23.199  1.00  0.00     0.053 C 
BRANCH  14  15
ATOM     15  C   UNL     1     -24.363   2.099  24.045  1.00  0.00     0.041 C 
ATOM     16  O   UNL     1     -25.347   2.776  24.442  1.00  0.00    -0.550 OA
ATOM     17  O   UNL     1     -24.289   0.747  24.352  1.00  0.00    -0.550 OA
ENDBRANCH  14  15
ENDBRANCH  13  14
ENDBRANCH  12  13
ENDBRANCH  11  12
ENDBRANCH  10  11
ENDBRANCH   9  10
ENDBRANCH   8   9
ENDBRANCH   7   8
ENDBRANCH   6   7
ENDBRANCH   5   6
ENDBRANCH   4   5
ENDBRANCH   3   4
ENDBRANCH   2   3
ENDBRANCH   1   2
BRANCH   1  18
ATOM     18  C   UNL     1     -17.333   6.420  18.171  1.00  0.00     0.000 C 
BRANCH  18  19
ATOM     19  C   UNL     1     -17.529   6.882  19.625  1.00  0.00     0.000 C 
BRANCH  19  20
ATOM     20  C   UNL     1     -18.932   6.559  20.164  1.00  0.00     0.000 C 
BRANCH  20  21
ATOM     21  C   UNL     1     -19.085   6.903  21.654  1.00  0.00     0.000 C 
BRANCH  21  22
ATOM     22  C   UNL     1     -18.614   5.763  22.573  1.00  0.00     0.000 C 
BRANCH  22  23
ATOM     23  C   UNL     1     -19.776   4.911  23.107  1.00  0.00     0.000 C 
BRANCH  23  24
ATOM     24  C   UNL     1     -19.664   3.433  22.692  1.00  0.00    -0.000 C 
BRANCH  24  25
ATOM     25  C   UNL     1     -18.560   3.202  21.648  1.00  0.00    -0.000 C 
BRANCH  25  26
ATOM     26  C   UNL     1     -19.135   2.944  20.245  1.00  0.00    -0.000 C 
BRANCH  26  27
ATOM     27  C   UNL     1     -18.581   1.662  19.602  1.00  0.00    -0.000 C 
BRANCH  27  28
ATOM     28  C   UNL     1     -18.989   0.344  20.296  1.00  0.00    -0.000 C 
BRANCH  28  29
ATOM     29  C   UNL     1     -20.493   0.000  20.248  1.00  0.00    -0.000 C 
BRANCH  29  30
ATOM     30  C   UNL     1     -21.214   0.094  21.612  1.00  0.00    -0.000 C 
BRANCH  30  31
ATOM     31  C   UNL     1     -22.344  -0.933  21.790  1.00  0.00    -0.003 C 
ATOM     32  C   UNL     1     -23.667  -0.479  21.180  1.00  0.00     0.004 C 
ENDBRANCH  30  31
ENDBRANCH  29  30
ENDBRANCH  28  29
ENDBRANCH  27  28
ENDBRANCH  26  27
ENDBRANCH  25  26
ENDBRANCH  24  25
ENDBRANCH  23  24
ENDBRANCH  22  23
ENDBRANCH  21  22
ENDBRANCH  20  21
ENDBRANCH  19  20
ENDBRANCH  18  19
ENDBRANCH   1  18
TORSDOF 28
ENDMDL
MODEL 8
REMARK VINA RESULT:    -3.481      1.958      3.323
REMARK INTER + INTRA:         -14.946
REMARK INTER:                  -9.074
REMARK INTRA:                  -5.872
REMARK UNBOUND:                -5.768
REMARK SMILES CCCCCCCCCCCCCCCCCCCCCCCCCCCCCC(=O)[O-]
REMARK SMILES IDX 16 1 17 2 18 3 19 4 20 5 21 6 22 7 23 8 24 9 25 10 26 11
REMARK SMILES IDX 27 12 28 13 29 14 30 15 31 16 32 17 15 18 14 19 13 20 12 21
REMARK SMILES IDX 11 22 10 23 9 24 8 25 7 26 6 27 5 28 4 29 3 30 2 31 1 32
REMARK H PARENT
REMARK Flexibility Score: inf
ROOT
ATOM      1  C   UNL     1     -24.242   6.874  21.134  1.00  0.00     0.000 C 
ENDROOT
BRANCH   1   2
ATOM      2  C   UNL     1     -23.295   5.693  21.440  1.00  0.00     0.000 C 
BRANCH   2   3
ATOM      3  C   UNL     1     -23.115   4.716  20.263  1.00  0.00     0.000 C 
BRANCH   3   4
ATOM      4  C   UNL     1     -21.674   4.223  20.038  1.00  0.00     0.000 C 
BRANCH   4   5
ATOM      5  C   UNL     1     -21.179   3.167  21.048  1.00  0.00     0.000 C 
BRANCH   5   6
ATOM      6  C   UNL     1     -20.883   1.777  20.448  1.00  0.00     0.000 C 
BRANCH   6   7
ATOM      7  C   UNL     1     -21.457   0.591  21.243  1.00  0.00     0.000 C 
BRANCH   7   8
ATOM      8  C   UNL     1     -22.908   0.212  20.884  1.00  0.00     0.000 C 
BRANCH   8   9
ATOM      9  C   UNL     1     -23.921   0.496  22.015  1.00  0.00     0.000 C 
BRANCH   9  10
ATOM     10  C   UNL     1     -24.622   1.857  21.850  1.00  0.00     0.000 C 
BRANCH  10  11
ATOM     11  C   UNL     1     -24.859   2.579  23.190  1.00  0.00     0.000 C 
BRANCH  11  12
ATOM     12  C   UNL     1     -23.786   2.325  24.264  1.00  0.00     0.000 C 
BRANCH  12  13
ATOM     13  C   UNL     1     -22.663   3.377  24.254  1.00  0.00     0.006 C 
BRANCH  13  14
ATOM     14  C   UNL     1     -21.303   2.772  24.627  1.00  0.00     0.053 C 
BRANCH  14  15
ATOM     15  C   UNL     1     -20.976   3.002  26.070  1.00  0.00     0.041 C 
ATOM     16  O   UNL     1     -20.090   3.837  26.392  1.00  0.00    -0.550 OA
ATOM     17  O   UNL     1     -21.684   2.333  27.060  1.00  0.00    -0.550 OA
ENDBRANCH  14  15
ENDBRANCH  13  14
ENDBRANCH  12  13
ENDBRANCH  11  12
ENDBRANCH  10  11
ENDBRANCH   9  10
ENDBRANCH   8   9
ENDBRANCH   7   8
ENDBRANCH   6   7
ENDBRANCH   5   6
ENDBRANCH   4   5
ENDBRANCH   3   4
ENDBRANCH   2   3
ENDBRANCH   1   2
BRANCH   1  18
ATOM     18  C   UNL     1     -23.524   8.045  20.437  1.00  0.00     0.000 C 
BRANCH  18  19
ATOM     19  C   UNL     1     -22.013   8.061  20.716  1.00  0.00     0.000 C 
BRANCH  19  20
ATOM     20  C   UNL     1     -21.173   7.964  19.431  1.00  0.00     0.000 C 
BRANCH  20  21
ATOM     21  C   UNL     1     -21.997   8.246  18.165  1.00  0.00     0.000 C 
BRANCH  21  22
ATOM     22  C   UNL     1     -22.374   6.961  17.409  1.00  0.00     0.000 C 
BRANCH  22  23
ATOM     23  C   UNL     1     -21.147   6.157  16.952  1.00  0.00     0.000 C 
BRANCH  23  24
ATOM     24  C   UNL     1     -20.248   6.949  15.987  1.00  0.00    -0.000 C 
BRANCH  24  25
ATOM     25  C   UNL     1     -18.762   6.587  16.144  1.00  0.00    -0.000 C 
BRANCH  25  26
ATOM     26  C   UNL     1     -18.229   6.922  17.548  1.00  0.00    -0.000 C 
BRANCH  26  27
ATOM     27  C   UNL     1     -17.699   5.686  18.293  1.00  0.00    -0.000 C 
BRANCH  27  28
ATOM     28  C   UNL     1     -18.499   5.277  19.549  1.00  0.00    -0.000 C 
BRANCH  28  29
ATOM     29  C   UNL     1     -17.940   5.786  20.895  1.00  0.00    -0.000 C 
BRANCH  29  30
ATOM     30  C   UNL     1     -17.907   4.723  22.016  1.00  0.00    -0.000 C 
BRANCH  30  31
ATOM     31  C   UNL     1     -18.727   5.106  23.260  1.00  0.00    -0.003 C 
ATOM     32  C   UNL     1     -19.887   6.046  22.946  1.00  0.00     0.004 C 
ENDBRANCH  30  31
ENDBRANCH  29  30
ENDBRANCH  28  29
ENDBRANCH  27  28
ENDBRANCH  26  27
ENDBRANCH  25  26
ENDBRANCH  24  25
ENDBRANCH  23  24
ENDBRANCH  22  23
ENDBRANCH  21  22
ENDBRANCH  20  21
ENDBRANCH  19  20
ENDBRANCH  18  19
ENDBRANCH   1  18
TORSDOF 28
ENDMDL
MODEL 9
REMARK VINA RESULT:    -3.443      2.239      3.889
REMARK INTER + INTRA:         -14.847
REMARK INTER:                  -8.360
REMARK INTRA:                  -6.488
REMARK UNBOUND:                -5.768
REMARK SMILES CCCCCCCCCCCCCCCCCCCCCCCCCCCCCC(=O)[O-]
REMARK SMILES IDX 16 1 17 2 18 3 19 4 20 5 21 6 22 7 23 8 24 9 25 10 26 11
REMARK SMILES IDX 27 12 28 13 29 14 30 15 31 16 32 17 15 18 14 19 13 20 12 21
REMARK SMILES IDX 11 22 10 23 9 24 8 25 7 26 6 27 5 28 4 29 3 30 2 31 1 32
REMARK H PARENT
REMARK Flexibility Score: inf
ROOT
ATOM      1  C   UNL     1     -21.159   3.006  23.067  1.00  0.00     0.000 C 
ENDROOT
BRANCH   1   2
ATOM      2  C   UNL     1     -19.660   3.243  23.358  1.00  0.00     0.000 C 
BRANCH   2   3
ATOM      3  C   UNL     1     -18.713   2.446  22.440  1.00  0.00     0.000 C 
BRANCH   3   4
ATOM      4  C   UNL     1     -18.677   2.916  20.975  1.00  0.00     0.000 C 
BRANCH   4   5
ATOM      5  C   UNL     1     -18.960   1.817  19.929  1.00  0.00     0.000 C 
BRANCH   5   6
ATOM      6  C   UNL     1     -19.412   0.462  20.512  1.00  0.00     0.000 C 
BRANCH   6   7
ATOM      7  C   UNL     1     -20.924   0.189  20.421  1.00  0.00     0.000 C 
BRANCH   7   8
ATOM      8  C   UNL     1     -21.503  -0.643  21.584  1.00  0.00     0.000 C 
BRANCH   8   9
ATOM      9  C   UNL     1     -22.863  -0.124  22.100  1.00  0.00     0.000 C 
BRANCH   9  10
ATOM     10  C   UNL     1     -23.551   0.822  21.100  1.00  0.00     0.000 C 
BRANCH  10  11
ATOM     11  C   UNL     1     -24.704   1.629  21.728  1.00  0.00     0.000 C 
BRANCH  11  12
ATOM     12  C   UNL     1     -24.949   1.356  23.223  1.00  0.00     0.000 C 
BRANCH  12  13
ATOM     13  C   UNL     1     -25.813   2.435  23.899  1.00  0.00     0.006 C 
BRANCH  13  14
ATOM     14  C   UNL     1     -25.030   3.733  24.140  1.00  0.00     0.053 C 
BRANCH  14  15
ATOM     15  C   UNL     1     -24.449   3.776  25.519  1.00  0.00     0.041 C 
ATOM     16  O   UNL     1     -24.878   2.996  26.410  1.00  0.00    -0.550 OA
ATOM     17  O   UNL     1     -23.402   4.640  25.808  1.00  0.00    -0.550 OA
ENDBRANCH  14  15
ENDBRANCH  13  14
ENDBRANCH  12  13
ENDBRANCH  11  12
ENDBRANCH  10  11
ENDBRANCH   9  10
ENDBRANCH   8   9
ENDBRANCH   7   8
ENDBRANCH   6   7
ENDBRANCH   5   6
ENDBRANCH   4   5
ENDBRANCH   3   4
ENDBRANCH   2   3
ENDBRANCH   1   2
BRANCH   1  18
ATOM     18  C   UNL     1     -21.854   4.252  22.487  1.00  0.00     0.000 C 
BRANCH  18  19
ATOM     19  C   UNL     1     -22.159   4.112  20.987  1.00  0.00     0.000 C 
BRANCH  19  20
ATOM     20  C   UNL     1     -23.194   5.137  20.495  1.00  0.00     0.000 C 
BRANCH  20  21
ATOM     21  C   UNL     1     -23.561   6.169  21.574  1.00  0.00     0.000 C 
BRANCH  21  22
ATOM     22  C   UNL     1     -23.755   7.581  20.996  1.00  0.00     0.000 C 
BRANCH  22  23
ATOM     23  C   UNL     1     -23.645   7.617  19.464  1.00  0.00     0.000 C 
BRANCH  23  24
ATOM     24  C   UNL     1     -22.609   8.643  18.970  1.00  0.00    -0.000 C 
BRANCH  24  25
ATOM     25  C   UNL     1     -21.816   8.132  17.757  1.00  0.00    -0.000 C 
BRANCH  25  26
ATOM     26  C   UNL     1     -22.010   6.623  17.530  1.00  0.00    -0.000 C 
BRANCH  26  27
ATOM     27  C   UNL     1     -20.718   5.818  17.746  1.00  0.00    -0.000 C 
BRANCH  27  28
ATOM     28  C   UNL     1     -19.597   6.557  18.508  1.00  0.00    -0.000 C 
BRANCH  28  29
ATOM     29  C   UNL     1     -19.610   6.393  20.042  1.00  0.00    -0.000 C 
BRANCH  29  30
ATOM     30  C   UNL     1     -19.580   7.724  20.827  1.00  0.00    -0.000 C 
BRANCH  30  31
ATOM     31  C   UNL     1     -20.195   7.629  22.234  1.00  0.00    -0.003 C 
ATOM     32  C   UNL     1     -19.307   6.882  23.226  1.00  0.00     0.004 C 
ENDBRANCH  30  31
ENDBRANCH  29  30
ENDBRANCH  28  29
ENDBRANCH  27  28
ENDBRANCH  26  27
ENDBRANCH  25  26
ENDBRANCH  24  25
ENDBRANCH  23  24
ENDBRANCH  22  23
ENDBRANCH  21  22
ENDBRANCH  20  21
ENDBRANCH  19  20
ENDBRANCH  18  19
ENDBRANCH   1  18
TORSDOF 28
ENDMDL
