MODEL 1
REMARK VINA RESULT:    -3.630      0.000      0.000
REMARK INTER + INTRA:          -7.863
REMARK INTER:                  -6.601
REMARK INTRA:                  -1.262
REMARK UNBOUND:                -1.262
REMARK SMILES CCCCCCCCCCCCCCCC(=O)[O-]
REMARK SMILES IDX 9 1 10 2 11 3 12 4 13 5 14 6 15 7 16 8 17 9 18 10 8 11 7 12
REMARK SMILES IDX 6 13 5 14 4 15 3 16 2 17 1 18
REMARK H PARENT
REMARK Flexibility Score: inf
ROOT
ATOM      1  C   UNL     1      -1.503   2.762   9.056  1.00  0.00     0.000 C 
ENDROOT
BRANCH   1   2
ATOM      2  C   UNL     1      -1.495   4.070   9.869  1.00  0.00     0.000 C 
BRANCH   2   3
ATOM      3  C   UNL     1      -1.197   5.298   8.993  1.00  0.00     0.000 C 
BRANCH   3   4
ATOM      4  C   UNL     1      -1.839   6.588   9.540  1.00  0.00     0.000 C 
BRANCH   4   5
ATOM      5  C   UNL     1      -0.852   7.770   9.508  1.00  0.00     0.000 C 
BRANCH   5   6
ATOM      6  C   UNL     1       0.078   7.719   8.281  1.00  0.00     0.006 C 
BRANCH   6   7
ATOM      7  C   UNL     1       1.529   8.081   8.639  1.00  0.00     0.053 C 
BRANCH   7   8
ATOM      8  C   UNL     1       2.389   8.178   7.411  1.00  0.00     0.041 C 
ATOM      9  O   UNL     1       3.643   8.060   7.503  1.00  0.00    -0.550 OA
ATOM     10  O   UNL     1       1.805   8.364   6.164  1.00  0.00    -0.550 OA
ENDBRANCH   7   8
ENDBRANCH   6   7
ENDBRANCH   5   6
ENDBRANCH   4   5
ENDBRANCH   3   4
ENDBRANCH   2   3
ENDBRANCH   1   2
BRANCH   1  11
ATOM     11  C   UNL     1      -2.813   1.977   9.224  1.00  0.00     0.000 C 
BRANCH  11  12
ATOM     12  C   UNL     1      -3.860   2.755  10.045  1.00  0.00    -0.000 C 
BRANCH  12  13
ATOM     13  C   UNL     1      -5.223   2.842   9.343  1.00  0.00    -0.000 C 
BRANCH  13  14
ATOM     14  C   UNL     1      -5.862   4.238   9.463  1.00  0.00    -0.000 C 
BRANCH  14  15
ATOM     15  C   UNL     1      -5.187   5.233   8.512  1.00  0.00    -0.000 C 
BRANCH  15  16
ATOM     16  C   UNL     1      -5.298   6.670   9.046  1.00  0.00    -0.000 C 
BRANCH  16  17
ATOM     17  C   UNL     1      -6.434   7.459   8.380  1.00  0.00    -0.003 C 
ATOM     18  C   UNL     1      -6.780   6.940   6.983  1.00  0.00     0.004 C 
ENDBRANCH  16  17
ENDBRANCH  15  16
ENDBRANCH  14  15
ENDBRANCH  13  14
ENDBRANCH  12  13
ENDBRANCH  11  12
ENDBRANCH   1  11
TORSDOF 14
ENDMDL
MODEL 2
REMARK VINA RESULT:    -3.595      0.917      1.560
REMARK INTER + INTRA:          -7.799
REMARK INTER:                  -6.488
REMARK INTRA:                  -1.311
REMARK UNBOUND:                -1.262
REMARK SMILES CCCCCCCCCCCCCCCC(=O)[O-]
REMARK SMILES IDX 9 1 10 2 11 3 12 4 13 5 14 6 15 7 16 8 17 9 18 10 8 11 7 12
REMARK SMILES IDX 6 13 5 14 4 15 3 16 2 17 1 18
REMARK H PARENT
REMARK Flexibility Score: inf
ROOT
ATOM      1  C   UNL     1      -1.374   4.316   8.931  1.00  0.00     0.000 C 
ENDROOT
BRANCH   1   2
ATOM      2  C   UNL     1      -0.821   5.487   9.764  1.00  0.00     0.000 C 
BRANCH   2   3
ATOM      3  C   UNL     1      -1.757   6.707   9.745  1.00  0.00     0.000 C 
BRANCH   3   4
ATOM      4  C   UNL     1      -1.046   7.995   9.286  1.00  0.00     0.000 C 
BRANCH   4   5
ATOM      5  C   UNL     1       0.446   7.746   8.995  1.00  0.00     0.000 C 
BRANCH   5   6
ATOM      6  C   UNL     1       0.870   8.293   7.620  1.00  0.00     0.006 C 
BRANCH   6   7
ATOM      7  C   UNL     1       2.057   9.265   7.724  1.00  0.00     0.053 C 
BRANCH   7   8
ATOM      8  C   UNL     1       3.355   8.529   7.895  1.00  0.00     0.041 C 
ATOM      9  O   UNL     1       4.145   8.842   8.829  1.00  0.00    -0.550 OA
ATOM     10  O   UNL     1       3.677   7.477   7.045  1.00  0.00    -0.550 OA
ENDBRANCH   7   8
ENDBRANCH   6   7
ENDBRANCH   5   6
ENDBRANCH   4   5
ENDBRANCH   3   4
ENDBRANCH   2   3
ENDBRANCH   1   2
BRANCH   1  11
ATOM     11  C   UNL     1      -1.471   3.015   9.744  1.00  0.00     0.000 C 
BRANCH  11  12
ATOM     12  C   UNL     1      -2.587   2.085   9.229  1.00  0.00    -0.000 C 
BRANCH  12  13
ATOM     13  C   UNL     1      -3.850   2.131  10.102  1.00  0.00    -0.000 C 
BRANCH  13  14
ATOM     14  C   UNL     1      -5.008   2.888   9.426  1.00  0.00    -0.000 C 
BRANCH  14  15
ATOM     15  C   UNL     1      -4.964   4.380   9.775  1.00  0.00    -0.000 C 
BRANCH  15  16
ATOM     16  C   UNL     1      -4.880   5.242   8.506  1.00  0.00    -0.000 C 
BRANCH  16  17
ATOM     17  C   UNL     1      -5.620   6.579   8.653  1.00  0.00    -0.003 C 
ATOM     18  C   UNL     1      -6.873   6.666   7.780  1.00  0.00     0.004 C 
ENDBRANCH  16  17
ENDBRANCH  15  16
ENDBRANCH  14  15
ENDBRANCH  13  14
ENDBRANCH  12  13
ENDBRANCH  11  12
ENDBRANCH   1  11
TORSDOF 14
ENDMDL
MODEL 3
REMARK VINA RESULT:    -3.570      1.597      2.735
REMARK INTER + INTRA:          -7.754
REMARK INTER:                  -6.636
REMARK INTRA:                  -1.118
REMARK UNBOUND:                -1.262
REMARK SMILES CCCCCCCCCCCCCCCC(=O)[O-]
REMARK SMILES IDX 9 1 10 2 11 3 12 4 13 5 14 6 15 7 16 8 17 9 18 10 8 11 7 12
REMARK SMILES IDX 6 13 5 14 4 15 3 16 2 17 1 18
REMARK H PARENT
REMARK Flexibility Score: inf
ROOT
ATOM      1  C   UNL     1      -3.254   5.294   9.670  1.00  0.00     0.000 C 
ENDROOT
BRANCH   1   2
ATOM      2  C   UNL     1      -1.915   5.055   8.948  1.00  0.00     0.000 C 
BRANCH   2   3
ATOM      3  C   UNL     1      -0.709   5.245   9.882  1.00  0.00     0.000 C 
BRANCH   3   4
ATOM      4  C   UNL     1      -0.005   6.601   9.677  1.00  0.00     0.000 C 
BRANCH   4   5
ATOM      5  C   UNL     1      -0.241   7.154   8.258  1.00  0.00     0.000 C 
BRANCH   5   6
ATOM      6  C   UNL     1      -0.007   8.674   8.179  1.00  0.00     0.006 C 
BRANCH   6   7
ATOM      7  C   UNL     1       1.489   9.029   8.176  1.00  0.00     0.053 C 
BRANCH   7   8
ATOM      8  C   UNL     1       2.214   8.345   7.053  1.00  0.00     0.041 C 
ATOM      9  O   UNL     1       3.254   7.667   7.287  1.00  0.00    -0.550 OA
ATOM     10  O   UNL     1       1.723   8.426   5.755  1.00  0.00    -0.550 OA
ENDBRANCH   7   8
ENDBRANCH   6   7
ENDBRANCH   5   6
ENDBRANCH   4   5
ENDBRANCH   3   4
ENDBRANCH   2   3
ENDBRANCH   1   2
BRANCH   1  11
ATOM     11  C   UNL     1      -4.463   5.090   8.743  1.00  0.00     0.000 C 
BRANCH  11  12
ATOM     12  C   UNL     1      -5.355   6.344   8.660  1.00  0.00    -0.000 C 
BRANCH  12  13
ATOM     13  C   UNL     1      -4.764   7.546   9.412  1.00  0.00    -0.000 C 
BRANCH  13  14
ATOM     14  C   UNL     1      -5.499   8.861   9.094  1.00  0.00    -0.000 C 
BRANCH  14  15
ATOM     15  C   UNL     1      -6.798   8.591   8.327  1.00  0.00    -0.000 C 
BRANCH  15  16
ATOM     16  C   UNL     1      -6.889   9.469   7.069  1.00  0.00    -0.000 C 
BRANCH  16  17
ATOM     17  C   UNL     1      -7.747   8.830   5.968  1.00  0.00    -0.003 C 
ATOM     18  C   UNL     1      -7.462   7.339   5.779  1.00  0.00     0.004 C 
ENDBRANCH  16  17
ENDBRANCH  15  16
ENDBRANCH  14  15
ENDBRANCH  13  14
ENDBRANCH  12  13
ENDBRANCH  11  12
ENDBRANCH   1  11
TORSDOF 14
ENDMDL
MODEL 4
REMARK VINA RESULT:    -3.564      3.722      7.594
REMARK INTER + INTRA:          -7.743
REMARK INTER:                  -6.773
REMARK INTRA:                  -0.971
REMARK UNBOUND:                -1.262
REMARK SMILES CCCCCCCCCCCCCCCC(=O)[O-]
REMARK SMILES IDX 9 1 10 2 11 3 12 4 13 5 14 6 15 7 16 8 17 9 18 10 8 11 7 12
REMARK SMILES IDX 6 13 5 14 4 15 3 16 2 17 1 18
REMARK H PARENT
REMARK Flexibility Score: inf
ROOT
ATOM      1  C   UNL     1      -4.046   4.983   8.860  1.00  0.00     0.000 C 
ENDROOT
BRANCH   1   2
ATOM      2  C   UNL     1      -5.396   5.718   8.955  1.00  0.00     0.000 C 
BRANCH   2   3
ATOM      3  C   UNL     1      -5.222   7.244   9.029  1.00  0.00     0.000 C 
BRANCH   3   4
ATOM      4  C   UNL     1      -6.350   8.006   8.305  1.00  0.00     0.000 C 
BRANCH   4   5
ATOM      5  C   UNL     1      -7.266   7.051   7.517  1.00  0.00     0.000 C 
BRANCH   5   6
ATOM      6  C   UNL     1      -7.244   7.339   6.005  1.00  0.00     0.006 C 
BRANCH   6   7
ATOM      7  C   UNL     1      -8.566   7.948   5.512  1.00  0.00     0.053 C 
BRANCH   7   8
ATOM      8  C   UNL     1      -8.351   9.300   4.892  1.00  0.00     0.041 C 
ATOM      9  O   UNL     1      -9.275   9.849   4.229  1.00  0.00    -0.550 OA
ATOM     10  O   UNL     1      -7.145   9.967   5.075  1.00  0.00    -0.550 OA
ENDBRANCH   7   8
ENDBRANCH   6   7
ENDBRANCH   5   6
ENDBRANCH   4   5
ENDBRANCH   3   4
ENDBRANCH   2   3
ENDBRANCH   1   2
BRANCH   1  11
ATOM     11  C   UNL     1      -2.878   5.835   9.379  1.00  0.00     0.000 C 
BRANCH  11  12
ATOM     12  C   UNL     1      -1.509   5.194   9.081  1.00  0.00    -0.000 C 
BRANCH  12  13
ATOM     13  C   UNL     1      -0.359   6.212   9.095  1.00  0.00    -0.000 C 
BRANCH  13  14
ATOM     14  C   UNL     1      -0.858   7.667   9.170  1.00  0.00    -0.000 C 
BRANCH  14  15
ATOM     15  C   UNL     1      -0.302   8.498   8.008  1.00  0.00    -0.000 C 
BRANCH  15  16
ATOM     16  C   UNL     1       1.108   9.018   8.326  1.00  0.00    -0.000 C 
BRANCH  16  17
ATOM     17  C   UNL     1       2.129   8.653   7.239  1.00  0.00    -0.003 C 
ATOM     18  C   UNL     1       3.290   7.810   7.771  1.00  0.00     0.004 C 
ENDBRANCH  16  17
ENDBRANCH  15  16
ENDBRANCH  14  15
ENDBRANCH  13  14
ENDBRANCH  12  13
ENDBRANCH  11  12
ENDBRANCH   1  11
TORSDOF 14
ENDMDL
MODEL 5
REMARK VINA RESULT:    -3.521      2.113      2.923
REMARK INTER + INTRA:          -7.665
REMARK INTER:                  -6.977
REMARK INTRA:                  -0.688
REMARK UNBOUND:                -1.262
REMARK SMILES CCCCCCCCCCCCCCCC(=O)[O-]
REMARK SMILES IDX 9 1 10 2 11 3 12 4 13 5 14 6 15 7 16 8 17 9 18 10 8 11 7 12
REMARK SMILES IDX 6 13 5 14 4 15 3 16 2 17 1 18
REMARK H PARENT
REMARK Flexibility Score: inf
ROOT
ATOM      1  C   UNL     1      -1.771   2.647   9.081  1.00  0.00     0.000 C 
ENDROOT
BRANCH   1   2
ATOM      2  C   UNL     1      -1.204   3.974   9.619  1.00  0.00     0.000 C 
BRANCH   2   3
ATOM      3  C   UNL     1      -1.584   5.171   8.733  1.00  0.00     0.000 C 
BRANCH   3   4
ATOM      4  C   UNL     1      -1.414   6.523   9.454  1.00  0.00     0.000 C 
BRANCH   4   5
ATOM      5  C   UNL     1       0.015   7.077   9.293  1.00  0.00     0.000 C 
BRANCH   5   6
ATOM      6  C   UNL     1       0.050   8.353   8.432  1.00  0.00     0.006 C 
BRANCH   6   7
ATOM      7  C   UNL     1       1.475   8.909   8.279  1.00  0.00     0.053 C 
BRANCH   7   8
ATOM      8  C   UNL     1       2.170   8.315   7.088  1.00  0.00     0.041 C 
ATOM      9  O   UNL     1       1.636   8.373   5.944  1.00  0.00    -0.550 OA
ATOM     10  O   UNL     1       3.422   7.727   7.232  1.00  0.00    -0.550 OA
ENDBRANCH   7   8
ENDBRANCH   6   7
ENDBRANCH   5   6
ENDBRANCH   4   5
ENDBRANCH   3   4
ENDBRANCH   2   3
ENDBRANCH   1   2
BRANCH   1  11
ATOM     11  C   UNL     1      -2.988   2.163   9.883  1.00  0.00     0.000 C 
BRANCH  11  12
ATOM     12  C   UNL     1      -4.217   1.910   8.988  1.00  0.00    -0.000 C 
BRANCH  12  13
ATOM     13  C   UNL     1      -4.826   0.515   9.192  1.00  0.00    -0.000 C 
BRANCH  13  14
ATOM     14  C   UNL     1      -6.232   0.570   9.818  1.00  0.00    -0.000 C 
BRANCH  14  15
ATOM     15  C   UNL     1      -7.288   0.042   8.841  1.00  0.00    -0.000 C 
BRANCH  15  16
ATOM     16  C   UNL     1      -8.404   1.075   8.621  1.00  0.00    -0.000 C 
BRANCH  16  17
ATOM     17  C   UNL     1      -8.033   2.465   9.159  1.00  0.00    -0.003 C 
ATOM     18  C   UNL     1      -8.769   3.598   8.440  1.00  0.00     0.004 C 
ENDBRANCH  16  17
ENDBRANCH  15  16
ENDBRANCH  14  15
ENDBRANCH  13  14
ENDBRANCH  12  13
ENDBRANCH  11  12
ENDBRANCH   1  11
TORSDOF 14
ENDMDL
MODEL 6
REMARK VINA RESULT:    -3.515      3.466      6.737
REMARK INTER + INTRA:          -7.654
REMARK INTER:                  -6.611
REMARK INTRA:                  -1.043
REMARK UNBOUND:                -1.262
REMARK SMILES CCCCCCCCCCCCCCCC(=O)[O-]
REMARK SMILES IDX 9 1 10 2 11 3 12 4 13 5 14 6 15 7 16 8 17 9 18 10 8 11 7 12
REMARK SMILES IDX 6 13 5 14 4 15 3 16 2 17 1 18
REMARK H PARENT
REMARK Flexibility Score: inf
ROOT
ATOM      1  C   UNL     1      -2.024   2.255   9.103  1.00  0.00     0.000 C 
ENDROOT
BRANCH   1   2
ATOM      2  C   UNL     1      -3.326   2.013   9.887  1.00  0.00     0.000 C 
BRANCH   2   3
ATOM      3  C   UNL     1      -4.551   2.620   9.182  1.00  0.00     0.000 C 
BRANCH   3   4
ATOM      4  C   UNL     1      -4.933   4.005   9.739  1.00  0.00     0.000 C 
BRANCH   4   5
ATOM      5  C   UNL     1      -5.048   5.056   8.619  1.00  0.00     0.000 C 
BRANCH   5   6
ATOM      6  C   UNL     1      -6.420   5.755   8.616  1.00  0.00     0.006 C 
BRANCH   6   7
ATOM      7  C   UNL     1      -6.352   7.161   7.999  1.00  0.00     0.053 C 
BRANCH   7   8
ATOM      8  C   UNL     1      -7.417   7.356   6.958  1.00  0.00     0.041 C 
ATOM      9  O   UNL     1      -8.563   7.771   7.291  1.00  0.00    -0.550 OA
ATOM     10  O   UNL     1      -7.137   7.112   5.618  1.00  0.00    -0.550 OA
ENDBRANCH   7   8
ENDBRANCH   6   7
ENDBRANCH   5   6
ENDBRANCH   4   5
ENDBRANCH   3   4
ENDBRANCH   2   3
ENDBRANCH   1   2
BRANCH   1  11
ATOM     11  C   UNL     1      -1.176   3.384   9.710  1.00  0.00     0.000 C 
BRANCH  11  12
ATOM     12  C   UNL     1      -1.451   4.746   9.043  1.00  0.00    -0.000 C 
BRANCH  12  13
ATOM     13  C   UNL     1      -0.813   5.920   9.800  1.00  0.00    -0.000 C 
BRANCH  13  14
ATOM     14  C   UNL     1       0.724   5.832   9.840  1.00  0.00    -0.000 C 
BRANCH  14  15
ATOM     15  C   UNL     1       1.360   7.158   9.409  1.00  0.00    -0.000 C 
BRANCH  15  16
ATOM     16  C   UNL     1       0.369   8.011   8.603  1.00  0.00    -0.000 C 
BRANCH  16  17
ATOM     17  C   UNL     1       0.790   8.171   7.135  1.00  0.00    -0.003 C 
ATOM     18  C   UNL     1       2.242   8.625   6.978  1.00  0.00     0.004 C 
ENDBRANCH  16  17
ENDBRANCH  15  16
ENDBRANCH  14  15
ENDBRANCH  13  14
ENDBRANCH  12  13
ENDBRANCH  11  12
ENDBRANCH   1  11
TORSDOF 14
ENDMDL
MODEL 7
REMARK VINA RESULT:    -3.513      3.483      6.884
REMARK INTER + INTRA:          -7.651
REMARK INTER:                  -6.887
REMARK INTRA:                  -0.763
REMARK UNBOUND:                -1.262
REMARK SMILES CCCCCCCCCCCCCCCC(=O)[O-]
REMARK SMILES IDX 9 1 10 2 11 3 12 4 13 5 14 6 15 7 16 8 17 9 18 10 8 11 7 12
REMARK SMILES IDX 6 13 5 14 4 15 3 16 2 17 1 18
REMARK H PARENT
REMARK Flexibility Score: inf
ROOT
ATOM      1  C   UNL     1      -4.031   2.837   9.023  1.00  0.00     0.000 C 
ENDROOT
BRANCH   1   2
ATOM      2  C   UNL     1      -4.888   4.058   9.405  1.00  0.00     0.000 C 
BRANCH   2   3
ATOM      3  C   UNL     1      -4.686   5.235   8.436  1.00  0.00     0.000 C 
BRANCH   3   4
ATOM      4  C   UNL     1      -5.682   6.386   8.684  1.00  0.00     0.000 C 
BRANCH   4   5
ATOM      5  C   UNL     1      -6.808   6.398   7.632  1.00  0.00     0.000 C 
BRANCH   5   6
ATOM      6  C   UNL     1      -7.021   7.797   7.025  1.00  0.00     0.006 C 
BRANCH   6   7
ATOM      7  C   UNL     1      -7.658   7.731   5.628  1.00  0.00     0.053 C 
BRANCH   7   8
ATOM      8  C   UNL     1      -7.842   9.102   5.043  1.00  0.00     0.041 C 
ATOM      9  O   UNL     1      -8.815   9.340   4.274  1.00  0.00    -0.550 OA
ATOM     10  O   UNL     1      -6.960  10.125   5.373  1.00  0.00    -0.550 OA
ENDBRANCH   7   8
ENDBRANCH   6   7
ENDBRANCH   5   6
ENDBRANCH   4   5
ENDBRANCH   3   4
ENDBRANCH   2   3
ENDBRANCH   1   2
BRANCH   1  11
ATOM     11  C   UNL     1      -2.877   2.601  10.010  1.00  0.00     0.000 C 
BRANCH  11  12
ATOM     12  C   UNL     1      -1.527   3.105   9.463  1.00  0.00    -0.000 C 
BRANCH  12  13
ATOM     13  C   UNL     1      -1.122   4.469  10.041  1.00  0.00    -0.000 C 
BRANCH  13  14
ATOM     14  C   UNL     1      -1.112   5.582   8.977  1.00  0.00    -0.000 C 
BRANCH  14  15
ATOM     15  C   UNL     1      -0.251   6.766   9.430  1.00  0.00    -0.000 C 
BRANCH  15  16
ATOM     16  C   UNL     1       0.217   7.602   8.229  1.00  0.00    -0.000 C 
BRANCH  16  17
ATOM     17  C   UNL     1       1.684   8.035   8.350  1.00  0.00    -0.003 C 
ATOM     18  C   UNL     1       2.250   8.596   7.044  1.00  0.00     0.004 C 
ENDBRANCH  16  17
ENDBRANCH  15  16
ENDBRANCH  14  15
ENDBRANCH  13  14
ENDBRANCH  12  13
ENDBRANCH  11  12
ENDBRANCH   1  11
TORSDOF 14
ENDMDL
MODEL 8
REMARK VINA RESULT:    -3.415      4.172      8.131
REMARK INTER + INTRA:          -7.472
REMARK INTER:                  -6.698
REMARK INTRA:                  -0.774
REMARK UNBOUND:                -1.262
REMARK SMILES CCCCCCCCCCCCCCCC(=O)[O-]
REMARK SMILES IDX 9 1 10 2 11 3 12 4 13 5 14 6 15 7 16 8 17 9 18 10 8 11 7 12
REMARK SMILES IDX 6 13 5 14 4 15 3 16 2 17 1 18
REMARK H PARENT
REMARK Flexibility Score: inf
ROOT
ATOM      1  C   UNL     1      -2.518   5.172   9.021  1.00  0.00     0.000 C 
ENDROOT
BRANCH   1   2
ATOM      2  C   UNL     1      -3.354   6.283   9.682  1.00  0.00     0.000 C 
BRANCH   2   3
ATOM      3  C   UNL     1      -4.853   6.146   9.370  1.00  0.00     0.000 C 
BRANCH   3   4
ATOM      4  C   UNL     1      -5.184   4.854   8.597  1.00  0.00     0.000 C 
BRANCH   4   5
ATOM      5  C   UNL     1      -5.757   3.768   9.528  1.00  0.00     0.000 C 
BRANCH   5   6
ATOM      6  C   UNL     1      -4.897   2.490   9.528  1.00  0.00     0.006 C 
BRANCH   6   7
ATOM      7  C   UNL     1      -5.674   1.270  10.048  1.00  0.00     0.053 C 
BRANCH   7   8
ATOM      8  C   UNL     1      -6.006   0.316   8.936  1.00  0.00     0.041 C 
ATOM      9  O   UNL     1      -5.085  -0.191   8.236  1.00  0.00    -0.550 OA
ATOM     10  O   UNL     1      -7.328  -0.039   8.694  1.00  0.00    -0.550 OA
ENDBRANCH   7   8
ENDBRANCH   6   7
ENDBRANCH   5   6
ENDBRANCH   4   5
ENDBRANCH   3   4
ENDBRANCH   2   3
ENDBRANCH   1   2
BRANCH   1  11
ATOM     11  C   UNL     1      -1.010   5.363   9.245  1.00  0.00     0.000 C 
BRANCH  11  12
ATOM     12  C   UNL     1      -0.645   6.829   9.548  1.00  0.00    -0.000 C 
BRANCH  12  13
ATOM     13  C   UNL     1       0.003   7.542   8.351  1.00  0.00    -0.000 C 
BRANCH  13  14
ATOM     14  C   UNL     1       0.178   9.054   8.588  1.00  0.00    -0.000 C 
BRANCH  14  15
ATOM     15  C   UNL     1       1.639   9.473   8.395  1.00  0.00    -0.000 C 
BRANCH  15  16
ATOM     16  C   UNL     1       2.261   8.768   7.180  1.00  0.00    -0.000 C 
BRANCH  16  17
ATOM     17  C   UNL     1       3.428   7.849   7.566  1.00  0.00    -0.003 C 
ATOM     18  C   UNL     1       4.478   8.550   8.430  1.00  0.00     0.004 C 
ENDBRANCH  16  17
ENDBRANCH  15  16
ENDBRANCH  14  15
ENDBRANCH  13  14
ENDBRANCH  12  13
ENDBRANCH  11  12
ENDBRANCH   1  11
TORSDOF 14
ENDMDL
