MODEL 1
REMARK VINA RESULT:    -6.324      0.000      0.000
REMARK INTER + INTRA:          -6.694
REMARK INTER:                  -6.694
REMARK INTRA:                   0.000
REMARK UNBOUND:                 0.000
REMARK SMILES O=c1ccc2cc(O)c(O)cc2o1
REMARK SMILES IDX 4 1 3 2 2 3 1 4 13 5 12 6 11 7 9 8 7 9 6 10 5 11 8 12 10 14
REMARK H PARENT 8 13 10 15
REMARK Flexibility Score: inf
ROOT
ATOM      1  C   UNL     1      79.698  63.253   9.448  1.00  0.00     0.019 A 
ATOM      2  C   UNL     1      79.367  62.819   8.166  1.00  0.00     0.094 A 
ATOM      3  C   UNL     1      80.391  62.442   7.291  1.00  0.00     0.336 A 
ATOM      4  O   UNL     1      80.112  62.047   6.129  1.00  0.00    -0.246 OA
ATOM      5  O   UNL     1      81.662  62.498   7.680  1.00  0.00    -0.423 OA
ATOM      6  C   UNL     1      82.023  62.907   8.895  1.00  0.00     0.142 A 
ATOM      7  C   UNL     1      83.376  62.945   9.247  1.00  0.00     0.098 A 
ATOM      8  C   UNL     1      83.759  63.374  10.526  1.00  0.00     0.161 A 
ATOM      9  C   UNL     1      82.786  63.768  11.456  1.00  0.00     0.158 A 
ATOM     10  C   UNL     1      81.428  63.732  11.108  1.00  0.00     0.062 A 
ATOM     11  C   UNL     1      81.042  63.302   9.830  1.00  0.00     0.022 A 
ENDROOT
BRANCH   9  12
ATOM     12  O   UNL     1      83.177  64.193  12.724  1.00  0.00    -0.504 OA
ATOM     13  H   UNL     1      83.566  65.117  12.877  1.00  0.00     0.293 HD
ENDBRANCH   9  12
BRANCH   8  14
ATOM     14  O   UNL     1      85.107  63.413  10.880  1.00  0.00    -0.504 OA
ATOM     15  H   UNL     1      85.399  63.581  11.836  1.00  0.00     0.293 HD
ENDBRANCH   8  14
TORSDOF 2
ENDMDL
MODEL 2
REMARK VINA RESULT:    -6.245      1.211      4.751
REMARK INTER + INTRA:          -6.610
REMARK INTER:                  -6.610
REMARK INTRA:                   0.000
REMARK UNBOUND:                 0.000
REMARK SMILES O=c1ccc2cc(O)c(O)cc2o1
REMARK SMILES IDX 4 1 3 2 2 3 1 4 13 5 12 6 11 7 9 8 7 9 6 10 5 11 8 12 10 14
REMARK H PARENT 8 13 10 15
REMARK Flexibility Score: inf
ROOT
ATOM      1  C   UNL     1      80.245  63.622  10.196  1.00  0.00     0.019 A 
ATOM      2  C   UNL     1      81.404  63.694  10.968  1.00  0.00     0.094 A 
ATOM      3  C   UNL     1      82.619  63.281  10.409  1.00  0.00     0.336 A 
ATOM      4  O   UNL     1      83.675  63.338  11.089  1.00  0.00    -0.246 OA
ATOM      5  O   UNL     1      82.663  62.825   9.160  1.00  0.00    -0.423 OA
ATOM      6  C   UNL     1      81.580  62.739   8.389  1.00  0.00     0.142 A 
ATOM      7  C   UNL     1      81.689  62.251   7.083  1.00  0.00     0.098 A 
ATOM      8  C   UNL     1      80.551  62.159   6.268  1.00  0.00     0.161 A 
ATOM      9  C   UNL     1      79.300  62.556   6.762  1.00  0.00     0.158 A 
ATOM     10  C   UNL     1      79.185  63.046   8.071  1.00  0.00     0.062 A 
ATOM     11  C   UNL     1      80.321  63.138   8.887  1.00  0.00     0.022 A 
ENDROOT
BRANCH   9  12
ATOM     12  O   UNL     1      78.175  62.460   5.944  1.00  0.00    -0.504 OA
ATOM     13  H   UNL     1      77.345  63.017   6.117  1.00  0.00     0.293 HD
ENDBRANCH   9  12
BRANCH   8  14
ATOM     14  O   UNL     1      80.656  61.673   4.966  1.00  0.00    -0.504 OA
ATOM     15  H   UNL     1      81.470  61.153   4.658  1.00  0.00     0.293 HD
ENDBRANCH   8  14
TORSDOF 2
ENDMDL
MODEL 3
REMARK VINA RESULT:    -6.233      0.999      2.213
REMARK INTER + INTRA:          -6.597
REMARK INTER:                  -6.597
REMARK INTRA:                   0.000
REMARK UNBOUND:                 0.000
REMARK SMILES O=c1ccc2cc(O)c(O)cc2o1
REMARK SMILES IDX 4 1 3 2 2 3 1 4 13 5 12 6 11 7 9 8 7 9 6 10 5 11 8 12 10 14
REMARK H PARENT 8 13 10 15
REMARK Flexibility Score: inf
ROOT
ATOM      1  C   UNL     1      82.182  62.278   7.583  1.00  0.00     0.019 A 
ATOM      2  C   UNL     1      80.891  62.128   7.078  1.00  0.00     0.094 A 
ATOM      3  C   UNL     1      79.802  62.492   7.878  1.00  0.00     0.336 A 
ATOM      4  O   UNL     1      78.630  62.363   7.439  1.00  0.00    -0.246 OA
ATOM      5  O   UNL     1      79.999  62.974   9.102  1.00  0.00    -0.423 OA
ATOM      6  C   UNL     1      81.215  63.133   9.623  1.00  0.00     0.142 A 
ATOM      7  C   UNL     1      81.359  63.645  10.916  1.00  0.00     0.098 A 
ATOM      8  C   UNL     1      82.637  63.814  11.468  1.00  0.00     0.161 A 
ATOM      9  C   UNL     1      83.775  63.470  10.724  1.00  0.00     0.158 A 
ATOM     10  C   UNL     1      83.636  62.956   9.427  1.00  0.00     0.062 A 
ATOM     11  C   UNL     1      82.359  62.786   8.873  1.00  0.00     0.022 A 
ENDROOT
BRANCH   9  12
ATOM     12  O   UNL     1      85.041  63.642  11.282  1.00  0.00    -0.504 OA
ATOM     13  H   UNL     1      85.464  62.930  11.867  1.00  0.00     0.293 HD
ENDBRANCH   9  12
BRANCH   8  14
ATOM     14  O   UNL     1      82.785  64.324  12.758  1.00  0.00    -0.504 OA
ATOM     15  H   UNL     1      83.609  64.127  13.314  1.00  0.00     0.293 HD
ENDBRANCH   8  14
TORSDOF 2
ENDMDL
MODEL 4
REMARK VINA RESULT:    -6.105      1.905      3.331
REMARK INTER + INTRA:          -6.462
REMARK INTER:                  -6.462
REMARK INTRA:                   0.000
REMARK UNBOUND:                 0.000
REMARK SMILES O=c1ccc2cc(O)c(O)cc2o1
REMARK SMILES IDX 4 1 3 2 2 3 1 4 13 5 12 6 11 7 9 8 7 9 6 10 5 11 8 12 10 14
REMARK H PARENT 8 13 10 15
REMARK Flexibility Score: inf
ROOT
ATOM      1  C   UNL     1      82.702  62.209   7.653  1.00  0.00     0.019 A 
ATOM      2  C   UNL     1      82.518  61.823   6.325  1.00  0.00     0.094 A 
ATOM      3  C   UNL     1      81.253  61.969   5.746  1.00  0.00     0.336 A 
ATOM      4  O   UNL     1      81.067  61.626   4.550  1.00  0.00    -0.246 OA
ATOM      5  O   UNL     1      80.243  62.468   6.452  1.00  0.00    -0.423 OA
ATOM      6  C   UNL     1      80.376  62.849   7.722  1.00  0.00     0.142 A 
ATOM      7  C   UNL     1      79.276  63.367   8.415  1.00  0.00     0.098 A 
ATOM      8  C   UNL     1      79.412  63.769   9.751  1.00  0.00     0.161 A 
ATOM      9  C   UNL     1      80.651  63.652  10.398  1.00  0.00     0.158 A 
ATOM     10  C   UNL     1      81.756  63.133   9.708  1.00  0.00     0.062 A 
ATOM     11  C   UNL     1      81.623  62.731   8.372  1.00  0.00     0.022 A 
ENDROOT
BRANCH   9  12
ATOM     12  O   UNL     1      80.776  64.055  11.727  1.00  0.00    -0.504 OA
ATOM     13  H   UNL     1      81.150  64.964  11.972  1.00  0.00     0.293 HD
ENDBRANCH   9  12
BRANCH   8  14
ATOM     14  O   UNL     1      78.318  64.286  10.445  1.00  0.00    -0.504 OA
ATOM     15  H   UNL     1      77.429  64.448   9.987  1.00  0.00     0.293 HD
ENDBRANCH   8  14
TORSDOF 2
ENDMDL
MODEL 5
REMARK VINA RESULT:    -5.996      2.025      3.253
REMARK INTER + INTRA:          -6.346
REMARK INTER:                  -6.346
REMARK INTRA:                   0.000
REMARK UNBOUND:                 0.000
REMARK SMILES O=c1ccc2cc(O)c(O)cc2o1
REMARK SMILES IDX 4 1 3 2 2 3 1 4 13 5 12 6 11 7 9 8 7 9 6 10 5 11 8 12 10 14
REMARK H PARENT 8 13 10 15
REMARK Flexibility Score: inf
ROOT
ATOM      1  C   UNL     1      80.652  62.443   6.506  1.00  0.00     0.019 A 
ATOM      2  C   UNL     1      81.818  61.898   5.969  1.00  0.00     0.094 A 
ATOM      3  C   UNL     1      82.951  61.785   6.783  1.00  0.00     0.336 A 
ATOM      4  O   UNL     1      84.012  61.296   6.317  1.00  0.00    -0.246 OA
ATOM      5  O   UNL     1      82.913  62.193   8.049  1.00  0.00    -0.423 OA
ATOM      6  C   UNL     1      81.821  62.719   8.600  1.00  0.00     0.142 A 
ATOM      7  C   UNL     1      81.841  63.131   9.936  1.00  0.00     0.098 A 
ATOM      8  C   UNL     1      80.693  63.685  10.521  1.00  0.00     0.161 A 
ATOM      9  C   UNL     1      79.520  63.829   9.765  1.00  0.00     0.158 A 
ATOM     10  C   UNL     1      79.494  63.418   8.425  1.00  0.00     0.062 A 
ATOM     11  C   UNL     1      80.640  62.863   7.839  1.00  0.00     0.022 A 
ENDROOT
BRANCH   9  12
ATOM     12  O   UNL     1      78.384  64.381  10.355  1.00  0.00    -0.504 OA
ATOM     13  H   UNL     1      77.632  64.768   9.796  1.00  0.00     0.293 HD
ENDBRANCH   9  12
BRANCH   8  14
ATOM     14  O   UNL     1      80.710  64.096  11.853  1.00  0.00    -0.504 OA
ATOM     15  H   UNL     1      79.862  64.381  12.330  1.00  0.00     0.293 HD
ENDBRANCH   8  14
TORSDOF 2
ENDMDL
MODEL 6
REMARK VINA RESULT:    -5.984      1.639      5.205
REMARK INTER + INTRA:          -6.334
REMARK INTER:                  -6.334
REMARK INTRA:                   0.000
REMARK UNBOUND:                 0.000
REMARK SMILES O=c1ccc2cc(O)c(O)cc2o1
REMARK SMILES IDX 4 1 3 2 2 3 1 4 13 5 12 6 11 7 9 8 7 9 6 10 5 11 8 12 10 14
REMARK H PARENT 8 13 10 15
REMARK Flexibility Score: inf
ROOT
ATOM      1  C   UNL     1      82.930  62.777   8.974  1.00  0.00     0.019 A 
ATOM      2  C   UNL     1      82.866  63.236  10.289  1.00  0.00     0.094 A 
ATOM      3  C   UNL     1      81.620  63.571  10.831  1.00  0.00     0.336 A 
ATOM      4  O   UNL     1      81.541  63.987  12.015  1.00  0.00    -0.246 OA
ATOM      5  O   UNL     1      80.515  63.451  10.099  1.00  0.00    -0.423 OA
ATOM      6  C   UNL     1      80.532  63.017   8.840  1.00  0.00     0.142 A 
ATOM      7  C   UNL     1      79.337  62.912   8.121  1.00  0.00     0.098 A 
ATOM      8  C   UNL     1      79.351  62.455   6.795  1.00  0.00     0.161 A 
ATOM      9  C   UNL     1      80.564  62.103   6.186  1.00  0.00     0.158 A 
ATOM     10  C   UNL     1      81.765  62.205   6.903  1.00  0.00     0.062 A 
ATOM     11  C   UNL     1      81.753  62.662   8.229  1.00  0.00     0.022 A 
ENDROOT
BRANCH   9  12
ATOM     12  O   UNL     1      80.567  61.650   4.868  1.00  0.00    -0.504 OA
ATOM     13  H   UNL     1      79.786  61.823   4.246  1.00  0.00     0.293 HD
ENDBRANCH   9  12
BRANCH   8  14
ATOM     14  O   UNL     1      78.162  62.350   6.075  1.00  0.00    -0.504 OA
ATOM     15  H   UNL     1      77.274  62.194   6.538  1.00  0.00     0.293 HD
ENDBRANCH   8  14
TORSDOF 2
ENDMDL
MODEL 7
REMARK VINA RESULT:    -5.555      1.142      1.428
REMARK INTER + INTRA:          -5.880
REMARK INTER:                  -5.880
REMARK INTRA:                   0.000
REMARK UNBOUND:                 0.000
REMARK SMILES O=c1ccc2cc(O)c(O)cc2o1
REMARK SMILES IDX 4 1 3 2 2 3 1 4 13 5 12 6 11 7 9 8 7 9 6 10 5 11 8 12 10 14
REMARK H PARENT 8 13 10 15
REMARK Flexibility Score: inf
ROOT
ATOM      1  C   UNL     1      79.421  62.951   7.707  1.00  0.00     0.019 A 
ATOM      2  C   UNL     1      79.615  62.392   6.444  1.00  0.00     0.094 A 
ATOM      3  C   UNL     1      80.898  61.970   6.079  1.00  0.00     0.336 A 
ATOM      4  O   UNL     1      81.094  61.464   4.944  1.00  0.00    -0.246 OA
ATOM      5  O   UNL     1      81.916  62.102   6.926  1.00  0.00    -0.423 OA
ATOM      6  C   UNL     1      81.774  62.631   8.140  1.00  0.00     0.142 A 
ATOM      7  C   UNL     1      82.882  62.744   8.987  1.00  0.00     0.098 A 
ATOM      8  C   UNL     1      82.736  63.300  10.266  1.00  0.00     0.161 A 
ATOM      9  C   UNL     1      81.479  63.744  10.700  1.00  0.00     0.158 A 
ATOM     10  C   UNL     1      80.365  63.633   9.855  1.00  0.00     0.062 A 
ATOM     11  C   UNL     1      80.508  63.078   8.576  1.00  0.00     0.022 A 
ENDROOT
BRANCH   9  12
ATOM     12  O   UNL     1      81.345  64.295  11.974  1.00  0.00    -0.504 OA
ATOM     13  H   UNL     1      80.715  63.896  12.660  1.00  0.00     0.293 HD
ENDBRANCH   9  12
BRANCH   8  14
ATOM     14  O   UNL     1      83.838  63.414  11.113  1.00  0.00    -0.504 OA
ATOM     15  H   UNL     1      83.728  63.520  12.114  1.00  0.00     0.293 HD
ENDBRANCH   8  14
TORSDOF 2
ENDMDL
MODEL 8
REMARK VINA RESULT:    -5.394      2.500      4.401
REMARK INTER + INTRA:          -5.709
REMARK INTER:                  -5.709
REMARK INTRA:                   0.000
REMARK UNBOUND:                 0.000
REMARK SMILES O=c1ccc2cc(O)c(O)cc2o1
REMARK SMILES IDX 4 1 3 2 2 3 1 4 13 5 12 6 11 7 9 8 7 9 6 10 5 11 8 12 10 14
REMARK H PARENT 8 13 10 15
REMARK Flexibility Score: inf
ROOT
ATOM      1  C   UNL     1      81.446  63.355  10.260  1.00  0.00     0.019 A 
ATOM      2  C   UNL     1      80.284  63.766  10.911  1.00  0.00     0.094 A 
ATOM      3  C   UNL     1      79.066  63.711  10.224  1.00  0.00     0.336 A 
ATOM      4  O   UNL     1      78.006  64.078  10.794  1.00  0.00    -0.246 OA
ATOM      5  O   UNL     1      79.021  63.272   8.969  1.00  0.00    -0.423 OA
ATOM      6  C   UNL     1      80.107  62.871   8.311  1.00  0.00     0.142 A 
ATOM      7  C   UNL     1      79.998  62.420   6.991  1.00  0.00     0.098 A 
ATOM      8  C   UNL     1      81.139  61.996   6.295  1.00  0.00     0.161 A 
ATOM      9  C   UNL     1      82.394  62.024   6.920  1.00  0.00     0.158 A 
ATOM     10  C   UNL     1      82.509  62.475   8.243  1.00  0.00     0.062 A 
ATOM     11  C   UNL     1      81.370  62.899   8.941  1.00  0.00     0.022 A 
ENDROOT
BRANCH   9  12
ATOM     12  O   UNL     1      83.522  61.601   6.219  1.00  0.00    -0.504 OA
ATOM     13  H   UNL     1      83.879  60.656   6.310  1.00  0.00     0.293 HD
ENDBRANCH   9  12
BRANCH   8  14
ATOM     14  O   UNL     1      81.034  61.546   4.979  1.00  0.00    -0.504 OA
ATOM     15  H   UNL     1      80.553  60.684   4.751  1.00  0.00     0.293 HD
ENDBRANCH   8  14
TORSDOF 2
ENDMDL
