MODEL 1
REMARK VINA RESULT:    -2.451      0.000      0.000
REMARK INTER + INTRA:          -9.739
REMARK INTER:                  -6.177
REMARK INTRA:                  -3.561
REMARK UNBOUND:                -3.561
REMARK SMILES CCCCCCCCCCCCCCCCCCCCCCCCCCCC(=O)[O-]
REMARK SMILES IDX 15 1 16 2 17 3 18 4 19 5 20 6 21 7 22 8 23 9 24 10 25 11
REMARK SMILES IDX 26 12 27 13 28 14 29 15 30 16 14 17 13 18 12 19 11 20 10 21
REMARK SMILES IDX 9 22 8 23 7 24 6 25 5 26 4 27 3 28 2 29 1 30
REMARK H PARENT
REMARK Flexibility Score: inf
ROOT
ATOM      1  C   UNL     1     -28.744  67.006  83.159  1.00  0.00     0.000 C 
ENDROOT
BRANCH   1   2
ATOM      2  C   UNL     1     -27.758  67.708  84.110  1.00  0.00     0.000 C 
BRANCH   2   3
ATOM      3  C   UNL     1     -27.030  66.729  85.047  1.00  0.00     0.000 C 
BRANCH   3   4
ATOM      4  C   UNL     1     -27.901  65.518  85.413  1.00  0.00     0.000 C 
BRANCH   4   5
ATOM      5  C   UNL     1     -28.700  65.736  86.711  1.00  0.00     0.000 C 
BRANCH   5   6
ATOM      6  C   UNL     1     -30.018  64.945  86.726  1.00  0.00     0.000 C 
BRANCH   6   7
ATOM      7  C   UNL     1     -30.778  65.046  85.392  1.00  0.00     0.000 C 
BRANCH   7   8
ATOM      8  C   UNL     1     -31.515  66.393  85.234  1.00  0.00     0.000 C 
BRANCH   8   9
ATOM      9  C   UNL     1     -32.203  66.879  86.521  1.00  0.00     0.000 C 
BRANCH   9  10
ATOM     10  C   UNL     1     -31.724  68.268  86.972  1.00  0.00     0.000 C 
BRANCH  10  11
ATOM     11  C   UNL     1     -30.704  68.876  85.988  1.00  0.00     0.000 C 
BRANCH  11  12
ATOM     12  C   UNL     1     -29.408  69.371  86.658  1.00  0.00     0.006 C 
BRANCH  12  13
ATOM     13  C   UNL     1     -29.134  68.743  88.039  1.00  0.00     0.053 C 
BRANCH  13  14
ATOM     14  C   UNL     1     -27.701  68.874  88.458  1.00  0.00     0.041 C 
ATOM     15  O   UNL     1     -26.804  69.080  87.598  1.00  0.00    -0.550 OA
ATOM     16  O   UNL     1     -27.346  68.725  89.792  1.00  0.00    -0.550 OA
ENDBRANCH  13  14
ENDBRANCH  12  13
ENDBRANCH  11  12
ENDBRANCH  10  11
ENDBRANCH   9  10
ENDBRANCH   8   9
ENDBRANCH   7   8
ENDBRANCH   6   7
ENDBRANCH   5   6
ENDBRANCH   4   5
ENDBRANCH   3   4
ENDBRANCH   2   3
ENDBRANCH   1   2
BRANCH   1  17
ATOM     17  C   UNL     1     -28.147  66.684  81.772  1.00  0.00     0.000 C 
BRANCH  17  18
ATOM     18  C   UNL     1     -28.207  65.182  81.450  1.00  0.00     0.000 C 
BRANCH  18  19
ATOM     19  C   UNL     1     -29.630  64.633  81.636  1.00  0.00     0.000 C 
BRANCH  19  20
ATOM     20  C   UNL     1     -29.656  63.282  82.369  1.00  0.00     0.000 C 
BRANCH  20  21
ATOM     21  C   UNL     1     -28.820  63.290  83.661  1.00  0.00     0.000 C 
BRANCH  21  22
ATOM     22  C   UNL     1     -28.640  61.881  84.251  1.00  0.00    -0.000 C 
BRANCH  22  23
ATOM     23  C   UNL     1     -27.169  61.426  84.255  1.00  0.00    -0.000 C 
BRANCH  23  24
ATOM     24  C   UNL     1     -27.011  59.934  83.919  1.00  0.00    -0.000 C 
BRANCH  24  25
ATOM     25  C   UNL     1     -27.733  59.536  82.623  1.00  0.00    -0.000 C 
BRANCH  25  26
ATOM     26  C   UNL     1     -27.143  58.242  82.040  1.00  0.00    -0.000 C 
BRANCH  26  27
ATOM     27  C   UNL     1     -27.991  57.003  82.373  1.00  0.00    -0.000 C 
BRANCH  27  28
ATOM     28  C   UNL     1     -27.166  55.875  83.016  1.00  0.00    -0.000 C 
BRANCH  28  29
ATOM     29  C   UNL     1     -26.298  56.375  84.182  1.00  0.00    -0.003 C 
ATOM     30  C   UNL     1     -24.804  56.160  83.944  1.00  0.00     0.004 C 
ENDBRANCH  28  29
ENDBRANCH  27  28
ENDBRANCH  26  27
ENDBRANCH  25  26
ENDBRANCH  24  25
ENDBRANCH  23  24
ENDBRANCH  22  23
ENDBRANCH  21  22
ENDBRANCH  20  21
ENDBRANCH  19  20
ENDBRANCH  18  19
ENDBRANCH  17  18
ENDBRANCH   1  17
TORSDOF 26
ENDMDL
MODEL 2
REMARK VINA RESULT:    -1.882      2.551      5.066
REMARK INTER + INTRA:          -8.304
REMARK INTER:                  -5.235
REMARK INTRA:                  -3.069
REMARK UNBOUND:                -3.561
REMARK SMILES CCCCCCCCCCCCCCCCCCCCCCCCCCCC(=O)[O-]
REMARK SMILES IDX 15 1 16 2 17 3 18 4 19 5 20 6 21 7 22 8 23 9 24 10 25 11
REMARK SMILES IDX 26 12 27 13 28 14 29 15 30 16 14 17 13 18 12 19 11 20 10 21
REMARK SMILES IDX 9 22 8 23 7 24 6 25 5 26 4 27 3 28 2 29 1 30
REMARK H PARENT
REMARK Flexibility Score: inf
ROOT
ATOM      1  C   UNL     1     -31.610  67.782  86.882  1.00  0.00     0.000 C 
ENDROOT
BRANCH   1   2
ATOM      2  C   UNL     1     -31.166  69.094  86.209  1.00  0.00     0.000 C 
BRANCH   2   3
ATOM      3  C   UNL     1     -29.637  69.251  86.158  1.00  0.00     0.000 C 
BRANCH   3   4
ATOM      4  C   UNL     1     -28.975  68.958  87.513  1.00  0.00     0.000 C 
BRANCH   4   5
ATOM      5  C   UNL     1     -27.574  68.337  87.363  1.00  0.00     0.000 C 
BRANCH   5   6
ATOM      6  C   UNL     1     -26.773  68.974  86.215  1.00  0.00     0.000 C 
BRANCH   6   7
ATOM      7  C   UNL     1     -26.414  67.959  85.116  1.00  0.00     0.000 C 
BRANCH   7   8
ATOM      8  C   UNL     1     -27.010  66.562  85.388  1.00  0.00     0.000 C 
BRANCH   8   9
ATOM      9  C   UNL     1     -27.862  66.014  84.231  1.00  0.00     0.000 C 
BRANCH   9  10
ATOM     10  C   UNL     1     -28.438  67.118  83.331  1.00  0.00     0.000 C 
BRANCH  10  11
ATOM     11  C   UNL     1     -28.203  66.825  81.835  1.00  0.00     0.000 C 
BRANCH  11  12
ATOM     12  C   UNL     1     -27.965  65.336  81.520  1.00  0.00     0.006 C 
BRANCH  12  13
ATOM     13  C   UNL     1     -28.942  64.747  80.485  1.00  0.00     0.053 C 
BRANCH  13  14
ATOM     14  C   UNL     1     -30.137  64.103  81.119  1.00  0.00     0.041 C 
ATOM     15  O   UNL     1     -30.037  63.552  82.247  1.00  0.00    -0.550 OA
ATOM     16  O   UNL     1     -31.353  64.070  80.450  1.00  0.00    -0.550 OA
ENDBRANCH  13  14
ENDBRANCH  12  13
ENDBRANCH  11  12
ENDBRANCH  10  11
ENDBRANCH   9  10
ENDBRANCH   8   9
ENDBRANCH   7   8
ENDBRANCH   6   7
ENDBRANCH   5   6
ENDBRANCH   4   5
ENDBRANCH   3   4
ENDBRANCH   2   3
ENDBRANCH   1   2
BRANCH   1  17
ATOM     17  C   UNL     1     -32.198  66.748  85.897  1.00  0.00     0.000 C 
BRANCH  17  18
ATOM     18  C   UNL     1     -31.166  65.687  85.486  1.00  0.00     0.000 C 
BRANCH  18  19
ATOM     19  C   UNL     1     -30.051  65.564  86.537  1.00  0.00     0.000 C 
BRANCH  19  20
ATOM     20  C   UNL     1     -29.758  64.106  86.928  1.00  0.00     0.000 C 
BRANCH  20  21
ATOM     21  C   UNL     1     -30.565  63.094  86.095  1.00  0.00     0.000 C 
BRANCH  21  22
ATOM     22  C   UNL     1     -29.670  62.242  85.179  1.00  0.00    -0.000 C 
BRANCH  22  23
ATOM     23  C   UNL     1     -28.397  62.986  84.740  1.00  0.00    -0.000 C 
BRANCH  23  24
ATOM     24  C   UNL     1     -27.375  62.058  84.061  1.00  0.00    -0.000 C 
BRANCH  24  25
ATOM     25  C   UNL     1     -27.758  60.574  84.164  1.00  0.00    -0.000 C 
BRANCH  25  26
ATOM     26  C   UNL     1     -27.635  59.878  82.800  1.00  0.00    -0.000 C 
BRANCH  26  27
ATOM     27  C   UNL     1     -26.713  58.648  82.845  1.00  0.00    -0.000 C 
BRANCH  27  28
ATOM     28  C   UNL     1     -27.462  57.335  82.559  1.00  0.00    -0.000 C 
BRANCH  28  29
ATOM     29  C   UNL     1     -26.748  56.111  83.151  1.00  0.00    -0.003 C 
ATOM     30  C   UNL     1     -25.569  56.488  84.049  1.00  0.00     0.004 C 
ENDBRANCH  28  29
ENDBRANCH  27  28
ENDBRANCH  26  27
ENDBRANCH  25  26
ENDBRANCH  24  25
ENDBRANCH  23  24
ENDBRANCH  22  23
ENDBRANCH  21  22
ENDBRANCH  20  21
ENDBRANCH  19  20
ENDBRANCH  18  19
ENDBRANCH  17  18
ENDBRANCH   1  17
TORSDOF 26
ENDMDL
MODEL 3
REMARK VINA RESULT:    -1.468      1.683      2.734
REMARK INTER + INTRA:          -7.261
REMARK INTER:                  -4.673
REMARK INTRA:                  -2.588
REMARK UNBOUND:                -3.561
REMARK SMILES CCCCCCCCCCCCCCCCCCCCCCCCCCCC(=O)[O-]
REMARK SMILES IDX 15 1 16 2 17 3 18 4 19 5 20 6 21 7 22 8 23 9 24 10 25 11
REMARK SMILES IDX 26 12 27 13 28 14 29 15 30 16 14 17 13 18 12 19 11 20 10 21
REMARK SMILES IDX 9 22 8 23 7 24 6 25 5 26 4 27 3 28 2 29 1 30
REMARK H PARENT
REMARK Flexibility Score: inf
ROOT
ATOM      1  C   UNL     1     -28.924  67.349  82.927  1.00  0.00     0.000 C 
ENDROOT
BRANCH   1   2
ATOM      2  C   UNL     1     -30.289  66.727  83.272  1.00  0.00     0.000 C 
BRANCH   2   3
ATOM      3  C   UNL     1     -30.648  66.862  84.761  1.00  0.00     0.000 C 
BRANCH   3   4
ATOM      4  C   UNL     1     -31.251  65.570  85.334  1.00  0.00     0.000 C 
BRANCH   4   5
ATOM      5  C   UNL     1     -30.183  64.640  85.941  1.00  0.00     0.000 C 
BRANCH   5   6
ATOM      6  C   UNL     1     -29.112  65.415  86.726  1.00  0.00     0.000 C 
BRANCH   6   7
ATOM      7  C   UNL     1     -27.695  65.179  86.176  1.00  0.00     0.000 C 
BRANCH   7   8
ATOM      8  C   UNL     1     -27.315  66.191  85.075  1.00  0.00     0.000 C 
BRANCH   8   9
ATOM      9  C   UNL     1     -26.429  67.346  85.572  1.00  0.00     0.000 C 
BRANCH   9  10
ATOM     10  C   UNL     1     -27.222  68.627  85.873  1.00  0.00     0.000 C 
BRANCH  10  11
ATOM     11  C   UNL     1     -27.868  68.592  87.274  1.00  0.00     0.000 C 
BRANCH  11  12
ATOM     12  C   UNL     1     -29.375  68.911  87.274  1.00  0.00     0.006 C 
BRANCH  12  13
ATOM     13  C   UNL     1     -29.740  70.226  86.558  1.00  0.00     0.053 C 
BRANCH  13  14
ATOM     14  C   UNL     1     -31.187  70.292  86.173  1.00  0.00     0.041 C 
ATOM     15  O   UNL     1     -31.621  71.265  85.502  1.00  0.00    -0.550 OA
ATOM     16  O   UNL     1     -32.068  69.303  86.589  1.00  0.00    -0.550 OA
ENDBRANCH  13  14
ENDBRANCH  12  13
ENDBRANCH  11  12
ENDBRANCH  10  11
ENDBRANCH   9  10
ENDBRANCH   8   9
ENDBRANCH   7   8
ENDBRANCH   6   7
ENDBRANCH   5   6
ENDBRANCH   4   5
ENDBRANCH   3   4
ENDBRANCH   2   3
ENDBRANCH   1   2
BRANCH   1  17
ATOM     17  C   UNL     1     -28.285  66.772  81.645  1.00  0.00     0.000 C 
BRANCH  17  18
ATOM     18  C   UNL     1     -28.087  65.250  81.731  1.00  0.00     0.000 C 
BRANCH  18  19
ATOM     19  C   UNL     1     -29.385  64.503  81.382  1.00  0.00     0.000 C 
BRANCH  19  20
ATOM     20  C   UNL     1     -29.739  63.414  82.407  1.00  0.00     0.000 C 
BRANCH  20  21
ATOM     21  C   UNL     1     -28.681  63.274  83.515  1.00  0.00     0.000 C 
BRANCH  21  22
ATOM     22  C   UNL     1     -28.586  61.838  84.057  1.00  0.00    -0.000 C 
BRANCH  22  23
ATOM     23  C   UNL     1     -27.132  61.350  84.186  1.00  0.00    -0.000 C 
BRANCH  23  24
ATOM     24  C   UNL     1     -26.988  59.843  83.913  1.00  0.00    -0.000 C 
BRANCH  24  25
ATOM     25  C   UNL     1     -27.706  59.399  82.630  1.00  0.00    -0.000 C 
BRANCH  25  26
ATOM     26  C   UNL     1     -27.043  58.149  82.032  1.00  0.00    -0.000 C 
BRANCH  26  27
ATOM     27  C   UNL     1     -27.803  56.856  82.371  1.00  0.00    -0.000 C 
BRANCH  27  28
ATOM     28  C   UNL     1     -27.088  56.010  83.440  1.00  0.00    -0.000 C 
BRANCH  28  29
ATOM     29  C   UNL     1     -25.560  56.153  83.374  1.00  0.00    -0.003 C 
ATOM     30  C   UNL     1     -24.954  56.654  84.684  1.00  0.00     0.004 C 
ENDBRANCH  28  29
ENDBRANCH  27  28
ENDBRANCH  26  27
ENDBRANCH  25  26
ENDBRANCH  24  25
ENDBRANCH  23  24
ENDBRANCH  22  23
ENDBRANCH  21  22
ENDBRANCH  20  21
ENDBRANCH  19  20
ENDBRANCH  18  19
ENDBRANCH  17  18
ENDBRANCH   1  17
TORSDOF 26
ENDMDL
MODEL 4
REMARK VINA RESULT:    -1.423      3.484      8.675
REMARK INTER + INTRA:          -7.148
REMARK INTER:                  -4.003
REMARK INTRA:                  -3.145
REMARK UNBOUND:                -3.561
REMARK SMILES CCCCCCCCCCCCCCCCCCCCCCCCCCCC(=O)[O-]
REMARK SMILES IDX 15 1 16 2 17 3 18 4 19 5 20 6 21 7 22 8 23 9 24 10 25 11
REMARK SMILES IDX 26 12 27 13 28 14 29 15 30 16 14 17 13 18 12 19 11 20 10 21
REMARK SMILES IDX 9 22 8 23 7 24 6 25 5 26 4 27 3 28 2 29 1 30
REMARK H PARENT
REMARK Flexibility Score: inf
ROOT
ATOM      1  C   UNL     1     -27.354  66.611  84.433  1.00  0.00     0.000 C 
ENDROOT
BRANCH   1   2
ATOM      2  C   UNL     1     -28.342  67.357  83.518  1.00  0.00     0.000 C 
BRANCH   2   3
ATOM      3  C   UNL     1     -28.162  67.008  82.032  1.00  0.00     0.000 C 
BRANCH   3   4
ATOM      4  C   UNL     1     -28.129  65.490  81.791  1.00  0.00     0.000 C 
BRANCH   4   5
ATOM      5  C   UNL     1     -29.536  64.891  81.611  1.00  0.00     0.000 C 
BRANCH   5   6
ATOM      6  C   UNL     1     -29.754  63.643  82.482  1.00  0.00     0.000 C 
BRANCH   6   7
ATOM      7  C   UNL     1     -28.593  63.401  83.462  1.00  0.00     0.000 C 
BRANCH   7   8
ATOM      8  C   UNL     1     -28.491  61.925  83.900  1.00  0.00     0.000 C 
BRANCH   8   9
ATOM      9  C   UNL     1     -27.067  61.486  84.281  1.00  0.00     0.000 C 
BRANCH   9  10
ATOM     10  C   UNL     1     -26.840  59.975  84.125  1.00  0.00     0.000 C 
BRANCH  10  11
ATOM     11  C   UNL     1     -27.590  59.400  82.905  1.00  0.00     0.000 C 
BRANCH  11  12
ATOM     12  C   UNL     1     -26.865  58.224  82.224  1.00  0.00     0.006 C 
BRANCH  12  13
ATOM     13  C   UNL     1     -27.000  56.883  82.972  1.00  0.00     0.053 C 
BRANCH  13  14
ATOM     14  C   UNL     1     -25.898  56.662  83.964  1.00  0.00     0.041 C 
ATOM     15  O   UNL     1     -24.757  56.301  83.574  1.00  0.00    -0.550 OA
ATOM     16  O   UNL     1     -26.140  56.809  85.323  1.00  0.00    -0.550 OA
ENDBRANCH  13  14
ENDBRANCH  12  13
ENDBRANCH  11  12
ENDBRANCH  10  11
ENDBRANCH   9  10
ENDBRANCH   8   9
ENDBRANCH   7   8
ENDBRANCH   6   7
ENDBRANCH   5   6
ENDBRANCH   4   5
ENDBRANCH   3   4
ENDBRANCH   2   3
ENDBRANCH   1   2
BRANCH   1  17
ATOM     17  C   UNL     1     -26.274  67.523  85.055  1.00  0.00     0.000 C 
BRANCH  17  18
ATOM     18  C   UNL     1     -26.886  68.692  85.843  1.00  0.00     0.000 C 
BRANCH  18  19
ATOM     19  C   UNL     1     -27.585  68.194  87.118  1.00  0.00     0.000 C 
BRANCH  19  20
ATOM     20  C   UNL     1     -29.076  68.565  87.164  1.00  0.00     0.000 C 
BRANCH  20  21
ATOM     21  C   UNL     1     -29.457  69.627  86.118  1.00  0.00     0.000 C 
BRANCH  21  22
ATOM     22  C   UNL     1     -30.736  70.392  86.497  1.00  0.00    -0.000 C 
BRANCH  22  23
ATOM     23  C   UNL     1     -32.009  69.550  86.298  1.00  0.00    -0.000 C 
BRANCH  23  24
ATOM     24  C   UNL     1     -32.046  68.311  87.208  1.00  0.00    -0.000 C 
BRANCH  24  25
ATOM     25  C   UNL     1     -32.423  67.028  86.451  1.00  0.00    -0.000 C 
BRANCH  25  26
ATOM     26  C   UNL     1     -31.524  66.830  85.221  1.00  0.00    -0.000 C 
BRANCH  26  27
ATOM     27  C   UNL     1     -30.818  65.463  85.217  1.00  0.00    -0.000 C 
BRANCH  27  28
ATOM     28  C   UNL     1     -29.814  65.311  86.373  1.00  0.00    -0.000 C 
BRANCH  28  29
ATOM     29  C   UNL     1     -29.824  63.899  86.976  1.00  0.00    -0.003 C 
ATOM     30  C   UNL     1     -30.743  62.938  86.222  1.00  0.00     0.004 C 
ENDBRANCH  28  29
ENDBRANCH  27  28
ENDBRANCH  26  27
ENDBRANCH  25  26
ENDBRANCH  24  25
ENDBRANCH  23  24
ENDBRANCH  22  23
ENDBRANCH  21  22
ENDBRANCH  20  21
ENDBRANCH  19  20
ENDBRANCH  18  19
ENDBRANCH  17  18
ENDBRANCH   1  17
TORSDOF 26
ENDMDL
MODEL 5
REMARK VINA RESULT:    -1.148      4.012      7.953
REMARK INTER + INTRA:          -6.454
REMARK INTER:                  -3.314
REMARK INTRA:                  -3.140
REMARK UNBOUND:                -3.561
REMARK SMILES CCCCCCCCCCCCCCCCCCCCCCCCCCCC(=O)[O-]
REMARK SMILES IDX 15 1 16 2 17 3 18 4 19 5 20 6 21 7 22 8 23 9 24 10 25 11
REMARK SMILES IDX 26 12 27 13 28 14 29 15 30 16 14 17 13 18 12 19 11 20 10 21
REMARK SMILES IDX 9 22 8 23 7 24 6 25 5 26 4 27 3 28 2 29 1 30
REMARK H PARENT
REMARK Flexibility Score: inf
ROOT
ATOM      1  C   UNL     1     -27.797  68.261  87.353  1.00  0.00     0.000 C 
ENDROOT
BRANCH   1   2
ATOM      2  C   UNL     1     -29.212  68.846  87.515  1.00  0.00     0.000 C 
BRANCH   2   3
ATOM      3  C   UNL     1     -29.864  69.215  86.172  1.00  0.00     0.000 C 
BRANCH   3   4
ATOM      4  C   UNL     1     -31.392  69.064  86.206  1.00  0.00     0.000 C 
BRANCH   4   5
ATOM      5  C   UNL     1     -31.847  67.854  87.044  1.00  0.00     0.000 C 
BRANCH   5   6
ATOM      6  C   UNL     1     -32.272  66.664  86.167  1.00  0.00     0.000 C 
BRANCH   6   7
ATOM      7  C   UNL     1     -31.078  66.002  85.457  1.00  0.00     0.000 C 
BRANCH   7   8
ATOM      8  C   UNL     1     -30.060  65.404  86.451  1.00  0.00     0.000 C 
BRANCH   8   9
ATOM      9  C   UNL     1     -30.272  63.908  86.734  1.00  0.00     0.000 C 
BRANCH   9  10
ATOM     10  C   UNL     1     -30.274  63.048  85.460  1.00  0.00     0.000 C 
BRANCH  10  11
ATOM     11  C   UNL     1     -28.919  63.103  84.724  1.00  0.00     0.000 C 
BRANCH  11  12
ATOM     12  C   UNL     1     -29.043  63.136  83.189  1.00  0.00     0.006 C 
BRANCH  12  13
ATOM     13  C   UNL     1     -29.983  64.235  82.657  1.00  0.00     0.053 C 
BRANCH  13  14
ATOM     14  C   UNL     1     -30.111  64.213  81.164  1.00  0.00     0.041 C 
ATOM     15  O   UNL     1     -29.144  64.565  80.439  1.00  0.00    -0.550 OA
ATOM     16  O   UNL     1     -31.311  63.845  80.570  1.00  0.00    -0.550 OA
ENDBRANCH  13  14
ENDBRANCH  12  13
ENDBRANCH  11  12
ENDBRANCH  10  11
ENDBRANCH   9  10
ENDBRANCH   8   9
ENDBRANCH   7   8
ENDBRANCH   6   7
ENDBRANCH   5   6
ENDBRANCH   4   5
ENDBRANCH   3   4
ENDBRANCH   2   3
ENDBRANCH   1   2
BRANCH   1  17
ATOM     17  C   UNL     1     -26.919  69.030  86.342  1.00  0.00     0.000 C 
BRANCH  17  18
ATOM     18  C   UNL     1     -26.357  68.112  85.246  1.00  0.00     0.000 C 
BRANCH  18  19
ATOM     19  C   UNL     1     -26.927  66.690  85.370  1.00  0.00     0.000 C 
BRANCH  19  20
ATOM     20  C   UNL     1     -27.669  66.233  84.104  1.00  0.00     0.000 C 
BRANCH  20  21
ATOM     21  C   UNL     1     -28.404  67.385  83.398  1.00  0.00     0.000 C 
BRANCH  21  22
ATOM     22  C   UNL     1     -28.166  67.389  81.878  1.00  0.00    -0.000 C 
BRANCH  22  23
ATOM     23  C   UNL     1     -26.673  67.299  81.514  1.00  0.00    -0.000 C 
BRANCH  23  24
ATOM     24  C   UNL     1     -26.201  68.485  80.657  1.00  0.00    -0.000 C 
BRANCH  24  25
ATOM     25  C   UNL     1     -24.672  68.621  80.619  1.00  0.00    -0.000 C 
BRANCH  25  26
ATOM     26  C   UNL     1     -24.235  69.635  79.551  1.00  0.00    -0.000 C 
BRANCH  26  27
ATOM     27  C   UNL     1     -23.030  70.481  79.996  1.00  0.00    -0.000 C 
BRANCH  27  28
ATOM     28  C   UNL     1     -22.760  70.380  81.507  1.00  0.00    -0.000 C 
BRANCH  28  29
ATOM     29  C   UNL     1     -22.025  69.085  81.886  1.00  0.00    -0.003 C 
ATOM     30  C   UNL     1     -20.897  68.737  80.914  1.00  0.00     0.004 C 
ENDBRANCH  28  29
ENDBRANCH  27  28
ENDBRANCH  26  27
ENDBRANCH  25  26
ENDBRANCH  24  25
ENDBRANCH  23  24
ENDBRANCH  22  23
ENDBRANCH  21  22
ENDBRANCH  20  21
ENDBRANCH  19  20
ENDBRANCH  18  19
ENDBRANCH  17  18
ENDBRANCH   1  17
TORSDOF 26
ENDMDL
MODEL 6
REMARK VINA RESULT:    -1.132      0.896      2.538
REMARK INTER + INTRA:          -6.414
REMARK INTER:                  -3.726
REMARK INTRA:                  -2.689
REMARK UNBOUND:                -3.561
REMARK SMILES CCCCCCCCCCCCCCCCCCCCCCCCCCCC(=O)[O-]
REMARK SMILES IDX 15 1 16 2 17 3 18 4 19 5 20 6 21 7 22 8 23 9 24 10 25 11
REMARK SMILES IDX 26 12 27 13 28 14 29 15 30 16 14 17 13 18 12 19 11 20 10 21
REMARK SMILES IDX 9 22 8 23 7 24 6 25 5 26 4 27 3 28 2 29 1 30
REMARK H PARENT
REMARK Flexibility Score: inf
ROOT
ATOM      1  C   UNL     1     -28.074  67.562  84.119  1.00  0.00     0.000 C 
ENDROOT
BRANCH   1   2
ATOM      2  C   UNL     1     -28.302  67.379  82.607  1.00  0.00     0.000 C 
BRANCH   2   3
ATOM      3  C   UNL     1     -27.919  65.974  82.110  1.00  0.00     0.000 C 
BRANCH   3   4
ATOM      4  C   UNL     1     -29.008  64.933  82.414  1.00  0.00     0.000 C 
BRANCH   4   5
ATOM      5  C   UNL     1     -30.427  65.529  82.355  1.00  0.00     0.000 C 
BRANCH   5   6
ATOM      6  C   UNL     1     -31.182  65.371  83.685  1.00  0.00     0.000 C 
BRANCH   6   7
ATOM      7  C   UNL     1     -31.292  66.697  84.458  1.00  0.00     0.000 C 
BRANCH   7   8
ATOM      8  C   UNL     1     -32.193  66.578  85.706  1.00  0.00     0.000 C 
BRANCH   8   9
ATOM      9  C   UNL     1     -31.766  67.487  86.870  1.00  0.00     0.000 C 
BRANCH   9  10
ATOM     10  C   UNL     1     -31.968  68.981  86.572  1.00  0.00     0.000 C 
BRANCH  10  11
ATOM     11  C   UNL     1     -30.644  69.680  86.198  1.00  0.00     0.000 C 
BRANCH  11  12
ATOM     12  C   UNL     1     -29.387  68.940  86.692  1.00  0.00     0.006 C 
BRANCH  12  13
ATOM     13  C   UNL     1     -29.060  69.178  88.180  1.00  0.00     0.053 C 
BRANCH  13  14
ATOM     14  C   UNL     1     -27.632  68.870  88.513  1.00  0.00     0.041 C 
ATOM     15  O   UNL     1     -27.305  68.575  89.693  1.00  0.00    -0.550 OA
ATOM     16  O   UNL     1     -26.651  68.953  87.534  1.00  0.00    -0.550 OA
ENDBRANCH  13  14
ENDBRANCH  12  13
ENDBRANCH  11  12
ENDBRANCH  10  11
ENDBRANCH   9  10
ENDBRANCH   8   9
ENDBRANCH   7   8
ENDBRANCH   6   7
ENDBRANCH   5   6
ENDBRANCH   4   5
ENDBRANCH   3   4
ENDBRANCH   2   3
ENDBRANCH   1   2
BRANCH   1  17
ATOM     17  C   UNL     1     -26.826  66.825  84.652  1.00  0.00     0.000 C 
BRANCH  17  18
ATOM     18  C   UNL     1     -27.190  65.723  85.659  1.00  0.00     0.000 C 
BRANCH  18  19
ATOM     19  C   UNL     1     -28.707  65.475  85.684  1.00  0.00     0.000 C 
BRANCH  19  20
ATOM     20  C   UNL     1     -29.191  64.881  87.016  1.00  0.00     0.000 C 
BRANCH  20  21
ATOM     21  C   UNL     1     -30.185  63.722  86.825  1.00  0.00     0.000 C 
BRANCH  21  22
ATOM     22  C   UNL     1     -30.130  63.131  85.406  1.00  0.00    -0.000 C 
BRANCH  22  23
ATOM     23  C   UNL     1     -29.189  61.917  85.308  1.00  0.00    -0.000 C 
BRANCH  23  24
ATOM     24  C   UNL     1     -28.132  62.077  84.203  1.00  0.00    -0.000 C 
BRANCH  24  25
ATOM     25  C   UNL     1     -27.266  60.821  84.022  1.00  0.00    -0.000 C 
BRANCH  25  26
ATOM     26  C   UNL     1     -27.819  59.928  82.901  1.00  0.00    -0.000 C 
BRANCH  26  27
ATOM     27  C   UNL     1     -26.845  58.805  82.504  1.00  0.00    -0.000 C 
BRANCH  27  28
ATOM     28  C   UNL     1     -27.507  57.416  82.511  1.00  0.00    -0.000 C 
BRANCH  28  29
ATOM     29  C   UNL     1     -26.618  56.346  83.161  1.00  0.00    -0.003 C 
ATOM     30  C   UNL     1     -25.777  56.893  84.314  1.00  0.00     0.004 C 
ENDBRANCH  28  29
ENDBRANCH  27  28
ENDBRANCH  26  27
ENDBRANCH  25  26
ENDBRANCH  24  25
ENDBRANCH  23  24
ENDBRANCH  22  23
ENDBRANCH  21  22
ENDBRANCH  20  21
ENDBRANCH  19  20
ENDBRANCH  18  19
ENDBRANCH  17  18
ENDBRANCH   1  17
TORSDOF 26
ENDMDL
MODEL 7
REMARK VINA RESULT:    -1.117      3.687      9.087
REMARK INTER + INTRA:          -6.377
REMARK INTER:                  -3.319
REMARK INTRA:                  -3.058
REMARK UNBOUND:                -3.561
REMARK SMILES CCCCCCCCCCCCCCCCCCCCCCCCCCCC(=O)[O-]
REMARK SMILES IDX 15 1 16 2 17 3 18 4 19 5 20 6 21 7 22 8 23 9 24 10 25 11
REMARK SMILES IDX 26 12 27 13 28 14 29 15 30 16 14 17 13 18 12 19 11 20 10 21
REMARK SMILES IDX 9 22 8 23 7 24 6 25 5 26 4 27 3 28 2 29 1 30
REMARK H PARENT
REMARK Flexibility Score: inf
ROOT
ATOM      1  C   UNL     1     -30.633  67.536  84.463  1.00  0.00     0.000 C 
ENDROOT
BRANCH   1   2
ATOM      2  C   UNL     1     -29.953  66.926  83.224  1.00  0.00     0.000 C 
BRANCH   2   3
ATOM      3  C   UNL     1     -28.742  67.744  82.743  1.00  0.00     0.000 C 
BRANCH   3   4
ATOM      4  C   UNL     1     -27.983  67.045  81.605  1.00  0.00     0.000 C 
BRANCH   4   5
ATOM      5  C   UNL     1     -27.903  65.519  81.799  1.00  0.00     0.000 C 
BRANCH   5   6
ATOM      6  C   UNL     1     -28.789  64.757  80.799  1.00  0.00     0.000 C 
BRANCH   6   7
ATOM      7  C   UNL     1     -29.977  64.058  81.482  1.00  0.00     0.000 C 
BRANCH   7   8
ATOM      8  C   UNL     1     -29.692  63.722  82.961  1.00  0.00     0.000 C 
BRANCH   8   9
ATOM      9  C   UNL     1     -29.165  62.294  83.184  1.00  0.00     0.000 C 
BRANCH   9  10
ATOM     10  C   UNL     1     -28.117  62.207  84.304  1.00  0.00     0.000 C 
BRANCH  10  11
ATOM     11  C   UNL     1     -27.172  61.001  84.118  1.00  0.00     0.000 C 
BRANCH  11  12
ATOM     12  C   UNL     1     -27.610  60.031  83.005  1.00  0.00     0.006 C 
BRANCH  12  13
ATOM     13  C   UNL     1     -26.791  58.727  82.948  1.00  0.00     0.053 C 
BRANCH  13  14
ATOM     14  C   UNL     1     -27.548  57.596  82.321  1.00  0.00     0.041 C 
ATOM     15  O   UNL     1     -27.344  56.410  82.695  1.00  0.00    -0.550 OA
ATOM     16  O   UNL     1     -28.448  57.840  81.293  1.00  0.00    -0.550 OA
ENDBRANCH  13  14
ENDBRANCH  12  13
ENDBRANCH  11  12
ENDBRANCH  10  11
ENDBRANCH   9  10
ENDBRANCH   8   9
ENDBRANCH   7   8
ENDBRANCH   6   7
ENDBRANCH   5   6
ENDBRANCH   4   5
ENDBRANCH   3   4
ENDBRANCH   2   3
ENDBRANCH   1   2
BRANCH   1  17
ATOM     17  C   UNL     1     -31.580  66.560  85.195  1.00  0.00     0.000 C 
BRANCH  17  18
ATOM     18  C   UNL     1     -30.961  66.015  86.491  1.00  0.00     0.000 C 
BRANCH  18  19
ATOM     19  C   UNL     1     -30.480  64.566  86.309  1.00  0.00     0.000 C 
BRANCH  19  20
ATOM     20  C   UNL     1     -28.953  64.429  86.402  1.00  0.00     0.000 C 
BRANCH  20  21
ATOM     21  C   UNL     1     -28.230  65.786  86.361  1.00  0.00     0.000 C 
BRANCH  21  22
ATOM     22  C   UNL     1     -27.101  65.819  85.316  1.00  0.00    -0.000 C 
BRANCH  22  23
ATOM     23  C   UNL     1     -26.428  67.199  85.217  1.00  0.00    -0.000 C 
BRANCH  23  24
ATOM     24  C   UNL     1     -27.343  68.339  85.693  1.00  0.00    -0.000 C 
BRANCH  24  25
ATOM     25  C   UNL     1     -26.932  68.899  87.063  1.00  0.00    -0.000 C 
BRANCH  25  26
ATOM     26  C   UNL     1     -28.101  68.837  88.057  1.00  0.00    -0.000 C 
BRANCH  26  27
ATOM     27  C   UNL     1     -29.472  68.875  87.361  1.00  0.00    -0.000 C 
BRANCH  27  28
ATOM     28  C   UNL     1     -29.755  70.228  86.684  1.00  0.00    -0.000 C 
BRANCH  28  29
ATOM     29  C   UNL     1     -31.254  70.457  86.435  1.00  0.00    -0.003 C 
ATOM     30  C   UNL     1     -31.531  71.204  85.131  1.00  0.00     0.004 C 
ENDBRANCH  28  29
ENDBRANCH  27  28
ENDBRANCH  26  27
ENDBRANCH  25  26
ENDBRANCH  24  25
ENDBRANCH  23  24
ENDBRANCH  22  23
ENDBRANCH  21  22
ENDBRANCH  20  21
ENDBRANCH  19  20
ENDBRANCH  18  19
ENDBRANCH  17  18
ENDBRANCH   1  17
TORSDOF 26
ENDMDL
MODEL 8
REMARK VINA RESULT:    -1.012      0.695      2.659
REMARK INTER + INTRA:          -6.110
REMARK INTER:                  -3.197
REMARK INTRA:                  -2.914
REMARK UNBOUND:                -3.561
REMARK SMILES CCCCCCCCCCCCCCCCCCCCCCCCCCCC(=O)[O-]
REMARK SMILES IDX 15 1 16 2 17 3 18 4 19 5 20 6 21 7 22 8 23 9 24 10 25 11
REMARK SMILES IDX 26 12 27 13 28 14 29 15 30 16 14 17 13 18 12 19 11 20 10 21
REMARK SMILES IDX 9 22 8 23 7 24 6 25 5 26 4 27 3 28 2 29 1 30
REMARK H PARENT
REMARK Flexibility Score: inf
ROOT
ATOM      1  C   UNL     1     -27.455  65.541  85.490  1.00  0.00     0.000 C 
ENDROOT
BRANCH   1   2
ATOM      2  C   UNL     1     -28.587  65.903  86.469  1.00  0.00     0.000 C 
BRANCH   2   3
ATOM      3  C   UNL     1     -29.466  64.696  86.838  1.00  0.00     0.000 C 
BRANCH   3   4
ATOM      4  C   UNL     1     -30.685  64.558  85.913  1.00  0.00     0.000 C 
BRANCH   4   5
ATOM      5  C   UNL     1     -30.834  65.753  84.952  1.00  0.00     0.000 C 
BRANCH   5   6
ATOM      6  C   UNL     1     -31.907  66.749  85.422  1.00  0.00     0.000 C 
BRANCH   6   7
ATOM      7  C   UNL     1     -32.239  66.594  86.916  1.00  0.00     0.000 C 
BRANCH   7   8
ATOM      8  C   UNL     1     -32.354  67.953  87.637  1.00  0.00     0.000 C 
BRANCH   8   9
ATOM      9  C   UNL     1     -32.617  69.138  86.692  1.00  0.00     0.000 C 
BRANCH   9  10
ATOM     10  C   UNL     1     -31.551  70.240  86.797  1.00  0.00     0.000 C 
BRANCH  10  11
ATOM     11  C   UNL     1     -30.346  69.969  85.872  1.00  0.00     0.000 C 
BRANCH  11  12
ATOM     12  C   UNL     1     -29.267  69.068  86.503  1.00  0.00     0.006 C 
BRANCH  12  13
ATOM     13  C   UNL     1     -29.016  69.339  87.999  1.00  0.00     0.053 C 
BRANCH  13  14
ATOM     14  C   UNL     1     -27.631  68.959  88.430  1.00  0.00     0.041 C 
ATOM     15  O   UNL     1     -26.690  68.937  87.594  1.00  0.00    -0.550 OA
ATOM     16  O   UNL     1     -27.385  68.587  89.744  1.00  0.00    -0.550 OA
ENDBRANCH  13  14
ENDBRANCH  12  13
ENDBRANCH  11  12
ENDBRANCH  10  11
ENDBRANCH   9  10
ENDBRANCH   8   9
ENDBRANCH   7   8
ENDBRANCH   6   7
ENDBRANCH   5   6
ENDBRANCH   4   5
ENDBRANCH   3   4
ENDBRANCH   2   3
ENDBRANCH   1   2
BRANCH   1  17
ATOM     17  C   UNL     1     -26.893  66.753  84.715  1.00  0.00     0.000 C 
BRANCH  17  18
ATOM     18  C   UNL     1     -28.005  67.692  84.223  1.00  0.00     0.000 C 
BRANCH  18  19
ATOM     19  C   UNL     1     -28.742  67.092  83.015  1.00  0.00     0.000 C 
BRANCH  19  20
ATOM     20  C   UNL     1     -27.787  66.490  81.973  1.00  0.00     0.000 C 
BRANCH  20  21
ATOM     21  C   UNL     1     -28.248  65.111  81.471  1.00  0.00     0.000 C 
BRANCH  21  22
ATOM     22  C   UNL     1     -29.539  64.637  82.160  1.00  0.00    -0.000 C 
BRANCH  22  23
ATOM     23  C   UNL     1     -29.424  63.203  82.707  1.00  0.00    -0.000 C 
BRANCH  23  24
ATOM     24  C   UNL     1     -28.277  63.045  83.718  1.00  0.00    -0.000 C 
BRANCH  24  25
ATOM     25  C   UNL     1     -28.295  61.686  84.433  1.00  0.00    -0.000 C 
BRANCH  25  26
ATOM     26  C   UNL     1     -27.220  60.749  83.863  1.00  0.00    -0.000 C 
BRANCH  26  27
ATOM     27  C   UNL     1     -27.789  59.740  82.852  1.00  0.00    -0.000 C 
BRANCH  27  28
ATOM     28  C   UNL     1     -26.780  58.640  82.480  1.00  0.00    -0.000 C 
BRANCH  28  29
ATOM     29  C   UNL     1     -27.145  57.278  83.089  1.00  0.00    -0.003 C 
ATOM     30  C   UNL     1     -25.950  56.576  83.734  1.00  0.00     0.004 C 
ENDBRANCH  28  29
ENDBRANCH  27  28
ENDBRANCH  26  27
ENDBRANCH  25  26
ENDBRANCH  24  25
ENDBRANCH  23  24
ENDBRANCH  22  23
ENDBRANCH  21  22
ENDBRANCH  20  21
ENDBRANCH  19  20
ENDBRANCH  18  19
ENDBRANCH  17  18
ENDBRANCH   1  17
TORSDOF 26
ENDMDL
MODEL 9
REMARK VINA RESULT:    -0.981      3.088      6.714
REMARK INTER + INTRA:          -6.033
REMARK INTER:                  -3.320
REMARK INTRA:                  -2.713
REMARK UNBOUND:                -3.561
REMARK SMILES CCCCCCCCCCCCCCCCCCCCCCCCCCCC(=O)[O-]
REMARK SMILES IDX 15 1 16 2 17 3 18 4 19 5 20 6 21 7 22 8 23 9 24 10 25 11
REMARK SMILES IDX 26 12 27 13 28 14 29 15 30 16 14 17 13 18 12 19 11 20 10 21
REMARK SMILES IDX 9 22 8 23 7 24 6 25 5 26 4 27 3 28 2 29 1 30
REMARK H PARENT
REMARK Flexibility Score: inf
ROOT
ATOM      1  C   UNL     1     -29.666  64.704  81.276  1.00  0.00     0.000 C 
ENDROOT
BRANCH   1   2
ATOM      2  C   UNL     1     -30.101  63.849  82.481  1.00  0.00     0.000 C 
BRANCH   2   3
ATOM      3  C   UNL     1     -28.933  63.081  83.121  1.00  0.00     0.000 C 
BRANCH   3   4
ATOM      4  C   UNL     1     -28.819  63.348  84.630  1.00  0.00     0.000 C 
BRANCH   4   5
ATOM      5  C   UNL     1     -30.159  63.161  85.366  1.00  0.00     0.000 C 
BRANCH   5   6
ATOM      6  C   UNL     1     -30.181  63.871  86.729  1.00  0.00     0.000 C 
BRANCH   6   7
ATOM      7  C   UNL     1     -30.088  65.401  86.596  1.00  0.00     0.000 C 
BRANCH   7   8
ATOM      8  C   UNL     1     -31.065  65.960  85.540  1.00  0.00     0.000 C 
BRANCH   8   9
ATOM      9  C   UNL     1     -32.208  66.801  86.134  1.00  0.00     0.000 C 
BRANCH   9  10
ATOM     10  C   UNL     1     -31.709  68.000  86.956  1.00  0.00     0.000 C 
BRANCH  10  11
ATOM     11  C   UNL     1     -30.948  69.021  86.084  1.00  0.00     0.000 C 
BRANCH  11  12
ATOM     12  C   UNL     1     -29.521  69.323  86.579  1.00  0.00     0.006 C 
BRANCH  12  13
ATOM     13  C   UNL     1     -29.004  68.340  87.648  1.00  0.00     0.053 C 
BRANCH  13  14
ATOM     14  C   UNL     1     -27.732  68.802  88.290  1.00  0.00     0.041 C 
ATOM     15  O   UNL     1     -26.825  69.332  87.595  1.00  0.00    -0.550 OA
ATOM     16  O   UNL     1     -27.524  68.610  89.649  1.00  0.00    -0.550 OA
ENDBRANCH  13  14
ENDBRANCH  12  13
ENDBRANCH  11  12
ENDBRANCH  10  11
ENDBRANCH   9  10
ENDBRANCH   8   9
ENDBRANCH   7   8
ENDBRANCH   6   7
ENDBRANCH   5   6
ENDBRANCH   4   5
ENDBRANCH   3   4
ENDBRANCH   2   3
ENDBRANCH   1   2
BRANCH   1  17
ATOM     17  C   UNL     1     -28.159  65.041  81.266  1.00  0.00     0.000 C 
BRANCH  17  18
ATOM     18  C   UNL     1     -27.876  66.442  81.830  1.00  0.00     0.000 C 
BRANCH  18  19
ATOM     19  C   UNL     1     -28.948  66.856  82.850  1.00  0.00     0.000 C 
BRANCH  19  20
ATOM     20  C   UNL     1     -28.350  67.423  84.147  1.00  0.00     0.000 C 
BRANCH  20  21
ATOM     21  C   UNL     1     -27.148  66.607  84.654  1.00  0.00     0.000 C 
BRANCH  21  22
ATOM     22  C   UNL     1     -25.962  67.499  85.057  1.00  0.00    -0.000 C 
BRANCH  22  23
ATOM     23  C   UNL     1     -25.528  68.451  83.929  1.00  0.00    -0.000 C 
BRANCH  23  24
ATOM     24  C   UNL     1     -24.076  68.214  83.481  1.00  0.00    -0.000 C 
BRANCH  24  25
ATOM     25  C   UNL     1     -23.661  69.114  82.307  1.00  0.00    -0.000 C 
BRANCH  25  26
ATOM     26  C   UNL     1     -22.169  68.944  81.984  1.00  0.00    -0.000 C 
BRANCH  26  27
ATOM     27  C   UNL     1     -21.904  68.783  80.478  1.00  0.00    -0.000 C 
BRANCH  27  28
ATOM     28  C   UNL     1     -23.177  68.437  79.686  1.00  0.00    -0.000 C 
BRANCH  28  29
ATOM     29  C   UNL     1     -24.012  69.681  79.345  1.00  0.00    -0.003 C 
ATOM     30  C   UNL     1     -23.195  70.973  79.383  1.00  0.00     0.004 C 
ENDBRANCH  28  29
ENDBRANCH  27  28
ENDBRANCH  26  27
ENDBRANCH  25  26
ENDBRANCH  24  25
ENDBRANCH  23  24
ENDBRANCH  22  23
ENDBRANCH  21  22
ENDBRANCH  20  21
ENDBRANCH  19  20
ENDBRANCH  18  19
ENDBRANCH  17  18
ENDBRANCH   1  17
TORSDOF 26
ENDMDL
