MODEL 1
REMARK VINA RESULT:    -4.495      0.000      0.000
REMARK INTER + INTRA:         -10.841
REMARK INTER:                  -8.700
REMARK INTRA:                  -2.141
REMARK UNBOUND:                -2.141
REMARK SMILES CCCCCCCCCCCCCCCCCC(=O)[O-]
REMARK SMILES IDX 10 1 11 2 12 3 13 4 14 5 15 6 16 7 17 8 18 9 19 10 20 11
REMARK SMILES IDX 9 12 8 13 7 14 6 15 5 16 4 17 3 18 2 19 1 20
REMARK H PARENT
REMARK Flexibility Score: inf
ROOT
ATOM      1  C   UNL     1       2.633 -14.242   4.137  1.00  0.00     0.000 C 
ENDROOT
BRANCH   1   2
ATOM      2  C   UNL     1       4.139 -14.522   4.269  1.00  0.00     0.000 C 
BRANCH   2   3
ATOM      3  C   UNL     1       4.922 -13.305   4.784  1.00  0.00     0.000 C 
BRANCH   3   4
ATOM      4  C   UNL     1       5.240 -13.397   6.287  1.00  0.00     0.000 C 
BRANCH   4   5
ATOM      5  C   UNL     1       5.403 -12.001   6.930  1.00  0.00     0.000 C 
BRANCH   5   6
ATOM      6  C   UNL     1       4.112 -11.164   6.902  1.00  0.00     0.000 C 
BRANCH   6   7
ATOM      7  C   UNL     1       4.177  -9.928   5.980  1.00  0.00     0.006 C 
BRANCH   7   8
ATOM      8  C   UNL     1       2.796  -9.378   5.583  1.00  0.00     0.053 C 
BRANCH   8   9
ATOM      9  C   UNL     1       2.578  -7.975   6.055  1.00  0.00     0.041 C 
ATOM     10  O   UNL     1       1.438  -7.607   6.445  1.00  0.00    -0.550 OA
ATOM     11  O   UNL     1       3.631  -7.070   6.056  1.00  0.00    -0.550 OA
ENDBRANCH   8   9
ENDBRANCH   7   8
ENDBRANCH   6   7
ENDBRANCH   5   6
ENDBRANCH   4   5
ENDBRANCH   3   4
ENDBRANCH   2   3
ENDBRANCH   1   2
BRANCH   1  12
ATOM     12  C   UNL     1       2.312 -12.739   4.051  1.00  0.00     0.000 C 
BRANCH  12  13
ATOM     13  C   UNL     1       1.493 -12.322   2.812  1.00  0.00    -0.000 C 
BRANCH  13  14
ATOM     14  C   UNL     1       2.003 -11.065   2.080  1.00  0.00    -0.000 C 
BRANCH  14  15
ATOM     15  C   UNL     1       3.531 -10.880   2.099  1.00  0.00    -0.000 C 
BRANCH  15  16
ATOM     16  C   UNL     1       4.208 -11.404   0.822  1.00  0.00    -0.000 C 
BRANCH  16  17
ATOM     17  C   UNL     1       5.197 -12.546   1.106  1.00  0.00    -0.000 C 
BRANCH  17  18
ATOM     18  C   UNL     1       6.412 -12.523   0.162  1.00  0.00    -0.000 C 
BRANCH  18  19
ATOM     19  C   UNL     1       7.722 -12.884   0.879  1.00  0.00    -0.003 C 
ATOM     20  C   UNL     1       8.350 -14.171   0.345  1.00  0.00     0.004 C 
ENDBRANCH  18  19
ENDBRANCH  17  18
ENDBRANCH  16  17
ENDBRANCH  15  16
ENDBRANCH  14  15
ENDBRANCH  13  14
ENDBRANCH  12  13
ENDBRANCH   1  12
TORSDOF 16
ENDMDL
MODEL 2
REMARK VINA RESULT:    -4.486      3.117      4.423
REMARK INTER + INTRA:         -10.823
REMARK INTER:                  -8.267
REMARK INTRA:                  -2.556
REMARK UNBOUND:                -2.141
REMARK SMILES CCCCCCCCCCCCCCCCCC(=O)[O-]
REMARK SMILES IDX 10 1 11 2 12 3 13 4 14 5 15 6 16 7 17 8 18 9 19 10 20 11
REMARK SMILES IDX 9 12 8 13 7 14 6 15 5 16 4 17 3 18 2 19 1 20
REMARK H PARENT
REMARK Flexibility Score: inf
ROOT
ATOM      1  C   UNL     1       3.727  -9.722   5.035  1.00  0.00     0.000 C 
ENDROOT
BRANCH   1   2
ATOM      2  C   UNL     1       4.437 -10.016   6.367  1.00  0.00     0.000 C 
BRANCH   2   3
ATOM      3  C   UNL     1       4.144 -11.429   6.894  1.00  0.00     0.000 C 
BRANCH   3   4
ATOM      4  C   UNL     1       5.370 -12.356   6.819  1.00  0.00     0.000 C 
BRANCH   4   5
ATOM      5  C   UNL     1       5.082 -13.631   5.994  1.00  0.00     0.000 C 
BRANCH   5   6
ATOM      6  C   UNL     1       5.034 -13.377   4.477  1.00  0.00     0.000 C 
BRANCH   6   7
ATOM      7  C   UNL     1       3.984 -14.222   3.724  1.00  0.00     0.006 C 
BRANCH   7   8
ATOM      8  C   UNL     1       2.710 -14.497   4.541  1.00  0.00     0.053 C 
BRANCH   8   9
ATOM      9  C   UNL     1       1.943 -15.677   4.031  1.00  0.00     0.041 C 
ATOM     10  O   UNL     1       1.942 -15.948   2.801  1.00  0.00    -0.550 OA
ATOM     11  O   UNL     1       1.221 -16.471   4.912  1.00  0.00    -0.550 OA
ENDBRANCH   8   9
ENDBRANCH   7   8
ENDBRANCH   6   7
ENDBRANCH   5   6
ENDBRANCH   4   5
ENDBRANCH   3   4
ENDBRANCH   2   3
ENDBRANCH   1   2
BRANCH   1  12
ATOM     12  C   UNL     1       2.454 -10.567   4.841  1.00  0.00     0.000 C 
BRANCH  12  13
ATOM     13  C   UNL     1       2.171 -10.983   3.384  1.00  0.00    -0.000 C 
BRANCH  13  14
ATOM     14  C   UNL     1       3.344 -10.782   2.403  1.00  0.00    -0.000 C 
BRANCH  14  15
ATOM     15  C   UNL     1       3.025 -11.121   0.935  1.00  0.00    -0.000 C 
BRANCH  15  16
ATOM     16  C   UNL     1       2.910 -12.634   0.687  1.00  0.00    -0.000 C 
BRANCH  16  17
ATOM     17  C   UNL     1       3.975 -13.152  -0.293  1.00  0.00    -0.000 C 
BRANCH  17  18
ATOM     18  C   UNL     1       5.303 -13.493   0.406  1.00  0.00    -0.000 C 
BRANCH  18  19
ATOM     19  C   UNL     1       6.391 -12.440   0.149  1.00  0.00    -0.003 C 
ATOM     20  C   UNL     1       7.756 -12.856   0.697  1.00  0.00     0.004 C 
ENDBRANCH  18  19
ENDBRANCH  17  18
ENDBRANCH  16  17
ENDBRANCH  15  16
ENDBRANCH  14  15
ENDBRANCH  13  14
ENDBRANCH  12  13
ENDBRANCH   1  12
TORSDOF 16
ENDMDL
MODEL 3
REMARK VINA RESULT:    -4.471      1.533      3.473
REMARK INTER + INTRA:         -10.794
REMARK INTER:                  -8.842
REMARK INTRA:                  -1.952
REMARK UNBOUND:                -2.141
REMARK SMILES CCCCCCCCCCCCCCCCCC(=O)[O-]
REMARK SMILES IDX 10 1 11 2 12 3 13 4 14 5 15 6 16 7 17 8 18 9 19 10 20 11
REMARK SMILES IDX 9 12 8 13 7 14 6 15 5 16 4 17 3 18 2 19 1 20
REMARK H PARENT
REMARK Flexibility Score: inf
ROOT
ATOM      1  C   UNL     1       5.984 -12.275   6.723  1.00  0.00     0.000 C 
ENDROOT
BRANCH   1   2
ATOM      2  C   UNL     1       5.267 -10.944   7.005  1.00  0.00     0.000 C 
BRANCH   2   3
ATOM      3  C   UNL     1       3.740 -11.057   6.873  1.00  0.00     0.000 C 
BRANCH   3   4
ATOM      4  C   UNL     1       3.058  -9.688   6.705  1.00  0.00     0.000 C 
BRANCH   4   5
ATOM      5  C   UNL     1       3.480  -8.988   5.393  1.00  0.00     0.000 C 
BRANCH   5   6
ATOM      6  C   UNL     1       4.134  -7.614   5.620  1.00  0.00     0.000 C 
BRANCH   6   7
ATOM      7  C   UNL     1       3.734  -6.930   6.945  1.00  0.00     0.006 C 
BRANCH   7   8
ATOM      8  C   UNL     1       3.360  -5.446   6.788  1.00  0.00     0.053 C 
BRANCH   8   9
ATOM      9  C   UNL     1       1.892  -5.243   6.581  1.00  0.00     0.041 C 
ATOM     10  O   UNL     1       1.104  -6.224   6.623  1.00  0.00    -0.550 OA
ATOM     11  O   UNL     1       1.394  -3.971   6.331  1.00  0.00    -0.550 OA
ENDBRANCH   8   9
ENDBRANCH   7   8
ENDBRANCH   6   7
ENDBRANCH   5   6
ENDBRANCH   4   5
ENDBRANCH   3   4
ENDBRANCH   2   3
ENDBRANCH   1   2
BRANCH   1  12
ATOM     12  C   UNL     1       5.006 -13.437   6.472  1.00  0.00     0.000 C 
BRANCH  12  13
ATOM     13  C   UNL     1       4.884 -13.873   4.999  1.00  0.00    -0.000 C 
BRANCH  13  14
ATOM     14  C   UNL     1       3.442 -14.030   4.476  1.00  0.00    -0.000 C 
BRANCH  14  15
ATOM     15  C   UNL     1       2.925 -12.847   3.637  1.00  0.00    -0.000 C 
BRANCH  15  16
ATOM     16  C   UNL     1       4.055 -11.920   3.159  1.00  0.00    -0.000 C 
BRANCH  16  17
ATOM     17  C   UNL     1       3.756 -11.284   1.792  1.00  0.00    -0.000 C 
BRANCH  17  18
ATOM     18  C   UNL     1       3.841 -12.298   0.638  1.00  0.00    -0.000 C 
BRANCH  18  19
ATOM     19  C   UNL     1       5.163 -13.081   0.639  1.00  0.00    -0.003 C 
ATOM     20  C   UNL     1       6.344 -12.244   0.146  1.00  0.00     0.004 C 
ENDBRANCH  18  19
ENDBRANCH  17  18
ENDBRANCH  16  17
ENDBRANCH  15  16
ENDBRANCH  14  15
ENDBRANCH  13  14
ENDBRANCH  12  13
ENDBRANCH   1  12
TORSDOF 16
ENDMDL
MODEL 4
REMARK VINA RESULT:    -4.468      1.154      1.887
REMARK INTER + INTRA:         -10.789
REMARK INTER:                  -8.952
REMARK INTRA:                  -1.837
REMARK UNBOUND:                -2.141
REMARK SMILES CCCCCCCCCCCCCCCCCC(=O)[O-]
REMARK SMILES IDX 10 1 11 2 12 3 13 4 14 5 15 6 16 7 17 8 18 9 19 10 20 11
REMARK SMILES IDX 9 12 8 13 7 14 6 15 5 16 4 17 3 18 2 19 1 20
REMARK H PARENT
REMARK Flexibility Score: inf
ROOT
ATOM      1  C   UNL     1       4.626 -14.022   5.065  1.00  0.00     0.000 C 
ENDROOT
BRANCH   1   2
ATOM      2  C   UNL     1       4.798 -13.426   6.472  1.00  0.00     0.000 C 
BRANCH   2   3
ATOM      3  C   UNL     1       5.956 -12.419   6.548  1.00  0.00     0.000 C 
BRANCH   3   4
ATOM      4  C   UNL     1       5.557 -11.110   7.254  1.00  0.00     0.000 C 
BRANCH   4   5
ATOM      5  C   UNL     1       4.082 -10.736   6.988  1.00  0.00     0.000 C 
BRANCH   5   6
ATOM      6  C   UNL     1       3.885  -9.912   5.702  1.00  0.00     0.000 C 
BRANCH   6   7
ATOM      7  C   UNL     1       4.364  -8.449   5.807  1.00  0.00     0.006 C 
BRANCH   7   8
ATOM      8  C   UNL     1       3.622  -7.629   6.876  1.00  0.00     0.053 C 
BRANCH   8   9
ATOM      9  C   UNL     1       2.139  -7.813   6.815  1.00  0.00     0.041 C 
ATOM     10  O   UNL     1       1.484  -7.365   5.836  1.00  0.00    -0.550 OA
ATOM     11  O   UNL     1       1.476  -8.469   7.843  1.00  0.00    -0.550 OA
ENDBRANCH   8   9
ENDBRANCH   7   8
ENDBRANCH   6   7
ENDBRANCH   5   6
ENDBRANCH   4   5
ENDBRANCH   3   4
ENDBRANCH   2   3
ENDBRANCH   1   2
BRANCH   1  12
ATOM     12  C   UNL     1       3.699 -13.180   4.170  1.00  0.00     0.000 C 
BRANCH  12  13
ATOM     13  C   UNL     1       4.416 -12.401   3.049  1.00  0.00    -0.000 C 
BRANCH  13  14
ATOM     14  C   UNL     1       3.501 -11.529   2.166  1.00  0.00    -0.000 C 
BRANCH  14  15
ATOM     15  C   UNL     1       3.670 -11.741   0.651  1.00  0.00    -0.000 C 
BRANCH  15  16
ATOM     16  C   UNL     1       4.020 -13.195   0.291  1.00  0.00    -0.000 C 
BRANCH  16  17
ATOM     17  C   UNL     1       5.358 -13.310  -0.458  1.00  0.00    -0.000 C 
BRANCH  17  18
ATOM     18  C   UNL     1       6.358 -12.213  -0.051  1.00  0.00    -0.000 C 
BRANCH  18  19
ATOM     19  C   UNL     1       7.560 -12.772   0.725  1.00  0.00    -0.003 C 
ATOM     20  C   UNL     1       7.623 -14.299   0.694  1.00  0.00     0.004 C 
ENDBRANCH  18  19
ENDBRANCH  17  18
ENDBRANCH  16  17
ENDBRANCH  15  16
ENDBRANCH  14  15
ENDBRANCH  13  14
ENDBRANCH  12  13
ENDBRANCH   1  12
TORSDOF 16
ENDMDL
MODEL 5
REMARK VINA RESULT:    -4.464      1.178      2.184
REMARK INTER + INTRA:         -10.781
REMARK INTER:                  -8.714
REMARK INTRA:                  -2.067
REMARK UNBOUND:                -2.141
REMARK SMILES CCCCCCCCCCCCCCCCCC(=O)[O-]
REMARK SMILES IDX 10 1 11 2 12 3 13 4 14 5 15 6 16 7 17 8 18 9 19 10 20 11
REMARK SMILES IDX 9 12 8 13 7 14 6 15 5 16 4 17 3 18 2 19 1 20
REMARK H PARENT
REMARK Flexibility Score: inf
ROOT
ATOM      1  C   UNL     1       2.413 -12.092   3.070  1.00  0.00     0.000 C 
ENDROOT
BRANCH   1   2
ATOM      2  C   UNL     1       2.951 -13.251   3.924  1.00  0.00     0.000 C 
BRANCH   2   3
ATOM      3  C   UNL     1       4.486 -13.310   3.940  1.00  0.00     0.000 C 
BRANCH   3   4
ATOM      4  C   UNL     1       5.035 -14.150   5.107  1.00  0.00     0.000 C 
BRANCH   4   5
ATOM      5  C   UNL     1       4.893 -13.420   6.461  1.00  0.00     0.000 C 
BRANCH   5   6
ATOM      6  C   UNL     1       5.761 -12.153   6.565  1.00  0.00     0.000 C 
BRANCH   6   7
ATOM      7  C   UNL     1       5.049 -10.948   7.216  1.00  0.00     0.006 C 
BRANCH   7   8
ATOM      8  C   UNL     1       3.907 -10.369   6.364  1.00  0.00     0.053 C 
BRANCH   8   9
ATOM      9  C   UNL     1       4.119  -8.928   6.019  1.00  0.00     0.041 C 
ATOM     10  O   UNL     1       3.528  -8.419   5.030  1.00  0.00    -0.550 OA
ATOM     11  O   UNL     1       4.978  -8.149   6.783  1.00  0.00    -0.550 OA
ENDBRANCH   8   9
ENDBRANCH   7   8
ENDBRANCH   6   7
ENDBRANCH   5   6
ENDBRANCH   4   5
ENDBRANCH   3   4
ENDBRANCH   2   3
ENDBRANCH   1   2
BRANCH   1  12
ATOM     12  C   UNL     1       3.516 -11.107   2.640  1.00  0.00     0.000 C 
BRANCH  12  13
ATOM     13  C   UNL     1       3.770 -11.044   1.121  1.00  0.00    -0.000 C 
BRANCH  13  14
ATOM     14  C   UNL     1       3.503 -12.355   0.354  1.00  0.00    -0.000 C 
BRANCH  14  15
ATOM     15  C   UNL     1       4.682 -13.345   0.335  1.00  0.00    -0.000 C 
BRANCH  15  16
ATOM     16  C   UNL     1       6.023 -12.665   0.012  1.00  0.00    -0.000 C 
BRANCH  16  17
ATOM     17  C   UNL     1       7.087 -12.918   1.092  1.00  0.00    -0.000 C 
BRANCH  17  18
ATOM     18  C   UNL     1       8.271 -13.751   0.569  1.00  0.00    -0.000 C 
BRANCH  18  19
ATOM     19  C   UNL     1       7.901 -14.592  -0.662  1.00  0.00    -0.003 C 
ATOM     20  C   UNL     1       7.911 -16.093  -0.376  1.00  0.00     0.004 C 
ENDBRANCH  18  19
ENDBRANCH  17  18
ENDBRANCH  16  17
ENDBRANCH  15  16
ENDBRANCH  14  15
ENDBRANCH  13  14
ENDBRANCH  12  13
ENDBRANCH   1  12
TORSDOF 16
ENDMDL
MODEL 6
REMARK VINA RESULT:    -4.437      3.880      7.255
REMARK INTER + INTRA:         -10.727
REMARK INTER:                  -8.553
REMARK INTRA:                  -2.174
REMARK UNBOUND:                -2.141
REMARK SMILES CCCCCCCCCCCCCCCCCC(=O)[O-]
REMARK SMILES IDX 10 1 11 2 12 3 13 4 14 5 15 6 16 7 17 8 18 9 19 10 20 11
REMARK SMILES IDX 9 12 8 13 7 14 6 15 5 16 4 17 3 18 2 19 1 20
REMARK H PARENT
REMARK Flexibility Score: inf
ROOT
ATOM      1  C   UNL     1       2.371 -11.605   3.128  1.00  0.00     0.000 C 
ENDROOT
BRANCH   1   2
ATOM      2  C   UNL     1       3.529 -10.894   2.408  1.00  0.00     0.000 C 
BRANCH   2   3
ATOM      3  C   UNL     1       3.523 -11.142   0.892  1.00  0.00     0.000 C 
BRANCH   3   4
ATOM      4  C   UNL     1       3.650 -12.634   0.535  1.00  0.00     0.000 C 
BRANCH   4   5
ATOM      5  C   UNL     1       4.930 -12.925  -0.281  1.00  0.00     0.000 C 
BRANCH   5   6
ATOM      6  C   UNL     1       6.204 -12.339   0.354  1.00  0.00     0.000 C 
BRANCH   6   7
ATOM      7  C   UNL     1       6.986 -13.332   1.241  1.00  0.00     0.006 C 
BRANCH   7   8
ATOM      8  C   UNL     1       8.188 -13.979   0.533  1.00  0.00     0.053 C 
BRANCH   8   9
ATOM      9  C   UNL     1       7.876 -15.341  -0.003  1.00  0.00     0.041 C 
ATOM     10  O   UNL     1       8.311 -16.368   0.583  1.00  0.00    -0.550 OA
ATOM     11  O   UNL     1       7.113 -15.478  -1.155  1.00  0.00    -0.550 OA
ENDBRANCH   8   9
ENDBRANCH   7   8
ENDBRANCH   6   7
ENDBRANCH   5   6
ENDBRANCH   4   5
ENDBRANCH   3   4
ENDBRANCH   2   3
ENDBRANCH   1   2
BRANCH   1  12
ATOM     12  C   UNL     1       2.857 -12.657   4.142  1.00  0.00     0.000 C 
BRANCH  12  13
ATOM     13  C   UNL     1       4.339 -13.056   4.001  1.00  0.00    -0.000 C 
BRANCH  13  14
ATOM     14  C   UNL     1       4.909 -13.890   5.165  1.00  0.00    -0.000 C 
BRANCH  14  15
ATOM     15  C   UNL     1       4.877 -13.193   6.537  1.00  0.00    -0.000 C 
BRANCH  15  16
ATOM     16  C   UNL     1       6.069 -12.244   6.749  1.00  0.00    -0.000 C 
BRANCH  16  17
ATOM     17  C   UNL     1       5.637 -10.863   7.265  1.00  0.00    -0.000 C 
BRANCH  17  18
ATOM     18  C   UNL     1       4.186 -10.518   6.886  1.00  0.00    -0.000 C 
BRANCH  18  19
ATOM     19  C   UNL     1       4.091  -9.275   5.989  1.00  0.00    -0.003 C 
ATOM     20  C   UNL     1       2.649  -8.909   5.639  1.00  0.00     0.004 C 
ENDBRANCH  18  19
ENDBRANCH  17  18
ENDBRANCH  16  17
ENDBRANCH  15  16
ENDBRANCH  14  15
ENDBRANCH  13  14
ENDBRANCH  12  13
ENDBRANCH   1  12
TORSDOF 16
ENDMDL
MODEL 7
REMARK VINA RESULT:    -4.422      3.728      7.418
REMARK INTER + INTRA:         -10.699
REMARK INTER:                  -9.379
REMARK INTRA:                  -1.320
REMARK UNBOUND:                -2.141
REMARK SMILES CCCCCCCCCCCCCCCCCC(=O)[O-]
REMARK SMILES IDX 10 1 11 2 12 3 13 4 14 5 15 6 16 7 17 8 18 9 19 10 20 11
REMARK SMILES IDX 9 12 8 13 7 14 6 15 5 16 4 17 3 18 2 19 1 20
REMARK H PARENT
REMARK Flexibility Score: inf
ROOT
ATOM      1  C   UNL     1       4.752 -13.596   6.269  1.00  0.00     0.000 C 
ENDROOT
BRANCH   1   2
ATOM      2  C   UNL     1       4.667 -14.023   4.794  1.00  0.00     0.000 C 
BRANCH   2   3
ATOM      3  C   UNL     1       3.305 -13.694   4.162  1.00  0.00     0.000 C 
BRANCH   3   4
ATOM      4  C   UNL     1       3.438 -13.029   2.780  1.00  0.00     0.000 C 
BRANCH   4   5
ATOM      5  C   UNL     1       4.888 -13.088   2.248  1.00  0.00     0.000 C 
BRANCH   5   6
ATOM      6  C   UNL     1       5.118 -12.205   1.008  1.00  0.00     0.000 C 
BRANCH   6   7
ATOM      7  C   UNL     1       6.226 -12.715   0.062  1.00  0.00     0.006 C 
BRANCH   7   8
ATOM      8  C   UNL     1       7.604 -12.842   0.734  1.00  0.00     0.053 C 
BRANCH   8   9
ATOM      9  C   UNL     1       8.252 -14.165   0.470  1.00  0.00     0.041 C 
ATOM     10  O   UNL     1       9.502 -14.286   0.559  1.00  0.00    -0.550 OA
ATOM     11  O   UNL     1       7.477 -15.261   0.116  1.00  0.00    -0.550 OA
ENDBRANCH   8   9
ENDBRANCH   7   8
ENDBRANCH   6   7
ENDBRANCH   5   6
ENDBRANCH   4   5
ENDBRANCH   3   4
ENDBRANCH   2   3
ENDBRANCH   1   2
BRANCH   1  12
ATOM     12  C   UNL     1       5.805 -12.500   6.512  1.00  0.00     0.000 C 
BRANCH  12  13
ATOM     13  C   UNL     1       5.279 -11.248   7.241  1.00  0.00    -0.000 C 
BRANCH  13  14
ATOM     14  C   UNL     1       3.902 -10.741   6.767  1.00  0.00    -0.000 C 
BRANCH  14  15
ATOM     15  C   UNL     1       3.854 -10.272   5.302  1.00  0.00    -0.000 C 
BRANCH  15  16
ATOM     16  C   UNL     1       3.724  -8.745   5.171  1.00  0.00    -0.000 C 
BRANCH  16  17
ATOM     17  C   UNL     1       3.587  -8.047   6.533  1.00  0.00    -0.000 C 
BRANCH  17  18
ATOM     18  C   UNL     1       2.544  -6.916   6.514  1.00  0.00    -0.000 C 
BRANCH  18  19
ATOM     19  C   UNL     1       3.121  -5.575   6.994  1.00  0.00    -0.003 C 
ATOM     20  C   UNL     1       2.151  -4.411   6.794  1.00  0.00     0.004 C 
ENDBRANCH  18  19
ENDBRANCH  17  18
ENDBRANCH  16  17
ENDBRANCH  15  16
ENDBRANCH  14  15
ENDBRANCH  13  14
ENDBRANCH  12  13
ENDBRANCH   1  12
TORSDOF 16
ENDMDL
MODEL 8
REMARK VINA RESULT:    -4.415      1.754      2.608
REMARK INTER + INTRA:         -10.686
REMARK INTER:                  -8.760
REMARK INTRA:                  -1.926
REMARK UNBOUND:                -2.141
REMARK SMILES CCCCCCCCCCCCCCCCCC(=O)[O-]
REMARK SMILES IDX 10 1 11 2 12 3 13 4 14 5 15 6 16 7 17 8 18 9 19 10 20 11
REMARK SMILES IDX 9 12 8 13 7 14 6 15 5 16 4 17 3 18 2 19 1 20
REMARK H PARENT
REMARK Flexibility Score: inf
ROOT
ATOM      1  C   UNL     1       4.881 -13.780   4.016  1.00  0.00     0.000 C 
ENDROOT
BRANCH   1   2
ATOM      2  C   UNL     1       4.303 -13.521   5.417  1.00  0.00     0.000 C 
BRANCH   2   3
ATOM      3  C   UNL     1       5.393 -13.401   6.493  1.00  0.00     0.000 C 
BRANCH   3   4
ATOM      4  C   UNL     1       5.688 -11.941   6.878  1.00  0.00     0.000 C 
BRANCH   4   5
ATOM      5  C   UNL     1       4.393 -11.110   7.025  1.00  0.00     0.000 C 
BRANCH   5   6
ATOM      6  C   UNL     1       4.508  -9.693   6.435  1.00  0.00     0.000 C 
BRANCH   6   7
ATOM      7  C   UNL     1       3.742  -9.493   5.110  1.00  0.00     0.006 C 
BRANCH   7   8
ATOM      8  C   UNL     1       2.318 -10.075   5.124  1.00  0.00     0.053 C 
BRANCH   8   9
ATOM      9  C   UNL     1       1.676 -10.056   3.773  1.00  0.00     0.041 C 
ATOM     10  O   UNL     1       1.894  -9.102   2.980  1.00  0.00    -0.550 OA
ATOM     11  O   UNL     1       0.828 -11.088   3.391  1.00  0.00    -0.550 OA
ENDBRANCH   8   9
ENDBRANCH   7   8
ENDBRANCH   6   7
ENDBRANCH   5   6
ENDBRANCH   4   5
ENDBRANCH   3   4
ENDBRANCH   2   3
ENDBRANCH   1   2
BRANCH   1  12
ATOM     12  C   UNL     1       3.906 -13.394   2.889  1.00  0.00     0.000 C 
BRANCH  12  13
ATOM     13  C   UNL     1       4.143 -11.999   2.278  1.00  0.00    -0.000 C 
BRANCH  13  14
ATOM     14  C   UNL     1       4.163 -11.951   0.736  1.00  0.00    -0.000 C 
BRANCH  14  15
ATOM     15  C   UNL     1       5.226 -12.847   0.076  1.00  0.00    -0.000 C 
BRANCH  15  16
ATOM     16  C   UNL     1       6.604 -12.170  -0.010  1.00  0.00    -0.000 C 
BRANCH  16  17
ATOM     17  C   UNL     1       7.669 -12.894   0.828  1.00  0.00    -0.000 C 
BRANCH  17  18
ATOM     18  C   UNL     1       7.579 -14.425   0.702  1.00  0.00    -0.000 C 
BRANCH  18  19
ATOM     19  C   UNL     1       8.602 -14.994  -0.293  1.00  0.00    -0.003 C 
ATOM     20  C   UNL     1       8.022 -15.173  -1.696  1.00  0.00     0.004 C 
ENDBRANCH  18  19
ENDBRANCH  17  18
ENDBRANCH  16  17
ENDBRANCH  15  16
ENDBRANCH  14  15
ENDBRANCH  13  14
ENDBRANCH  12  13
ENDBRANCH   1  12
TORSDOF 16
ENDMDL
MODEL 9
REMARK VINA RESULT:    -4.318      3.164      6.311
REMARK INTER + INTRA:         -10.497
REMARK INTER:                  -7.862
REMARK INTRA:                  -2.635
REMARK UNBOUND:                -2.141
REMARK SMILES CCCCCCCCCCCCCCCCCC(=O)[O-]
REMARK SMILES IDX 10 1 11 2 12 3 13 4 14 5 15 6 16 7 17 8 18 9 19 10 20 11
REMARK SMILES IDX 9 12 8 13 7 14 6 15 5 16 4 17 3 18 2 19 1 20
REMARK H PARENT
REMARK Flexibility Score: inf
ROOT
ATOM      1  C   UNL     1       4.446 -14.157   4.590  1.00  0.00     0.000 C 
ENDROOT
BRANCH   1   2
ATOM      2  C   UNL     1       3.014 -13.804   4.156  1.00  0.00     0.000 C 
BRANCH   2   3
ATOM      3  C   UNL     1       2.462 -14.772   3.099  1.00  0.00     0.000 C 
BRANCH   3   4
ATOM      4  C   UNL     1       1.740 -14.045   1.950  1.00  0.00     0.000 C 
BRANCH   4   5
ATOM      5  C   UNL     1       2.722 -13.590   0.847  1.00  0.00     0.000 C 
BRANCH   5   6
ATOM      6  C   UNL     1       3.000 -12.077   0.865  1.00  0.00     0.000 C 
BRANCH   6   7
ATOM      7  C   UNL     1       4.497 -11.707   0.939  1.00  0.00     0.006 C 
BRANCH   7   8
ATOM      8  C   UNL     1       5.423 -12.915   1.163  1.00  0.00     0.053 C 
BRANCH   8   9
ATOM      9  C   UNL     1       6.621 -12.895   0.266  1.00  0.00     0.041 C 
ATOM     10  O   UNL     1       6.505 -13.186  -0.954  1.00  0.00    -0.550 OA
ATOM     11  O   UNL     1       7.869 -12.566   0.779  1.00  0.00    -0.550 OA
ENDBRANCH   8   9
ENDBRANCH   7   8
ENDBRANCH   6   7
ENDBRANCH   5   6
ENDBRANCH   4   5
ENDBRANCH   3   4
ENDBRANCH   2   3
ENDBRANCH   1   2
BRANCH   1  12
ATOM     12  C   UNL     1       5.246 -12.929   5.062  1.00  0.00     0.000 C 
BRANCH  12  13
ATOM     13  C   UNL     1       5.545 -12.893   6.573  1.00  0.00    -0.000 C 
BRANCH  13  14
ATOM     14  C   UNL     1       5.340 -11.524   7.252  1.00  0.00    -0.000 C 
BRANCH  14  15
ATOM     15  C   UNL     1       4.047 -10.791   6.852  1.00  0.00    -0.000 C 
BRANCH  15  16
ATOM     16  C   UNL     1       4.268  -9.290   6.600  1.00  0.00    -0.000 C 
BRANCH  16  17
ATOM     17  C   UNL     1       3.759  -8.844   5.220  1.00  0.00    -0.000 C 
BRANCH  17  18
ATOM     18  C   UNL     1       3.400 -10.033   4.311  1.00  0.00    -0.000 C 
BRANCH  18  19
ATOM     19  C   UNL     1       2.049  -9.846   3.604  1.00  0.00    -0.003 C 
ATOM     20  C   UNL     1       0.959 -10.757   4.167  1.00  0.00     0.004 C 
ENDBRANCH  18  19
ENDBRANCH  17  18
ENDBRANCH  16  17
ENDBRANCH  15  16
ENDBRANCH  14  15
ENDBRANCH  13  14
ENDBRANCH  12  13
ENDBRANCH   1  12
TORSDOF 16
ENDMDL
