MODEL 1
REMARK VINA RESULT:    -4.921      0.000      0.000
REMARK INTER + INTRA:          -9.606
REMARK INTER:                  -8.373
REMARK INTRA:                  -1.233
REMARK UNBOUND:                -1.233
REMARK SMILES CCCCCCCCCCCCCC(=O)[O-]
REMARK SMILES IDX 8 1 9 2 10 3 11 4 12 5 13 6 14 7 15 8 16 9 7 10 6 11 5 12
REMARK SMILES IDX 4 13 3 14 2 15 1 16
REMARK H PARENT
REMARK Flexibility Score: inf
ROOT
ATOM      1  C   UNL     1       3.234  -0.028  38.485  1.00  0.00     0.000 C 
ENDROOT
BRANCH   1   2
ATOM      2  C   UNL     1       3.843   0.501  37.178  1.00  0.00     0.000 C 
BRANCH   2   3
ATOM      3  C   UNL     1       4.998  -0.374  36.657  1.00  0.00     0.000 C 
BRANCH   3   4
ATOM      4  C   UNL     1       6.243   0.402  36.189  1.00  0.00     0.000 C 
BRANCH   4   5
ATOM      5  C   UNL     1       7.390  -0.517  35.743  1.00  0.00     0.006 C 
BRANCH   5   6
ATOM      6  C   UNL     1       8.112   0.060  34.522  1.00  0.00     0.053 C 
BRANCH   6   7
ATOM      7  C   UNL     1       8.924   1.254  34.909  1.00  0.00     0.041 C 
ATOM      8  O   UNL     1       8.954   2.270  34.166  1.00  0.00    -0.550 OA
ATOM      9  O   UNL     1       9.610   1.266  36.118  1.00  0.00    -0.550 OA
ENDBRANCH   6   7
ENDBRANCH   5   6
ENDBRANCH   4   5
ENDBRANCH   3   4
ENDBRANCH   2   3
ENDBRANCH   1   2
BRANCH   1  10
ATOM     10  C   UNL     1       1.943  -0.808  38.213  1.00  0.00     0.000 C 
BRANCH  10  11
ATOM     11  C   UNL     1       1.675  -1.834  39.321  1.00  0.00    -0.000 C 
BRANCH  11  12
ATOM     12  C   UNL     1       2.927  -2.683  39.596  1.00  0.00    -0.000 C 
BRANCH  12  13
ATOM     13  C   UNL     1       3.132  -3.793  38.553  1.00  0.00    -0.000 C 
BRANCH  13  14
ATOM     14  C   UNL     1       4.511  -3.718  37.874  1.00  0.00    -0.000 C 
BRANCH  14  15
ATOM     15  C   UNL     1       4.428  -3.912  36.352  1.00  0.00    -0.003 C 
ATOM     16  C   UNL     1       5.799  -3.891  35.675  1.00  0.00     0.004 C 
ENDBRANCH  14  15
ENDBRANCH  13  14
ENDBRANCH  12  13
ENDBRANCH  11  12
ENDBRANCH  10  11
ENDBRANCH   1  10
TORSDOF 12
ENDMDL
MODEL 2
REMARK VINA RESULT:    -4.911      2.774      5.741
REMARK INTER + INTRA:          -9.589
REMARK INTER:                  -8.747
REMARK INTRA:                  -0.842
REMARK UNBOUND:                -1.233
REMARK SMILES CCCCCCCCCCCCCC(=O)[O-]
REMARK SMILES IDX 8 1 9 2 10 3 11 4 12 5 13 6 14 7 15 8 16 9 7 10 6 11 5 12
REMARK SMILES IDX 4 13 3 14 2 15 1 16
REMARK H PARENT
REMARK Flexibility Score: inf
ROOT
ATOM      1  C   UNL     1       9.514   1.738  35.331  1.00  0.00     0.000 C 
ENDROOT
BRANCH   1   2
ATOM      2  C   UNL     1      10.170   1.317  34.007  1.00  0.00     0.000 C 
BRANCH   2   3
ATOM      3  C   UNL     1      11.121   0.117  34.163  1.00  0.00     0.000 C 
BRANCH   3   4
ATOM      4  C   UNL     1      12.514   0.458  34.723  1.00  0.00     0.000 C 
BRANCH   4   5
ATOM      5  C   UNL     1      13.017   1.840  34.276  1.00  0.00     0.006 C 
BRANCH   5   6
ATOM      6  C   UNL     1      13.229   2.761  35.481  1.00  0.00     0.053 C 
BRANCH   6   7
ATOM      7  C   UNL     1      12.480   4.043  35.300  1.00  0.00     0.041 C 
ATOM      8  O   UNL     1      12.061   4.377  34.161  1.00  0.00    -0.550 OA
ATOM      9  O   UNL     1      12.199   4.845  36.399  1.00  0.00    -0.550 OA
ENDBRANCH   6   7
ENDBRANCH   5   6
ENDBRANCH   4   5
ENDBRANCH   3   4
ENDBRANCH   2   3
ENDBRANCH   1   2
BRANCH   1  10
ATOM     10  C   UNL     1       9.009   0.516  36.106  1.00  0.00     0.000 C 
BRANCH  10  11
ATOM     11  C   UNL     1       7.666   0.027  35.550  1.00  0.00    -0.000 C 
BRANCH  11  12
ATOM     12  C   UNL     1       6.493   0.629  36.339  1.00  0.00    -0.000 C 
BRANCH  12  13
ATOM     13  C   UNL     1       5.258  -0.287  36.358  1.00  0.00    -0.000 C 
BRANCH  13  14
ATOM     14  C   UNL     1       4.042   0.376  37.029  1.00  0.00    -0.000 C 
BRANCH  14  15
ATOM     15  C   UNL     1       3.301  -0.579  37.979  1.00  0.00    -0.003 C 
ATOM     16  C   UNL     1       3.672  -2.045  37.754  1.00  0.00     0.004 C 
ENDBRANCH  14  15
ENDBRANCH  13  14
ENDBRANCH  12  13
ENDBRANCH  11  12
ENDBRANCH  10  11
ENDBRANCH   1  10
TORSDOF 12
ENDMDL
MODEL 3
REMARK VINA RESULT:    -4.888      1.603      3.758
REMARK INTER + INTRA:          -9.550
REMARK INTER:                  -8.718
REMARK INTRA:                  -0.832
REMARK UNBOUND:                -1.233
REMARK SMILES CCCCCCCCCCCCCC(=O)[O-]
REMARK SMILES IDX 8 1 9 2 10 3 11 4 12 5 13 6 14 7 15 8 16 9 7 10 6 11 5 12
REMARK SMILES IDX 4 13 3 14 2 15 1 16
REMARK H PARENT
REMARK Flexibility Score: inf
ROOT
ATOM      1  C   UNL     1       6.798  -1.474  35.978  1.00  0.00     0.000 C 
ENDROOT
BRANCH   1   2
ATOM      2  C   UNL     1       7.438  -0.099  35.735  1.00  0.00     0.000 C 
BRANCH   2   3
ATOM      3  C   UNL     1       7.898   0.100  34.280  1.00  0.00     0.000 C 
BRANCH   3   4
ATOM      4  C   UNL     1       9.296  -0.460  33.956  1.00  0.00     0.000 C 
BRANCH   4   5
ATOM      5  C   UNL     1      10.315   0.637  33.611  1.00  0.00     0.006 C 
BRANCH   5   6
ATOM      6  C   UNL     1      11.638   0.407  34.346  1.00  0.00     0.053 C 
BRANCH   6   7
ATOM      7  C   UNL     1      11.726   1.284  35.555  1.00  0.00     0.041 C 
ATOM      8  O   UNL     1      12.741   1.240  36.298  1.00  0.00    -0.550 OA
ATOM      9  O   UNL     1      10.707   2.187  35.834  1.00  0.00    -0.550 OA
ENDBRANCH   6   7
ENDBRANCH   5   6
ENDBRANCH   4   5
ENDBRANCH   3   4
ENDBRANCH   2   3
ENDBRANCH   1   2
BRANCH   1  10
ATOM     10  C   UNL     1       5.326  -1.330  36.384  1.00  0.00     0.000 C 
BRANCH  10  11
ATOM     11  C   UNL     1       4.963   0.140  36.627  1.00  0.00    -0.000 C 
BRANCH  11  12
ATOM     12  C   UNL     1       3.749   0.259  37.561  1.00  0.00    -0.000 C 
BRANCH  12  13
ATOM     13  C   UNL     1       3.111  -1.103  37.881  1.00  0.00    -0.000 C 
BRANCH  13  14
ATOM     14  C   UNL     1       2.668  -1.216  39.350  1.00  0.00    -0.000 C 
BRANCH  14  15
ATOM     15  C   UNL     1       2.947  -2.607  39.943  1.00  0.00    -0.003 C 
ATOM     16  C   UNL     1       3.458  -3.603  38.902  1.00  0.00     0.004 C 
ENDBRANCH  14  15
ENDBRANCH  13  14
ENDBRANCH  12  13
ENDBRANCH  11  12
ENDBRANCH  10  11
ENDBRANCH   1  10
TORSDOF 12
ENDMDL
MODEL 4
REMARK VINA RESULT:    -4.885      2.365      4.219
REMARK INTER + INTRA:          -9.546
REMARK INTER:                  -8.872
REMARK INTRA:                  -0.674
REMARK UNBOUND:                -1.233
REMARK SMILES CCCCCCCCCCCCCC(=O)[O-]
REMARK SMILES IDX 8 1 9 2 10 3 11 4 12 5 13 6 14 7 15 8 16 9 7 10 6 11 5 12
REMARK SMILES IDX 4 13 3 14 2 15 1 16
REMARK H PARENT
REMARK Flexibility Score: inf
ROOT
ATOM      1  C   UNL     1       6.733  -0.822  35.910  1.00  0.00     0.000 C 
ENDROOT
BRANCH   1   2
ATOM      2  C   UNL     1       8.133  -0.323  35.520  1.00  0.00     0.000 C 
BRANCH   2   3
ATOM      3  C   UNL     1       8.411   1.114  35.994  1.00  0.00     0.000 C 
BRANCH   3   4
ATOM      4  C   UNL     1       9.760   1.314  36.711  1.00  0.00     0.000 C 
BRANCH   4   5
ATOM      5  C   UNL     1      10.760   2.140  35.887  1.00  0.00     0.006 C 
BRANCH   5   6
ATOM      6  C   UNL     1      12.055   1.358  35.652  1.00  0.00     0.053 C 
BRANCH   6   7
ATOM      7  C   UNL     1      13.070   2.218  34.969  1.00  0.00     0.041 C 
ATOM      8  O   UNL     1      13.618   1.828  33.906  1.00  0.00    -0.550 OA
ATOM      9  O   UNL     1      13.375   3.473  35.481  1.00  0.00    -0.550 OA
ENDBRANCH   6   7
ENDBRANCH   5   6
ENDBRANCH   4   5
ENDBRANCH   3   4
ENDBRANCH   2   3
ENDBRANCH   1   2
BRANCH   1  10
ATOM     10  C   UNL     1       5.849   0.338  36.383  1.00  0.00     0.000 C 
BRANCH  10  11
ATOM     11  C   UNL     1       4.481  -0.170  36.854  1.00  0.00    -0.000 C 
BRANCH  11  12
ATOM     12  C   UNL     1       4.472  -1.703  36.963  1.00  0.00    -0.000 C 
BRANCH  12  13
ATOM     13  C   UNL     1       3.383  -2.224  37.916  1.00  0.00    -0.000 C 
BRANCH  13  14
ATOM     14  C   UNL     1       2.605  -1.087  38.601  1.00  0.00    -0.000 C 
BRANCH  14  15
ATOM     15  C   UNL     1       2.368  -1.354  40.096  1.00  0.00    -0.003 C 
ATOM     16  C   UNL     1       2.978  -2.674  40.566  1.00  0.00     0.004 C 
ENDBRANCH  14  15
ENDBRANCH  13  14
ENDBRANCH  12  13
ENDBRANCH  11  12
ENDBRANCH  10  11
ENDBRANCH   1  10
TORSDOF 12
ENDMDL
MODEL 5
REMARK VINA RESULT:    -4.866      3.903      7.502
REMARK INTER + INTRA:          -9.512
REMARK INTER:                  -8.895
REMARK INTRA:                  -0.617
REMARK UNBOUND:                -1.233
REMARK SMILES CCCCCCCCCCCCCC(=O)[O-]
REMARK SMILES IDX 8 1 9 2 10 3 11 4 12 5 13 6 14 7 15 8 16 9 7 10 6 11 5 12
REMARK SMILES IDX 4 13 3 14 2 15 1 16
REMARK H PARENT
REMARK Flexibility Score: inf
ROOT
ATOM      1  C   UNL     1       5.888   0.222  36.359  1.00  0.00     0.000 C 
ENDROOT
BRANCH   1   2
ATOM      2  C   UNL     1       4.591  -0.461  36.818  1.00  0.00     0.000 C 
BRANCH   2   3
ATOM      3  C   UNL     1       4.698  -1.997  36.845  1.00  0.00     0.000 C 
BRANCH   3   4
ATOM      4  C   UNL     1       3.573  -2.715  37.612  1.00  0.00     0.000 C 
BRANCH   4   5
ATOM      5  C   UNL     1       2.928  -1.834  38.694  1.00  0.00     0.006 C 
BRANCH   5   6
ATOM      6  C   UNL     1       2.958  -2.531  40.057  1.00  0.00     0.053 C 
BRANCH   6   7
ATOM      7  C   UNL     1       2.264  -1.698  41.087  1.00  0.00     0.041 C 
ATOM      8  O   UNL     1       2.755  -0.597  41.448  1.00  0.00    -0.550 OA
ATOM      9  O   UNL     1       1.047  -2.114  41.613  1.00  0.00    -0.550 OA
ENDBRANCH   6   7
ENDBRANCH   5   6
ENDBRANCH   4   5
ENDBRANCH   3   4
ENDBRANCH   2   3
ENDBRANCH   1   2
BRANCH   1  10
ATOM     10  C   UNL     1       6.822  -0.780  35.670  1.00  0.00     0.000 C 
BRANCH  10  11
ATOM     11  C   UNL     1       8.283  -0.324  35.765  1.00  0.00    -0.000 C 
BRANCH  11  12
ATOM     12  C   UNL     1       8.377   1.208  35.830  1.00  0.00    -0.000 C 
BRANCH  12  13
ATOM     13  C   UNL     1       9.486   1.695  36.778  1.00  0.00    -0.000 C 
BRANCH  13  14
ATOM     14  C   UNL     1      10.700   2.265  36.022  1.00  0.00    -0.000 C 
BRANCH  14  15
ATOM     15  C   UNL     1      11.758   1.193  35.717  1.00  0.00    -0.003 C 
ATOM     16  C   UNL     1      13.183   1.747  35.721  1.00  0.00     0.004 C 
ENDBRANCH  14  15
ENDBRANCH  13  14
ENDBRANCH  12  13
ENDBRANCH  11  12
ENDBRANCH  10  11
ENDBRANCH   1  10
TORSDOF 12
ENDMDL
MODEL 6
REMARK VINA RESULT:    -4.866      3.730      7.386
REMARK INTER + INTRA:          -9.512
REMARK INTER:                  -8.837
REMARK INTRA:                  -0.675
REMARK UNBOUND:                -1.233
REMARK SMILES CCCCCCCCCCCCCC(=O)[O-]
REMARK SMILES IDX 8 1 9 2 10 3 11 4 12 5 13 6 14 7 15 8 16 9 7 10 6 11 5 12
REMARK SMILES IDX 4 13 3 14 2 15 1 16
REMARK H PARENT
REMARK Flexibility Score: inf
ROOT
ATOM      1  C   UNL     1       6.857  -0.825  35.829  1.00  0.00     0.000 C 
ENDROOT
BRANCH   1   2
ATOM      2  C   UNL     1       5.760   0.083  36.405  1.00  0.00     0.000 C 
BRANCH   2   3
ATOM      3  C   UNL     1       4.554  -0.703  36.949  1.00  0.00     0.000 C 
BRANCH   3   4
ATOM      4  C   UNL     1       3.483   0.151  37.652  1.00  0.00     0.000 C 
BRANCH   4   5
ATOM      5  C   UNL     1       2.925  -0.512  38.921  1.00  0.00     0.006 C 
BRANCH   5   6
ATOM      6  C   UNL     1       2.420  -1.927  38.622  1.00  0.00     0.053 C 
BRANCH   6   7
ATOM      7  C   UNL     1       2.829  -2.870  39.709  1.00  0.00     0.041 C 
ATOM      8  O   UNL     1       3.113  -4.065  39.437  1.00  0.00    -0.550 OA
ATOM      9  O   UNL     1       2.945  -2.414  41.017  1.00  0.00    -0.550 OA
ENDBRANCH   6   7
ENDBRANCH   5   6
ENDBRANCH   4   5
ENDBRANCH   3   4
ENDBRANCH   2   3
ENDBRANCH   1   2
BRANCH   1  10
ATOM     10  C   UNL     1       8.139  -0.030  35.554  1.00  0.00     0.000 C 
BRANCH  10  11
ATOM     11  C   UNL     1       8.220   1.212  36.450  1.00  0.00    -0.000 C 
BRANCH  11  12
ATOM     12  C   UNL     1       9.675   1.508  36.849  1.00  0.00    -0.000 C 
BRANCH  12  13
ATOM     13  C   UNL     1      10.560   1.861  35.643  1.00  0.00    -0.000 C 
BRANCH  13  14
ATOM     14  C   UNL     1      12.017   1.398  35.824  1.00  0.00    -0.000 C 
BRANCH  14  15
ATOM     15  C   UNL     1      12.468   0.431  34.718  1.00  0.00    -0.003 C 
ATOM     16  C   UNL     1      11.299  -0.136  33.912  1.00  0.00     0.004 C 
ENDBRANCH  14  15
ENDBRANCH  13  14
ENDBRANCH  12  13
ENDBRANCH  11  12
ENDBRANCH  10  11
ENDBRANCH   1  10
TORSDOF 12
ENDMDL
MODEL 7
REMARK VINA RESULT:    -4.798      1.284      3.208
REMARK INTER + INTRA:          -9.398
REMARK INTER:                  -8.474
REMARK INTRA:                  -0.924
REMARK UNBOUND:                -1.233
REMARK SMILES CCCCCCCCCCCCCC(=O)[O-]
REMARK SMILES IDX 8 1 9 2 10 3 11 4 12 5 13 6 14 7 15 8 16 9 7 10 6 11 5 12
REMARK SMILES IDX 4 13 3 14 2 15 1 16
REMARK H PARENT
REMARK Flexibility Score: inf
ROOT
ATOM      1  C   UNL     1       5.285  -2.320  36.442  1.00  0.00     0.000 C 
ENDROOT
BRANCH   1   2
ATOM      2  C   UNL     1       6.750  -2.296  35.981  1.00  0.00     0.000 C 
BRANCH   2   3
ATOM      3  C   UNL     1       7.271  -0.872  35.711  1.00  0.00     0.000 C 
BRANCH   3   4
ATOM      4  C   UNL     1       7.941  -0.673  34.339  1.00  0.00     0.000 C 
BRANCH   4   5
ATOM      5  C   UNL     1       9.226   0.166  34.416  1.00  0.00     0.006 C 
BRANCH   5   6
ATOM      6  C   UNL     1       8.941   1.552  34.999  1.00  0.00     0.053 C 
BRANCH   6   7
ATOM      7  C   UNL     1       9.800   1.804  36.198  1.00  0.00     0.041 C 
ATOM      8  O   UNL     1       9.276   1.959  37.332  1.00  0.00    -0.550 OA
ATOM      9  O   UNL     1      11.183   1.817  36.070  1.00  0.00    -0.550 OA
ENDBRANCH   6   7
ENDBRANCH   5   6
ENDBRANCH   4   5
ENDBRANCH   3   4
ENDBRANCH   2   3
ENDBRANCH   1   2
BRANCH   1  10
ATOM     10  C   UNL     1       4.933  -3.669  37.082  1.00  0.00     0.000 C 
BRANCH  10  11
ATOM     11  C   UNL     1       3.424  -3.786  37.324  1.00  0.00    -0.000 C 
BRANCH  11  12
ATOM     12  C   UNL     1       3.128  -4.099  38.800  1.00  0.00    -0.000 C 
BRANCH  12  13
ATOM     13  C   UNL     1       3.028  -2.833  39.666  1.00  0.00    -0.000 C 
BRANCH  13  14
ATOM     14  C   UNL     1       2.306  -1.680  38.946  1.00  0.00    -0.000 C 
BRANCH  14  15
ATOM     15  C   UNL     1       3.111  -0.371  38.980  1.00  0.00    -0.003 C 
ATOM     16  C   UNL     1       3.071   0.385  37.651  1.00  0.00     0.004 C 
ENDBRANCH  14  15
ENDBRANCH  13  14
ENDBRANCH  12  13
ENDBRANCH  11  12
ENDBRANCH  10  11
ENDBRANCH   1  10
TORSDOF 12
ENDMDL
MODEL 8
REMARK VINA RESULT:    -4.795      3.972      8.426
REMARK INTER + INTRA:          -9.392
REMARK INTER:                  -8.787
REMARK INTRA:                  -0.604
REMARK UNBOUND:                -1.233
REMARK SMILES CCCCCCCCCCCCCC(=O)[O-]
REMARK SMILES IDX 8 1 9 2 10 3 11 4 12 5 13 6 14 7 15 8 16 9 7 10 6 11 5 12
REMARK SMILES IDX 4 13 3 14 2 15 1 16
REMARK H PARENT
REMARK Flexibility Score: inf
ROOT
ATOM      1  C   UNL     1       8.503   0.697  34.697  1.00  0.00     0.000 C 
ENDROOT
BRANCH   1   2
ATOM      2  C   UNL     1       7.681   0.759  35.993  1.00  0.00     0.000 C 
BRANCH   2   3
ATOM      3  C   UNL     1       6.503  -0.232  36.005  1.00  0.00     0.000 C 
BRANCH   3   4
ATOM      4  C   UNL     1       5.146   0.373  36.407  1.00  0.00     0.000 C 
BRANCH   4   5
ATOM      5  C   UNL     1       4.283  -0.589  37.238  1.00  0.00     0.006 C 
BRANCH   5   6
ATOM      6  C   UNL     1       3.127   0.155  37.912  1.00  0.00     0.053 C 
BRANCH   6   7
ATOM      7  C   UNL     1       2.198  -0.810  38.577  1.00  0.00     0.041 C 
ATOM      8  O   UNL     1       1.134  -1.164  38.004  1.00  0.00    -0.550 OA
ATOM      9  O   UNL     1       2.532  -1.360  39.808  1.00  0.00    -0.550 OA
ENDBRANCH   6   7
ENDBRANCH   5   6
ENDBRANCH   4   5
ENDBRANCH   3   4
ENDBRANCH   2   3
ENDBRANCH   1   2
BRANCH   1  10
ATOM     10  C   UNL     1       9.584   1.785  34.681  1.00  0.00     0.000 C 
BRANCH  10  11
ATOM     11  C   UNL     1      10.703   1.435  33.693  1.00  0.00    -0.000 C 
BRANCH  11  12
ATOM     12  C   UNL     1      11.575   0.291  34.235  1.00  0.00    -0.000 C 
BRANCH  12  13
ATOM     13  C   UNL     1      12.774   0.796  35.053  1.00  0.00    -0.000 C 
BRANCH  13  14
ATOM     14  C   UNL     1      13.172   2.237  34.689  1.00  0.00    -0.000 C 
BRANCH  14  15
ATOM     15  C   UNL     1      13.342   3.131  35.928  1.00  0.00    -0.003 C 
ATOM     16  C   UNL     1      12.497   4.403  35.863  1.00  0.00     0.004 C 
ENDBRANCH  14  15
ENDBRANCH  13  14
ENDBRANCH  12  13
ENDBRANCH  11  12
ENDBRANCH  10  11
ENDBRANCH   1  10
TORSDOF 12
ENDMDL
MODEL 9
REMARK VINA RESULT:    -4.772      1.656      3.633
REMARK INTER + INTRA:          -9.354
REMARK INTER:                  -8.655
REMARK INTRA:                  -0.699
REMARK UNBOUND:                -1.233
REMARK SMILES CCCCCCCCCCCCCC(=O)[O-]
REMARK SMILES IDX 8 1 9 2 10 3 11 4 12 5 13 6 14 7 15 8 16 9 7 10 6 11 5 12
REMARK SMILES IDX 4 13 3 14 2 15 1 16
REMARK H PARENT
REMARK Flexibility Score: inf
ROOT
ATOM      1  C   UNL     1       5.966   0.163  36.345  1.00  0.00     0.000 C 
ENDROOT
BRANCH   1   2
ATOM      2  C   UNL     1       7.162  -0.539  35.685  1.00  0.00     0.000 C 
BRANCH   2   3
ATOM      3  C   UNL     1       8.391   0.377  35.540  1.00  0.00     0.000 C 
BRANCH   3   4
ATOM      4  C   UNL     1       8.625   0.933  34.123  1.00  0.00     0.000 C 
BRANCH   4   5
ATOM      5  C   UNL     1       9.513   2.188  34.111  1.00  0.00     0.006 C 
BRANCH   5   6
ATOM      6  C   UNL     1      10.995   1.809  34.068  1.00  0.00     0.053 C 
BRANCH   6   7
ATOM      7  C   UNL     1      11.677   2.215  35.336  1.00  0.00     0.041 C 
ATOM      8  O   UNL     1      11.897   3.430  35.577  1.00  0.00    -0.550 OA
ATOM      9  O   UNL     1      12.025   1.253  36.277  1.00  0.00    -0.550 OA
ENDBRANCH   6   7
ENDBRANCH   5   6
ENDBRANCH   4   5
ENDBRANCH   3   4
ENDBRANCH   2   3
ENDBRANCH   1   2
BRANCH   1  10
ATOM     10  C   UNL     1       4.890  -0.852  36.751  1.00  0.00     0.000 C 
BRANCH  10  11
ATOM     11  C   UNL     1       5.338  -2.285  36.437  1.00  0.00    -0.000 C 
BRANCH  11  12
ATOM     12  C   UNL     1       4.595  -3.298  37.322  1.00  0.00    -0.000 C 
BRANCH  12  13
ATOM     13  C   UNL     1       3.442  -2.660  38.115  1.00  0.00    -0.000 C 
BRANCH  13  14
ATOM     14  C   UNL     1       3.073  -3.467  39.372  1.00  0.00    -0.000 C 
BRANCH  14  15
ATOM     15  C   UNL     1       2.978  -2.587  40.628  1.00  0.00    -0.003 C 
ATOM     16  C   UNL     1       2.575  -1.146  40.314  1.00  0.00     0.004 C 
ENDBRANCH  14  15
ENDBRANCH  13  14
ENDBRANCH  12  13
ENDBRANCH  11  12
ENDBRANCH  10  11
ENDBRANCH   1  10
TORSDOF 12
ENDMDL
