MODEL 1
REMARK VINA RESULT:     8.040      0.000      0.000
REMARK INTER + INTRA:           9.318
REMARK INTER:                   9.450
REMARK INTRA:                  -0.131
REMARK UNBOUND:                -0.131
REMARK SMILES O=C([O-])C=Cc1ccc(O)c(O)c1
REMARK SMILES IDX 6 1 13 2 7 3 11 4 8 5 9 6 5 7 4 8 2 9 1 10 3 11 12 12 10 14
REMARK H PARENT 12 13 10 15
REMARK Flexibility Score: inf
ROOT
ATOM      1  C   UNL     1      10.119  10.711  31.221  1.00  0.00    -0.022 A 
ATOM      2  C   UNL     1      11.453  10.441  30.879  1.00  0.00     0.058 A 
ATOM      3  C   UNL     1       9.522  11.892  30.746  1.00  0.00     0.012 A 
ATOM      4  C   UNL     1      12.181  11.313  30.058  1.00  0.00     0.157 A 
ATOM      5  C   UNL     1      10.240  12.766  29.927  1.00  0.00     0.051 A 
ATOM      6  C   UNL     1      11.565  12.489  29.572  1.00  0.00     0.157 A 
ENDROOT
BRANCH   1   7
ATOM      7  C   UNL     1       9.405   9.754  32.104  1.00  0.00     0.010 C 
ATOM      8  C   UNL     1       8.148   9.339  31.890  1.00  0.00     0.025 C 
BRANCH   8   9
ATOM      9  C   UNL     1       7.475   8.379  32.781  1.00  0.00     0.064 C 
ATOM     10  O   UNL     1       6.286   8.562  33.157  1.00  0.00    -0.545 OA
ATOM     11  O   UNL     1       8.161   7.253  33.214  1.00  0.00    -0.545 OA
ENDBRANCH   8   9
ENDBRANCH   1   7
BRANCH   4  12
ATOM     12  O   UNL     1      13.501  10.972  29.754  1.00  0.00    -0.504 OA
ATOM     13  H   UNL     1      14.210  10.789  30.448  1.00  0.00     0.293 HD
ENDBRANCH   4  12
BRANCH   6  14
ATOM     14  O   UNL     1      12.224  13.403  28.748  1.00  0.00    -0.504 OA
ATOM     15  H   UNL     1      13.152  13.260  28.377  1.00  0.00     0.293 HD
ENDBRANCH   6  14
TORSDOF 4
ENDMDL
MODEL 2
REMARK VINA RESULT:     8.436      1.135      1.925
REMARK INTER + INTRA:           9.784
REMARK INTER:                   9.923
REMARK INTRA:                  -0.138
REMARK UNBOUND:                -0.131
REMARK SMILES O=C([O-])C=Cc1ccc(O)c(O)c1
REMARK SMILES IDX 6 1 13 2 7 3 11 4 8 5 9 6 5 7 4 8 2 9 1 10 3 11 12 12 10 14
REMARK H PARENT 12 13 10 15
REMARK Flexibility Score: inf
ROOT
ATOM      1  C   UNL     1       9.721  10.796  30.961  1.00  0.00    -0.022 A 
ATOM      2  C   UNL     1       9.712  11.564  29.786  1.00  0.00     0.058 A 
ATOM      3  C   UNL     1      10.885  10.774  31.749  1.00  0.00     0.012 A 
ATOM      4  C   UNL     1      10.830  12.320  29.407  1.00  0.00     0.157 A 
ATOM      5  C   UNL     1      12.004  11.525  31.378  1.00  0.00     0.051 A 
ATOM      6  C   UNL     1      11.989  12.303  30.215  1.00  0.00     0.157 A 
ENDROOT
BRANCH   1   7
ATOM      7  C   UNL     1       8.510  10.008  31.303  1.00  0.00     0.010 C 
ATOM      8  C   UNL     1       8.420   9.209  32.376  1.00  0.00     0.025 C 
BRANCH   8   9
ATOM      9  C   UNL     1       7.198   8.451  32.691  1.00  0.00     0.064 C 
ATOM     10  O   UNL     1       6.902   7.400  32.062  1.00  0.00    -0.545 OA
ATOM     11  O   UNL     1       6.356   8.900  33.700  1.00  0.00    -0.545 OA
ENDBRANCH   8   9
ENDBRANCH   1   7
BRANCH   4  12
ATOM     12  O   UNL     1      10.743  13.065  28.229  1.00  0.00    -0.504 OA
ATOM     13  H   UNL     1      10.580  14.061  28.202  1.00  0.00     0.293 HD
ENDBRANCH   4  12
BRANCH   6  14
ATOM     14  O   UNL     1      13.139  13.031  29.904  1.00  0.00    -0.504 OA
ATOM     15  H   UNL     1      13.133  14.002  29.625  1.00  0.00     0.293 HD
ENDBRANCH   6  14
TORSDOF 4
ENDMDL
MODEL 3
REMARK VINA RESULT:    10.043      2.880      6.587
REMARK INTER + INTRA:          11.672
REMARK INTER:                  11.813
REMARK INTRA:                  -0.141
REMARK UNBOUND:                -0.131
REMARK SMILES O=C([O-])C=Cc1ccc(O)c(O)c1
REMARK SMILES IDX 6 1 13 2 7 3 11 4 8 5 9 6 5 7 4 8 2 9 1 10 3 11 12 12 10 14
REMARK H PARENT 12 13 10 15
REMARK Flexibility Score: inf
ROOT
ATOM      1  C   UNL     1      11.271  12.739  28.891  1.00  0.00    -0.022 A 
ATOM      2  C   UNL     1      10.295  11.896  29.444  1.00  0.00     0.058 A 
ATOM      3  C   UNL     1      12.453  12.976  29.614  1.00  0.00     0.012 A 
ATOM      4  C   UNL     1      10.494  11.274  30.684  1.00  0.00     0.157 A 
ATOM      5  C   UNL     1      12.660  12.360  30.851  1.00  0.00     0.051 A 
ATOM      6  C   UNL     1      11.694  11.506  31.395  1.00  0.00     0.157 A 
ENDROOT
BRANCH   1   7
ATOM      7  C   UNL     1      10.996  13.378  27.579  1.00  0.00     0.010 C 
ATOM      8  C   UNL     1      11.888  14.125  26.913  1.00  0.00     0.025 C 
BRANCH   8   9
ATOM      9  C   UNL     1      11.585  14.734  25.607  1.00  0.00     0.064 C 
ATOM     10  O   UNL     1      12.399  15.516  25.048  1.00  0.00    -0.545 OA
ATOM     11  O   UNL     1      10.382  14.441  24.980  1.00  0.00    -0.545 OA
ENDBRANCH   8   9
ENDBRANCH   1   7
BRANCH   4  12
ATOM     12  O   UNL     1       9.481  10.442  31.166  1.00  0.00    -0.504 OA
ATOM     13  H   UNL     1       8.512  10.516  30.893  1.00  0.00     0.293 HD
ENDBRANCH   4  12
BRANCH   6  14
ATOM     14  O   UNL     1      11.965  10.920  32.633  1.00  0.00    -0.504 OA
ATOM     15  H   UNL     1      11.469  10.120  32.999  1.00  0.00     0.293 HD
ENDBRANCH   6  14
TORSDOF 4
ENDMDL
MODEL 4
REMARK VINA RESULT:    10.319      8.325      8.848
REMARK INTER + INTRA:          11.998
REMARK INTER:                  12.129
REMARK INTRA:                  -0.132
REMARK UNBOUND:                -0.131
REMARK SMILES O=C([O-])C=Cc1ccc(O)c(O)c1
REMARK SMILES IDX 6 1 13 2 7 3 11 4 8 5 9 6 5 7 4 8 2 9 1 10 3 11 12 12 10 14
REMARK H PARENT 12 13 10 15
REMARK Flexibility Score: inf
ROOT
ATOM      1  C   UNL     1      11.936   1.942  30.484  1.00  0.00    -0.022 A 
ATOM      2  C   UNL     1      12.067   2.631  29.268  1.00  0.00     0.058 A 
ATOM      3  C   UNL     1      12.996   1.986  31.407  1.00  0.00     0.012 A 
ATOM      4  C   UNL     1      13.219   3.375  28.978  1.00  0.00     0.157 A 
ATOM      5  C   UNL     1      14.148   2.725  31.125  1.00  0.00     0.051 A 
ATOM      6  C   UNL     1      14.272   3.425  29.921  1.00  0.00     0.157 A 
ENDROOT
BRANCH   1   7
ATOM      7  C   UNL     1      10.696   1.162  30.728  1.00  0.00     0.010 C 
ATOM      8  C   UNL     1       9.503   1.478  30.205  1.00  0.00     0.025 C 
BRANCH   8   9
ATOM      9  C   UNL     1       8.296   0.675  30.459  1.00  0.00     0.064 C 
ATOM     10  O   UNL     1       7.153   1.205  30.485  1.00  0.00    -0.545 OA
ATOM     11  O   UNL     1       8.417  -0.692  30.673  1.00  0.00    -0.545 OA
ENDBRANCH   8   9
ENDBRANCH   1   7
BRANCH   4  12
ATOM     12  O   UNL     1      13.273   4.041  27.751  1.00  0.00    -0.504 OA
ATOM     13  H   UNL     1      14.127   4.359  27.319  1.00  0.00     0.293 HD
ENDBRANCH   4  12
BRANCH   6  14
ATOM     14  O   UNL     1      15.447   4.147  29.704  1.00  0.00    -0.504 OA
ATOM     15  H   UNL     1      15.474   5.074  29.304  1.00  0.00     0.293 HD
ENDBRANCH   6  14
TORSDOF 4
ENDMDL
