MODEL 1
REMARK VINA RESULT:    -4.344      0.000      0.000
REMARK INTER + INTRA:          -7.104
REMARK INTER:                  -5.995
REMARK INTRA:                  -1.109
REMARK UNBOUND:                -1.109
REMARK SMILES CC[C@@H](CC[C@H](C)[C@H]1CC[C@H]2[C@@H]3CC=C4C[C@H](O)CC[C@]4(C)[C@H]3CC[C@@]12C)C(C)C
REMARK SMILES IDX 5 1 4 2 3 3 2 4 1 5 28 6 29 7 30 8 6 9 7 10 8 11 9 12 26 13
REMARK SMILES IDX 10 14 11 15 25 16 27 17 12 18 24 19 23 20 13 21 21 22 14 23
REMARK SMILES IDX 15 24 20 25 22 26 16 27 19 28 17 29 18 30
REMARK H PARENT 18 31
REMARK Flexibility Score: inf
ROOT
ATOM      1  C   UNL     1      -9.117  30.865  38.313  1.00  0.00     0.004 C 
ENDROOT
BRANCH   1   2
ATOM      2  C   UNL     1      -8.047  31.440  37.353  1.00  0.00     0.004 C 
BRANCH   2   3
ATOM      3  C   UNL     1      -8.581  32.425  36.271  1.00  0.00    -0.009 C 
BRANCH   3   4
ATOM      4  C   UNL     1      -7.628  32.475  35.042  1.00  0.00     0.000 C 
ATOM      5  C   UNL     1      -6.456  31.495  35.146  1.00  0.00     0.004 C 
ENDBRANCH   3   4
BRANCH   3   6
ATOM      6  C   UNL     1      -9.040  33.832  36.795  1.00  0.00    -0.014 C 
ATOM      7  C   UNL     1      -8.371  34.206  38.127  1.00  0.00     0.007 C 
ATOM      8  C   UNL     1      -8.906  34.993  35.793  1.00  0.00     0.007 C 
ENDBRANCH   3   6
ENDBRANCH   2   3
ENDBRANCH   1   2
BRANCH   1   9
ATOM      9  C   UNL     1      -9.010  29.325  38.509  1.00  0.00    -0.011 C 
ATOM     10  C   UNL     1      -9.125  28.979  40.018  1.00  0.00     0.008 C 
BRANCH   9  11
ATOM     11  C   UNL     1      -7.719  28.745  37.818  1.00  0.00    -0.002 C 
ATOM     12  C   UNL     1      -6.484  28.712  38.734  1.00  0.00     0.005 C 
ATOM     13  C   UNL     1      -7.814  27.330  37.113  1.00  0.00    -0.026 C 
ATOM     14  C   UNL     1      -6.094  27.259  38.895  1.00  0.00     0.005 C 
ATOM     15  C   UNL     1      -6.575  26.536  37.632  1.00  0.00    -0.001 C 
ATOM     16  C   UNL     1      -9.115  26.529  37.415  1.00  0.00     0.007 C 
ATOM     17  C   UNL     1      -7.712  27.539  35.572  1.00  0.00     0.012 C 
ATOM     18  C   UNL     1      -6.802  25.007  37.913  1.00  0.00     0.000 C 
ATOM     19  C   UNL     1      -9.125  25.133  36.769  1.00  0.00     0.005 C 
ATOM     20  C   UNL     1      -7.775  24.354  36.899  1.00  0.00     0.003 C 
ATOM     21  C   UNL     1      -5.438  24.279  37.899  1.00  0.00     0.031 C 
ATOM     22  C   UNL     1      -7.962  22.808  37.168  1.00  0.00    -0.008 C 
ATOM     23  C   UNL     1      -5.524  22.784  37.796  1.00  0.00    -0.027 C 
ATOM     24  C   UNL     1      -6.594  22.125  37.309  1.00  0.00    -0.065 C 
ATOM     25  C   UNL     1      -8.729  22.193  35.955  1.00  0.00     0.014 C 
ATOM     26  C   UNL     1      -8.748  22.525  38.484  1.00  0.00     0.016 C 
ATOM     27  C   UNL     1      -6.500  20.614  37.175  1.00  0.00     0.063 C 
ATOM     28  C   UNL     1      -8.712  20.657  35.920  1.00  0.00     0.033 C 
ATOM     29  C   UNL     1      -7.281  20.092  35.959  1.00  0.00     0.118 C 
BRANCH  29  30
ATOM     30  O   UNL     1      -6.604  20.347  34.749  1.00  0.00    -0.393 OA
ATOM     31  H   UNL     1      -7.085  19.879  34.020  1.00  0.00     0.210 HD
ENDBRANCH  29  30
ENDBRANCH   9  11
ENDBRANCH   1   9
TORSDOF 7
ENDMDL
MODEL 2
REMARK VINA RESULT:    -4.139      1.766      2.932
REMARK INTER + INTRA:          -6.821
REMARK INTER:                  -5.806
REMARK INTRA:                  -1.014
REMARK UNBOUND:                -1.109
REMARK SMILES CC[C@@H](CC[C@H](C)[C@H]1CC[C@H]2[C@@H]3CC=C4C[C@H](O)CC[C@]4(C)[C@H]3CC[C@@]12C)C(C)C
REMARK SMILES IDX 5 1 4 2 3 3 2 4 1 5 28 6 29 7 30 8 6 9 7 10 8 11 9 12 26 13
REMARK SMILES IDX 10 14 11 15 25 16 27 17 12 18 24 19 23 20 13 21 21 22 14 23
REMARK SMILES IDX 15 24 20 25 22 26 16 27 19 28 17 29 18 30
REMARK H PARENT 18 31
REMARK Flexibility Score: inf
ROOT
ATOM      1  C   UNL     1      -7.131  31.127  37.387  1.00  0.00     0.004 C 
ENDROOT
BRANCH   1   2
ATOM      2  C   UNL     1      -7.440  31.873  36.067  1.00  0.00     0.004 C 
BRANCH   2   3
ATOM      3  C   UNL     1      -8.047  33.298  36.230  1.00  0.00    -0.009 C 
BRANCH   3   4
ATOM      4  C   UNL     1      -9.104  33.328  37.371  1.00  0.00     0.000 C 
ATOM      5  C   UNL     1      -8.694  34.214  38.550  1.00  0.00     0.004 C 
ENDBRANCH   3   4
BRANCH   3   6
ATOM      6  C   UNL     1      -8.503  34.002  34.902  1.00  0.00    -0.014 C 
ATOM      7  C   UNL     1      -8.753  35.505  35.095  1.00  0.00     0.007 C 
ATOM      8  C   UNL     1      -7.597  33.769  33.679  1.00  0.00     0.007 C 
ENDBRANCH   3   6
ENDBRANCH   2   3
ENDBRANCH   1   2
BRANCH   1   9
ATOM      9  C   UNL     1      -7.628  29.653  37.398  1.00  0.00    -0.011 C 
ATOM     10  C   UNL     1      -9.125  29.600  36.991  1.00  0.00     0.008 C 
BRANCH   9  11
ATOM     11  C   UNL     1      -7.315  28.952  38.773  1.00  0.00    -0.002 C 
ATOM     12  C   UNL     1      -8.527  28.863  39.717  1.00  0.00     0.005 C 
ATOM     13  C   UNL     1      -6.637  27.520  38.751  1.00  0.00    -0.026 C 
ATOM     14  C   UNL     1      -8.813  27.392  39.930  1.00  0.00     0.005 C 
ATOM     15  C   UNL     1      -7.481  26.657  39.740  1.00  0.00    -0.001 C 
ATOM     16  C   UNL     1      -6.598  26.831  37.355  1.00  0.00     0.007 C 
ATOM     17  C   UNL     1      -5.174  27.660  39.272  1.00  0.00     0.012 C 
ATOM     18  C   UNL     1      -7.720  25.162  39.321  1.00  0.00     0.000 C 
ATOM     19  C   UNL     1      -5.998  25.415  37.401  1.00  0.00     0.005 C 
ATOM     20  C   UNL     1      -6.496  24.544  38.600  1.00  0.00     0.003 C 
ATOM     21  C   UNL     1      -8.083  24.334  40.576  1.00  0.00     0.031 C 
ATOM     22  C   UNL     1      -6.735  23.028  38.222  1.00  0.00    -0.008 C 
ATOM     23  C   UNL     1      -7.989  22.847  40.398  1.00  0.00    -0.027 C 
ATOM     24  C   UNL     1      -7.247  22.251  39.443  1.00  0.00    -0.065 C 
ATOM     25  C   UNL     1      -5.374  22.423  37.753  1.00  0.00     0.014 C 
ATOM     26  C   UNL     1      -7.800  22.857  37.096  1.00  0.00     0.016 C 
ATOM     27  C   UNL     1      -7.171  20.733  39.444  1.00  0.00     0.063 C 
ATOM     28  C   UNL     1      -5.374  20.890  37.652  1.00  0.00     0.033 C 
ATOM     29  C   UNL     1      -5.801  20.223  38.970  1.00  0.00     0.118 C 
BRANCH  29  30
ATOM     30  O   UNL     1      -4.810  20.377  39.961  1.00  0.00    -0.393 OA
ATOM     31  H   UNL     1      -5.102  21.092  40.582  1.00  0.00     0.210 HD
ENDBRANCH  29  30
ENDBRANCH   9  11
ENDBRANCH   1   9
TORSDOF 7
ENDMDL
MODEL 3
REMARK VINA RESULT:    -3.613      1.573      2.177
REMARK INTER + INTRA:          -6.095
REMARK INTER:                  -5.115
REMARK INTRA:                  -0.980
REMARK UNBOUND:                -1.109
REMARK SMILES CC[C@@H](CC[C@H](C)[C@H]1CC[C@H]2[C@@H]3CC=C4C[C@H](O)CC[C@]4(C)[C@H]3CC[C@@]12C)C(C)C
REMARK SMILES IDX 5 1 4 2 3 3 2 4 1 5 28 6 29 7 30 8 6 9 7 10 8 11 9 12 26 13
REMARK SMILES IDX 10 14 11 15 25 16 27 17 12 18 24 19 23 20 13 21 21 22 14 23
REMARK SMILES IDX 15 24 20 25 22 26 16 27 19 28 17 29 18 30
REMARK H PARENT 18 31
REMARK Flexibility Score: inf
ROOT
ATOM      1  C   UNL     1      -7.511  29.953  37.900  1.00  0.00     0.004 C 
ENDROOT
BRANCH   1   2
ATOM      2  C   UNL     1      -8.549  30.513  36.899  1.00  0.00     0.004 C 
BRANCH   2   3
ATOM      3  C   UNL     1      -8.109  31.788  36.122  1.00  0.00    -0.009 C 
BRANCH   3   4
ATOM      4  C   UNL     1      -6.565  31.825  35.935  1.00  0.00     0.000 C 
ATOM      5  C   UNL     1      -6.137  31.951  34.470  1.00  0.00     0.004 C 
ENDBRANCH   3   4
BRANCH   3   6
ATOM      6  C   UNL     1      -8.736  33.140  36.617  1.00  0.00    -0.014 C 
ATOM      7  C   UNL     1      -8.304  33.494  38.048  1.00  0.00     0.007 C 
ATOM      8  C   UNL     1      -8.530  34.351  35.688  1.00  0.00     0.007 C 
ENDBRANCH   3   6
ENDBRANCH   2   3
ENDBRANCH   1   2
BRANCH   1   9
ATOM      9  C   UNL     1      -8.088  28.865  38.851  1.00  0.00    -0.011 C 
ATOM     10  C   UNL     1      -9.121  29.506  39.816  1.00  0.00     0.008 C 
BRANCH   9  11
ATOM     11  C   UNL     1      -6.940  28.071  39.580  1.00  0.00    -0.002 C 
ATOM     12  C   UNL     1      -7.304  27.619  41.004  1.00  0.00     0.005 C 
ATOM     13  C   UNL     1      -6.304  26.821  38.842  1.00  0.00    -0.026 C 
ATOM     14  C   UNL     1      -7.277  26.105  41.007  1.00  0.00     0.005 C 
ATOM     15  C   UNL     1      -6.288  25.686  39.913  1.00  0.00    -0.001 C 
ATOM     16  C   UNL     1      -7.074  26.339  37.578  1.00  0.00     0.007 C 
ATOM     17  C   UNL     1      -4.848  27.186  38.423  1.00  0.00     0.012 C 
ATOM     18  C   UNL     1      -6.610  24.239  39.391  1.00  0.00     0.000 C 
ATOM     19  C   UNL     1      -6.460  25.080  36.944  1.00  0.00     0.005 C 
ATOM     20  C   UNL     1      -6.042  23.980  37.973  1.00  0.00     0.003 C 
ATOM     21  C   UNL     1      -6.055  23.201  40.394  1.00  0.00     0.031 C 
ATOM     22  C   UNL     1      -6.337  22.508  37.478  1.00  0.00    -0.008 C 
ATOM     23  C   UNL     1      -5.969  21.799  39.865  1.00  0.00    -0.027 C 
ATOM     24  C   UNL     1      -5.925  21.493  38.553  1.00  0.00    -0.065 C 
ATOM     25  C   UNL     1      -5.508  22.256  36.179  1.00  0.00     0.014 C 
ATOM     26  C   UNL     1      -7.851  22.271  37.187  1.00  0.00     0.016 C 
ATOM     27  C   UNL     1      -5.739  20.035  38.168  1.00  0.00     0.063 C 
ATOM     28  C   UNL     1      -5.444  20.781  35.755  1.00  0.00     0.033 C 
ATOM     29  C   UNL     1      -4.914  19.877  36.882  1.00  0.00     0.118 C 
BRANCH  29  30
ATOM     30  O   UNL     1      -3.540  20.101  37.107  1.00  0.00    -0.393 OA
ATOM     31  H   UNL     1      -3.413  21.060  37.320  1.00  0.00     0.210 HD
ENDBRANCH  29  30
ENDBRANCH   9  11
ENDBRANCH   1   9
TORSDOF 7
ENDMDL
MODEL 4
REMARK VINA RESULT:    -3.602      3.660      8.646
REMARK INTER + INTRA:          -6.080
REMARK INTER:                  -4.558
REMARK INTRA:                  -1.522
REMARK UNBOUND:                -1.109
REMARK SMILES CC[C@@H](CC[C@H](C)[C@H]1CC[C@H]2[C@@H]3CC=C4C[C@H](O)CC[C@]4(C)[C@H]3CC[C@@]12C)C(C)C
REMARK SMILES IDX 5 1 4 2 3 3 2 4 1 5 28 6 29 7 30 8 6 9 7 10 8 11 9 12 26 13
REMARK SMILES IDX 10 14 11 15 25 16 27 17 12 18 24 19 23 20 13 21 21 22 14 23
REMARK SMILES IDX 15 24 20 25 22 26 16 27 19 28 17 29 18 30
REMARK H PARENT 18 31
REMARK Flexibility Score: inf
ROOT
ATOM      1  C   UNL     1      -7.270  20.227  36.825  1.00  0.00     0.004 C 
ENDROOT
BRANCH   1   2
ATOM      2  C   UNL     1      -6.246  19.875  37.931  1.00  0.00     0.004 C 
BRANCH   2   3
ATOM      3  C   UNL     1      -6.330  20.743  39.221  1.00  0.00    -0.009 C 
BRANCH   3   4
ATOM      4  C   UNL     1      -7.487  21.778  39.124  1.00  0.00     0.000 C 
ATOM      5  C   UNL     1      -8.753  21.341  39.865  1.00  0.00     0.004 C 
ENDBRANCH   3   4
BRANCH   3   6
ATOM      6  C   UNL     1      -4.970  21.334  39.737  1.00  0.00    -0.014 C 
ATOM      7  C   UNL     1      -5.163  22.301  40.914  1.00  0.00     0.007 C 
ATOM      8  C   UNL     1      -3.880  20.300  40.076  1.00  0.00     0.007 C 
ENDBRANCH   3   6
ENDBRANCH   2   3
ENDBRANCH   1   2
BRANCH   1   9
ATOM      9  C   UNL     1      -6.630  20.911  35.582  1.00  0.00    -0.011 C 
ATOM     10  C   UNL     1      -5.106  21.093  35.810  1.00  0.00     0.008 C 
BRANCH   9  11
ATOM     11  C   UNL     1      -7.384  22.242  35.207  1.00  0.00    -0.002 C 
ATOM     12  C   UNL     1      -8.886  22.221  35.539  1.00  0.00     0.005 C 
ATOM     13  C   UNL     1      -6.806  23.613  35.751  1.00  0.00    -0.026 C 
ATOM     14  C   UNL     1      -9.125  23.304  36.569  1.00  0.00     0.005 C 
ATOM     15  C   UNL     1      -8.037  24.362  36.350  1.00  0.00    -0.001 C 
ATOM     16  C   UNL     1      -5.697  23.477  36.836  1.00  0.00     0.007 C 
ATOM     17  C   UNL     1      -6.222  24.414  34.548  1.00  0.00     0.012 C 
ATOM     18  C   UNL     1      -7.777  25.179  37.666  1.00  0.00     0.000 C 
ATOM     19  C   UNL     1      -5.223  24.833  37.385  1.00  0.00     0.005 C 
ATOM     20  C   UNL     1      -6.378  25.844  37.685  1.00  0.00     0.003 C 
ATOM     21  C   UNL     1      -8.885  26.245  37.831  1.00  0.00     0.031 C 
ATOM     22  C   UNL     1      -6.145  26.697  38.995  1.00  0.00    -0.008 C 
ATOM     23  C   UNL     1      -8.578  27.321  38.831  1.00  0.00    -0.027 C 
ATOM     24  C   UNL     1      -7.331  27.642  39.231  1.00  0.00    -0.065 C 
ATOM     25  C   UNL     1      -4.841  27.536  38.805  1.00  0.00     0.014 C 
ATOM     26  C   UNL     1      -6.013  25.806  40.268  1.00  0.00     0.016 C 
ATOM     27  C   UNL     1      -7.168  28.820  40.178  1.00  0.00     0.063 C 
ATOM     28  C   UNL     1      -4.652  28.641  39.854  1.00  0.00     0.033 C 
ATOM     29  C   UNL     1      -5.862  29.588  39.923  1.00  0.00     0.118 C 
BRANCH  29  30
ATOM     30  O   UNL     1      -5.942  30.393  38.768  1.00  0.00    -0.393 OA
ATOM     31  H   UNL     1      -5.169  31.014  38.769  1.00  0.00     0.210 HD
ENDBRANCH  29  30
ENDBRANCH   9  11
ENDBRANCH   1   9
TORSDOF 7
ENDMDL
MODEL 5
REMARK VINA RESULT:    -2.724      2.893      8.305
REMARK INTER + INTRA:          -4.868
REMARK INTER:                  -4.359
REMARK INTRA:                  -0.509
REMARK UNBOUND:                -1.109
REMARK SMILES CC[C@@H](CC[C@H](C)[C@H]1CC[C@H]2[C@@H]3CC=C4C[C@H](O)CC[C@]4(C)[C@H]3CC[C@@]12C)C(C)C
REMARK SMILES IDX 5 1 4 2 3 3 2 4 1 5 28 6 29 7 30 8 6 9 7 10 8 11 9 12 26 13
REMARK SMILES IDX 10 14 11 15 25 16 27 17 12 18 24 19 23 20 13 21 21 22 14 23
REMARK SMILES IDX 15 24 20 25 22 26 16 27 19 28 17 29 18 30
REMARK H PARENT 18 31
REMARK Flexibility Score: inf
ROOT
ATOM      1  C   UNL     1      -6.511  22.160  38.489  1.00  0.00     0.004 C 
ENDROOT
BRANCH   1   2
ATOM      2  C   UNL     1      -6.193  23.142  37.336  1.00  0.00     0.004 C 
BRANCH   2   3
ATOM      3  C   UNL     1      -5.858  22.480  35.967  1.00  0.00    -0.009 C 
BRANCH   3   4
ATOM      4  C   UNL     1      -6.756  23.053  34.833  1.00  0.00     0.000 C 
ATOM      5  C   UNL     1      -7.169  24.508  35.068  1.00  0.00     0.004 C 
ENDBRANCH   3   4
BRANCH   3   6
ATOM      6  C   UNL     1      -5.743  20.913  35.976  1.00  0.00    -0.014 C 
ATOM      7  C   UNL     1      -6.796  20.245  35.079  1.00  0.00     0.007 C 
ATOM      8  C   UNL     1      -4.346  20.347  35.662  1.00  0.00     0.007 C 
ENDBRANCH   3   6
ENDBRANCH   2   3
ENDBRANCH   1   2
BRANCH   1   9
ATOM      9  C   UNL     1      -7.758  22.567  39.326  1.00  0.00    -0.011 C 
ATOM     10  C   UNL     1      -8.963  22.824  38.382  1.00  0.00     0.008 C 
BRANCH   9  11
ATOM     11  C   UNL     1      -7.434  23.769  40.291  1.00  0.00    -0.002 C 
ATOM     12  C   UNL     1      -5.942  23.905  40.636  1.00  0.00     0.005 C 
ATOM     13  C   UNL     1      -7.954  25.213  39.894  1.00  0.00    -0.026 C 
ATOM     14  C   UNL     1      -5.484  25.243  40.096  1.00  0.00     0.005 C 
ATOM     15  C   UNL     1      -6.720  26.150  40.075  1.00  0.00    -0.001 C 
ATOM     16  C   UNL     1      -8.502  25.341  38.443  1.00  0.00     0.007 C 
ATOM     17  C   UNL     1      -9.087  25.618  40.886  1.00  0.00     0.012 C 
ATOM     18  C   UNL     1      -6.558  27.293  39.009  1.00  0.00     0.000 C 
ATOM     19  C   UNL     1      -8.924  26.776  38.084  1.00  0.00     0.005 C 
ATOM     20  C   UNL     1      -7.919  27.878  38.554  1.00  0.00     0.003 C 
ATOM     21  C   UNL     1      -5.658  28.408  39.590  1.00  0.00     0.031 C 
ATOM     22  C   UNL     1      -7.740  29.054  37.513  1.00  0.00    -0.008 C 
ATOM     23  C   UNL     1      -5.704  29.708  38.842  1.00  0.00    -0.027 C 
ATOM     24  C   UNL     1      -6.721  30.076  38.038  1.00  0.00    -0.065 C 
ATOM     25  C   UNL     1      -9.125  29.750  37.323  1.00  0.00     0.014 C 
ATOM     26  C   UNL     1      -7.212  28.552  36.135  1.00  0.00     0.016 C 
ATOM     27  C   UNL     1      -6.676  31.464  37.421  1.00  0.00     0.063 C 
ATOM     28  C   UNL     1      -9.051  31.097  36.589  1.00  0.00     0.033 C 
ATOM     29  C   UNL     1      -8.078  32.075  37.269  1.00  0.00     0.118 C 
BRANCH  29  30
ATOM     30  O   UNL     1      -8.592  32.525  38.503  1.00  0.00    -0.393 OA
ATOM     31  H   UNL     1      -8.534  33.514  38.520  1.00  0.00     0.210 HD
ENDBRANCH  29  30
ENDBRANCH   9  11
ENDBRANCH   1   9
TORSDOF 7
ENDMDL
MODEL 6
REMARK VINA RESULT:    -2.717      2.950      8.103
REMARK INTER + INTRA:          -4.858
REMARK INTER:                  -4.667
REMARK INTRA:                  -0.190
REMARK UNBOUND:                -1.109
REMARK SMILES CC[C@@H](CC[C@H](C)[C@H]1CC[C@H]2[C@@H]3CC=C4C[C@H](O)CC[C@]4(C)[C@H]3CC[C@@]12C)C(C)C
REMARK SMILES IDX 5 1 4 2 3 3 2 4 1 5 28 6 29 7 30 8 6 9 7 10 8 11 9 12 26 13
REMARK SMILES IDX 10 14 11 15 25 16 27 17 12 18 24 19 23 20 13 21 21 22 14 23
REMARK SMILES IDX 15 24 20 25 22 26 16 27 19 28 17 29 18 30
REMARK H PARENT 18 31
REMARK Flexibility Score: inf
ROOT
ATOM      1  C   UNL     1      -6.017  20.491  38.829  1.00  0.00     0.004 C 
ENDROOT
BRANCH   1   2
ATOM      2  C   UNL     1      -5.462  21.462  37.759  1.00  0.00     0.004 C 
BRANCH   2   3
ATOM      3  C   UNL     1      -6.096  21.331  36.343  1.00  0.00    -0.009 C 
BRANCH   3   4
ATOM      4  C   UNL     1      -5.391  20.218  35.515  1.00  0.00     0.000 C 
ATOM      5  C   UNL     1      -3.870  20.213  35.683  1.00  0.00     0.004 C 
ENDBRANCH   3   4
BRANCH   3   6
ATOM      6  C   UNL     1      -6.317  22.678  35.567  1.00  0.00    -0.014 C 
ATOM      7  C   UNL     1      -7.804  23.051  35.459  1.00  0.00     0.007 C 
ATOM      8  C   UNL     1      -5.505  23.882  36.077  1.00  0.00     0.007 C 
ENDBRANCH   3   6
ENDBRANCH   2   3
ENDBRANCH   1   2
BRANCH   1   9
ATOM      9  C   UNL     1      -7.351  20.972  39.471  1.00  0.00    -0.011 C 
ATOM     10  C   UNL     1      -8.393  21.264  38.359  1.00  0.00     0.008 C 
BRANCH   9  11
ATOM     11  C   UNL     1      -7.112  22.178  40.455  1.00  0.00    -0.002 C 
ATOM     12  C   UNL     1      -5.635  22.399  40.823  1.00  0.00     0.005 C 
ATOM     13  C   UNL     1      -7.713  23.593  40.070  1.00  0.00    -0.026 C 
ATOM     14  C   UNL     1      -5.251  23.768  40.306  1.00  0.00     0.005 C 
ATOM     15  C   UNL     1      -6.539  24.600  40.280  1.00  0.00    -0.001 C 
ATOM     16  C   UNL     1      -8.248  23.708  38.613  1.00  0.00     0.007 C 
ATOM     17  C   UNL     1      -8.880  23.916  41.052  1.00  0.00     0.012 C 
ATOM     18  C   UNL     1      -6.432  25.765  39.231  1.00  0.00     0.000 C 
ATOM     19  C   UNL     1      -8.751  25.120  38.267  1.00  0.00     0.005 C 
ATOM     20  C   UNL     1      -7.820  26.274  38.765  1.00  0.00     0.003 C 
ATOM     21  C   UNL     1      -5.608  26.924  39.839  1.00  0.00     0.031 C 
ATOM     22  C   UNL     1      -7.698  27.473  37.742  1.00  0.00    -0.008 C 
ATOM     23  C   UNL     1      -5.722  28.229  39.107  1.00  0.00    -0.027 C 
ATOM     24  C   UNL     1      -6.749  28.546  38.293  1.00  0.00    -0.065 C 
ATOM     25  C   UNL     1      -9.119  28.087  37.542  1.00  0.00     0.014 C 
ATOM     26  C   UNL     1      -7.123  27.022  36.365  1.00  0.00     0.016 C 
ATOM     27  C   UNL     1      -6.779  29.943  37.696  1.00  0.00     0.063 C 
ATOM     28  C   UNL     1      -9.117  29.446  36.826  1.00  0.00     0.033 C 
ATOM     29  C   UNL     1      -8.213  30.471  37.533  1.00  0.00     0.118 C 
BRANCH  29  30
ATOM     30  O   UNL     1      -8.769  30.873  38.765  1.00  0.00    -0.393 OA
ATOM     31  H   UNL     1      -8.458  30.245  39.465  1.00  0.00     0.210 HD
ENDBRANCH  29  30
ENDBRANCH   9  11
ENDBRANCH   1   9
TORSDOF 7
ENDMDL
MODEL 7
REMARK VINA RESULT:    -1.978      2.875      8.848
REMARK INTER + INTRA:          -3.839
REMARK INTER:                  -2.466
REMARK INTRA:                  -1.373
REMARK UNBOUND:                -1.109
REMARK SMILES CC[C@@H](CC[C@H](C)[C@H]1CC[C@H]2[C@@H]3CC=C4C[C@H](O)CC[C@]4(C)[C@H]3CC[C@@]12C)C(C)C
REMARK SMILES IDX 5 1 4 2 3 3 2 4 1 5 28 6 29 7 30 8 6 9 7 10 8 11 9 12 26 13
REMARK SMILES IDX 10 14 11 15 25 16 27 17 12 18 24 19 23 20 13 21 21 22 14 23
REMARK SMILES IDX 15 24 20 25 22 26 16 27 19 28 17 29 18 30
REMARK H PARENT 18 31
REMARK Flexibility Score: inf
ROOT
ATOM      1  C   UNL     1      -8.005  22.420  36.033  1.00  0.00     0.004 C 
ENDROOT
BRANCH   1   2
ATOM      2  C   UNL     1      -8.448  22.065  37.472  1.00  0.00     0.004 C 
BRANCH   2   3
ATOM      3  C   UNL     1      -7.295  21.732  38.464  1.00  0.00    -0.009 C 
BRANCH   3   4
ATOM      4  C   UNL     1      -6.334  20.664  37.867  1.00  0.00     0.000 C 
ATOM      5  C   UNL     1      -4.855  21.002  38.070  1.00  0.00     0.004 C 
ENDBRANCH   3   4
BRANCH   3   6
ATOM      6  C   UNL     1      -7.729  21.459  39.949  1.00  0.00    -0.014 C 
ATOM      7  C   UNL     1      -8.538  22.622  40.543  1.00  0.00     0.007 C 
ATOM      8  C   UNL     1      -8.460  20.127  40.195  1.00  0.00     0.007 C 
ENDBRANCH   3   6
ENDBRANCH   2   3
ENDBRANCH   1   2
BRANCH   1   9
ATOM      9  C   UNL     1      -7.310  23.808  35.922  1.00  0.00    -0.011 C 
ATOM     10  C   UNL     1      -5.935  23.651  35.219  1.00  0.00     0.008 C 
BRANCH   9  11
ATOM     11  C   UNL     1      -7.234  24.526  37.321  1.00  0.00    -0.002 C 
ATOM     12  C   UNL     1      -5.818  24.569  37.922  1.00  0.00     0.005 C 
ATOM     13  C   UNL     1      -7.841  25.983  37.453  1.00  0.00    -0.026 C 
ATOM     14  C   UNL     1      -5.432  26.028  38.035  1.00  0.00     0.005 C 
ATOM     15  C   UNL     1      -6.739  26.815  38.182  1.00  0.00    -0.001 C 
ATOM     16  C   UNL     1      -8.209  26.668  36.105  1.00  0.00     0.007 C 
ATOM     17  C   UNL     1      -9.125  25.904  38.333  1.00  0.00     0.012 C 
ATOM     18  C   UNL     1      -6.559  28.298  37.696  1.00  0.00     0.000 C 
ATOM     19  C   UNL     1      -8.724  28.107  36.283  1.00  0.00     0.005 C 
ATOM     20  C   UNL     1      -7.902  28.962  37.303  1.00  0.00     0.003 C 
ATOM     21  C   UNL     1      -5.856  29.115  38.805  1.00  0.00     0.031 C 
ATOM     22  C   UNL     1      -7.711  30.466  36.855  1.00  0.00    -0.008 C 
ATOM     23  C   UNL     1      -5.937  30.604  38.636  1.00  0.00    -0.027 C 
ATOM     24  C   UNL     1      -6.875  31.226  37.895  1.00  0.00    -0.065 C 
ATOM     25  C   UNL     1      -9.123  31.123  36.742  1.00  0.00     0.014 C 
ATOM     26  C   UNL     1      -6.964  30.590  35.493  1.00  0.00     0.016 C 
ATOM     27  C   UNL     1      -6.891  32.746  37.894  1.00  0.00     0.063 C 
ATOM     28  C   UNL     1      -9.091  32.654  36.623  1.00  0.00     0.033 C 
ATOM     29  C   UNL     1      -8.316  33.309  37.779  1.00  0.00     0.118 C 
BRANCH  29  30
ATOM     30  O   UNL     1      -9.025  33.197  38.993  1.00  0.00    -0.393 OA
ATOM     31  H   UNL     1      -9.994  33.257  38.792  1.00  0.00     0.210 HD
ENDBRANCH  29  30
ENDBRANCH   9  11
ENDBRANCH   1   9
TORSDOF 7
ENDMDL
MODEL 8
REMARK VINA RESULT:    -1.658      2.991      9.063
REMARK INTER + INTRA:          -3.397
REMARK INTER:                  -2.854
REMARK INTRA:                  -0.543
REMARK UNBOUND:                -1.109
REMARK SMILES CC[C@@H](CC[C@H](C)[C@H]1CC[C@H]2[C@@H]3CC=C4C[C@H](O)CC[C@]4(C)[C@H]3CC[C@@]12C)C(C)C
REMARK SMILES IDX 5 1 4 2 3 3 2 4 1 5 28 6 29 7 30 8 6 9 7 10 8 11 9 12 26 13
REMARK SMILES IDX 10 14 11 15 25 16 27 17 12 18 24 19 23 20 13 21 21 22 14 23
REMARK SMILES IDX 15 24 20 25 22 26 16 27 19 28 17 29 18 30
REMARK H PARENT 18 31
REMARK Flexibility Score: inf
ROOT
ATOM      1  C   UNL     1      -6.368  20.627  39.407  1.00  0.00     0.004 C 
ENDROOT
BRANCH   1   2
ATOM      2  C   UNL     1      -5.773  20.499  40.831  1.00  0.00     0.004 C 
BRANCH   2   3
ATOM      3  C   UNL     1      -4.266  20.865  40.961  1.00  0.00    -0.009 C 
BRANCH   3   4
ATOM      4  C   UNL     1      -4.023  22.366  40.630  1.00  0.00     0.000 C 
ATOM      5  C   UNL     1      -5.148  23.281  41.121  1.00  0.00     0.004 C 
ENDBRANCH   3   4
BRANCH   3   6
ATOM      6  C   UNL     1      -3.261  19.877  40.268  1.00  0.00    -0.014 C 
ATOM      7  C   UNL     1      -3.288  19.994  38.737  1.00  0.00     0.007 C 
ATOM      8  C   UNL     1      -1.809  19.938  40.777  1.00  0.00     0.007 C 
ENDBRANCH   3   6
ENDBRANCH   2   3
ENDBRANCH   1   2
BRANCH   1   9
ATOM      9  C   UNL     1      -7.314  21.851  39.237  1.00  0.00    -0.011 C 
ATOM     10  C   UNL     1      -8.769  21.443  39.594  1.00  0.00     0.008 C 
BRANCH   9  11
ATOM     11  C   UNL     1      -7.165  22.498  37.809  1.00  0.00    -0.002 C 
ATOM     12  C   UNL     1      -8.384  22.282  36.897  1.00  0.00     0.005 C 
ATOM     13  C   UNL     1      -6.778  24.032  37.715  1.00  0.00    -0.026 C 
ATOM     14  C   UNL     1      -8.955  23.650  36.593  1.00  0.00     0.005 C 
ATOM     15  C   UNL     1      -7.790  24.641  36.694  1.00  0.00    -0.001 C 
ATOM     16  C   UNL     1      -6.854  24.814  39.059  1.00  0.00     0.007 C 
ATOM     17  C   UNL     1      -5.325  24.140  37.163  1.00  0.00     0.012 C 
ATOM     18  C   UNL     1      -8.310  26.088  37.017  1.00  0.00     0.000 C 
ATOM     19  C   UNL     1      -6.543  26.312  38.900  1.00  0.00     0.005 C 
ATOM     20  C   UNL     1      -7.220  26.981  37.660  1.00  0.00     0.003 C 
ATOM     21  C   UNL     1      -8.846  26.737  35.720  1.00  0.00     0.031 C 
ATOM     22  C   UNL     1      -7.744  28.446  37.941  1.00  0.00    -0.008 C 
ATOM     23  C   UNL     1      -9.041  28.223  35.794  1.00  0.00    -0.027 C 
ATOM     24  C   UNL     1      -8.416  29.019  36.685  1.00  0.00    -0.065 C 
ATOM     25  C   UNL     1      -6.521  29.335  38.328  1.00  0.00     0.014 C 
ATOM     26  C   UNL     1      -8.805  28.488  39.082  1.00  0.00     0.016 C 
ATOM     27  C   UNL     1      -8.638  30.519  36.578  1.00  0.00     0.063 C 
ATOM     28  C   UNL     1      -6.818  30.842  38.325  1.00  0.00     0.033 C 
ATOM     29  C   UNL     1      -7.387  31.317  36.977  1.00  0.00     0.118 C 
BRANCH  29  30
ATOM     30  O   UNL     1      -6.400  31.286  35.971  1.00  0.00    -0.393 OA
ATOM     31  H   UNL     1      -6.849  31.382  35.093  1.00  0.00     0.210 HD
ENDBRANCH  29  30
ENDBRANCH   9  11
ENDBRANCH   1   9
TORSDOF 7
ENDMDL
