MODEL 1
REMARK VINA RESULT:    -4.926      0.000      0.000
REMARK INTER + INTRA:          -9.092
REMARK INTER:                  -7.806
REMARK INTRA:                  -1.286
REMARK UNBOUND:                -1.286
REMARK SMILES CCCCCCCCCCCC(=O)[O-]
REMARK SMILES IDX 7 1 8 2 9 3 10 4 11 5 12 6 13 7 14 8 6 9 5 10 4 11 3 12 2 13
REMARK SMILES IDX 1 14
REMARK H PARENT
REMARK Flexibility Score: inf
ROOT
ATOM      1  C   UNL     1      28.420  12.889  31.257  1.00  0.00     0.000 C 
ENDROOT
BRANCH   1   2
ATOM      2  C   UNL     1      27.952  12.909  32.720  1.00  0.00     0.000 C 
BRANCH   2   3
ATOM      3  C   UNL     1      28.305  11.612  33.469  1.00  0.00     0.000 C 
BRANCH   3   4
ATOM      4  C   UNL     1      27.497  11.440  34.765  1.00  0.00     0.006 C 
BRANCH   4   5
ATOM      5  C   UNL     1      26.052  11.936  34.629  1.00  0.00     0.053 C 
BRANCH   5   6
ATOM      6  C   UNL     1      25.769  13.002  35.639  1.00  0.00     0.041 C 
ATOM      7  O   UNL     1      24.776  12.900  36.407  1.00  0.00    -0.550 OA
ATOM      8  O   UNL     1      26.629  14.085  35.768  1.00  0.00    -0.550 OA
ENDBRANCH   5   6
ENDBRANCH   4   5
ENDBRANCH   3   4
ENDBRANCH   2   3
ENDBRANCH   1   2
BRANCH   1   9
ATOM      9  C   UNL     1      27.254  12.716  30.267  1.00  0.00     0.000 C 
BRANCH   9  10
ATOM     10  C   UNL     1      25.881  12.728  30.958  1.00  0.00    -0.000 C 
BRANCH  10  11
ATOM     11  C   UNL     1      24.990  11.553  30.519  1.00  0.00    -0.000 C 
BRANCH  11  12
ATOM     12  C   UNL     1      25.258  10.275  31.330  1.00  0.00    -0.000 C 
BRANCH  12  13
ATOM     13  C   UNL     1      25.974   9.191  30.510  1.00  0.00    -0.003 C 
ATOM     14  C   UNL     1      25.783   9.419  29.013  1.00  0.00     0.004 C 
ENDBRANCH  12  13
ENDBRANCH  11  12
ENDBRANCH  10  11
ENDBRANCH   9  10
ENDBRANCH   1   9
TORSDOF 10
ENDMDL
MODEL 2
REMARK VINA RESULT:    -4.788      0.985      1.906
REMARK INTER + INTRA:          -8.874
REMARK INTER:                  -7.615
REMARK INTRA:                  -1.259
REMARK UNBOUND:                -1.286
REMARK SMILES CCCCCCCCCCCC(=O)[O-]
REMARK SMILES IDX 7 1 8 2 9 3 10 4 11 5 12 6 13 7 14 8 6 9 5 10 4 11 3 12 2 13
REMARK SMILES IDX 1 14
REMARK H PARENT
REMARK Flexibility Score: inf
ROOT
ATOM      1  C   UNL     1      27.732  12.370  30.896  1.00  0.00     0.000 C 
ENDROOT
BRANCH   1   2
ATOM      2  C   UNL     1      27.578  12.704  32.388  1.00  0.00     0.000 C 
BRANCH   2   3
ATOM      3  C   UNL     1      28.099  11.579  33.300  1.00  0.00     0.000 C 
BRANCH   3   4
ATOM      4  C   UNL     1      27.080  11.172  34.376  1.00  0.00     0.006 C 
BRANCH   4   5
ATOM      5  C   UNL     1      25.878  12.123  34.439  1.00  0.00     0.053 C 
BRANCH   5   6
ATOM      6  C   UNL     1      25.987  13.023  35.629  1.00  0.00     0.041 C 
ATOM      7  O   UNL     1      26.961  13.813  35.740  1.00  0.00    -0.550 OA
ATOM      8  O   UNL     1      24.986  13.025  36.593  1.00  0.00    -0.550 OA
ENDBRANCH   5   6
ENDBRANCH   4   5
ENDBRANCH   3   4
ENDBRANCH   2   3
ENDBRANCH   1   2
BRANCH   1   9
ATOM      9  C   UNL     1      27.880  10.860  30.641  1.00  0.00     0.000 C 
BRANCH   9  10
ATOM     10  C   UNL     1      27.481  10.457  29.212  1.00  0.00    -0.000 C 
BRANCH  10  11
ATOM     11  C   UNL     1      26.196   9.612  29.175  1.00  0.00    -0.000 C 
BRANCH  11  12
ATOM     12  C   UNL     1      25.644   9.318  30.580  1.00  0.00    -0.000 C 
BRANCH  12  13
ATOM     13  C   UNL     1      24.196   9.798  30.760  1.00  0.00    -0.003 C 
ATOM     14  C   UNL     1      24.152  11.178  31.409  1.00  0.00     0.004 C 
ENDBRANCH  12  13
ENDBRANCH  11  12
ENDBRANCH  10  11
ENDBRANCH   9  10
ENDBRANCH   1   9
TORSDOF 10
ENDMDL
MODEL 3
REMARK VINA RESULT:    -4.645      1.212      2.255
REMARK INTER + INTRA:          -8.646
REMARK INTER:                  -7.343
REMARK INTRA:                  -1.304
REMARK UNBOUND:                -1.286
REMARK SMILES CCCCCCCCCCCC(=O)[O-]
REMARK SMILES IDX 7 1 8 2 9 3 10 4 11 5 12 6 13 7 14 8 6 9 5 10 4 11 3 12 2 13
REMARK SMILES IDX 1 14
REMARK H PARENT
REMARK Flexibility Score: inf
ROOT
ATOM      1  C   UNL     1      27.984  10.997  30.659  1.00  0.00     0.000 C 
ENDROOT
BRANCH   1   2
ATOM      2  C   UNL     1      27.947  12.493  31.007  1.00  0.00     0.000 C 
BRANCH   2   3
ATOM      3  C   UNL     1      27.579  12.746  32.480  1.00  0.00     0.000 C 
BRANCH   3   4
ATOM      4  C   UNL     1      28.179  11.695  33.426  1.00  0.00     0.006 C 
BRANCH   4   5
ATOM      5  C   UNL     1      27.244  11.348  34.592  1.00  0.00     0.053 C 
BRANCH   5   6
ATOM      6  C   UNL     1      26.769  12.594  35.269  1.00  0.00     0.041 C 
ATOM      7  O   UNL     1      25.548  12.746  35.535  1.00  0.00    -0.550 OA
ATOM      8  O   UNL     1      27.683  13.569  35.651  1.00  0.00    -0.550 OA
ENDBRANCH   5   6
ENDBRANCH   4   5
ENDBRANCH   3   4
ENDBRANCH   2   3
ENDBRANCH   1   2
BRANCH   1   9
ATOM      9  C   UNL     1      27.451  10.706  29.244  1.00  0.00     0.000 C 
BRANCH   9  10
ATOM     10  C   UNL     1      26.280   9.711  29.245  1.00  0.00    -0.000 C 
BRANCH  10  11
ATOM     11  C   UNL     1      25.805   9.360  30.666  1.00  0.00    -0.000 C 
BRANCH  11  12
ATOM     12  C   UNL     1      24.377   9.853  30.948  1.00  0.00    -0.000 C 
BRANCH  12  13
ATOM     13  C   UNL     1      24.298  11.378  31.114  1.00  0.00    -0.003 C 
ATOM     14  C   UNL     1      24.052  11.761  32.570  1.00  0.00     0.004 C 
ENDBRANCH  12  13
ENDBRANCH  11  12
ENDBRANCH  10  11
ENDBRANCH   9  10
ENDBRANCH   1   9
TORSDOF 10
ENDMDL
MODEL 4
REMARK VINA RESULT:    -4.557      2.567      4.911
REMARK INTER + INTRA:          -8.507
REMARK INTER:                  -7.390
REMARK INTRA:                  -1.118
REMARK UNBOUND:                -1.286
REMARK SMILES CCCCCCCCCCCC(=O)[O-]
REMARK SMILES IDX 7 1 8 2 9 3 10 4 11 5 12 6 13 7 14 8 6 9 5 10 4 11 3 12 2 13
REMARK SMILES IDX 1 14
REMARK H PARENT
REMARK Flexibility Score: inf
ROOT
ATOM      1  C   UNL     1      27.133  12.729  30.842  1.00  0.00     0.000 C 
ENDROOT
BRANCH   1   2
ATOM      2  C   UNL     1      26.953  11.445  30.016  1.00  0.00     0.000 C 
BRANCH   2   3
ATOM      3  C   UNL     1      27.010  10.175  30.884  1.00  0.00     0.000 C 
BRANCH   3   4
ATOM      4  C   UNL     1      25.873   9.192  30.565  1.00  0.00     0.006 C 
BRANCH   4   5
ATOM      5  C   UNL     1      24.698   9.863  29.842  1.00  0.00     0.053 C 
BRANCH   5   6
ATOM      6  C   UNL     1      23.559  10.080  30.788  1.00  0.00     0.041 C 
ATOM      7  O   UNL     1      23.656  10.929  31.713  1.00  0.00    -0.550 OA
ATOM      8  O   UNL     1      22.372   9.378  30.619  1.00  0.00    -0.550 OA
ENDBRANCH   5   6
ENDBRANCH   4   5
ENDBRANCH   3   4
ENDBRANCH   2   3
ENDBRANCH   1   2
BRANCH   1   9
ATOM      9  C   UNL     1      28.304  12.633  31.835  1.00  0.00     0.000 C 
BRANCH   9  10
ATOM     10  C   UNL     1      27.877  12.915  33.285  1.00  0.00    -0.000 C 
BRANCH  10  11
ATOM     11  C   UNL     1      27.962  11.665  34.178  1.00  0.00    -0.000 C 
BRANCH  11  12
ATOM     12  C   UNL     1      26.579  11.077  34.502  1.00  0.00    -0.000 C 
BRANCH  12  13
ATOM     13  C   UNL     1      25.466  12.135  34.487  1.00  0.00    -0.003 C 
ATOM     14  C   UNL     1      24.975  12.436  35.900  1.00  0.00     0.004 C 
ENDBRANCH  12  13
ENDBRANCH  11  12
ENDBRANCH  10  11
ENDBRANCH   9  10
ENDBRANCH   1   9
TORSDOF 10
ENDMDL
MODEL 5
REMARK VINA RESULT:    -4.354      1.769      2.482
REMARK INTER + INTRA:          -8.185
REMARK INTER:                  -7.034
REMARK INTRA:                  -1.151
REMARK UNBOUND:                -1.286
REMARK SMILES CCCCCCCCCCCC(=O)[O-]
REMARK SMILES IDX 7 1 8 2 9 3 10 4 11 5 12 6 13 7 14 8 6 9 5 10 4 11 3 12 2 13
REMARK SMILES IDX 1 14
REMARK H PARENT
REMARK Flexibility Score: inf
ROOT
ATOM      1  C   UNL     1      26.266  12.705  31.205  1.00  0.00     0.000 C 
ENDROOT
BRANCH   1   2
ATOM      2  C   UNL     1      27.678  12.109  31.316  1.00  0.00     0.000 C 
BRANCH   2   3
ATOM      3  C   UNL     1      28.450  12.647  32.534  1.00  0.00     0.000 C 
BRANCH   3   4
ATOM      4  C   UNL     1      27.583  13.544  33.432  1.00  0.00     0.006 C 
BRANCH   4   5
ATOM      5  C   UNL     1      27.492  13.023  34.872  1.00  0.00     0.053 C 
BRANCH   5   6
ATOM      6  C   UNL     1      26.491  11.915  34.964  1.00  0.00     0.041 C 
ATOM      7  O   UNL     1      25.264  12.176  35.075  1.00  0.00    -0.550 OA
ATOM      8  O   UNL     1      26.908  10.592  34.879  1.00  0.00    -0.550 OA
ENDBRANCH   5   6
ENDBRANCH   4   5
ENDBRANCH   3   4
ENDBRANCH   2   3
ENDBRANCH   1   2
BRANCH   1   9
ATOM      9  C   UNL     1      25.165  11.671  31.499  1.00  0.00     0.000 C 
BRANCH   9  10
ATOM     10  C   UNL     1      25.700  10.231  31.546  1.00  0.00    -0.000 C 
BRANCH  10  11
ATOM     11  C   UNL     1      25.169   9.366  30.390  1.00  0.00    -0.000 C 
BRANCH  11  12
ATOM     12  C   UNL     1      24.359  10.182  29.369  1.00  0.00    -0.000 C 
BRANCH  12  13
ATOM     13  C   UNL     1      22.928   9.653  29.188  1.00  0.00    -0.003 C 
ATOM     14  C   UNL     1      22.174   9.643  30.515  1.00  0.00     0.004 C 
ENDBRANCH  12  13
ENDBRANCH  11  12
ENDBRANCH  10  11
ENDBRANCH   9  10
ENDBRANCH   1   9
TORSDOF 10
ENDMDL
MODEL 6
REMARK VINA RESULT:    -4.333      1.440      3.812
REMARK INTER + INTRA:          -8.153
REMARK INTER:                  -7.004
REMARK INTRA:                  -1.148
REMARK UNBOUND:                -1.286
REMARK SMILES CCCCCCCCCCCC(=O)[O-]
REMARK SMILES IDX 7 1 8 2 9 3 10 4 11 5 12 6 13 7 14 8 6 9 5 10 4 11 3 12 2 13
REMARK SMILES IDX 1 14
REMARK H PARENT
REMARK Flexibility Score: inf
ROOT
ATOM      1  C   UNL     1      25.451   9.388  30.698  1.00  0.00     0.000 C 
ENDROOT
BRANCH   1   2
ATOM      2  C   UNL     1      24.003   9.904  30.719  1.00  0.00     0.000 C 
BRANCH   2   3
ATOM      3  C   UNL     1      23.845  11.177  31.570  1.00  0.00     0.000 C 
BRANCH   3   4
ATOM      4  C   UNL     1      24.897  11.276  32.685  1.00  0.00     0.006 C 
BRANCH   4   5
ATOM      5  C   UNL     1      24.466  12.213  33.820  1.00  0.00     0.053 C 
BRANCH   5   6
ATOM      6  C   UNL     1      25.239  11.914  35.065  1.00  0.00     0.041 C 
ATOM      7  O   UNL     1      26.169  11.064  35.046  1.00  0.00    -0.550 OA
ATOM      8  O   UNL     1      24.966  12.608  36.238  1.00  0.00    -0.550 OA
ENDBRANCH   5   6
ENDBRANCH   4   5
ENDBRANCH   3   4
ENDBRANCH   2   3
ENDBRANCH   1   2
BRANCH   1   9
ATOM      9  C   UNL     1      26.126   9.579  29.328  1.00  0.00     0.000 C 
BRANCH   9  10
ATOM     10  C   UNL     1      27.125  10.747  29.317  1.00  0.00    -0.000 C 
BRANCH  10  11
ATOM     11  C   UNL     1      27.910  10.864  30.635  1.00  0.00    -0.000 C 
BRANCH  11  12
ATOM     12  C   UNL     1      28.046  12.319  31.112  1.00  0.00    -0.000 C 
BRANCH  12  13
ATOM     13  C   UNL     1      28.379  12.424  32.609  1.00  0.00    -0.003 C 
ATOM     14  C   UNL     1      27.721  13.650  33.234  1.00  0.00     0.004 C 
ENDBRANCH  12  13
ENDBRANCH  11  12
ENDBRANCH  10  11
ENDBRANCH   9  10
ENDBRANCH   1   9
TORSDOF 10
ENDMDL
MODEL 7
REMARK VINA RESULT:    -4.229      1.595      1.998
REMARK INTER + INTRA:          -7.987
REMARK INTER:                  -6.872
REMARK INTRA:                  -1.115
REMARK UNBOUND:                -1.286
REMARK SMILES CCCCCCCCCCCC(=O)[O-]
REMARK SMILES IDX 7 1 8 2 9 3 10 4 11 5 12 6 13 7 14 8 6 9 5 10 4 11 3 12 2 13
REMARK SMILES IDX 1 14
REMARK H PARENT
REMARK Flexibility Score: inf
ROOT
ATOM      1  C   UNL     1      27.244  11.329  32.588  1.00  0.00     0.000 C 
ENDROOT
BRANCH   1   2
ATOM      2  C   UNL     1      27.153  12.832  32.280  1.00  0.00     0.000 C 
BRANCH   2   3
ATOM      3  C   UNL     1      27.529  13.705  33.491  1.00  0.00     0.000 C 
BRANCH   3   4
ATOM      4  C   UNL     1      27.423  12.944  34.821  1.00  0.00     0.006 C 
BRANCH   4   5
ATOM      5  C   UNL     1      26.220  13.389  35.662  1.00  0.00     0.053 C 
BRANCH   5   6
ATOM      6  C   UNL     1      25.211  12.289  35.752  1.00  0.00     0.041 C 
ATOM      7  O   UNL     1      25.585  11.087  35.791  1.00  0.00    -0.550 OA
ATOM      8  O   UNL     1      23.858  12.591  35.844  1.00  0.00    -0.550 OA
ENDBRANCH   5   6
ENDBRANCH   4   5
ENDBRANCH   3   4
ENDBRANCH   2   3
ENDBRANCH   1   2
BRANCH   1   9
ATOM      9  C   UNL     1      25.877  10.627  32.511  1.00  0.00     0.000 C 
BRANCH   9  10
ATOM     10  C   UNL     1      24.722  11.604  32.240  1.00  0.00    -0.000 C 
BRANCH  10  11
ATOM     11  C   UNL     1      23.771  11.102  31.140  1.00  0.00    -0.000 C 
BRANCH  11  12
ATOM     12  C   UNL     1      24.235   9.773  30.522  1.00  0.00    -0.000 C 
BRANCH  12  13
ATOM     13  C   UNL     1      24.698   9.926  29.065  1.00  0.00    -0.003 C 
ATOM     14  C   UNL     1      26.109   9.377  28.877  1.00  0.00     0.004 C 
ENDBRANCH  12  13
ENDBRANCH  11  12
ENDBRANCH  10  11
ENDBRANCH   9  10
ENDBRANCH   1   9
TORSDOF 10
ENDMDL
MODEL 8
REMARK VINA RESULT:    -4.193      2.395      4.488
REMARK INTER + INTRA:          -7.930
REMARK INTER:                  -6.906
REMARK INTRA:                  -1.024
REMARK UNBOUND:                -1.286
REMARK SMILES CCCCCCCCCCCC(=O)[O-]
REMARK SMILES IDX 7 1 8 2 9 3 10 4 11 5 12 6 13 7 14 8 6 9 5 10 4 11 3 12 2 13
REMARK SMILES IDX 1 14
REMARK H PARENT
REMARK Flexibility Score: inf
ROOT
ATOM      1  C   UNL     1      26.574  11.081  30.359  1.00  0.00     0.000 C 
ENDROOT
BRANCH   1   2
ATOM      2  C   UNL     1      25.983   9.715  30.742  1.00  0.00     0.000 C 
BRANCH   2   3
ATOM      3  C   UNL     1      24.445   9.737  30.808  1.00  0.00     0.000 C 
BRANCH   3   4
ATOM      4  C   UNL     1      23.905  10.964  31.560  1.00  0.00     0.006 C 
BRANCH   4   5
ATOM      5  C   UNL     1      22.379  11.090  31.463  1.00  0.00     0.053 C 
BRANCH   5   6
ATOM      6  C   UNL     1      21.819  11.637  32.738  1.00  0.00     0.041 C 
ATOM      7  O   UNL     1      20.644  11.350  33.088  1.00  0.00    -0.550 OA
ATOM      8  O   UNL     1      22.610  12.424  33.565  1.00  0.00    -0.550 OA
ENDBRANCH   5   6
ENDBRANCH   4   5
ENDBRANCH   3   4
ENDBRANCH   2   3
ENDBRANCH   1   2
BRANCH   1   9
ATOM      9  C   UNL     1      28.039  11.235  30.805  1.00  0.00     0.000 C 
BRANCH   9  10
ATOM     10  C   UNL     1      28.299  12.561  31.538  1.00  0.00    -0.000 C 
BRANCH  10  11
ATOM     11  C   UNL     1      27.139  12.958  32.467  1.00  0.00    -0.000 C 
BRANCH  11  12
ATOM     12  C   UNL     1      27.616  13.325  33.882  1.00  0.00    -0.000 C 
BRANCH  12  13
ATOM     13  C   UNL     1      27.188  12.295  34.938  1.00  0.00    -0.003 C 
ATOM     14  C   UNL     1      26.358  11.178  34.312  1.00  0.00     0.004 C 
ENDBRANCH  12  13
ENDBRANCH  11  12
ENDBRANCH  10  11
ENDBRANCH   9  10
ENDBRANCH   1   9
TORSDOF 10
ENDMDL
MODEL 9
REMARK VINA RESULT:    -4.105      3.531      5.461
REMARK INTER + INTRA:          -7.790
REMARK INTER:                  -7.365
REMARK INTRA:                  -0.426
REMARK UNBOUND:                -1.286
REMARK SMILES CCCCCCCCCCCC(=O)[O-]
REMARK SMILES IDX 7 1 8 2 9 3 10 4 11 5 12 6 13 7 14 8 6 9 5 10 4 11 3 12 2 13
REMARK SMILES IDX 1 14
REMARK H PARENT
REMARK Flexibility Score: inf
ROOT
ATOM      1  C   UNL     1      26.045  13.543  36.060  1.00  0.00     0.000 C 
ENDROOT
BRANCH   1   2
ATOM      2  C   UNL     1      27.308  13.969  35.295  1.00  0.00     0.000 C 
BRANCH   2   3
ATOM      3  C   UNL     1      27.826  12.867  34.354  1.00  0.00     0.000 C 
BRANCH   3   4
ATOM      4  C   UNL     1      27.510  13.156  32.878  1.00  0.00     0.006 C 
BRANCH   4   5
ATOM      5  C   UNL     1      28.408  12.366  31.917  1.00  0.00     0.053 C 
BRANCH   5   6
ATOM      6  C   UNL     1      27.673  11.185  31.368  1.00  0.00     0.041 C 
ATOM      7  O   UNL     1      28.063  10.634  30.304  1.00  0.00    -0.550 OA
ATOM      8  O   UNL     1      26.585  10.661  32.055  1.00  0.00    -0.550 OA
ENDBRANCH   5   6
ENDBRANCH   4   5
ENDBRANCH   3   4
ENDBRANCH   2   3
ENDBRANCH   1   2
BRANCH   1   9
ATOM      9  C   UNL     1      25.329  12.352  35.399  1.00  0.00     0.000 C 
BRANCH   9  10
ATOM     10  C   UNL     1      23.800  12.426  35.540  1.00  0.00    -0.000 C 
BRANCH  10  11
ATOM     11  C   UNL     1      23.080  12.375  34.181  1.00  0.00    -0.000 C 
BRANCH  11  12
ATOM     12  C   UNL     1      21.553  12.274  34.327  1.00  0.00    -0.000 C 
BRANCH  12  13
ATOM     13  C   UNL     1      21.114  11.961  35.766  1.00  0.00    -0.003 C 
ATOM     14  C   UNL     1      19.678  12.414  36.013  1.00  0.00     0.004 C 
ENDBRANCH  12  13
ENDBRANCH  11  12
ENDBRANCH  10  11
ENDBRANCH   9  10
ENDBRANCH   1   9
TORSDOF 10
ENDMDL
