MODEL 1
REMARK VINA RESULT:    -7.069      0.000      0.000
REMARK INTER + INTRA:          -8.605
REMARK INTER:                  -8.309
REMARK INTRA:                  -0.297
REMARK UNBOUND:                -0.297
REMARK SMILES O=c1cc(-c2ccc(O)c(O)c2)oc2cc(O)cc(O)c12
REMARK SMILES IDX 4 1 3 2 2 3 1 4 21 5 19 6 18 7 16 8 15 9 14 10 13 11 5 12
REMARK SMILES IDX 6 13 7 14 8 15 12 16 10 17 9 18 11 20 20 22 17 24
REMARK H PARENT 9 19 11 21 20 23 17 25
REMARK Flexibility Score: inf
ROOT
ATOM      1  C   UNL     1     -17.298  12.427 -34.551  1.00  0.00     0.138 A 
ATOM      2  C   UNL     1     -17.557  11.103 -34.164  1.00  0.00     0.100 A 
ATOM      3  C   UNL     1     -18.198  10.239 -35.055  1.00  0.00     0.197 A 
ATOM      4  O   UNL     1     -18.425   9.051 -34.698  1.00  0.00    -0.289 OA
ATOM      5  C   UNL     1     -18.572  10.708 -36.329  1.00  0.00     0.107 A 
ATOM      6  C   UNL     1     -19.225   9.902 -37.290  1.00  0.00     0.134 A 
ATOM      7  C   UNL     1     -19.560  10.443 -38.540  1.00  0.00     0.093 A 
ATOM      8  C   UNL     1     -19.254  11.774 -38.846  1.00  0.00     0.123 A 
ATOM      9  C   UNL     1     -18.609  12.573 -37.900  1.00  0.00     0.094 A 
ATOM     10  C   UNL     1     -18.268  12.054 -36.649  1.00  0.00     0.146 A 
ATOM     11  O   UNL     1     -17.656  12.836 -35.765  1.00  0.00    -0.456 OA
ENDROOT
BRANCH   1  12
ATOM     12  C   UNL     1     -16.619  13.389 -33.645  1.00  0.00     0.021 A 
ATOM     13  C   UNL     1     -16.524  14.740 -34.019  1.00  0.00     0.016 A 
ATOM     14  C   UNL     1     -15.896  15.666 -33.182  1.00  0.00     0.051 A 
ATOM     15  C   UNL     1     -15.363  15.263 -31.955  1.00  0.00     0.157 A 
ATOM     16  C   UNL     1     -16.093  12.989 -32.400  1.00  0.00     0.062 A 
ATOM     17  C   UNL     1     -15.465  13.919 -31.559  1.00  0.00     0.158 A 
BRANCH  15  18
ATOM     18  O   UNL     1     -14.742  16.210 -31.142  1.00  0.00    -0.504 OA
ATOM     19  H   UNL     1     -14.255  15.953 -30.291  1.00  0.00     0.293 HD
ENDBRANCH  15  18
BRANCH  17  20
ATOM     20  O   UNL     1     -14.946  13.514 -30.331  1.00  0.00    -0.504 OA
ATOM     21  H   UNL     1     -14.940  12.540 -30.052  1.00  0.00     0.293 HD
ENDBRANCH  17  20
ENDBRANCH   1  12
BRANCH   6  22
ATOM     22  O   UNL     1     -19.543   8.570 -37.014  1.00  0.00    -0.507 OA
ATOM     23  H   UNL     1     -20.416   8.157 -37.321  1.00  0.00     0.293 HD
ENDBRANCH   6  22
BRANCH   8  24
ATOM     24  O   UNL     1     -19.585  12.312 -40.088  1.00  0.00    -0.508 OA
ATOM     25  H   UNL     1     -19.485  11.775 -40.941  1.00  0.00     0.293 HD
ENDBRANCH   8  24
TORSDOF 5
ENDMDL
MODEL 2
REMARK VINA RESULT:    -7.019      7.157     10.142
REMARK INTER + INTRA:          -8.547
REMARK INTER:                  -8.253
REMARK INTRA:                  -0.293
REMARK UNBOUND:                -0.297
REMARK SMILES O=c1cc(-c2ccc(O)c(O)c2)oc2cc(O)cc(O)c12
REMARK SMILES IDX 4 1 3 2 2 3 1 4 21 5 19 6 18 7 16 8 15 9 14 10 13 11 5 12
REMARK SMILES IDX 6 13 7 14 8 15 12 16 10 17 9 18 11 20 20 22 17 24
REMARK H PARENT 9 19 11 21 20 23 17 25
REMARK Flexibility Score: inf
ROOT
ATOM      1  C   UNL     1     -23.297  15.551 -39.554  1.00  0.00     0.138 A 
ATOM      2  C   UNL     1     -24.049  15.992 -38.452  1.00  0.00     0.100 A 
ATOM      3  C   UNL     1     -24.478  17.320 -38.401  1.00  0.00     0.197 A 
ATOM      4  O   UNL     1     -25.154  17.706 -37.409  1.00  0.00    -0.289 OA
ATOM      5  C   UNL     1     -24.155  18.196 -39.456  1.00  0.00     0.107 A 
ATOM      6  C   UNL     1     -24.549  19.555 -39.483  1.00  0.00     0.134 A 
ATOM      7  C   UNL     1     -24.191  20.361 -40.573  1.00  0.00     0.093 A 
ATOM      8  C   UNL     1     -23.447  19.834 -41.636  1.00  0.00     0.123 A 
ATOM      9  C   UNL     1     -23.056  18.495 -41.613  1.00  0.00     0.094 A 
ATOM     10  C   UNL     1     -23.402  17.675 -40.536  1.00  0.00     0.146 A 
ATOM     11  O   UNL     1     -23.017  16.402 -40.537  1.00  0.00    -0.456 OA
ENDROOT
BRANCH   1  12
ATOM     12  C   UNL     1     -22.815  14.151 -39.662  1.00  0.00     0.021 A 
ATOM     13  C   UNL     1     -23.691  13.094 -39.362  1.00  0.00     0.016 A 
ATOM     14  C   UNL     1     -23.265  11.768 -39.463  1.00  0.00     0.051 A 
ATOM     15  C   UNL     1     -21.962  11.473 -39.873  1.00  0.00     0.157 A 
ATOM     16  C   UNL     1     -21.506  13.848 -40.089  1.00  0.00     0.062 A 
ATOM     17  C   UNL     1     -21.079  12.517 -40.192  1.00  0.00     0.158 A 
BRANCH  15  18
ATOM     18  O   UNL     1     -21.566  10.138 -39.963  1.00  0.00    -0.504 OA
ATOM     19  H   UNL     1     -22.044   9.399 -39.461  1.00  0.00     0.293 HD
ENDBRANCH  15  18
BRANCH  17  20
ATOM     20  O   UNL     1     -19.782  12.228 -40.613  1.00  0.00    -0.504 OA
ATOM     21  H   UNL     1     -19.160  11.650 -40.059  1.00  0.00     0.293 HD
ENDBRANCH  17  20
ENDBRANCH   1  12
BRANCH   6  22
ATOM     22  O   UNL     1     -25.291  20.107 -38.437  1.00  0.00    -0.507 OA
ATOM     23  H   UNL     1     -26.105  19.638 -38.055  1.00  0.00     0.293 HD
ENDBRANCH   6  22
BRANCH   8  24
ATOM     24  O   UNL     1     -23.092  20.635 -42.719  1.00  0.00    -0.508 OA
ATOM     25  H   UNL     1     -23.301  21.626 -42.737  1.00  0.00     0.293 HD
ENDBRANCH   8  24
TORSDOF 5
ENDMDL
MODEL 3
REMARK VINA RESULT:    -7.019      8.345      9.741
REMARK INTER + INTRA:          -8.546
REMARK INTER:                  -8.282
REMARK INTRA:                  -0.265
REMARK UNBOUND:                -0.297
REMARK SMILES O=c1cc(-c2ccc(O)c(O)c2)oc2cc(O)cc(O)c12
REMARK SMILES IDX 4 1 3 2 2 3 1 4 21 5 19 6 18 7 16 8 15 9 14 10 13 11 5 12
REMARK SMILES IDX 6 13 7 14 8 15 12 16 10 17 9 18 11 20 20 22 17 24
REMARK H PARENT 9 19 11 21 20 23 17 25
REMARK Flexibility Score: inf
ROOT
ATOM      1  C   UNL     1     -24.849  16.461 -37.311  1.00  0.00     0.138 A 
ATOM      2  C   UNL     1     -25.311  17.764 -37.556  1.00  0.00     0.100 A 
ATOM      3  C   UNL     1     -24.895  18.436 -38.708  1.00  0.00     0.197 A 
ATOM      4  O   UNL     1     -25.317  19.605 -38.920  1.00  0.00    -0.289 OA
ATOM      5  C   UNL     1     -24.022  17.796 -39.609  1.00  0.00     0.107 A 
ATOM      6  C   UNL     1     -23.552  18.403 -40.796  1.00  0.00     0.134 A 
ATOM      7  C   UNL     1     -22.687  17.696 -41.644  1.00  0.00     0.093 A 
ATOM      8  C   UNL     1     -22.284  16.393 -41.327  1.00  0.00     0.123 A 
ATOM      9  C   UNL     1     -22.746  15.790 -40.155  1.00  0.00     0.094 A 
ATOM     10  C   UNL     1     -23.608  16.478 -39.297  1.00  0.00     0.146 A 
ATOM     11  O   UNL     1     -24.032  15.882 -38.187  1.00  0.00    -0.456 OA
ENDROOT
BRANCH   1  12
ATOM     12  C   UNL     1     -25.258  15.700 -36.105  1.00  0.00     0.021 A 
ATOM     13  C   UNL     1     -26.037  14.539 -36.252  1.00  0.00     0.016 A 
ATOM     14  C   UNL     1     -26.429  13.800 -35.133  1.00  0.00     0.051 A 
ATOM     15  C   UNL     1     -26.045  14.200 -33.851  1.00  0.00     0.157 A 
ATOM     16  C   UNL     1     -24.861  16.091 -34.810  1.00  0.00     0.062 A 
ATOM     17  C   UNL     1     -25.253  15.348 -33.687  1.00  0.00     0.158 A 
BRANCH  15  18
ATOM     18  O   UNL     1     -26.453  13.442 -32.753  1.00  0.00    -0.504 OA
ATOM     19  H   UNL     1     -25.799  12.901 -32.199  1.00  0.00     0.293 HD
ENDBRANCH  15  18
BRANCH  17  20
ATOM     20  O   UNL     1     -24.857  15.746 -32.411  1.00  0.00    -0.504 OA
ATOM     21  H   UNL     1     -25.356  15.443 -31.583  1.00  0.00     0.293 HD
ENDBRANCH  17  20
ENDBRANCH   1  12
BRANCH   6  22
ATOM     22  O   UNL     1     -23.936  19.701 -41.139  1.00  0.00    -0.507 OA
ATOM     23  H   UNL     1     -23.930  20.022 -42.100  1.00  0.00     0.293 HD
ENDBRANCH   6  22
BRANCH   8  24
ATOM     24  O   UNL     1     -21.427  15.690 -42.169  1.00  0.00    -0.508 OA
ATOM     25  H   UNL     1     -21.268  15.981 -43.126  1.00  0.00     0.293 HD
ENDBRANCH   8  24
TORSDOF 5
ENDMDL
MODEL 4
REMARK VINA RESULT:    -6.988      8.950     10.330
REMARK INTER + INTRA:          -8.511
REMARK INTER:                  -8.194
REMARK INTRA:                  -0.317
REMARK UNBOUND:                -0.297
REMARK SMILES O=c1cc(-c2ccc(O)c(O)c2)oc2cc(O)cc(O)c12
REMARK SMILES IDX 4 1 3 2 2 3 1 4 21 5 19 6 18 7 16 8 15 9 14 10 13 11 5 12
REMARK SMILES IDX 6 13 7 14 8 15 12 16 10 17 9 18 11 20 20 22 17 24
REMARK H PARENT 9 19 11 21 20 23 17 25
REMARK Flexibility Score: inf
ROOT
ATOM      1  C   UNL     1     -25.019  16.842 -36.998  1.00  0.00     0.138 A 
ATOM      2  C   UNL     1     -25.507  16.594 -38.291  1.00  0.00     0.100 A 
ATOM      3  C   UNL     1     -25.162  17.458 -39.333  1.00  0.00     0.197 A 
ATOM      4  O   UNL     1     -25.604  17.226 -40.491  1.00  0.00    -0.289 OA
ATOM      5  C   UNL     1     -24.329  18.563 -39.073  1.00  0.00     0.107 A 
ATOM      6  C   UNL     1     -23.933  19.486 -40.068  1.00  0.00     0.134 A 
ATOM      7  C   UNL     1     -23.095  20.559 -39.728  1.00  0.00     0.093 A 
ATOM      8  C   UNL     1     -22.647  20.724 -38.412  1.00  0.00     0.123 A 
ATOM      9  C   UNL     1     -23.035  19.815 -37.427  1.00  0.00     0.094 A 
ATOM     10  C   UNL     1     -23.869  18.740 -37.745  1.00  0.00     0.146 A 
ATOM     11  O   UNL     1     -24.226  17.889 -36.788  1.00  0.00    -0.456 OA
ENDROOT
BRANCH   1  12
ATOM     12  C   UNL     1     -25.352  15.957 -35.853  1.00  0.00     0.021 A 
ATOM     13  C   UNL     1     -25.996  14.731 -36.093  1.00  0.00     0.016 A 
ATOM     14  C   UNL     1     -26.314  13.877 -35.034  1.00  0.00     0.051 A 
ATOM     15  C   UNL     1     -25.985  14.224 -33.722  1.00  0.00     0.157 A 
ATOM     16  C   UNL     1     -25.010  16.297 -34.529  1.00  0.00     0.062 A 
ATOM     17  C   UNL     1     -25.327  15.438 -33.467  1.00  0.00     0.158 A 
BRANCH  15  18
ATOM     18  O   UNL     1     -26.316  13.351 -32.686  1.00  0.00    -0.504 OA
ATOM     19  H   UNL     1     -26.723  13.676 -31.816  1.00  0.00     0.293 HD
ENDBRANCH  15  18
BRANCH  17  20
ATOM     20  O   UNL     1     -24.986  15.785 -32.160  1.00  0.00    -0.504 OA
ATOM     21  H   UNL     1     -24.869  16.752 -31.881  1.00  0.00     0.293 HD
ENDBRANCH  17  20
ENDBRANCH   1  12
BRANCH   6  22
ATOM     22  O   UNL     1     -24.364  19.347 -41.389  1.00  0.00    -0.507 OA
ATOM     23  H   UNL     1     -23.773  19.602 -42.172  1.00  0.00     0.293 HD
ENDBRANCH   6  22
BRANCH   8  24
ATOM     24  O   UNL     1     -21.814  21.789 -38.074  1.00  0.00    -0.508 OA
ATOM     25  H   UNL     1     -21.261  21.780 -37.226  1.00  0.00     0.293 HD
ENDBRANCH   8  24
TORSDOF 5
ENDMDL
MODEL 5
REMARK VINA RESULT:    -6.930      8.538     10.813
REMARK INTER + INTRA:          -8.442
REMARK INTER:                  -8.147
REMARK INTRA:                  -0.295
REMARK UNBOUND:                -0.297
REMARK SMILES O=c1cc(-c2ccc(O)c(O)c2)oc2cc(O)cc(O)c12
REMARK SMILES IDX 4 1 3 2 2 3 1 4 21 5 19 6 18 7 16 8 15 9 14 10 13 11 5 12
REMARK SMILES IDX 6 13 7 14 8 15 12 16 10 17 9 18 11 20 20 22 17 24
REMARK H PARENT 9 19 11 21 20 23 17 25
REMARK Flexibility Score: inf
ROOT
ATOM      1  C   UNL     1     -23.869  18.687 -38.674  1.00  0.00     0.138 A 
ATOM      2  C   UNL     1     -25.237  18.496 -38.927  1.00  0.00     0.100 A 
ATOM      3  C   UNL     1     -25.984  17.672 -38.083  1.00  0.00     0.197 A 
ATOM      4  O   UNL     1     -27.212  17.508 -38.318  1.00  0.00    -0.289 OA
ATOM      5  C   UNL     1     -25.356  17.046 -36.989  1.00  0.00     0.107 A 
ATOM      6  C   UNL     1     -26.037  16.196 -36.087  1.00  0.00     0.134 A 
ATOM      7  C   UNL     1     -25.340  15.615 -35.017  1.00  0.00     0.093 A 
ATOM      8  C   UNL     1     -23.976  15.868 -34.834  1.00  0.00     0.123 A 
ATOM      9  C   UNL     1     -23.300  16.707 -35.722  1.00  0.00     0.094 A 
ATOM     10  C   UNL     1     -23.976  17.295 -36.794  1.00  0.00     0.146 A 
ATOM     11  O   UNL     1     -23.308  18.089 -37.626  1.00  0.00    -0.456 OA
ENDROOT
BRANCH   1  12
ATOM     12  C   UNL     1     -23.027  19.553 -39.537  1.00  0.00     0.021 A 
ATOM     13  C   UNL     1     -21.737  19.909 -39.108  1.00  0.00     0.016 A 
ATOM     14  C   UNL     1     -20.921  20.717 -39.904  1.00  0.00     0.051 A 
ATOM     15  C   UNL     1     -21.374  21.174 -41.145  1.00  0.00     0.157 A 
ATOM     16  C   UNL     1     -23.473  20.005 -40.795  1.00  0.00     0.062 A 
ATOM     17  C   UNL     1     -22.654  20.814 -41.595  1.00  0.00     0.158 A 
BRANCH  15  18
ATOM     18  O   UNL     1     -20.537  21.980 -41.917  1.00  0.00    -0.504 OA
ATOM     19  H   UNL     1     -20.598  22.007 -42.928  1.00  0.00     0.293 HD
ENDBRANCH  15  18
BRANCH  17  20
ATOM     20  O   UNL     1     -23.106  21.258 -42.837  1.00  0.00    -0.504 OA
ATOM     21  H   UNL     1     -22.594  21.949 -43.372  1.00  0.00     0.293 HD
ENDBRANCH  17  20
ENDBRANCH   1  12
BRANCH   6  22
ATOM     22  O   UNL     1     -27.398  15.925 -36.245  1.00  0.00    -0.507 OA
ATOM     23  H   UNL     1     -28.110  16.527 -35.849  1.00  0.00     0.293 HD
ENDBRANCH   6  22
BRANCH   8  24
ATOM     24  O   UNL     1     -23.283  15.292 -33.771  1.00  0.00    -0.508 OA
ATOM     25  H   UNL     1     -23.670  15.273 -32.835  1.00  0.00     0.293 HD
ENDBRANCH   8  24
TORSDOF 5
ENDMDL
MODEL 6
REMARK VINA RESULT:    -6.824      6.186      8.343
REMARK INTER + INTRA:          -8.317
REMARK INTER:                  -7.999
REMARK INTRA:                  -0.318
REMARK UNBOUND:                -0.297
REMARK SMILES O=c1cc(-c2ccc(O)c(O)c2)oc2cc(O)cc(O)c12
REMARK SMILES IDX 4 1 3 2 2 3 1 4 21 5 19 6 18 7 16 8 15 9 14 10 13 11 5 12
REMARK SMILES IDX 6 13 7 14 8 15 12 16 10 17 9 18 11 20 20 22 17 24
REMARK H PARENT 9 19 11 21 20 23 17 25
REMARK Flexibility Score: inf
ROOT
ATOM      1  C   UNL     1     -22.521  12.969 -37.268  1.00  0.00     0.138 A 
ATOM      2  C   UNL     1     -22.707  12.094 -36.186  1.00  0.00     0.100 A 
ATOM      3  C   UNL     1     -23.543  12.472 -35.133  1.00  0.00     0.197 A 
ATOM      4  O   UNL     1     -23.704  11.679 -34.166  1.00  0.00    -0.289 OA
ATOM      5  C   UNL     1     -24.189  13.723 -35.173  1.00  0.00     0.107 A 
ATOM      6  C   UNL     1     -25.050  14.183 -34.149  1.00  0.00     0.134 A 
ATOM      7  C   UNL     1     -25.661  15.441 -34.267  1.00  0.00     0.093 A 
ATOM      8  C   UNL     1     -25.426  16.245 -35.389  1.00  0.00     0.123 A 
ATOM      9  C   UNL     1     -24.578  15.794 -36.401  1.00  0.00     0.094 A 
ATOM     10  C   UNL     1     -23.959  14.545 -36.303  1.00  0.00     0.146 A 
ATOM     11  O   UNL     1     -23.154  14.139 -37.280  1.00  0.00    -0.456 OA
ENDROOT
BRANCH   1  12
ATOM     12  C   UNL     1     -21.646  12.620 -38.416  1.00  0.00     0.021 A 
ATOM     13  C   UNL     1     -20.930  11.411 -38.394  1.00  0.00     0.016 A 
ATOM     14  C   UNL     1     -20.105  11.055 -39.464  1.00  0.00     0.051 A 
ATOM     15  C   UNL     1     -19.988  11.892 -40.576  1.00  0.00     0.157 A 
ATOM     16  C   UNL     1     -21.537  13.454 -39.546  1.00  0.00     0.062 A 
ATOM     17  C   UNL     1     -20.710  13.096 -40.621  1.00  0.00     0.158 A 
BRANCH  15  18
ATOM     18  O   UNL     1     -19.156  11.510 -41.628  1.00  0.00    -0.504 OA
ATOM     19  H   UNL     1     -19.382  11.714 -42.595  1.00  0.00     0.293 HD
ENDBRANCH  15  18
BRANCH  17  20
ATOM     20  O   UNL     1     -20.607  13.929 -41.733  1.00  0.00    -0.504 OA
ATOM     21  H   UNL     1     -21.419  14.386 -42.132  1.00  0.00     0.293 HD
ENDBRANCH  17  20
ENDBRANCH   1  12
BRANCH   6  22
ATOM     22  O   UNL     1     -25.302  13.403 -33.019  1.00  0.00    -0.507 OA
ATOM     23  H   UNL     1     -24.570  12.865 -32.569  1.00  0.00     0.293 HD
ENDBRANCH   6  22
BRANCH   8  24
ATOM     24  O   UNL     1     -26.034  17.493 -35.507  1.00  0.00    -0.508 OA
ATOM     25  H   UNL     1     -25.717  18.289 -34.967  1.00  0.00     0.293 HD
ENDBRANCH   8  24
TORSDOF 5
ENDMDL
MODEL 7
REMARK VINA RESULT:    -6.809      5.661      8.785
REMARK INTER + INTRA:          -8.299
REMARK INTER:                  -8.031
REMARK INTRA:                  -0.268
REMARK UNBOUND:                -0.297
REMARK SMILES O=c1cc(-c2ccc(O)c(O)c2)oc2cc(O)cc(O)c12
REMARK SMILES IDX 4 1 3 2 2 3 1 4 21 5 19 6 18 7 16 8 15 9 14 10 13 11 5 12
REMARK SMILES IDX 6 13 7 14 8 15 12 16 10 17 9 18 11 20 20 22 17 24
REMARK H PARENT 9 19 11 21 20 23 17 25
REMARK Flexibility Score: inf
ROOT
ATOM      1  C   UNL     1     -21.917  14.752 -39.564  1.00  0.00     0.138 A 
ATOM      2  C   UNL     1     -21.671  15.694 -40.575  1.00  0.00     0.100 A 
ATOM      3  C   UNL     1     -22.583  16.730 -40.786  1.00  0.00     0.197 A 
ATOM      4  O   UNL     1     -22.352  17.573 -41.695  1.00  0.00    -0.289 OA
ATOM      5  C   UNL     1     -23.735  16.817 -39.979  1.00  0.00     0.107 A 
ATOM      6  C   UNL     1     -24.709  17.832 -40.126  1.00  0.00     0.134 A 
ATOM      7  C   UNL     1     -25.826  17.851 -39.278  1.00  0.00     0.093 A 
ATOM      8  C   UNL     1     -25.987  16.875 -38.287  1.00  0.00     0.123 A 
ATOM      9  C   UNL     1     -25.027  15.872 -38.140  1.00  0.00     0.094 A 
ATOM     10  C   UNL     1     -23.908  15.834 -38.974  1.00  0.00     0.146 A 
ATOM     11  O   UNL     1     -23.009  14.867 -38.814  1.00  0.00    -0.456 OA
ENDROOT
BRANCH   1  12
ATOM     12  C   UNL     1     -20.981  13.631 -39.295  1.00  0.00     0.021 A 
ATOM     13  C   UNL     1     -20.991  12.505 -40.137  1.00  0.00     0.016 A 
ATOM     14  C   UNL     1     -20.116  11.440 -39.910  1.00  0.00     0.051 A 
ATOM     15  C   UNL     1     -19.210  11.483 -38.847  1.00  0.00     0.157 A 
ATOM     16  C   UNL     1     -20.056  13.676 -38.233  1.00  0.00     0.062 A 
ATOM     17  C   UNL     1     -19.176  12.607 -38.007  1.00  0.00     0.158 A 
BRANCH  15  18
ATOM     18  O   UNL     1     -18.350  10.404 -38.646  1.00  0.00    -0.504 OA
ATOM     19  H   UNL     1     -17.839  10.277 -37.780  1.00  0.00     0.293 HD
ENDBRANCH  15  18
BRANCH  17  20
ATOM     20  O   UNL     1     -18.266  12.661 -36.952  1.00  0.00    -0.504 OA
ATOM     21  H   UNL     1     -17.694  13.481 -36.785  1.00  0.00     0.293 HD
ENDBRANCH  17  20
ENDBRANCH   1  12
BRANCH   6  22
ATOM     22  O   UNL     1     -24.576  18.818 -41.105  1.00  0.00    -0.507 OA
ATOM     23  H   UNL     1     -24.649  19.804 -40.881  1.00  0.00     0.293 HD
ENDBRANCH   6  22
BRANCH   8  24
ATOM     24  O   UNL     1     -27.096  16.894 -37.444  1.00  0.00    -0.508 OA
ATOM     25  H   UNL     1     -27.886  16.280 -37.595  1.00  0.00     0.293 HD
ENDBRANCH   8  24
TORSDOF 5
ENDMDL
MODEL 8
REMARK VINA RESULT:    -6.657      8.003     10.269
REMARK INTER + INTRA:          -8.121
REMARK INTER:                  -7.856
REMARK INTRA:                  -0.265
REMARK UNBOUND:                -0.297
REMARK SMILES O=c1cc(-c2ccc(O)c(O)c2)oc2cc(O)cc(O)c12
REMARK SMILES IDX 4 1 3 2 2 3 1 4 21 5 19 6 18 7 16 8 15 9 14 10 13 11 5 12
REMARK SMILES IDX 6 13 7 14 8 15 12 16 10 17 9 18 11 20 20 22 17 24
REMARK H PARENT 9 19 11 21 20 23 17 25
REMARK Flexibility Score: inf
ROOT
ATOM      1  C   UNL     1     -23.292  18.017 -38.160  1.00  0.00     0.138 A 
ATOM      2  C   UNL     1     -22.235  17.940 -37.239  1.00  0.00     0.100 A 
ATOM      3  C   UNL     1     -22.347  17.095 -36.133  1.00  0.00     0.197 A 
ATOM      4  O   UNL     1     -21.391  17.032 -35.313  1.00  0.00    -0.289 OA
ATOM      5  C   UNL     1     -23.516  16.328 -35.960  1.00  0.00     0.107 A 
ATOM      6  C   UNL     1     -23.711  15.449 -34.869  1.00  0.00     0.134 A 
ATOM      7  C   UNL     1     -24.903  14.716 -34.771  1.00  0.00     0.093 A 
ATOM      8  C   UNL     1     -25.902  14.847 -35.743  1.00  0.00     0.123 A 
ATOM      9  C   UNL     1     -25.713  15.713 -36.821  1.00  0.00     0.094 A 
ATOM     10  C   UNL     1     -24.533  16.453 -36.936  1.00  0.00     0.146 A 
ATOM     11  O   UNL     1     -24.379  17.273 -37.972  1.00  0.00    -0.456 OA
ENDROOT
BRANCH   1  12
ATOM     12  C   UNL     1     -23.228  18.897 -39.354  1.00  0.00     0.021 A 
ATOM     13  C   UNL     1     -23.224  18.323 -40.636  1.00  0.00     0.016 A 
ATOM     14  C   UNL     1     -23.172  19.129 -41.776  1.00  0.00     0.051 A 
ATOM     15  C   UNL     1     -23.132  20.521 -41.656  1.00  0.00     0.157 A 
ATOM     16  C   UNL     1     -23.203  20.302 -39.238  1.00  0.00     0.062 A 
ATOM     17  C   UNL     1     -23.152  21.111 -40.382  1.00  0.00     0.158 A 
BRANCH  15  18
ATOM     18  O   UNL     1     -23.079  21.299 -42.812  1.00  0.00    -0.504 OA
ATOM     19  H   UNL     1     -22.223  21.743 -43.124  1.00  0.00     0.293 HD
ENDBRANCH  15  18
BRANCH  17  20
ATOM     20  O   UNL     1     -23.125  22.500 -40.257  1.00  0.00    -0.504 OA
ATOM     21  H   UNL     1     -22.318  22.983 -39.881  1.00  0.00     0.293 HD
ENDBRANCH  17  20
ENDBRANCH   1  12
BRANCH   6  22
ATOM     22  O   UNL     1     -22.732  15.298 -33.885  1.00  0.00    -0.507 OA
ATOM     23  H   UNL     1     -22.925  14.824 -33.010  1.00  0.00     0.293 HD
ENDBRANCH   6  22
BRANCH   8  24
ATOM     24  O   UNL     1     -27.086  14.118 -35.647  1.00  0.00    -0.508 OA
ATOM     25  H   UNL     1     -27.373  13.688 -34.776  1.00  0.00     0.293 HD
ENDBRANCH   8  24
TORSDOF 5
ENDMDL
MODEL 9
REMARK VINA RESULT:    -6.601      5.790      8.600
REMARK INTER + INTRA:          -8.056
REMARK INTER:                  -7.756
REMARK INTRA:                  -0.299
REMARK UNBOUND:                -0.297
REMARK SMILES O=c1cc(-c2ccc(O)c(O)c2)oc2cc(O)cc(O)c12
REMARK SMILES IDX 4 1 3 2 2 3 1 4 21 5 19 6 18 7 16 8 15 9 14 10 13 11 5 12
REMARK SMILES IDX 6 13 7 14 8 15 12 16 10 17 9 18 11 20 20 22 17 24
REMARK H PARENT 9 19 11 21 20 23 17 25
REMARK Flexibility Score: inf
ROOT
ATOM      1  C   UNL     1     -22.832  13.906 -38.346  1.00  0.00     0.138 A 
ATOM      2  C   UNL     1     -23.886  13.658 -37.453  1.00  0.00     0.100 A 
ATOM      3  C   UNL     1     -24.962  14.547 -37.395  1.00  0.00     0.197 A 
ATOM      4  O   UNL     1     -25.905  14.314 -36.591  1.00  0.00    -0.289 OA
ATOM      5  C   UNL     1     -24.976  15.677 -38.236  1.00  0.00     0.107 A 
ATOM      6  C   UNL     1     -26.024  16.626 -38.241  1.00  0.00     0.134 A 
ATOM      7  C   UNL     1     -25.965  17.723 -39.114  1.00  0.00     0.093 A 
ATOM      8  C   UNL     1     -24.878  17.887 -39.981  1.00  0.00     0.123 A 
ATOM      9  C   UNL     1     -23.842  16.952 -39.979  1.00  0.00     0.094 A 
ATOM     10  C   UNL     1     -23.881  15.853 -39.117  1.00  0.00     0.146 A 
ATOM     11  O   UNL     1     -22.880  14.978 -39.133  1.00  0.00    -0.456 OA
ENDROOT
BRANCH   1  12
ATOM     12  C   UNL     1     -21.664  12.995 -38.451  1.00  0.00     0.021 A 
ATOM     13  C   UNL     1     -21.150  12.396 -37.289  1.00  0.00     0.016 A 
ATOM     14  C   UNL     1     -20.057  11.529 -37.361  1.00  0.00     0.051 A 
ATOM     15  C   UNL     1     -19.464  11.238 -38.592  1.00  0.00     0.157 A 
ATOM     16  C   UNL     1     -21.072  12.688 -39.693  1.00  0.00     0.062 A 
ATOM     17  C   UNL     1     -19.976  11.816 -39.765  1.00  0.00     0.158 A 
BRANCH  15  18
ATOM     18  O   UNL     1     -18.373  10.370 -38.632  1.00  0.00    -0.504 OA
ATOM     19  H   UNL     1     -17.425  10.688 -38.465  1.00  0.00     0.293 HD
ENDBRANCH  15  18
BRANCH  17  20
ATOM     20  O   UNL     1     -19.396  11.521 -40.998  1.00  0.00    -0.504 OA
ATOM     21  H   UNL     1     -18.755  12.161 -41.450  1.00  0.00     0.293 HD
ENDBRANCH  17  20
ENDBRANCH   1  12
BRANCH   6  22
ATOM     22  O   UNL     1     -27.121  16.489 -37.388  1.00  0.00    -0.507 OA
ATOM     23  H   UNL     1     -27.961  16.000 -37.675  1.00  0.00     0.293 HD
ENDBRANCH   6  22
BRANCH   8  24
ATOM     24  O   UNL     1     -24.820  18.975 -40.848  1.00  0.00    -0.508 OA
ATOM     25  H   UNL     1     -24.071  19.076 -41.522  1.00  0.00     0.293 HD
ENDBRANCH   8  24
TORSDOF 5
ENDMDL
