MODEL 1
REMARK VINA RESULT:    -4.986      0.000      0.000
REMARK INTER + INTRA:          -6.263
REMARK INTER:                  -6.006
REMARK INTRA:                  -0.257
REMARK UNBOUND:                -0.257
REMARK SMILES O=c1c(O)c(-c2ccc(O)c(O)c2)oc2cc(O)cc(O)c12
REMARK SMILES IDX 5 1 3 2 2 3 1 4 22 5 20 6 19 7 17 8 16 9 15 10 14 11 6 12
REMARK SMILES IDX 7 13 8 14 9 15 13 16 11 17 10 18 12 20 4 22 21 24 18 26
REMARK H PARENT 10 19 12 21 4 23 21 25 18 27
REMARK Flexibility Score: inf
ROOT
ATOM      1  C   UNL     1       9.711  12.058  60.897  1.00  0.00     0.180 A 
ATOM      2  C   UNL     1       9.539  10.961  61.757  1.00  0.00     0.208 A 
ATOM      3  C   UNL     1       9.843   9.673  61.287  1.00  0.00     0.238 A 
ATOM      4  O   UNL     1       9.636   8.689  62.044  1.00  0.00    -0.285 OA
ATOM      5  C   UNL     1      10.331   9.501  59.969  1.00  0.00     0.111 A 
ATOM      6  C   UNL     1      10.709   8.247  59.402  1.00  0.00     0.134 A 
ATOM      7  C   UNL     1      11.053   8.179  58.047  1.00  0.00     0.093 A 
ATOM      8  C   UNL     1      11.097   9.329  57.254  1.00  0.00     0.123 A 
ATOM      9  C   UNL     1      10.787  10.565  57.815  1.00  0.00     0.094 A 
ATOM     10  C   UNL     1      10.404  10.661  59.154  1.00  0.00     0.146 A 
ATOM     11  O   UNL     1      10.107  11.858  59.645  1.00  0.00    -0.452 OA
ENDROOT
BRANCH   1  12
ATOM     12  C   UNL     1       9.435  13.449  61.328  1.00  0.00     0.025 A 
ATOM     13  C   UNL     1      10.505  14.297  61.652  1.00  0.00     0.016 A 
ATOM     14  C   UNL     1      10.266  15.605  62.080  1.00  0.00     0.051 A 
ATOM     15  C   UNL     1       8.956  16.080  62.206  1.00  0.00     0.157 A 
ATOM     16  C   UNL     1       8.119  13.921  61.475  1.00  0.00     0.062 A 
ATOM     17  C   UNL     1       7.876  15.234  61.907  1.00  0.00     0.158 A 
BRANCH  15  18
ATOM     18  O   UNL     1       8.749  17.391  62.634  1.00  0.00    -0.504 OA
ATOM     19  H   UNL     1       8.327  17.605  63.530  1.00  0.00     0.293 HD
ENDBRANCH  15  18
BRANCH  17  20
ATOM     20  O   UNL     1       6.569  15.696  62.044  1.00  0.00    -0.504 OA
ATOM     21  H   UNL     1       6.324  16.660  61.851  1.00  0.00     0.293 HD
ENDBRANCH  17  20
ENDBRANCH   1  12
BRANCH   2  22
ATOM     22  O   UNL     1       9.035  11.150  63.048  1.00  0.00    -0.502 OA
ATOM     23  H   UNL     1       9.427  10.686  63.858  1.00  0.00     0.293 HD
ENDBRANCH   2  22
BRANCH   6  24
ATOM     24  O   UNL     1      10.789   7.055  60.127  1.00  0.00    -0.507 OA
ATOM     25  H   UNL     1      10.026   6.645  60.645  1.00  0.00     0.293 HD
ENDBRANCH   6  24
BRANCH   8  26
ATOM     26  O   UNL     1      11.456   9.253  55.911  1.00  0.00    -0.508 OA
ATOM     27  H   UNL     1      11.104   9.916  55.230  1.00  0.00     0.293 HD
ENDBRANCH   8  26
TORSDOF 6
ENDMDL
MODEL 2
REMARK VINA RESULT:    -4.969     12.534     16.018
REMARK INTER + INTRA:          -6.243
REMARK INTER:                  -5.933
REMARK INTRA:                  -0.310
REMARK UNBOUND:                -0.257
REMARK SMILES O=c1c(O)c(-c2ccc(O)c(O)c2)oc2cc(O)cc(O)c12
REMARK SMILES IDX 5 1 3 2 2 3 1 4 22 5 20 6 19 7 17 8 16 9 15 10 14 11 6 12
REMARK SMILES IDX 7 13 8 14 9 15 13 16 11 17 10 18 12 20 4 22 21 24 18 26
REMARK H PARENT 10 19 12 21 4 23 21 25 18 27
REMARK Flexibility Score: inf
ROOT
ATOM      1  C   UNL     1       4.376  14.388  73.330  1.00  0.00     0.180 A 
ATOM      2  C   UNL     1       4.572  15.768  73.154  1.00  0.00     0.208 A 
ATOM      3  C   UNL     1       3.490  16.640  73.352  1.00  0.00     0.238 A 
ATOM      4  O   UNL     1       3.658  17.869  73.140  1.00  0.00    -0.285 OA
ATOM      5  C   UNL     1       2.231  16.124  73.740  1.00  0.00     0.111 A 
ATOM      6  C   UNL     1       1.076  16.920  74.008  1.00  0.00     0.134 A 
ATOM      7  C   UNL     1      -0.151  16.293  74.257  1.00  0.00     0.093 A 
ATOM      8  C   UNL     1      -0.252  14.900  74.313  1.00  0.00     0.123 A 
ATOM      9  C   UNL     1       0.882  14.117  74.112  1.00  0.00     0.094 A 
ATOM     10  C   UNL     1       2.113  14.712  73.825  1.00  0.00     0.146 A 
ATOM     11  O   UNL     1       3.167  13.928  73.630  1.00  0.00    -0.452 OA
ENDROOT
BRANCH   1  12
ATOM     12  C   UNL     1       5.474  13.407  73.163  1.00  0.00     0.025 A 
ATOM     13  C   UNL     1       5.776  12.920  71.882  1.00  0.00     0.016 A 
ATOM     14  C   UNL     1       6.794  11.980  71.705  1.00  0.00     0.051 A 
ATOM     15  C   UNL     1       7.514  11.501  72.804  1.00  0.00     0.157 A 
ATOM     16  C   UNL     1       6.185  12.910  74.269  1.00  0.00     0.062 A 
ATOM     17  C   UNL     1       7.206  11.964  74.094  1.00  0.00     0.158 A 
BRANCH  15  18
ATOM     18  O   UNL     1       8.526  10.564  72.595  1.00  0.00    -0.504 OA
ATOM     19  H   UNL     1       8.567   9.693  73.110  1.00  0.00     0.293 HD
ENDBRANCH  15  18
BRANCH  17  20
ATOM     20  O   UNL     1       7.910  11.480  75.195  1.00  0.00    -0.504 OA
ATOM     21  H   UNL     1       7.529  10.757  75.793  1.00  0.00     0.293 HD
ENDBRANCH  17  20
ENDBRANCH   1  12
BRANCH   2  22
ATOM     22  O   UNL     1       5.818  16.255  72.749  1.00  0.00    -0.502 OA
ATOM     23  H   UNL     1       6.069  16.366  71.773  1.00  0.00     0.293 HD
ENDBRANCH   2  22
BRANCH   6  24
ATOM     24  O   UNL     1       1.087  18.315  74.068  1.00  0.00    -0.507 OA
ATOM     25  H   UNL     1       0.270  18.901  73.983  1.00  0.00     0.293 HD
ENDBRANCH   6  24
BRANCH   8  26
ATOM     26  O   UNL     1      -1.474  14.286  74.577  1.00  0.00    -0.508 OA
ATOM     27  H   UNL     1      -2.249  14.799  74.979  1.00  0.00     0.293 HD
ENDBRANCH   8  26
TORSDOF 6
ENDMDL
MODEL 3
REMARK VINA RESULT:    -4.859     13.050     16.236
REMARK INTER + INTRA:          -6.111
REMARK INTER:                  -5.806
REMARK INTRA:                  -0.304
REMARK UNBOUND:                -0.257
REMARK SMILES O=c1c(O)c(-c2ccc(O)c(O)c2)oc2cc(O)cc(O)c12
REMARK SMILES IDX 5 1 3 2 2 3 1 4 22 5 20 6 19 7 17 8 16 9 15 10 14 11 6 12
REMARK SMILES IDX 7 13 8 14 9 15 13 16 11 17 10 18 12 20 4 22 21 24 18 26
REMARK H PARENT 10 19 12 21 4 23 21 25 18 27
REMARK Flexibility Score: inf
ROOT
ATOM      1  C   UNL     1       3.351  13.398  73.624  1.00  0.00     0.180 A 
ATOM      2  C   UNL     1       2.321  12.502  73.957  1.00  0.00     0.208 A 
ATOM      3  C   UNL     1       1.035  13.007  74.208  1.00  0.00     0.238 A 
ATOM      4  O   UNL     1       0.129  12.206  74.558  1.00  0.00    -0.285 OA
ATOM      5  C   UNL     1       0.792  14.398  74.107  1.00  0.00     0.111 A 
ATOM      6  C   UNL     1      -0.481  15.014  74.300  1.00  0.00     0.134 A 
ATOM      7  C   UNL     1      -0.578  16.411  74.305  1.00  0.00     0.093 A 
ATOM      8  C   UNL     1       0.539  17.213  74.058  1.00  0.00     0.123 A 
ATOM      9  C   UNL     1       1.774  16.618  73.809  1.00  0.00     0.094 A 
ATOM     10  C   UNL     1       1.910  15.228  73.834  1.00  0.00     0.146 A 
ATOM     11  O   UNL     1       3.107  14.703  73.602  1.00  0.00    -0.452 OA
ENDROOT
BRANCH   1  12
ATOM     12  C   UNL     1       4.727  12.940  73.322  1.00  0.00     0.025 A 
ATOM     13  C   UNL     1       5.106  12.721  71.988  1.00  0.00     0.016 A 
ATOM     14  C   UNL     1       6.392  12.270  71.683  1.00  0.00     0.051 A 
ATOM     15  C   UNL     1       7.313  12.015  72.704  1.00  0.00     0.157 A 
ATOM     16  C   UNL     1       5.648  12.664  74.348  1.00  0.00     0.062 A 
ATOM     17  C   UNL     1       6.940  12.208  74.044  1.00  0.00     0.158 A 
BRANCH  15  18
ATOM     18  O   UNL     1       8.590  11.567  72.368  1.00  0.00    -0.504 OA
ATOM     19  H   UNL     1       8.740  10.728  71.821  1.00  0.00     0.293 HD
ENDBRANCH  15  18
BRANCH  17  20
ATOM     20  O   UNL     1       7.848  11.943  75.067  1.00  0.00    -0.504 OA
ATOM     21  H   UNL     1       8.791  12.312  75.048  1.00  0.00     0.293 HD
ENDBRANCH  17  20
ENDBRANCH   1  12
BRANCH   2  22
ATOM     22  O   UNL     1       2.588  11.135  74.073  1.00  0.00    -0.502 OA
ATOM     23  H   UNL     1       3.530  10.765  74.103  1.00  0.00     0.293 HD
ENDBRANCH   2  22
BRANCH   6  24
ATOM     24  O   UNL     1      -1.675  14.305  74.463  1.00  0.00    -0.507 OA
ATOM     25  H   UNL     1      -1.757  13.301  74.417  1.00  0.00     0.293 HD
ENDBRANCH   6  24
BRANCH   8  26
ATOM     26  O   UNL     1       0.430  18.601  74.048  1.00  0.00    -0.508 OA
ATOM     27  H   UNL     1       1.189  19.194  74.363  1.00  0.00     0.293 HD
ENDBRANCH   8  26
TORSDOF 6
ENDMDL
MODEL 4
REMARK VINA RESULT:    -4.850      1.563      7.086
REMARK INTER + INTRA:          -6.100
REMARK INTER:                  -5.769
REMARK INTRA:                  -0.331
REMARK UNBOUND:                -0.257
REMARK SMILES O=c1c(O)c(-c2ccc(O)c(O)c2)oc2cc(O)cc(O)c12
REMARK SMILES IDX 5 1 3 2 2 3 1 4 22 5 20 6 19 7 17 8 16 9 15 10 14 11 6 12
REMARK SMILES IDX 7 13 8 14 9 15 13 16 11 17 10 18 12 20 4 22 21 24 18 26
REMARK H PARENT 10 19 12 21 4 23 21 25 18 27
REMARK Flexibility Score: inf
ROOT
ATOM      1  C   UNL     1      10.705  11.985  60.262  1.00  0.00     0.180 A 
ATOM      2  C   UNL     1      11.866  12.689  60.623  1.00  0.00     0.208 A 
ATOM      3  C   UNL     1      11.736  13.901  61.321  1.00  0.00     0.238 A 
ATOM      4  O   UNL     1      12.777  14.554  61.595  1.00  0.00    -0.285 OA
ATOM      5  C   UNL     1      10.451  14.384  61.663  1.00  0.00     0.111 A 
ATOM      6  C   UNL     1      10.204  15.579  62.405  1.00  0.00     0.134 A 
ATOM      7  C   UNL     1       8.889  16.028  62.571  1.00  0.00     0.093 A 
ATOM      8  C   UNL     1       7.807  15.292  62.081  1.00  0.00     0.123 A 
ATOM      9  C   UNL     1       8.035  14.094  61.408  1.00  0.00     0.094 A 
ATOM     10  C   UNL     1       9.338  13.638  61.194  1.00  0.00     0.146 A 
ATOM     11  O   UNL     1       9.511  12.497  60.539  1.00  0.00    -0.452 OA
ENDROOT
BRANCH   1  12
ATOM     12  C   UNL     1      10.760  10.689  59.546  1.00  0.00     0.025 A 
ATOM     13  C   UNL     1      10.704  10.671  58.144  1.00  0.00     0.016 A 
ATOM     14  C   UNL     1      10.734   9.458  57.450  1.00  0.00     0.051 A 
ATOM     15  C   UNL     1      10.804   8.247  58.146  1.00  0.00     0.157 A 
ATOM     16  C   UNL     1      10.810   9.470  60.244  1.00  0.00     0.062 A 
ATOM     17  C   UNL     1      10.838   8.251  59.550  1.00  0.00     0.158 A 
BRANCH  15  18
ATOM     18  O   UNL     1      10.835   7.053  57.426  1.00  0.00    -0.504 OA
ATOM     19  H   UNL     1      10.495   6.182  57.814  1.00  0.00     0.293 HD
ENDBRANCH  15  18
BRANCH  17  20
ATOM     20  O   UNL     1      10.895   7.047  60.250  1.00  0.00    -0.504 OA
ATOM     21  H   UNL     1      10.908   6.154  59.770  1.00  0.00     0.293 HD
ENDBRANCH  17  20
ENDBRANCH   1  12
BRANCH   2  22
ATOM     22  O   UNL     1      13.125  12.206  60.257  1.00  0.00    -0.502 OA
ATOM     23  H   UNL     1      13.245  11.414  59.637  1.00  0.00     0.293 HD
ENDBRANCH   2  22
BRANCH   6  24
ATOM     24  O   UNL     1      11.205  16.338  63.015  1.00  0.00    -0.507 OA
ATOM     25  H   UNL     1      11.175  17.340  63.134  1.00  0.00     0.293 HD
ENDBRANCH   6  24
BRANCH   8  26
ATOM     26  O   UNL     1       6.501  15.739  62.266  1.00  0.00    -0.508 OA
ATOM     27  H   UNL     1       6.298  16.580  62.793  1.00  0.00     0.293 HD
ENDBRANCH   8  26
TORSDOF 6
ENDMDL
MODEL 5
REMARK VINA RESULT:    -4.670     13.749     17.642
REMARK INTER + INTRA:          -5.882
REMARK INTER:                  -5.642
REMARK INTRA:                  -0.240
REMARK UNBOUND:                -0.257
REMARK SMILES O=c1c(O)c(-c2ccc(O)c(O)c2)oc2cc(O)cc(O)c12
REMARK SMILES IDX 5 1 3 2 2 3 1 4 22 5 20 6 19 7 17 8 16 9 15 10 14 11 6 12
REMARK SMILES IDX 7 13 8 14 9 15 13 16 11 17 10 18 12 20 4 22 21 24 18 26
REMARK H PARENT 10 19 12 21 4 23 21 25 18 27
REMARK Flexibility Score: inf
ROOT
ATOM      1  C   UNL     1       2.797  16.737  74.048  1.00  0.00     0.180 A 
ATOM      2  C   UNL     1       3.133  18.013  74.532  1.00  0.00     0.208 A 
ATOM      3  C   UNL     1       2.102  18.903  74.875  1.00  0.00     0.238 A 
ATOM      4  O   UNL     1       2.409  20.063  75.257  1.00  0.00    -0.285 OA
ATOM      5  C   UNL     1       0.752  18.501  74.747  1.00  0.00     0.111 A 
ATOM      6  C   UNL     1      -0.371  19.307  75.103  1.00  0.00     0.134 A 
ATOM      7  C   UNL     1      -1.664  18.856  74.810  1.00  0.00     0.093 A 
ATOM      8  C   UNL     1      -1.878  17.602  74.234  1.00  0.00     0.123 A 
ATOM      9  C   UNL     1      -0.791  16.784  73.937  1.00  0.00     0.094 A 
ATOM     10  C   UNL     1       0.513  17.220  74.184  1.00  0.00     0.146 A 
ATOM     11  O   UNL     1       1.521  16.413  73.876  1.00  0.00    -0.452 OA
ENDROOT
BRANCH   1  12
ATOM     12  C   UNL     1       3.827  15.734  73.688  1.00  0.00     0.025 A 
ATOM     13  C   UNL     1       4.558  15.890  72.500  1.00  0.00     0.016 A 
ATOM     14  C   UNL     1       5.519  14.945  72.132  1.00  0.00     0.051 A 
ATOM     15  C   UNL     1       5.754  13.825  72.935  1.00  0.00     0.157 A 
ATOM     16  C   UNL     1       4.050  14.597  74.484  1.00  0.00     0.062 A 
ATOM     17  C   UNL     1       5.013  13.646  74.115  1.00  0.00     0.158 A 
BRANCH  15  18
ATOM     18  O   UNL     1       6.721  12.900  72.542  1.00  0.00    -0.504 OA
ATOM     19  H   UNL     1       7.408  13.111  71.828  1.00  0.00     0.293 HD
ENDBRANCH  15  18
BRANCH  17  20
ATOM     20  O   UNL     1       5.232  12.524  74.913  1.00  0.00    -0.504 OA
ATOM     21  H   UNL     1       5.310  11.596  74.514  1.00  0.00     0.293 HD
ENDBRANCH  17  20
ENDBRANCH   1  12
BRANCH   2  22
ATOM     22  O   UNL     1       4.473  18.398  74.631  1.00  0.00    -0.502 OA
ATOM     23  H   UNL     1       4.962  18.445  75.517  1.00  0.00     0.293 HD
ENDBRANCH   2  22
BRANCH   6  24
ATOM     24  O   UNL     1      -0.273  20.533  75.766  1.00  0.00    -0.507 OA
ATOM     25  H   UNL     1      -0.132  20.640  76.759  1.00  0.00     0.293 HD
ENDBRANCH   6  24
BRANCH   8  26
ATOM     26  O   UNL     1      -3.169  17.155  73.960  1.00  0.00    -0.508 OA
ATOM     27  H   UNL     1      -3.650  16.513  74.580  1.00  0.00     0.293 HD
ENDBRANCH   8  26
TORSDOF 6
ENDMDL
MODEL 6
REMARK VINA RESULT:    -4.561     12.530     15.963
REMARK INTER + INTRA:          -5.751
REMARK INTER:                  -5.446
REMARK INTRA:                  -0.305
REMARK UNBOUND:                -0.257
REMARK SMILES O=c1c(O)c(-c2ccc(O)c(O)c2)oc2cc(O)cc(O)c12
REMARK SMILES IDX 5 1 3 2 2 3 1 4 22 5 20 6 19 7 17 8 16 9 15 10 14 11 6 12
REMARK SMILES IDX 7 13 8 14 9 15 13 16 11 17 10 18 12 20 4 22 21 24 18 26
REMARK H PARENT 10 19 12 21 4 23 21 25 18 27
REMARK Flexibility Score: inf
ROOT
ATOM      1  C   UNL     1       4.391  14.055  73.518  1.00  0.00     0.180 A 
ATOM      2  C   UNL     1       4.642  15.410  73.244  1.00  0.00     0.208 A 
ATOM      3  C   UNL     1       3.588  16.332  73.352  1.00  0.00     0.238 A 
ATOM      4  O   UNL     1       3.806  17.535  73.053  1.00  0.00    -0.285 OA
ATOM      5  C   UNL     1       2.303  15.891  73.748  1.00  0.00     0.111 A 
ATOM      6  C   UNL     1       1.173  16.745  73.929  1.00  0.00     0.134 A 
ATOM      7  C   UNL     1      -0.081  16.182  74.195  1.00  0.00     0.093 A 
ATOM      8  C   UNL     1      -0.234  14.802  74.352  1.00  0.00     0.123 A 
ATOM      9  C   UNL     1       0.874  13.966  74.236  1.00  0.00     0.094 A 
ATOM     10  C   UNL     1       2.132  14.494  73.935  1.00  0.00     0.146 A 
ATOM     11  O   UNL     1       3.159  13.661  73.823  1.00  0.00    -0.452 OA
ENDROOT
BRANCH   1  12
ATOM     12  C   UNL     1       5.455  13.026  73.450  1.00  0.00     0.025 A 
ATOM     13  C   UNL     1       6.338  12.873  74.530  1.00  0.00     0.016 A 
ATOM     14  C   UNL     1       7.361  11.923  74.478  1.00  0.00     0.051 A 
ATOM     15  C   UNL     1       7.528  11.125  73.342  1.00  0.00     0.157 A 
ATOM     16  C   UNL     1       5.637  12.237  72.301  1.00  0.00     0.062 A 
ATOM     17  C   UNL     1       6.665  11.284  72.245  1.00  0.00     0.158 A 
BRANCH  15  18
ATOM     18  O   UNL     1       8.557  10.184  73.321  1.00  0.00    -0.504 OA
ATOM     19  H   UNL     1       8.529   9.370  72.718  1.00  0.00     0.293 HD
ENDBRANCH  15  18
BRANCH  17  20
ATOM     20  O   UNL     1       6.835  10.502  71.105  1.00  0.00    -0.504 OA
ATOM     21  H   UNL     1       6.053  10.036  70.660  1.00  0.00     0.293 HD
ENDBRANCH  17  20
ENDBRANCH   1  12
BRANCH   2  22
ATOM     22  O   UNL     1       5.913  15.821  72.833  1.00  0.00    -0.502 OA
ATOM     23  H   UNL     1       6.057  16.421  72.031  1.00  0.00     0.293 HD
ENDBRANCH   2  22
BRANCH   6  24
ATOM     24  O   UNL     1       1.234  18.140  73.885  1.00  0.00    -0.507 OA
ATOM     25  H   UNL     1       0.696  18.757  74.474  1.00  0.00     0.293 HD
ENDBRANCH   6  24
BRANCH   8  26
ATOM     26  O   UNL     1      -1.483  14.252  74.632  1.00  0.00    -0.508 OA
ATOM     27  H   UNL     1      -2.254  14.327  73.978  1.00  0.00     0.293 HD
ENDBRANCH   8  26
TORSDOF 6
ENDMDL
MODEL 7
REMARK VINA RESULT:    -4.553     10.049     11.810
REMARK INTER + INTRA:          -5.742
REMARK INTER:                  -5.427
REMARK INTRA:                  -0.315
REMARK UNBOUND:                -0.257
REMARK SMILES O=c1c(O)c(-c2ccc(O)c(O)c2)oc2cc(O)cc(O)c12
REMARK SMILES IDX 5 1 3 2 2 3 1 4 22 5 20 6 19 7 17 8 16 9 15 10 14 11 6 12
REMARK SMILES IDX 7 13 8 14 9 15 13 16 11 17 10 18 12 20 4 22 21 24 18 26
REMARK H PARENT 10 19 12 21 4 23 21 25 18 27
REMARK Flexibility Score: inf
ROOT
ATOM      1  C   UNL     1      -1.651  12.551  60.213  1.00  0.00     0.180 A 
ATOM      2  C   UNL     1      -1.414  11.554  59.252  1.00  0.00     0.208 A 
ATOM      3  C   UNL     1      -0.716  10.395  59.631  1.00  0.00     0.238 A 
ATOM      4  O   UNL     1      -0.460   9.530  58.754  1.00  0.00    -0.285 OA
ATOM      5  C   UNL     1      -0.280  10.241  60.969  1.00  0.00     0.111 A 
ATOM      6  C   UNL     1       0.399   9.091  61.472  1.00  0.00     0.134 A 
ATOM      7  C   UNL     1       0.900   9.104  62.780  1.00  0.00     0.093 A 
ATOM      8  C   UNL     1       0.689  10.198  63.623  1.00  0.00     0.123 A 
ATOM      9  C   UNL     1      -0.025  11.300  63.159  1.00  0.00     0.094 A 
ATOM     10  C   UNL     1      -0.505  11.332  61.848  1.00  0.00     0.146 A 
ATOM     11  O   UNL     1      -1.172  12.407  61.443  1.00  0.00    -0.452 OA
ENDROOT
BRANCH   1  12
ATOM     12  C   UNL     1      -2.400  13.789  59.896  1.00  0.00     0.025 A 
ATOM     13  C   UNL     1      -3.804  13.775  59.926  1.00  0.00     0.016 A 
ATOM     14  C   UNL     1      -4.529  14.926  59.611  1.00  0.00     0.051 A 
ATOM     15  C   UNL     1      -3.867  16.102  59.246  1.00  0.00     0.157 A 
ATOM     16  C   UNL     1      -1.736  14.966  59.510  1.00  0.00     0.062 A 
ATOM     17  C   UNL     1      -2.463  16.123  59.190  1.00  0.00     0.158 A 
BRANCH  15  18
ATOM     18  O   UNL     1      -4.619  17.236  58.939  1.00  0.00    -0.504 OA
ATOM     19  H   UNL     1      -5.614  17.287  59.120  1.00  0.00     0.293 HD
ENDBRANCH  15  18
BRANCH  17  20
ATOM     20  O   UNL     1      -1.798  17.288  58.814  1.00  0.00    -0.504 OA
ATOM     21  H   UNL     1      -2.276  18.179  58.761  1.00  0.00     0.293 HD
ENDBRANCH  17  20
ENDBRANCH   1  12
BRANCH   2  22
ATOM     22  O   UNL     1      -1.834  11.735  57.931  1.00  0.00    -0.502 OA
ATOM     23  H   UNL     1      -2.797  11.939  57.690  1.00  0.00     0.293 HD
ENDBRANCH   2  22
BRANCH   6  24
ATOM     24  O   UNL     1       0.583   7.913  60.745  1.00  0.00    -0.507 OA
ATOM     25  H   UNL     1       0.888   7.872  59.784  1.00  0.00     0.293 HD
ENDBRANCH   6  24
BRANCH   8  26
ATOM     26  O   UNL     1       1.177  10.194  64.928  1.00  0.00    -0.508 OA
ATOM     27  H   UNL     1       0.822   9.550  65.625  1.00  0.00     0.293 HD
ENDBRANCH   8  26
TORSDOF 6
ENDMDL
MODEL 8
REMARK VINA RESULT:    -4.530     10.790     14.170
REMARK INTER + INTRA:          -5.714
REMARK INTER:                  -5.396
REMARK INTRA:                  -0.318
REMARK UNBOUND:                -0.257
REMARK SMILES O=c1c(O)c(-c2ccc(O)c(O)c2)oc2cc(O)cc(O)c12
REMARK SMILES IDX 5 1 3 2 2 3 1 4 22 5 20 6 19 7 17 8 16 9 15 10 14 11 6 12
REMARK SMILES IDX 7 13 8 14 9 15 13 16 11 17 10 18 12 20 4 22 21 24 18 26
REMARK H PARENT 10 19 12 21 4 23 21 25 18 27
REMARK Flexibility Score: inf
ROOT
ATOM      1  C   UNL     1      -2.528  13.724  59.773  1.00  0.00     0.180 A 
ATOM      2  C   UNL     1      -3.920  13.841  59.923  1.00  0.00     0.208 A 
ATOM      3  C   UNL     1      -4.502  15.119  59.905  1.00  0.00     0.238 A 
ATOM      4  O   UNL     1      -5.742  15.221  60.093  1.00  0.00    -0.285 OA
ATOM      5  C   UNL     1      -3.687  16.261  59.720  1.00  0.00     0.111 A 
ATOM      6  C   UNL     1      -4.175  17.601  59.645  1.00  0.00     0.134 A 
ATOM      7  C   UNL     1      -3.265  18.664  59.593  1.00  0.00     0.093 A 
ATOM      8  C   UNL     1      -1.888  18.434  59.548  1.00  0.00     0.123 A 
ATOM      9  C   UNL     1      -1.405  17.127  59.560  1.00  0.00     0.094 A 
ATOM     10  C   UNL     1      -2.286  16.047  59.649  1.00  0.00     0.146 A 
ATOM     11  O   UNL     1      -1.783  14.818  59.669  1.00  0.00    -0.452 OA
ENDROOT
BRANCH   1  12
ATOM     12  C   UNL     1      -1.844  12.410  59.758  1.00  0.00     0.025 A 
ATOM     13  C   UNL     1      -1.767  11.685  58.558  1.00  0.00     0.016 A 
ATOM     14  C   UNL     1      -1.144  10.435  58.526  1.00  0.00     0.051 A 
ATOM     15  C   UNL     1      -0.605   9.883  59.692  1.00  0.00     0.157 A 
ATOM     16  C   UNL     1      -1.320  11.845  60.933  1.00  0.00     0.062 A 
ATOM     17  C   UNL     1      -0.696  10.588  60.904  1.00  0.00     0.158 A 
BRANCH  15  18
ATOM     18  O   UNL     1       0.012   8.634  59.628  1.00  0.00    -0.504 OA
ATOM     19  H   UNL     1       0.786   8.385  60.233  1.00  0.00     0.293 HD
ENDBRANCH  15  18
BRANCH  17  20
ATOM     20  O   UNL     1      -0.173  10.037  62.072  1.00  0.00    -0.504 OA
ATOM     21  H   UNL     1      -0.635   9.274  62.552  1.00  0.00     0.293 HD
ENDBRANCH  17  20
ENDBRANCH   1  12
BRANCH   2  22
ATOM     22  O   UNL     1      -4.704  12.701  60.125  1.00  0.00    -0.502 OA
ATOM     23  H   UNL     1      -4.659  12.153  60.976  1.00  0.00     0.293 HD
ENDBRANCH   2  22
BRANCH   6  24
ATOM     24  O   UNL     1      -5.530  17.936  59.591  1.00  0.00    -0.507 OA
ATOM     25  H   UNL     1      -6.207  17.711  60.305  1.00  0.00     0.293 HD
ENDBRANCH   6  24
BRANCH   8  26
ATOM     26  O   UNL     1      -0.991  19.497  59.480  1.00  0.00    -0.508 OA
ATOM     27  H   UNL     1      -0.486  19.712  58.627  1.00  0.00     0.293 HD
ENDBRANCH   8  26
TORSDOF 6
ENDMDL
MODEL 9
REMARK VINA RESULT:    -4.458     14.513     15.975
REMARK INTER + INTRA:          -5.627
REMARK INTER:                  -5.304
REMARK INTRA:                  -0.322
REMARK UNBOUND:                -0.257
REMARK SMILES O=c1c(O)c(-c2ccc(O)c(O)c2)oc2cc(O)cc(O)c12
REMARK SMILES IDX 5 1 3 2 2 3 1 4 22 5 20 6 19 7 17 8 16 9 15 10 14 11 6 12
REMARK SMILES IDX 7 13 8 14 9 15 13 16 11 17 10 18 12 20 4 22 21 24 18 26
REMARK H PARENT 10 19 12 21 4 23 21 25 18 27
REMARK Flexibility Score: inf
ROOT
ATOM      1  C   UNL     1       2.875  16.280  73.894  1.00  0.00     0.180 A 
ATOM      2  C   UNL     1       4.142  15.789  73.537  1.00  0.00     0.208 A 
ATOM      3  C   UNL     1       4.354  14.400  73.524  1.00  0.00     0.238 A 
ATOM      4  O   UNL     1       5.505  13.968  73.256  1.00  0.00    -0.285 OA
ATOM      5  C   UNL     1       3.293  13.522  73.851  1.00  0.00     0.111 A 
ATOM      6  C   UNL     1       3.385  12.098  73.831  1.00  0.00     0.134 A 
ATOM      7  C   UNL     1       2.311  11.331  74.301  1.00  0.00     0.093 A 
ATOM      8  C   UNL     1       1.126  11.934  74.728  1.00  0.00     0.123 A 
ATOM      9  C   UNL     1       1.006  13.322  74.695  1.00  0.00     0.094 A 
ATOM     10  C   UNL     1       2.072  14.115  74.266  1.00  0.00     0.146 A 
ATOM     11  O   UNL     1       1.919  15.434  74.260  1.00  0.00    -0.452 OA
ENDROOT
BRANCH   1  12
ATOM     12  C   UNL     1       2.567  17.730  73.908  1.00  0.00     0.025 A 
ATOM     13  C   UNL     1       2.574  18.426  75.126  1.00  0.00     0.016 A 
ATOM     14  C   UNL     1       2.267  19.789  75.163  1.00  0.00     0.051 A 
ATOM     15  C   UNL     1       1.933  20.471  73.990  1.00  0.00     0.157 A 
ATOM     16  C   UNL     1       2.211  18.412  72.731  1.00  0.00     0.062 A 
ATOM     17  C   UNL     1       1.899  19.780  72.767  1.00  0.00     0.158 A 
BRANCH  15  18
ATOM     18  O   UNL     1       1.633  21.831  74.058  1.00  0.00    -0.504 OA
ATOM     19  H   UNL     1       1.083  22.223  74.814  1.00  0.00     0.293 HD
ENDBRANCH  15  18
BRANCH  17  20
ATOM     20  O   UNL     1       1.553  20.451  71.596  1.00  0.00    -0.504 OA
ATOM     21  H   UNL     1       1.218  21.407  71.611  1.00  0.00     0.293 HD
ENDBRANCH  17  20
ENDBRANCH   1  12
BRANCH   2  22
ATOM     22  O   UNL     1       5.182  16.674  73.238  1.00  0.00    -0.502 OA
ATOM     23  H   UNL     1       5.160  17.649  73.508  1.00  0.00     0.293 HD
ENDBRANCH   2  22
BRANCH   6  24
ATOM     24  O   UNL     1       4.487  11.394  73.339  1.00  0.00    -0.507 OA
ATOM     25  H   UNL     1       5.051  11.685  72.555  1.00  0.00     0.293 HD
ENDBRANCH   6  24
BRANCH   8  26
ATOM     26  O   UNL     1       0.057  11.163  75.179  1.00  0.00    -0.508 OA
ATOM     27  H   UNL     1      -0.612  11.524  75.849  1.00  0.00     0.293 HD
ENDBRANCH   8  26
TORSDOF 6
ENDMDL
