MODEL 1
REMARK VINA RESULT:    -3.540      0.000      0.000
REMARK INTER + INTRA:          -9.781
REMARK INTER:                  -7.679
REMARK INTRA:                  -2.102
REMARK UNBOUND:                -2.102
REMARK SMILES CCCCCCCCCCCCCCCCCCCCCC(=O)[O-]
REMARK SMILES IDX 12 1 11 2 10 3 9 4 8 5 7 6 6 7 5 8 4 9 3 10 2 11 1 12 13 13
REMARK SMILES IDX 14 14 15 15 16 16 17 17 18 18 19 19 20 20 21 21 22 22 23 23
REMARK SMILES IDX 24 24
REMARK H PARENT
REMARK Flexibility Score: inf
ROOT
ATOM      1  C   UNL     1     -12.674  10.718   4.365  1.00  0.00     0.000 C 
ENDROOT
BRANCH   1   2
ATOM      2  C   UNL     1     -12.867   9.261   3.921  1.00  0.00     0.000 C 
BRANCH   2   3
ATOM      3  C   UNL     1     -14.307   8.953   3.473  1.00  0.00     0.000 C 
BRANCH   3   4
ATOM      4  C   UNL     1     -15.324  10.083   3.720  1.00  0.00    -0.000 C 
BRANCH   4   5
ATOM      5  C   UNL     1     -16.804   9.663   3.631  1.00  0.00    -0.000 C 
BRANCH   5   6
ATOM      6  C   UNL     1     -17.587  10.368   2.504  1.00  0.00    -0.000 C 
BRANCH   6   7
ATOM      7  C   UNL     1     -17.015  10.068   1.107  1.00  0.00    -0.000 C 
BRANCH   7   8
ATOM      8  C   UNL     1     -17.753  10.844  -0.006  1.00  0.00    -0.000 C 
BRANCH   8   9
ATOM      9  C   UNL     1     -18.568  12.042   0.511  1.00  0.00    -0.000 C 
BRANCH   9  10
ATOM     10  C   UNL     1     -18.528  13.246  -0.443  1.00  0.00    -0.000 C 
BRANCH  10  11
ATOM     11  C   UNL     1     -18.355  14.579   0.300  1.00  0.00    -0.003 C 
ATOM     12  C   UNL     1     -18.594  15.793  -0.598  1.00  0.00     0.004 C 
ENDBRANCH  10  11
ENDBRANCH   9  10
ENDBRANCH   8   9
ENDBRANCH   7   8
ENDBRANCH   6   7
ENDBRANCH   5   6
ENDBRANCH   4   5
ENDBRANCH   3   4
ENDBRANCH   2   3
ENDBRANCH   1   2
BRANCH   1  13
ATOM     13  C   UNL     1     -12.122  10.790   5.794  1.00  0.00     0.000 C 
BRANCH  13  14
ATOM     14  C   UNL     1     -12.385   9.479   6.550  1.00  0.00     0.000 C 
BRANCH  14  15
ATOM     15  C   UNL     1     -13.358   9.651   7.730  1.00  0.00     0.000 C 
BRANCH  15  16
ATOM     16  C   UNL     1     -14.793   9.215   7.385  1.00  0.00     0.000 C 
BRANCH  16  17
ATOM     17  C   UNL     1     -15.767  10.403   7.266  1.00  0.00     0.000 C 
BRANCH  17  18
ATOM     18  C   UNL     1     -16.903  10.423   8.307  1.00  0.00     0.000 C 
BRANCH  18  19
ATOM     19  C   UNL     1     -16.569   9.619   9.575  1.00  0.00     0.000 C 
BRANCH  19  20
ATOM     20  C   UNL     1     -16.047  10.510  10.721  1.00  0.00     0.006 C 
BRANCH  20  21
ATOM     21  C   UNL     1     -14.683  10.068  11.274  1.00  0.00     0.053 C 
BRANCH  21  22
ATOM     22  C   UNL     1     -14.301  10.811  12.515  1.00  0.00     0.041 C 
ATOM     23  O   UNL     1     -13.088  11.038  12.768  1.00  0.00    -0.550 OA
ATOM     24  O   UNL     1     -15.281  11.246  13.398  1.00  0.00    -0.550 OA
ENDBRANCH  21  22
ENDBRANCH  20  21
ENDBRANCH  19  20
ENDBRANCH  18  19
ENDBRANCH  17  18
ENDBRANCH  16  17
ENDBRANCH  15  16
ENDBRANCH  14  15
ENDBRANCH  13  14
ENDBRANCH   1  13
TORSDOF 20
ENDMDL
MODEL 2
REMARK VINA RESULT:    -3.300      3.573      7.200
REMARK INTER + INTRA:          -9.261
REMARK INTER:                  -7.047
REMARK INTRA:                  -2.214
REMARK UNBOUND:                -2.102
REMARK SMILES CCCCCCCCCCCCCCCCCCCCCC(=O)[O-]
REMARK SMILES IDX 12 1 11 2 10 3 9 4 8 5 7 6 6 7 5 8 4 9 3 10 2 11 1 12 13 13
REMARK SMILES IDX 14 14 15 15 16 16 17 17 18 18 19 19 20 20 21 21 22 22 23 23
REMARK SMILES IDX 24 24
REMARK H PARENT
REMARK Flexibility Score: inf
ROOT
ATOM      1  C   UNL     1     -18.450  14.532  -0.584  1.00  0.00     0.000 C 
ENDROOT
BRANCH   1   2
ATOM      2  C   UNL     1     -19.088  13.873  -1.815  1.00  0.00     0.000 C 
BRANCH   2   3
ATOM      3  C   UNL     1     -18.303  14.137  -3.113  1.00  0.00     0.000 C 
BRANCH   3   4
ATOM      4  C   UNL     1     -17.333  13.015  -3.530  1.00  0.00    -0.000 C 
BRANCH   4   5
ATOM      5  C   UNL     1     -17.903  11.587  -3.434  1.00  0.00    -0.000 C 
BRANCH   5   6
ATOM      6  C   UNL     1     -16.851  10.518  -3.069  1.00  0.00    -0.000 C 
BRANCH   6   7
ATOM      7  C   UNL     1     -15.944  10.952  -1.905  1.00  0.00    -0.000 C 
BRANCH   7   8
ATOM      8  C   UNL     1     -14.975   9.830  -1.469  1.00  0.00    -0.000 C 
BRANCH   8   9
ATOM      9  C   UNL     1     -13.875   9.526  -2.501  1.00  0.00    -0.000 C 
BRANCH   9  10
ATOM     10  C   UNL     1     -13.071  10.772  -2.899  1.00  0.00    -0.000 C 
BRANCH  10  11
ATOM     11  C   UNL     1     -12.683  10.772  -4.385  1.00  0.00    -0.003 C 
ATOM     12  C   UNL     1     -13.854  10.421  -5.303  1.00  0.00     0.004 C 
ENDBRANCH  10  11
ENDBRANCH   9  10
ENDBRANCH   8   9
ENDBRANCH   7   8
ENDBRANCH   6   7
ENDBRANCH   5   6
ENDBRANCH   4   5
ENDBRANCH   3   4
ENDBRANCH   2   3
ENDBRANCH   1   2
BRANCH   1  13
ATOM     13  C   UNL     1     -18.732  13.718   0.685  1.00  0.00     0.000 C 
BRANCH  13  14
ATOM     14  C   UNL     1     -18.646  12.212   0.401  1.00  0.00     0.000 C 
BRANCH  14  15
ATOM     15  C   UNL     1     -18.316  11.382   1.653  1.00  0.00     0.000 C 
BRANCH  15  16
ATOM     16  C   UNL     1     -17.238  10.315   1.392  1.00  0.00     0.000 C 
BRANCH  16  17
ATOM     17  C   UNL     1     -17.085   9.320   2.558  1.00  0.00     0.000 C 
BRANCH  17  18
ATOM     18  C   UNL     1     -16.987   9.962   3.956  1.00  0.00     0.000 C 
BRANCH  18  19
ATOM     19  C   UNL     1     -15.635   9.703   4.641  1.00  0.00     0.000 C 
BRANCH  19  20
ATOM     20  C   UNL     1     -14.689  10.919   4.562  1.00  0.00     0.006 C 
BRANCH  20  21
ATOM     21  C   UNL     1     -13.212  10.539   4.365  1.00  0.00     0.053 C 
BRANCH  21  22
ATOM     22  C   UNL     1     -12.383  10.815   5.580  1.00  0.00     0.041 C 
ATOM     23  O   UNL     1     -12.641  10.236   6.668  1.00  0.00    -0.550 OA
ATOM     24  O   UNL     1     -11.330  11.720   5.514  1.00  0.00    -0.550 OA
ENDBRANCH  21  22
ENDBRANCH  20  21
ENDBRANCH  19  20
ENDBRANCH  18  19
ENDBRANCH  17  18
ENDBRANCH  16  17
ENDBRANCH  15  16
ENDBRANCH  14  15
ENDBRANCH  13  14
ENDBRANCH   1  13
TORSDOF 20
ENDMDL
MODEL 3
REMARK VINA RESULT:    -3.258      6.030     10.356
REMARK INTER + INTRA:          -9.170
REMARK INTER:                  -6.986
REMARK INTRA:                  -2.184
REMARK UNBOUND:                -2.102
REMARK SMILES CCCCCCCCCCCCCCCCCCCCCC(=O)[O-]
REMARK SMILES IDX 12 1 11 2 10 3 9 4 8 5 7 6 6 7 5 8 4 9 3 10 2 11 1 12 13 13
REMARK SMILES IDX 14 14 15 15 16 16 17 17 18 18 19 19 20 20 21 21 22 22 23 23
REMARK SMILES IDX 24 24
REMARK H PARENT
REMARK Flexibility Score: inf
ROOT
ATOM      1  C   UNL     1     -12.375   9.254   0.041  1.00  0.00     0.000 C 
ENDROOT
BRANCH   1   2
ATOM      2  C   UNL     1     -11.926   8.918   1.470  1.00  0.00     0.000 C 
BRANCH   2   3
ATOM      3  C   UNL     1     -13.046   9.096   2.511  1.00  0.00     0.000 C 
BRANCH   3   4
ATOM      4  C   UNL     1     -12.592   9.005   3.981  1.00  0.00    -0.000 C 
BRANCH   4   5
ATOM      5  C   UNL     1     -12.079  10.324   4.590  1.00  0.00    -0.000 C 
BRANCH   5   6
ATOM      6  C   UNL     1     -12.268  10.421   6.118  1.00  0.00    -0.000 C 
BRANCH   6   7
ATOM      7  C   UNL     1     -13.114   9.268   6.686  1.00  0.00    -0.000 C 
BRANCH   7   8
ATOM      8  C   UNL     1     -14.284   9.776   7.557  1.00  0.00    -0.000 C 
BRANCH   8   9
ATOM      9  C   UNL     1     -15.328  10.593   6.776  1.00  0.00    -0.000 C 
BRANCH   9  10
ATOM     10  C   UNL     1     -15.872   9.848   5.548  1.00  0.00    -0.000 C 
BRANCH  10  11
ATOM     11  C   UNL     1     -15.898  10.728   4.290  1.00  0.00    -0.003 C 
ATOM     12  C   UNL     1     -16.363   9.971   3.046  1.00  0.00     0.004 C 
ENDBRANCH  10  11
ENDBRANCH   9  10
ENDBRANCH   8   9
ENDBRANCH   7   8
ENDBRANCH   6   7
ENDBRANCH   5   6
ENDBRANCH   4   5
ENDBRANCH   3   4
ENDBRANCH   2   3
ENDBRANCH   1   2
BRANCH   1  13
ATOM     13  C   UNL     1     -13.846   8.877  -0.177  1.00  0.00     0.000 C 
BRANCH  13  14
ATOM     14  C   UNL     1     -14.196   8.878  -1.673  1.00  0.00     0.000 C 
BRANCH  14  15
ATOM     15  C   UNL     1     -15.473   9.676  -1.989  1.00  0.00     0.000 C 
BRANCH  15  16
ATOM     16  C   UNL     1     -16.304   9.990  -0.733  1.00  0.00     0.000 C 
BRANCH  16  17
ATOM     17  C   UNL     1     -17.244  11.196  -0.923  1.00  0.00     0.000 C 
BRANCH  17  18
ATOM     18  C   UNL     1     -17.773  11.393  -2.357  1.00  0.00     0.000 C 
BRANCH  18  19
ATOM     19  C   UNL     1     -18.158  12.851  -2.660  1.00  0.00     0.000 C 
BRANCH  19  20
ATOM     20  C   UNL     1     -17.287  13.476  -3.767  1.00  0.00     0.006 C 
BRANCH  20  21
ATOM     21  C   UNL     1     -15.951  12.747  -3.987  1.00  0.00     0.053 C 
BRANCH  21  22
ATOM     22  C   UNL     1     -15.367  13.017  -5.338  1.00  0.00     0.041 C 
ATOM     23  O   UNL     1     -15.934  13.822  -6.124  1.00  0.00    -0.550 OA
ATOM     24  O   UNL     1     -14.201  12.374  -5.735  1.00  0.00    -0.550 OA
ENDBRANCH  21  22
ENDBRANCH  20  21
ENDBRANCH  19  20
ENDBRANCH  18  19
ENDBRANCH  17  18
ENDBRANCH  16  17
ENDBRANCH  15  16
ENDBRANCH  14  15
ENDBRANCH  13  14
ENDBRANCH   1  13
TORSDOF 20
ENDMDL
MODEL 4
REMARK VINA RESULT:    -3.257      4.169      6.615
REMARK INTER + INTRA:          -9.167
REMARK INTER:                  -6.812
REMARK INTRA:                  -2.355
REMARK UNBOUND:                -2.102
REMARK SMILES CCCCCCCCCCCCCCCCCCCCCC(=O)[O-]
REMARK SMILES IDX 12 1 11 2 10 3 9 4 8 5 7 6 6 7 5 8 4 9 3 10 2 11 1 12 13 13
REMARK SMILES IDX 14 14 15 15 16 16 17 17 18 18 19 19 20 20 21 21 22 22 23 23
REMARK SMILES IDX 24 24
REMARK H PARENT
REMARK Flexibility Score: inf
ROOT
ATOM      1  C   UNL     1     -16.549  11.352  -1.650  1.00  0.00     0.000 C 
ENDROOT
BRANCH   1   2
ATOM      2  C   UNL     1     -15.859  10.168  -2.342  1.00  0.00     0.000 C 
BRANCH   2   3
ATOM      3  C   UNL     1     -14.479   9.840  -1.742  1.00  0.00     0.000 C 
BRANCH   3   4
ATOM      4  C   UNL     1     -13.278  10.432  -2.503  1.00  0.00    -0.000 C 
BRANCH   4   5
ATOM      5  C   UNL     1     -13.185  10.038  -3.989  1.00  0.00    -0.000 C 
BRANCH   5   6
ATOM      6  C   UNL     1     -13.031  11.239  -4.946  1.00  0.00    -0.000 C 
BRANCH   6   7
ATOM      7  C   UNL     1     -14.301  11.505  -5.773  1.00  0.00    -0.000 C 
BRANCH   7   8
ATOM      8  C   UNL     1     -14.998  12.822  -5.367  1.00  0.00    -0.000 C 
BRANCH   8   9
ATOM      9  C   UNL     1     -16.508  12.671  -5.110  1.00  0.00    -0.000 C 
BRANCH   9  10
ATOM     10  C   UNL     1     -17.130  13.917  -4.462  1.00  0.00    -0.000 C 
BRANCH  10  11
ATOM     11  C   UNL     1     -18.483  13.621  -3.798  1.00  0.00    -0.003 C 
ATOM     12  C   UNL     1     -18.696  14.414  -2.508  1.00  0.00     0.004 C 
ENDBRANCH  10  11
ENDBRANCH   9  10
ENDBRANCH   8   9
ENDBRANCH   7   8
ENDBRANCH   6   7
ENDBRANCH   5   6
ENDBRANCH   4   5
ENDBRANCH   3   4
ENDBRANCH   2   3
ENDBRANCH   1   2
BRANCH   1  13
ATOM     13  C   UNL     1     -17.854  10.911  -0.975  1.00  0.00     0.000 C 
BRANCH  13  14
ATOM     14  C   UNL     1     -17.849  11.272   0.518  1.00  0.00     0.000 C 
BRANCH  14  15
ATOM     15  C   UNL     1     -17.786  10.038   1.434  1.00  0.00     0.000 C 
BRANCH  15  16
ATOM     16  C   UNL     1     -16.397   9.375   1.443  1.00  0.00     0.000 C 
BRANCH  16  17
ATOM     17  C   UNL     1     -15.770   9.318   2.849  1.00  0.00     0.000 C 
BRANCH  17  18
ATOM     18  C   UNL     1     -16.130  10.498   3.773  1.00  0.00     0.000 C 
BRANCH  18  19
ATOM     19  C   UNL     1     -16.388  10.064   5.226  1.00  0.00     0.000 C 
BRANCH  19  20
ATOM     20  C   UNL     1     -15.200  10.378   6.158  1.00  0.00     0.006 C 
BRANCH  20  21
ATOM     21  C   UNL     1     -14.167  11.334   5.540  1.00  0.00     0.053 C 
BRANCH  21  22
ATOM     22  C   UNL     1     -12.830  10.688   5.351  1.00  0.00     0.041 C 
ATOM     23  O   UNL     1     -12.131  10.375   6.351  1.00  0.00    -0.550 OA
ATOM     24  O   UNL     1     -12.350  10.440   4.071  1.00  0.00    -0.550 OA
ENDBRANCH  21  22
ENDBRANCH  20  21
ENDBRANCH  19  20
ENDBRANCH  18  19
ENDBRANCH  17  18
ENDBRANCH  16  17
ENDBRANCH  15  16
ENDBRANCH  14  15
ENDBRANCH  13  14
ENDBRANCH   1  13
TORSDOF 20
ENDMDL
MODEL 5
REMARK VINA RESULT:    -3.191      2.191      3.353
REMARK INTER + INTRA:          -9.024
REMARK INTER:                  -7.105
REMARK INTRA:                  -1.918
REMARK UNBOUND:                -2.102
REMARK SMILES CCCCCCCCCCCCCCCCCCCCCC(=O)[O-]
REMARK SMILES IDX 12 1 11 2 10 3 9 4 8 5 7 6 6 7 5 8 4 9 3 10 2 11 1 12 13 13
REMARK SMILES IDX 14 14 15 15 16 16 17 17 18 18 19 19 20 20 21 21 22 22 23 23
REMARK SMILES IDX 24 24
REMARK H PARENT
REMARK Flexibility Score: inf
ROOT
ATOM      1  C   UNL     1     -15.497   9.744   3.928  1.00  0.00     0.000 C 
ENDROOT
BRANCH   1   2
ATOM      2  C   UNL     1     -16.570   9.863   2.837  1.00  0.00     0.000 C 
BRANCH   2   3
ATOM      3  C   UNL     1     -16.153   9.209   1.507  1.00  0.00     0.000 C 
BRANCH   3   4
ATOM      4  C   UNL     1     -17.155   9.383   0.350  1.00  0.00    -0.000 C 
BRANCH   4   5
ATOM      5  C   UNL     1     -17.801  10.778   0.248  1.00  0.00    -0.000 C 
BRANCH   5   6
ATOM      6  C   UNL     1     -17.221  11.653  -0.883  1.00  0.00    -0.000 C 
BRANCH   6   7
ATOM      7  C   UNL     1     -16.570  10.823  -2.002  1.00  0.00    -0.000 C 
BRANCH   7   8
ATOM      8  C   UNL     1     -15.170  11.351  -2.383  1.00  0.00    -0.000 C 
BRANCH   8   9
ATOM      9  C   UNL     1     -15.195  12.468  -3.441  1.00  0.00    -0.000 C 
BRANCH   9  10
ATOM     10  C   UNL     1     -16.401  12.364  -4.388  1.00  0.00    -0.000 C 
BRANCH  10  11
ATOM     11  C   UNL     1     -16.986  13.737  -4.748  1.00  0.00    -0.003 C 
ATOM     12  C   UNL     1     -18.104  14.172  -3.799  1.00  0.00     0.004 C 
ENDBRANCH  10  11
ENDBRANCH   9  10
ENDBRANCH   8   9
ENDBRANCH   7   8
ENDBRANCH   6   7
ENDBRANCH   5   6
ENDBRANCH   4   5
ENDBRANCH   3   4
ENDBRANCH   2   3
ENDBRANCH   1   2
BRANCH   1  13
ATOM     13  C   UNL     1     -15.786  10.700   5.092  1.00  0.00     0.000 C 
BRANCH  13  14
ATOM     14  C   UNL     1     -14.544  11.534   5.439  1.00  0.00     0.000 C 
BRANCH  14  15
ATOM     15  C   UNL     1     -13.236  10.903   4.931  1.00  0.00     0.000 C 
BRANCH  15  16
ATOM     16  C   UNL     1     -12.316  10.441   6.075  1.00  0.00     0.000 C 
BRANCH  16  17
ATOM     17  C   UNL     1     -12.777   9.119   6.718  1.00  0.00     0.000 C 
BRANCH  17  18
ATOM     18  C   UNL     1     -13.352   9.251   8.142  1.00  0.00     0.000 C 
BRANCH  18  19
ATOM     19  C   UNL     1     -14.841   8.876   8.224  1.00  0.00     0.000 C 
BRANCH  19  20
ATOM     20  C   UNL     1     -15.645   9.837   9.123  1.00  0.00     0.006 C 
BRANCH  20  21
ATOM     21  C   UNL     1     -15.700   9.403  10.596  1.00  0.00     0.053 C 
BRANCH  21  22
ATOM     22  C   UNL     1     -15.069  10.404  11.512  1.00  0.00     0.041 C 
ATOM     23  O   UNL     1     -13.818  10.436  11.649  1.00  0.00    -0.550 OA
ATOM     24  O   UNL     1     -15.863  11.297  12.222  1.00  0.00    -0.550 OA
ENDBRANCH  21  22
ENDBRANCH  20  21
ENDBRANCH  19  20
ENDBRANCH  18  19
ENDBRANCH  17  18
ENDBRANCH  16  17
ENDBRANCH  15  16
ENDBRANCH  14  15
ENDBRANCH  13  14
ENDBRANCH   1  13
TORSDOF 20
ENDMDL
MODEL 6
REMARK VINA RESULT:    -3.186      4.638      7.227
REMARK INTER + INTRA:          -9.014
REMARK INTER:                  -6.242
REMARK INTRA:                  -2.773
REMARK UNBOUND:                -2.102
REMARK SMILES CCCCCCCCCCCCCCCCCCCCCC(=O)[O-]
REMARK SMILES IDX 12 1 11 2 10 3 9 4 8 5 7 6 6 7 5 8 4 9 3 10 2 11 1 12 13 13
REMARK SMILES IDX 14 14 15 15 16 16 17 17 18 18 19 19 20 20 21 21 22 22 23 23
REMARK SMILES IDX 24 24
REMARK H PARENT
REMARK Flexibility Score: inf
ROOT
ATOM      1  C   UNL     1     -14.109  10.652  -2.449  1.00  0.00     0.000 C 
ENDROOT
BRANCH   1   2
ATOM      2  C   UNL     1     -12.880  10.616  -3.367  1.00  0.00     0.000 C 
BRANCH   2   3
ATOM      3  C   UNL     1     -13.089   9.745  -4.620  1.00  0.00     0.000 C 
BRANCH   3   4
ATOM      4  C   UNL     1     -14.490   9.119  -4.754  1.00  0.00    -0.000 C 
BRANCH   4   5
ATOM      5  C   UNL     1     -15.236   9.457  -6.059  1.00  0.00    -0.000 C 
BRANCH   5   6
ATOM      6  C   UNL     1     -16.759   9.629  -5.881  1.00  0.00    -0.000 C 
BRANCH   6   7
ATOM      7  C   UNL     1     -17.146  10.051  -4.453  1.00  0.00    -0.000 C 
BRANCH   7   8
ATOM      8  C   UNL     1     -18.357  11.009  -4.435  1.00  0.00    -0.000 C 
BRANCH   8   9
ATOM      9  C   UNL     1     -18.018  12.427  -3.944  1.00  0.00    -0.000 C 
BRANCH   9  10
ATOM     10  C   UNL     1     -16.509  12.715  -3.949  1.00  0.00    -0.000 C 
BRANCH  10  11
ATOM     11  C   UNL     1     -16.050  13.426  -5.230  1.00  0.00    -0.003 C 
ATOM     12  C   UNL     1     -14.632  13.036  -5.650  1.00  0.00     0.004 C 
ENDBRANCH  10  11
ENDBRANCH   9  10
ENDBRANCH   8   9
ENDBRANCH   7   8
ENDBRANCH   6   7
ENDBRANCH   5   6
ENDBRANCH   4   5
ENDBRANCH   3   4
ENDBRANCH   2   3
ENDBRANCH   1   2
BRANCH   1  13
ATOM     13  C   UNL     1     -14.036   9.548  -1.386  1.00  0.00     0.000 C 
BRANCH  13  14
ATOM     14  C   UNL     1     -15.433   9.220  -0.840  1.00  0.00     0.000 C 
BRANCH  14  15
ATOM     15  C   UNL     1     -16.409  10.405  -0.934  1.00  0.00     0.000 C 
BRANCH  15  16
ATOM     16  C   UNL     1     -17.377  10.474   0.260  1.00  0.00     0.000 C 
BRANCH  16  17
ATOM     17  C   UNL     1     -16.849   9.732   1.502  1.00  0.00     0.000 C 
BRANCH  17  18
ATOM     18  C   UNL     1     -17.132  10.428   2.848  1.00  0.00     0.000 C 
BRANCH  18  19
ATOM     19  C   UNL     1     -16.374   9.790   4.024  1.00  0.00     0.000 C 
BRANCH  19  20
ATOM     20  C   UNL     1     -14.859   9.678   3.761  1.00  0.00     0.006 C 
BRANCH  20  21
ATOM     21  C   UNL     1     -14.023  10.725   4.514  1.00  0.00     0.053 C 
BRANCH  21  22
ATOM     22  C   UNL     1     -12.631  10.253   4.796  1.00  0.00     0.041 C 
ATOM     23  O   UNL     1     -12.005   9.579   3.935  1.00  0.00    -0.550 OA
ATOM     24  O   UNL     1     -12.027  10.548   6.012  1.00  0.00    -0.550 OA
ENDBRANCH  21  22
ENDBRANCH  20  21
ENDBRANCH  19  20
ENDBRANCH  18  19
ENDBRANCH  17  18
ENDBRANCH  16  17
ENDBRANCH  15  16
ENDBRANCH  14  15
ENDBRANCH  13  14
ENDBRANCH   1  13
TORSDOF 20
ENDMDL
MODEL 7
REMARK VINA RESULT:    -3.185      1.938      2.646
REMARK INTER + INTRA:          -9.011
REMARK INTER:                  -7.567
REMARK INTRA:                  -1.445
REMARK UNBOUND:                -2.102
REMARK SMILES CCCCCCCCCCCCCCCCCCCCCC(=O)[O-]
REMARK SMILES IDX 12 1 11 2 10 3 9 4 8 5 7 6 6 7 5 8 4 9 3 10 2 11 1 12 13 13
REMARK SMILES IDX 14 14 15 15 16 16 17 17 18 18 19 19 20 20 21 21 22 22 23 23
REMARK SMILES IDX 24 24
REMARK H PARENT
REMARK Flexibility Score: inf
ROOT
ATOM      1  C   UNL     1     -12.158  10.659   5.848  1.00  0.00     0.000 C 
ENDROOT
BRANCH   1   2
ATOM      2  C   UNL     1     -12.322  10.352   4.353  1.00  0.00     0.000 C 
BRANCH   2   3
ATOM      3  C   UNL     1     -13.768   9.989   3.967  1.00  0.00     0.000 C 
BRANCH   3   4
ATOM      4  C   UNL     1     -14.839  10.998   4.422  1.00  0.00    -0.000 C 
BRANCH   4   5
ATOM      5  C   UNL     1     -16.172  10.377   4.881  1.00  0.00    -0.000 C 
BRANCH   5   6
ATOM      6  C   UNL     1     -16.884   9.549   3.790  1.00  0.00    -0.000 C 
BRANCH   6   7
ATOM      7  C   UNL     1     -17.177  10.367   2.521  1.00  0.00    -0.000 C 
BRANCH   7   8
ATOM      8  C   UNL     1     -16.731   9.634   1.237  1.00  0.00    -0.000 C 
BRANCH   8   9
ATOM      9  C   UNL     1     -17.410  10.156  -0.042  1.00  0.00    -0.000 C 
BRANCH   9  10
ATOM     10  C   UNL     1     -16.431  10.312  -1.215  1.00  0.00    -0.000 C 
BRANCH  10  11
ATOM     11  C   UNL     1     -16.392  11.747  -1.762  1.00  0.00    -0.003 C 
ATOM     12  C   UNL     1     -15.162  12.018  -2.628  1.00  0.00     0.004 C 
ENDBRANCH  10  11
ENDBRANCH   9  10
ENDBRANCH   8   9
ENDBRANCH   7   8
ENDBRANCH   6   7
ENDBRANCH   5   6
ENDBRANCH   4   5
ENDBRANCH   3   4
ENDBRANCH   2   3
ENDBRANCH   1   2
BRANCH   1  13
ATOM     13  C   UNL     1     -12.456   9.420   6.701  1.00  0.00     0.000 C 
BRANCH  13  14
ATOM     14  C   UNL     1     -13.678   9.655   7.600  1.00  0.00     0.000 C 
BRANCH  14  15
ATOM     15  C   UNL     1     -13.438   9.238   9.061  1.00  0.00     0.000 C 
BRANCH  15  16
ATOM     16  C   UNL     1     -14.688   9.412   9.942  1.00  0.00     0.000 C 
BRANCH  16  17
ATOM     17  C   UNL     1     -15.982   9.572   9.121  1.00  0.00     0.000 C 
BRANCH  17  18
ATOM     18  C   UNL     1     -17.049  10.485   9.754  1.00  0.00     0.000 C 
BRANCH  18  19
ATOM     19  C   UNL     1     -17.960   9.745  10.748  1.00  0.00     0.000 C 
BRANCH  19  20
ATOM     20  C   UNL     1     -18.199  10.546  12.043  1.00  0.00     0.006 C 
BRANCH  20  21
ATOM     21  C   UNL     1     -18.154  12.070  11.843  1.00  0.00     0.053 C 
BRANCH  21  22
ATOM     22  C   UNL     1     -17.077  12.722  12.652  1.00  0.00     0.041 C 
ATOM     23  O   UNL     1     -17.169  13.939  12.964  1.00  0.00    -0.550 OA
ATOM     24  O   UNL     1     -15.967  11.990  13.055  1.00  0.00    -0.550 OA
ENDBRANCH  21  22
ENDBRANCH  20  21
ENDBRANCH  19  20
ENDBRANCH  18  19
ENDBRANCH  17  18
ENDBRANCH  16  17
ENDBRANCH  15  16
ENDBRANCH  14  15
ENDBRANCH  13  14
ENDBRANCH   1  13
TORSDOF 20
ENDMDL
MODEL 8
REMARK VINA RESULT:    -3.158      1.705      2.459
REMARK INTER + INTRA:          -8.952
REMARK INTER:                  -6.836
REMARK INTRA:                  -2.116
REMARK UNBOUND:                -2.102
REMARK SMILES CCCCCCCCCCCCCCCCCCCCCC(=O)[O-]
REMARK SMILES IDX 12 1 11 2 10 3 9 4 8 5 7 6 6 7 5 8 4 9 3 10 2 11 1 12 13 13
REMARK SMILES IDX 14 14 15 15 16 16 17 17 18 18 19 19 20 20 21 21 22 22 23 23
REMARK SMILES IDX 24 24
REMARK H PARENT
REMARK Flexibility Score: inf
ROOT
ATOM      1  C   UNL     1     -12.678  10.416   3.917  1.00  0.00     0.000 C 
ENDROOT
BRANCH   1   2
ATOM      2  C   UNL     1     -13.072   8.973   3.574  1.00  0.00     0.000 C 
BRANCH   2   3
ATOM      3  C   UNL     1     -14.417   8.875   2.831  1.00  0.00     0.000 C 
BRANCH   3   4
ATOM      4  C   UNL     1     -15.623   9.471   3.582  1.00  0.00    -0.000 C 
BRANCH   4   5
ATOM      5  C   UNL     1     -16.722  10.070   2.684  1.00  0.00    -0.000 C 
BRANCH   5   6
ATOM      6  C   UNL     1     -17.048   9.215   1.441  1.00  0.00    -0.000 C 
BRANCH   6   7
ATOM      7  C   UNL     1     -18.010   9.922   0.471  1.00  0.00    -0.000 C 
BRANCH   7   8
ATOM      8  C   UNL     1     -17.299  11.003  -0.374  1.00  0.00    -0.000 C 
BRANCH   8   9
ATOM      9  C   UNL     1     -16.894  10.524  -1.778  1.00  0.00    -0.000 C 
BRANCH   9  10
ATOM     10  C   UNL     1     -15.487   9.908  -1.815  1.00  0.00    -0.000 C 
BRANCH  10  11
ATOM     11  C   UNL     1     -14.426  10.894  -2.325  1.00  0.00    -0.003 C 
ATOM     12  C   UNL     1     -15.028  12.059  -3.111  1.00  0.00     0.004 C 
ENDBRANCH  10  11
ENDBRANCH   9  10
ENDBRANCH   8   9
ENDBRANCH   7   8
ENDBRANCH   6   7
ENDBRANCH   5   6
ENDBRANCH   4   5
ENDBRANCH   3   4
ENDBRANCH   2   3
ENDBRANCH   1   2
BRANCH   1  13
ATOM     13  C   UNL     1     -11.963  10.486   5.272  1.00  0.00     0.000 C 
BRANCH  13  14
ATOM     14  C   UNL     1     -12.258   9.234   6.112  1.00  0.00     0.000 C 
BRANCH  14  15
ATOM     15  C   UNL     1     -13.102   9.535   7.362  1.00  0.00     0.000 C 
BRANCH  15  16
ATOM     16  C   UNL     1     -14.608   9.319   7.129  1.00  0.00     0.000 C 
BRANCH  16  17
ATOM     17  C   UNL     1     -15.379  10.638   6.939  1.00  0.00     0.000 C 
BRANCH  17  18
ATOM     18  C   UNL     1     -16.854  10.603   7.384  1.00  0.00     0.000 C 
BRANCH  18  19
ATOM     19  C   UNL     1     -17.238   9.289   8.085  1.00  0.00     0.000 C 
BRANCH  19  20
ATOM     20  C   UNL     1     -17.498   9.477   9.594  1.00  0.00     0.006 C 
BRANCH  20  21
ATOM     21  C   UNL     1     -16.229   9.374  10.456  1.00  0.00     0.053 C 
BRANCH  21  22
ATOM     22  C   UNL     1     -15.988  10.606  11.270  1.00  0.00     0.041 C 
ATOM     23  O   UNL     1     -16.884  11.486  11.367  1.00  0.00    -0.550 OA
ATOM     24  O   UNL     1     -14.771  10.790  11.914  1.00  0.00    -0.550 OA
ENDBRANCH  21  22
ENDBRANCH  20  21
ENDBRANCH  19  20
ENDBRANCH  18  19
ENDBRANCH  17  18
ENDBRANCH  16  17
ENDBRANCH  15  16
ENDBRANCH  14  15
ENDBRANCH  13  14
ENDBRANCH   1  13
TORSDOF 20
ENDMDL
MODEL 9
REMARK VINA RESULT:    -3.033      4.035      6.667
REMARK INTER + INTRA:          -8.682
REMARK INTER:                  -6.320
REMARK INTRA:                  -2.362
REMARK UNBOUND:                -2.102
REMARK SMILES CCCCCCCCCCCCCCCCCCCCCC(=O)[O-]
REMARK SMILES IDX 12 1 11 2 10 3 9 4 8 5 7 6 6 7 5 8 4 9 3 10 2 11 1 12 13 13
REMARK SMILES IDX 14 14 15 15 16 16 17 17 18 18 19 19 20 20 21 21 22 22 23 23
REMARK SMILES IDX 24 24
REMARK H PARENT
REMARK Flexibility Score: inf
ROOT
ATOM      1  C   UNL     1     -15.757   9.707  -1.279  1.00  0.00     0.000 C 
ENDROOT
BRANCH   1   2
ATOM      2  C   UNL     1     -16.199   9.014  -2.575  1.00  0.00     0.000 C 
BRANCH   2   3
ATOM      3  C   UNL     1     -17.712   9.128  -2.834  1.00  0.00     0.000 C 
BRANCH   3   4
ATOM      4  C   UNL     1     -18.142  10.347  -3.672  1.00  0.00    -0.000 C 
BRANCH   4   5
ATOM      5  C   UNL     1     -18.422  11.630  -2.867  1.00  0.00    -0.000 C 
BRANCH   5   6
ATOM      6  C   UNL     1     -17.253  12.638  -2.871  1.00  0.00    -0.000 C 
BRANCH   6   7
ATOM      7  C   UNL     1     -17.181  13.457  -4.172  1.00  0.00    -0.000 C 
BRANCH   7   8
ATOM      8  C   UNL     1     -15.905  13.147  -4.987  1.00  0.00    -0.000 C 
BRANCH   8   9
ATOM      9  C   UNL     1     -14.936  12.186  -4.279  1.00  0.00    -0.000 C 
BRANCH   9  10
ATOM     10  C   UNL     1     -14.389  11.096  -5.213  1.00  0.00    -0.000 C 
BRANCH  10  11
ATOM     11  C   UNL     1     -13.367  10.184  -4.519  1.00  0.00    -0.003 C 
ATOM     12  C   UNL     1     -12.785  10.805  -3.249  1.00  0.00     0.004 C 
ENDBRANCH  10  11
ENDBRANCH   9  10
ENDBRANCH   8   9
ENDBRANCH   7   8
ENDBRANCH   6   7
ENDBRANCH   5   6
ENDBRANCH   4   5
ENDBRANCH   3   4
ENDBRANCH   2   3
ENDBRANCH   1   2
BRANCH   1  13
ATOM     13  C   UNL     1     -16.598   9.233  -0.087  1.00  0.00     0.000 C 
BRANCH  13  14
ATOM     14  C   UNL     1     -17.253  10.424   0.629  1.00  0.00     0.000 C 
BRANCH  14  15
ATOM     15  C   UNL     1     -17.591  10.128   2.100  1.00  0.00     0.000 C 
BRANCH  15  16
ATOM     16  C   UNL     1     -16.338   9.925   2.969  1.00  0.00     0.000 C 
BRANCH  16  17
ATOM     17  C   UNL     1     -16.636  10.008   4.478  1.00  0.00     0.000 C 
BRANCH  17  18
ATOM     18  C   UNL     1     -15.639  10.853   5.296  1.00  0.00     0.000 C 
BRANCH  18  19
ATOM     19  C   UNL     1     -15.037  10.085   6.485  1.00  0.00     0.000 C 
BRANCH  19  20
ATOM     20  C   UNL     1     -13.772   9.292   6.100  1.00  0.00     0.006 C 
BRANCH  20  21
ATOM     21  C   UNL     1     -12.461  10.021   6.435  1.00  0.00     0.053 C 
BRANCH  21  22
ATOM     22  C   UNL     1     -11.987  10.892   5.314  1.00  0.00     0.041 C 
ATOM     23  O   UNL     1     -11.261  11.892   5.554  1.00  0.00    -0.550 OA
ATOM     24  O   UNL     1     -12.354  10.605   4.005  1.00  0.00    -0.550 OA
ENDBRANCH  21  22
ENDBRANCH  20  21
ENDBRANCH  19  20
ENDBRANCH  18  19
ENDBRANCH  17  18
ENDBRANCH  16  17
ENDBRANCH  15  16
ENDBRANCH  14  15
ENDBRANCH  13  14
ENDBRANCH   1  13
TORSDOF 20
ENDMDL
