MODEL 1
REMARK VINA RESULT:    -4.200      0.000      0.000
REMARK INTER + INTRA:         -17.517
REMARK INTER:                 -11.076
REMARK INTRA:                  -6.441
REMARK UNBOUND:                -6.441
REMARK SMILES CCCCCCCCCCCCCCCCCCCCCCCCCCCCCC(=O)[O-]
REMARK SMILES IDX 16 1 17 2 18 3 19 4 20 5 21 6 22 7 23 8 24 9 25 10 26 11
REMARK SMILES IDX 27 12 28 13 29 14 30 15 31 16 32 17 15 18 14 19 13 20 12 21
REMARK SMILES IDX 11 22 10 23 9 24 8 25 7 26 6 27 5 28 4 29 3 30 2 31 1 32
REMARK H PARENT
REMARK Flexibility Score: inf
ROOT
ATOM      1  C   UNL     1       6.312  52.971   1.562  1.00  0.00     0.000 C 
ENDROOT
BRANCH   1   2
ATOM      2  C   UNL     1       7.748  52.582   1.154  1.00  0.00     0.000 C 
BRANCH   2   3
ATOM      3  C   UNL     1       8.759  52.432   2.313  1.00  0.00     0.000 C 
BRANCH   3   4
ATOM      4  C   UNL     1      10.088  51.752   1.943  1.00  0.00     0.000 C 
BRANCH   4   5
ATOM      5  C   UNL     1      10.178  51.393   0.450  1.00  0.00     0.000 C 
BRANCH   5   6
ATOM      6  C   UNL     1      11.320  52.138  -0.260  1.00  0.00     0.000 C 
BRANCH   6   7
ATOM      7  C   UNL     1      10.819  52.964  -1.458  1.00  0.00     0.000 C 
BRANCH   7   8
ATOM      8  C   UNL     1      10.192  54.308  -1.042  1.00  0.00     0.000 C 
BRANCH   8   9
ATOM      9  C   UNL     1      10.973  55.084   0.042  1.00  0.00     0.000 C 
BRANCH   9  10
ATOM     10  C   UNL     1      10.085  55.704   1.138  1.00  0.00     0.000 C 
BRANCH  10  11
ATOM     11  C   UNL     1       8.640  56.031   0.713  1.00  0.00     0.000 C 
BRANCH  11  12
ATOM     12  C   UNL     1       8.383  57.504   0.344  1.00  0.00     0.000 C 
BRANCH  12  13
ATOM     13  C   UNL     1       8.253  57.731  -1.172  1.00  0.00     0.006 C 
BRANCH  13  14
ATOM     14  C   UNL     1       9.617  57.943  -1.843  1.00  0.00     0.053 C 
BRANCH  14  15
ATOM     15  C   UNL     1      10.422  59.003  -1.154  1.00  0.00     0.041 C 
ATOM     16  O   UNL     1      11.518  58.711  -0.603  1.00  0.00    -0.550 OA
ATOM     17  O   UNL     1       9.966  60.315  -1.123  1.00  0.00    -0.550 OA
ENDBRANCH  14  15
ENDBRANCH  13  14
ENDBRANCH  12  13
ENDBRANCH  11  12
ENDBRANCH  10  11
ENDBRANCH   9  10
ENDBRANCH   8   9
ENDBRANCH   7   8
ENDBRANCH   6   7
ENDBRANCH   5   6
ENDBRANCH   4   5
ENDBRANCH   3   4
ENDBRANCH   2   3
ENDBRANCH   1   2
BRANCH   1  18
ATOM     18  C   UNL     1       5.271  51.836   1.433  1.00  0.00     0.000 C 
BRANCH  18  19
ATOM     19  C   UNL     1       3.907  52.302   0.892  1.00  0.00     0.000 C 
BRANCH  19  20
ATOM     20  C   UNL     1       2.929  51.169   0.531  1.00  0.00     0.000 C 
BRANCH  20  21
ATOM     21  C   UNL     1       2.475  51.135  -0.940  1.00  0.00     0.000 C 
BRANCH  21  22
ATOM     22  C   UNL     1       2.174  52.531  -1.509  1.00  0.00     0.000 C 
BRANCH  22  23
ATOM     23  C   UNL     1       3.061  52.887  -2.717  1.00  0.00     0.000 C 
BRANCH  23  24
ATOM     24  C   UNL     1       3.734  51.687  -3.412  1.00  0.00    -0.000 C 
BRANCH  24  25
ATOM     25  C   UNL     1       5.224  51.879  -3.764  1.00  0.00    -0.000 C 
BRANCH  25  26
ATOM     26  C   UNL     1       6.190  51.757  -2.571  1.00  0.00    -0.000 C 
BRANCH  26  27
ATOM     27  C   UNL     1       7.020  53.032  -2.347  1.00  0.00    -0.000 C 
BRANCH  27  28
ATOM     28  C   UNL     1       6.660  54.161  -3.330  1.00  0.00    -0.000 C 
BRANCH  28  29
ATOM     29  C   UNL     1       5.919  55.357  -2.705  1.00  0.00    -0.000 C 
BRANCH  29  30
ATOM     30  C   UNL     1       5.601  55.153  -1.213  1.00  0.00    -0.000 C 
BRANCH  30  31
ATOM     31  C   UNL     1       4.312  55.871  -0.784  1.00  0.00    -0.003 C 
ATOM     32  C   UNL     1       4.183  55.990   0.734  1.00  0.00     0.004 C 
ENDBRANCH  30  31
ENDBRANCH  29  30
ENDBRANCH  28  29
ENDBRANCH  27  28
ENDBRANCH  26  27
ENDBRANCH  25  26
ENDBRANCH  24  25
ENDBRANCH  23  24
ENDBRANCH  22  23
ENDBRANCH  21  22
ENDBRANCH  20  21
ENDBRANCH  19  20
ENDBRANCH  18  19
ENDBRANCH   1  18
TORSDOF 28
ENDMDL
MODEL 2
REMARK VINA RESULT:    -4.135      2.185      6.901
REMARK INTER + INTRA:         -17.345
REMARK INTER:                 -11.817
REMARK INTRA:                  -5.528
REMARK UNBOUND:                -6.441
REMARK SMILES CCCCCCCCCCCCCCCCCCCCCCCCCCCCCC(=O)[O-]
REMARK SMILES IDX 16 1 17 2 18 3 19 4 20 5 21 6 22 7 23 8 24 9 25 10 26 11
REMARK SMILES IDX 27 12 28 13 29 14 30 15 31 16 32 17 15 18 14 19 13 20 12 21
REMARK SMILES IDX 11 22 10 23 9 24 8 25 7 26 6 27 5 28 4 29 3 30 2 31 1 32
REMARK H PARENT
REMARK Flexibility Score: inf
ROOT
ATOM      1  C   UNL     1      10.264  52.723  -1.395  1.00  0.00     0.000 C 
ENDROOT
BRANCH   1   2
ATOM      2  C   UNL     1       9.089  51.729  -1.498  1.00  0.00     0.000 C 
BRANCH   2   3
ATOM      3  C   UNL     1       7.708  52.274  -1.069  1.00  0.00     0.000 C 
BRANCH   3   4
ATOM      4  C   UNL     1       6.840  52.835  -2.208  1.00  0.00     0.000 C 
BRANCH   4   5
ATOM      5  C   UNL     1       5.768  51.840  -2.685  1.00  0.00     0.000 C 
BRANCH   5   6
ATOM      6  C   UNL     1       4.379  52.490  -2.797  1.00  0.00     0.000 C 
BRANCH   6   7
ATOM      7  C   UNL     1       3.265  51.448  -3.003  1.00  0.00     0.000 C 
BRANCH   7   8
ATOM      8  C   UNL     1       2.199  51.478  -1.891  1.00  0.00     0.000 C 
BRANCH   8   9
ATOM      9  C   UNL     1       2.391  50.425  -0.777  1.00  0.00     0.000 C 
BRANCH   9  10
ATOM     10  C   UNL     1       2.408  51.010   0.648  1.00  0.00     0.000 C 
BRANCH  10  11
ATOM     11  C   UNL     1       3.798  51.111   1.306  1.00  0.00     0.000 C 
BRANCH  11  12
ATOM     12  C   UNL     1       4.628  52.343   0.898  1.00  0.00     0.000 C 
BRANCH  12  13
ATOM     13  C   UNL     1       4.051  53.664   1.436  1.00  0.00     0.006 C 
BRANCH  13  14
ATOM     14  C   UNL     1       3.371  54.489   0.335  1.00  0.00     0.053 C 
BRANCH  14  15
ATOM     15  C   UNL     1       4.217  55.649  -0.098  1.00  0.00     0.041 C 
ATOM     16  O   UNL     1       4.367  56.644   0.661  1.00  0.00    -0.550 OA
ATOM     17  O   UNL     1       4.841  55.630  -1.339  1.00  0.00    -0.550 OA
ENDBRANCH  14  15
ENDBRANCH  13  14
ENDBRANCH  12  13
ENDBRANCH  11  12
ENDBRANCH  10  11
ENDBRANCH   9  10
ENDBRANCH   8   9
ENDBRANCH   7   8
ENDBRANCH   6   7
ENDBRANCH   5   6
ENDBRANCH   4   5
ENDBRANCH   3   4
ENDBRANCH   2   3
ENDBRANCH   1   2
BRANCH   1  18
ATOM     18  C   UNL     1      11.319  52.371  -0.321  1.00  0.00     0.000 C 
BRANCH  18  19
ATOM     19  C   UNL     1      11.268  53.278   0.922  1.00  0.00     0.000 C 
BRANCH  19  20
ATOM     20  C   UNL     1      10.896  52.563   2.234  1.00  0.00     0.000 C 
BRANCH  20  21
ATOM     21  C   UNL     1       9.746  51.544   2.126  1.00  0.00     0.000 C 
BRANCH  21  22
ATOM     22  C   UNL     1       8.389  52.121   2.560  1.00  0.00     0.000 C 
BRANCH  22  23
ATOM     23  C   UNL     1       8.529  53.307   3.532  1.00  0.00     0.000 C 
BRANCH  23  24
ATOM     24  C   UNL     1       7.584  54.495   3.257  1.00  0.00    -0.000 C 
BRANCH  24  25
ATOM     25  C   UNL     1       7.340  54.812   1.767  1.00  0.00    -0.000 C 
BRANCH  25  26
ATOM     26  C   UNL     1       8.491  55.559   1.068  1.00  0.00    -0.000 C 
BRANCH  26  27
ATOM     27  C   UNL     1       8.239  55.761  -0.436  1.00  0.00    -0.000 C 
BRANCH  27  28
ATOM     28  C   UNL     1       9.433  56.407  -1.161  1.00  0.00    -0.000 C 
BRANCH  28  29
ATOM     29  C   UNL     1      10.635  56.746  -0.261  1.00  0.00    -0.000 C 
BRANCH  29  30
ATOM     30  C   UNL     1      10.989  58.243  -0.270  1.00  0.00    -0.000 C 
BRANCH  30  31
ATOM     31  C   UNL     1      10.216  59.022  -1.346  1.00  0.00    -0.003 C 
ATOM     32  C   UNL     1      11.058  60.120  -1.996  1.00  0.00     0.004 C 
ENDBRANCH  30  31
ENDBRANCH  29  30
ENDBRANCH  28  29
ENDBRANCH  27  28
ENDBRANCH  26  27
ENDBRANCH  25  26
ENDBRANCH  24  25
ENDBRANCH  23  24
ENDBRANCH  22  23
ENDBRANCH  21  22
ENDBRANCH  20  21
ENDBRANCH  19  20
ENDBRANCH  18  19
ENDBRANCH   1  18
TORSDOF 28
ENDMDL
MODEL 3
REMARK VINA RESULT:    -4.123      1.972      3.686
REMARK INTER + INTRA:         -17.312
REMARK INTER:                 -11.451
REMARK INTRA:                  -5.861
REMARK UNBOUND:                -6.441
REMARK SMILES CCCCCCCCCCCCCCCCCCCCCCCCCCCCCC(=O)[O-]
REMARK SMILES IDX 16 1 17 2 18 3 19 4 20 5 21 6 22 7 23 8 24 9 25 10 26 11
REMARK SMILES IDX 27 12 28 13 29 14 30 15 31 16 32 17 15 18 14 19 13 20 12 21
REMARK SMILES IDX 11 22 10 23 9 24 8 25 7 26 6 27 5 28 4 29 3 30 2 31 1 32
REMARK H PARENT
REMARK Flexibility Score: inf
ROOT
ATOM      1  C   UNL     1       6.163  53.176  -2.957  1.00  0.00     0.000 C 
ENDROOT
BRANCH   1   2
ATOM      2  C   UNL     1       6.824  51.932  -2.326  1.00  0.00     0.000 C 
BRANCH   2   3
ATOM      3  C   UNL     1       7.911  52.215  -1.265  1.00  0.00     0.000 C 
BRANCH   3   4
ATOM      4  C   UNL     1       9.283  51.577  -1.543  1.00  0.00     0.000 C 
BRANCH   4   5
ATOM      5  C   UNL     1      10.246  51.691  -0.350  1.00  0.00     0.000 C 
BRANCH   5   6
ATOM      6  C   UNL     1       9.505  51.930   0.976  1.00  0.00     0.000 C 
BRANCH   6   7
ATOM      7  C   UNL     1      10.404  52.598   2.032  1.00  0.00     0.000 C 
BRANCH   7   8
ATOM      8  C   UNL     1      11.552  53.418   1.414  1.00  0.00     0.000 C 
BRANCH   8   9
ATOM      9  C   UNL     1      11.299  54.942   1.345  1.00  0.00     0.000 C 
BRANCH   9  10
ATOM     10  C   UNL     1      10.755  55.430  -0.011  1.00  0.00     0.000 C 
BRANCH  10  11
ATOM     11  C   UNL     1       9.219  55.479  -0.129  1.00  0.00     0.000 C 
BRANCH  11  12
ATOM     12  C   UNL     1       8.674  55.555  -1.568  1.00  0.00     0.000 C 
BRANCH  12  13
ATOM     13  C   UNL     1       8.105  56.939  -1.924  1.00  0.00     0.006 C 
BRANCH  13  14
ATOM     14  C   UNL     1       6.622  56.871  -2.313  1.00  0.00     0.053 C 
BRANCH  14  15
ATOM     15  C   UNL     1       6.399  57.259  -3.744  1.00  0.00     0.041 C 
ATOM     16  O   UNL     1       6.170  58.461  -4.048  1.00  0.00    -0.550 OA
ATOM     17  O   UNL     1       6.447  56.294  -4.742  1.00  0.00    -0.550 OA
ENDBRANCH  14  15
ENDBRANCH  13  14
ENDBRANCH  12  13
ENDBRANCH  11  12
ENDBRANCH  10  11
ENDBRANCH   9  10
ENDBRANCH   8   9
ENDBRANCH   7   8
ENDBRANCH   6   7
ENDBRANCH   5   6
ENDBRANCH   4   5
ENDBRANCH   3   4
ENDBRANCH   2   3
ENDBRANCH   1   2
BRANCH   1  18
ATOM     18  C   UNL     1       5.164  52.872  -4.097  1.00  0.00     0.000 C 
BRANCH  18  19
ATOM     19  C   UNL     1       4.569  51.453  -4.041  1.00  0.00     0.000 C 
BRANCH  19  20
ATOM     20  C   UNL     1       3.031  51.392  -4.045  1.00  0.00     0.000 C 
BRANCH  20  21
ATOM     21  C   UNL     1       2.392  50.789  -2.780  1.00  0.00     0.000 C 
BRANCH  21  22
ATOM     22  C   UNL     1       2.642  51.634  -1.520  1.00  0.00     0.000 C 
BRANCH  22  23
ATOM     23  C   UNL     1       2.357  50.862  -0.218  1.00  0.00     0.000 C 
BRANCH  23  24
ATOM     24  C   UNL     1       3.393  51.066   0.906  1.00  0.00    -0.000 C 
BRANCH  24  25
ATOM     25  C   UNL     1       4.631  51.901   0.518  1.00  0.00    -0.000 C 
BRANCH  25  26
ATOM     26  C   UNL     1       5.646  52.117   1.655  1.00  0.00    -0.000 C 
BRANCH  26  27
ATOM     27  C   UNL     1       6.284  53.516   1.622  1.00  0.00    -0.000 C 
BRANCH  27  28
ATOM     28  C   UNL     1       5.644  54.442   0.573  1.00  0.00    -0.000 C 
BRANCH  28  29
ATOM     29  C   UNL     1       5.064  55.755   1.131  1.00  0.00    -0.000 C 
BRANCH  29  30
ATOM     30  C   UNL     1       3.869  56.278   0.315  1.00  0.00    -0.000 C 
BRANCH  30  31
ATOM     31  C   UNL     1       3.106  55.151  -0.397  1.00  0.00    -0.003 C 
ATOM     32  C   UNL     1       3.214  55.237  -1.919  1.00  0.00     0.004 C 
ENDBRANCH  30  31
ENDBRANCH  29  30
ENDBRANCH  28  29
ENDBRANCH  27  28
ENDBRANCH  26  27
ENDBRANCH  25  26
ENDBRANCH  24  25
ENDBRANCH  23  24
ENDBRANCH  22  23
ENDBRANCH  21  22
ENDBRANCH  20  21
ENDBRANCH  19  20
ENDBRANCH  18  19
ENDBRANCH   1  18
TORSDOF 28
ENDMDL
MODEL 4
REMARK VINA RESULT:    -4.099      1.937      6.530
REMARK INTER + INTRA:         -17.251
REMARK INTER:                 -10.832
REMARK INTRA:                  -6.419
REMARK UNBOUND:                -6.441
REMARK SMILES CCCCCCCCCCCCCCCCCCCCCCCCCCCCCC(=O)[O-]
REMARK SMILES IDX 16 1 17 2 18 3 19 4 20 5 21 6 22 7 23 8 24 9 25 10 26 11
REMARK SMILES IDX 27 12 28 13 29 14 30 15 31 16 32 17 15 18 14 19 13 20 12 21
REMARK SMILES IDX 11 22 10 23 9 24 8 25 7 26 6 27 5 28 4 29 3 30 2 31 1 32
REMARK H PARENT
REMARK Flexibility Score: inf
ROOT
ATOM      1  C   UNL     1       5.984  52.589  -3.378  1.00  0.00     0.000 C 
ENDROOT
BRANCH   1   2
ATOM      2  C   UNL     1       4.788  51.863  -2.727  1.00  0.00     0.000 C 
BRANCH   2   3
ATOM      3  C   UNL     1       3.399  52.198  -3.313  1.00  0.00     0.000 C 
BRANCH   3   4
ATOM      4  C   UNL     1       2.208  51.927  -2.377  1.00  0.00     0.000 C 
BRANCH   4   5
ATOM      5  C   UNL     1       2.462  50.753  -1.415  1.00  0.00     0.000 C 
BRANCH   5   6
ATOM      6  C   UNL     1       1.950  51.043   0.005  1.00  0.00     0.000 C 
BRANCH   6   7
ATOM      7  C   UNL     1       3.069  50.940   1.058  1.00  0.00     0.000 C 
BRANCH   7   8
ATOM      8  C   UNL     1       4.232  51.915   0.797  1.00  0.00     0.000 C 
BRANCH   8   9
ATOM      9  C   UNL     1       4.055  53.319   1.419  1.00  0.00     0.000 C 
BRANCH   9  10
ATOM     10  C   UNL     1       3.308  54.320   0.517  1.00  0.00     0.000 C 
BRANCH  10  11
ATOM     11  C   UNL     1       4.098  54.826  -0.706  1.00  0.00     0.000 C 
BRANCH  11  12
ATOM     12  C   UNL     1       3.250  55.496  -1.804  1.00  0.00     0.000 C 
BRANCH  12  13
ATOM     13  C   UNL     1       4.063  55.851  -3.060  1.00  0.00     0.006 C 
BRANCH  13  14
ATOM     14  C   UNL     1       5.213  56.819  -2.750  1.00  0.00     0.053 C 
BRANCH  14  15
ATOM     15  C   UNL     1       6.357  56.656  -3.705  1.00  0.00     0.041 C 
ATOM     16  O   UNL     1       7.512  57.049  -3.386  1.00  0.00    -0.550 OA
ATOM     17  O   UNL     1       6.149  56.067  -4.946  1.00  0.00    -0.550 OA
ENDBRANCH  14  15
ENDBRANCH  13  14
ENDBRANCH  12  13
ENDBRANCH  11  12
ENDBRANCH  10  11
ENDBRANCH   9  10
ENDBRANCH   8   9
ENDBRANCH   7   8
ENDBRANCH   6   7
ENDBRANCH   5   6
ENDBRANCH   4   5
ENDBRANCH   3   4
ENDBRANCH   2   3
ENDBRANCH   1   2
BRANCH   1  18
ATOM     18  C   UNL     1       6.902  53.344  -2.390  1.00  0.00     0.000 C 
BRANCH  18  19
ATOM     19  C   UNL     1       7.405  52.476  -1.222  1.00  0.00     0.000 C 
BRANCH  19  20
ATOM     20  C   UNL     1       8.748  51.766  -1.471  1.00  0.00     0.000 C 
BRANCH  20  21
ATOM     21  C   UNL     1       9.643  51.594  -0.230  1.00  0.00     0.000 C 
BRANCH  21  22
ATOM     22  C   UNL     1      11.108  51.985  -0.486  1.00  0.00     0.000 C 
BRANCH  22  23
ATOM     23  C   UNL     1      11.248  53.359  -1.168  1.00  0.00     0.000 C 
BRANCH  23  24
ATOM     24  C   UNL     1      10.819  54.565  -0.308  1.00  0.00    -0.000 C 
BRANCH  24  25
ATOM     25  C   UNL     1       9.692  55.432  -0.905  1.00  0.00    -0.000 C 
BRANCH  25  26
ATOM     26  C   UNL     1       8.945  56.313   0.115  1.00  0.00    -0.000 C 
BRANCH  26  27
ATOM     27  C   UNL     1       7.421  56.115   0.065  1.00  0.00    -0.000 C 
BRANCH  27  28
ATOM     28  C   UNL     1       6.787  55.984   1.461  1.00  0.00    -0.000 C 
BRANCH  28  29
ATOM     29  C   UNL     1       7.634  55.213   2.490  1.00  0.00    -0.000 C 
BRANCH  29  30
ATOM     30  C   UNL     1       7.473  53.687   2.378  1.00  0.00    -0.000 C 
BRANCH  30  31
ATOM     31  C   UNL     1       8.671  52.925   2.966  1.00  0.00    -0.003 C 
ATOM     32  C   UNL     1       8.325  51.484   3.341  1.00  0.00     0.004 C 
ENDBRANCH  30  31
ENDBRANCH  29  30
ENDBRANCH  28  29
ENDBRANCH  27  28
ENDBRANCH  26  27
ENDBRANCH  25  26
ENDBRANCH  24  25
ENDBRANCH  23  24
ENDBRANCH  22  23
ENDBRANCH  21  22
ENDBRANCH  20  21
ENDBRANCH  19  20
ENDBRANCH  18  19
ENDBRANCH   1  18
TORSDOF 28
ENDMDL
MODEL 5
REMARK VINA RESULT:    -4.097      2.183      5.588
REMARK INTER + INTRA:         -17.243
REMARK INTER:                 -11.200
REMARK INTRA:                  -6.043
REMARK UNBOUND:                -6.441
REMARK SMILES CCCCCCCCCCCCCCCCCCCCCCCCCCCCCC(=O)[O-]
REMARK SMILES IDX 16 1 17 2 18 3 19 4 20 5 21 6 22 7 23 8 24 9 25 10 26 11
REMARK SMILES IDX 27 12 28 13 29 14 30 15 31 16 32 17 15 18 14 19 13 20 12 21
REMARK SMILES IDX 11 22 10 23 9 24 8 25 7 26 6 27 5 28 4 29 3 30 2 31 1 32
REMARK H PARENT
REMARK Flexibility Score: inf
ROOT
ATOM      1  C   UNL     1       2.373  51.631  -2.444  1.00  0.00     0.000 C 
ENDROOT
BRANCH   1   2
ATOM      2  C   UNL     1       2.287  50.652  -1.254  1.00  0.00     0.000 C 
BRANCH   2   3
ATOM      3  C   UNL     1       2.153  51.303   0.142  1.00  0.00     0.000 C 
BRANCH   3   4
ATOM      4  C   UNL     1       3.148  50.796   1.200  1.00  0.00     0.000 C 
BRANCH   4   5
ATOM      5  C   UNL     1       4.270  51.806   1.495  1.00  0.00     0.000 C 
BRANCH   5   6
ATOM      6  C   UNL     1       3.794  53.261   1.360  1.00  0.00     0.000 C 
BRANCH   6   7
ATOM      7  C   UNL     1       4.892  54.270   1.743  1.00  0.00     0.000 C 
BRANCH   7   8
ATOM      8  C   UNL     1       5.032  55.421   0.730  1.00  0.00     0.000 C 
BRANCH   8   9
ATOM      9  C   UNL     1       6.257  56.338   0.951  1.00  0.00     0.000 C 
BRANCH   9  10
ATOM     10  C   UNL     1       6.781  57.010  -0.332  1.00  0.00     0.000 C 
BRANCH  10  11
ATOM     11  C   UNL     1       8.260  56.734  -0.667  1.00  0.00     0.000 C 
BRANCH  11  12
ATOM     12  C   UNL     1       8.580  56.611  -2.169  1.00  0.00     0.000 C 
BRANCH  12  13
ATOM     13  C   UNL     1       7.323  56.435  -3.039  1.00  0.00     0.006 C 
BRANCH  13  14
ATOM     14  C   UNL     1       7.486  55.307  -4.068  1.00  0.00     0.053 C 
BRANCH  14  15
ATOM     15  C   UNL     1       7.701  55.839  -5.453  1.00  0.00     0.041 C 
ATOM     16  O   UNL     1       7.354  55.158  -6.456  1.00  0.00    -0.550 OA
ATOM     17  O   UNL     1       8.283  57.087  -5.637  1.00  0.00    -0.550 OA
ENDBRANCH  14  15
ENDBRANCH  13  14
ENDBRANCH  12  13
ENDBRANCH  11  12
ENDBRANCH  10  11
ENDBRANCH   9  10
ENDBRANCH   8   9
ENDBRANCH   7   8
ENDBRANCH   6   7
ENDBRANCH   5   6
ENDBRANCH   4   5
ENDBRANCH   3   4
ENDBRANCH   2   3
ENDBRANCH   1   2
BRANCH   1  18
ATOM     18  C   UNL     1       2.585  53.111  -2.053  1.00  0.00     0.000 C 
BRANCH  18  19
ATOM     19  C   UNL     1       4.001  53.637  -2.350  1.00  0.00     0.000 C 
BRANCH  19  20
ATOM     20  C   UNL     1       4.803  52.805  -3.367  1.00  0.00     0.000 C 
BRANCH  20  21
ATOM     21  C   UNL     1       6.014  52.048  -2.789  1.00  0.00     0.000 C 
BRANCH  21  22
ATOM     22  C   UNL     1       6.233  52.319  -1.291  1.00  0.00     0.000 C 
BRANCH  22  23
ATOM     23  C   UNL     1       7.511  53.133  -1.014  1.00  0.00     0.000 C 
BRANCH  23  24
ATOM     24  C   UNL     1       8.829  52.445  -1.423  1.00  0.00    -0.000 C 
BRANCH  24  25
ATOM     25  C   UNL     1      10.067  53.363  -1.463  1.00  0.00    -0.000 C 
BRANCH  25  26
ATOM     26  C   UNL     1      11.345  52.752  -0.857  1.00  0.00    -0.000 C 
BRANCH  26  27
ATOM     27  C   UNL     1      11.047  51.785   0.301  1.00  0.00    -0.000 C 
BRANCH  27  28
ATOM     28  C   UNL     1      11.587  52.284   1.653  1.00  0.00    -0.000 C 
BRANCH  28  29
ATOM     29  C   UNL     1      10.620  52.120   2.840  1.00  0.00    -0.000 C 
BRANCH  29  30
ATOM     30  C   UNL     1       9.281  51.476   2.440  1.00  0.00    -0.000 C 
BRANCH  30  31
ATOM     31  C   UNL     1       8.104  52.457   2.543  1.00  0.00    -0.003 C 
ATOM     32  C   UNL     1       8.547  53.918   2.453  1.00  0.00     0.004 C 
ENDBRANCH  30  31
ENDBRANCH  29  30
ENDBRANCH  28  29
ENDBRANCH  27  28
ENDBRANCH  26  27
ENDBRANCH  25  26
ENDBRANCH  24  25
ENDBRANCH  23  24
ENDBRANCH  22  23
ENDBRANCH  21  22
ENDBRANCH  20  21
ENDBRANCH  19  20
ENDBRANCH  18  19
ENDBRANCH   1  18
TORSDOF 28
ENDMDL
MODEL 6
REMARK VINA RESULT:    -4.076      2.371      6.363
REMARK INTER + INTRA:         -17.190
REMARK INTER:                 -11.667
REMARK INTRA:                  -5.523
REMARK UNBOUND:                -6.441
REMARK SMILES CCCCCCCCCCCCCCCCCCCCCCCCCCCCCC(=O)[O-]
REMARK SMILES IDX 16 1 17 2 18 3 19 4 20 5 21 6 22 7 23 8 24 9 25 10 26 11
REMARK SMILES IDX 27 12 28 13 29 14 30 15 31 16 32 17 15 18 14 19 13 20 12 21
REMARK SMILES IDX 11 22 10 23 9 24 8 25 7 26 6 27 5 28 4 29 3 30 2 31 1 32
REMARK H PARENT
REMARK Flexibility Score: inf
ROOT
ATOM      1  C   UNL     1       5.951  52.282   1.522  1.00  0.00     0.000 C 
ENDROOT
BRANCH   1   2
ATOM      2  C   UNL     1       4.762  51.886   0.621  1.00  0.00     0.000 C 
BRANCH   2   3
ATOM      3  C   UNL     1       3.604  51.144   1.325  1.00  0.00     0.000 C 
BRANCH   3   4
ATOM      4  C   UNL     1       2.509  50.600   0.391  1.00  0.00     0.000 C 
BRANCH   4   5
ATOM      5  C   UNL     1       2.192  51.553  -0.773  1.00  0.00     0.000 C 
BRANCH   5   6
ATOM      6  C   UNL     1       1.898  50.798  -2.080  1.00  0.00     0.000 C 
BRANCH   6   7
ATOM      7  C   UNL     1       2.819  51.248  -3.230  1.00  0.00     0.000 C 
BRANCH   7   8
ATOM      8  C   UNL     1       4.107  51.933  -2.736  1.00  0.00     0.000 C 
BRANCH   8   9
ATOM      9  C   UNL     1       5.067  52.397  -3.856  1.00  0.00     0.000 C 
BRANCH   9  10
ATOM     10  C   UNL     1       5.456  53.885  -3.776  1.00  0.00     0.000 C 
BRANCH  10  11
ATOM     11  C   UNL     1       4.289  54.883  -3.918  1.00  0.00     0.000 C 
BRANCH  11  12
ATOM     12  C   UNL     1       3.682  55.375  -2.590  1.00  0.00     0.000 C 
BRANCH  12  13
ATOM     13  C   UNL     1       4.660  55.273  -1.407  1.00  0.00     0.006 C 
BRANCH  13  14
ATOM     14  C   UNL     1       3.953  55.455  -0.057  1.00  0.00     0.053 C 
BRANCH  14  15
ATOM     15  C   UNL     1       3.335  56.815   0.074  1.00  0.00     0.041 C 
ATOM     16  O   UNL     1       2.083  56.939   0.155  1.00  0.00    -0.550 OA
ATOM     17  O   UNL     1       4.141  57.946   0.108  1.00  0.00    -0.550 OA
ENDBRANCH  14  15
ENDBRANCH  13  14
ENDBRANCH  12  13
ENDBRANCH  11  12
ENDBRANCH  10  11
ENDBRANCH   9  10
ENDBRANCH   8   9
ENDBRANCH   7   8
ENDBRANCH   6   7
ENDBRANCH   5   6
ENDBRANCH   4   5
ENDBRANCH   3   4
ENDBRANCH   2   3
ENDBRANCH   1   2
BRANCH   1  18
ATOM     18  C   UNL     1       7.290  52.486   0.776  1.00  0.00     0.000 C 
BRANCH  18  19
ATOM     19  C   UNL     1       7.132  52.691  -0.741  1.00  0.00     0.000 C 
BRANCH  19  20
ATOM     20  C   UNL     1       8.156  51.937  -1.609  1.00  0.00     0.000 C 
BRANCH  20  21
ATOM     21  C   UNL     1       9.467  51.553  -0.897  1.00  0.00     0.000 C 
BRANCH  21  22
ATOM     22  C   UNL     1      10.684  52.336  -1.417  1.00  0.00     0.000 C 
BRANCH  22  23
ATOM     23  C   UNL     1      11.355  53.190  -0.325  1.00  0.00     0.000 C 
BRANCH  23  24
ATOM     24  C   UNL     1      10.968  54.683  -0.331  1.00  0.00    -0.000 C 
BRANCH  24  25
ATOM     25  C   UNL     1       9.772  55.058   0.568  1.00  0.00    -0.000 C 
BRANCH  25  26
ATOM     26  C   UNL     1       8.793  56.074  -0.049  1.00  0.00    -0.000 C 
BRANCH  26  27
ATOM     27  C   UNL     1       9.126  56.402  -1.514  1.00  0.00    -0.000 C 
BRANCH  27  28
ATOM     28  C   UNL     1       8.142  55.764  -2.511  1.00  0.00    -0.000 C 
BRANCH  28  29
ATOM     29  C   UNL     1       7.822  56.622  -3.749  1.00  0.00    -0.000 C 
BRANCH  29  30
ATOM     30  C   UNL     1       7.770  58.128  -3.438  1.00  0.00    -0.000 C 
BRANCH  30  31
ATOM     31  C   UNL     1       6.514  58.521  -2.646  1.00  0.00    -0.003 C 
ATOM     32  C   UNL     1       6.792  59.599  -1.598  1.00  0.00     0.004 C 
ENDBRANCH  30  31
ENDBRANCH  29  30
ENDBRANCH  28  29
ENDBRANCH  27  28
ENDBRANCH  26  27
ENDBRANCH  25  26
ENDBRANCH  24  25
ENDBRANCH  23  24
ENDBRANCH  22  23
ENDBRANCH  21  22
ENDBRANCH  20  21
ENDBRANCH  19  20
ENDBRANCH  18  19
ENDBRANCH   1  18
TORSDOF 28
ENDMDL
MODEL 7
REMARK VINA RESULT:    -4.059      2.312      5.323
REMARK INTER + INTRA:         -17.144
REMARK INTER:                 -11.184
REMARK INTRA:                  -5.960
REMARK UNBOUND:                -6.441
REMARK SMILES CCCCCCCCCCCCCCCCCCCCCCCCCCCCCC(=O)[O-]
REMARK SMILES IDX 16 1 17 2 18 3 19 4 20 5 21 6 22 7 23 8 24 9 25 10 26 11
REMARK SMILES IDX 27 12 28 13 29 14 30 15 31 16 32 17 15 18 14 19 13 20 12 21
REMARK SMILES IDX 11 22 10 23 9 24 8 25 7 26 6 27 5 28 4 29 3 30 2 31 1 32
REMARK H PARENT
REMARK Flexibility Score: inf
ROOT
ATOM      1  C   UNL     1       2.984  50.718   1.114  1.00  0.00     0.000 C 
ENDROOT
BRANCH   1   2
ATOM      2  C   UNL     1       3.761  52.048   1.022  1.00  0.00     0.000 C 
BRANCH   2   3
ATOM      3  C   UNL     1       5.260  51.976   1.388  1.00  0.00     0.000 C 
BRANCH   3   4
ATOM      4  C   UNL     1       5.921  53.326   1.717  1.00  0.00     0.000 C 
BRANCH   4   5
ATOM      5  C   UNL     1       4.904  54.473   1.840  1.00  0.00     0.000 C 
BRANCH   5   6
ATOM      6  C   UNL     1       5.416  55.776   1.204  1.00  0.00     0.000 C 
BRANCH   6   7
ATOM      7  C   UNL     1       4.349  56.449   0.321  1.00  0.00     0.000 C 
BRANCH   7   8
ATOM      8  C   UNL     1       3.283  55.463  -0.192  1.00  0.00     0.000 C 
BRANCH   8   9
ATOM      9  C   UNL     1       3.615  54.789  -1.542  1.00  0.00     0.000 C 
BRANCH   9  10
ATOM     10  C   UNL     1       2.718  55.242  -2.711  1.00  0.00     0.000 C 
BRANCH  10  11
ATOM     11  C   UNL     1       2.998  56.658  -3.250  1.00  0.00     0.000 C 
BRANCH  11  12
ATOM     12  C   UNL     1       4.457  56.923  -3.670  1.00  0.00     0.000 C 
BRANCH  12  13
ATOM     13  C   UNL     1       4.664  56.867  -5.194  1.00  0.00     0.006 C 
BRANCH  13  14
ATOM     14  C   UNL     1       5.656  55.770  -5.602  1.00  0.00     0.053 C 
BRANCH  14  15
ATOM     15  C   UNL     1       7.045  56.307  -5.777  1.00  0.00     0.041 C 
ATOM     16  O   UNL     1       8.023  55.518  -5.881  1.00  0.00    -0.550 OA
ATOM     17  O   UNL     1       7.259  57.678  -5.829  1.00  0.00    -0.550 OA
ENDBRANCH  14  15
ENDBRANCH  13  14
ENDBRANCH  12  13
ENDBRANCH  11  12
ENDBRANCH  10  11
ENDBRANCH   9  10
ENDBRANCH   8   9
ENDBRANCH   7   8
ENDBRANCH   6   7
ENDBRANCH   5   6
ENDBRANCH   4   5
ENDBRANCH   3   4
ENDBRANCH   2   3
ENDBRANCH   1   2
BRANCH   1  18
ATOM     18  C   UNL     1       2.066  50.418  -0.093  1.00  0.00     0.000 C 
BRANCH  18  19
ATOM     19  C   UNL     1       2.242  51.398  -1.267  1.00  0.00     0.000 C 
BRANCH  19  20
ATOM     20  C   UNL     1       2.386  50.737  -2.650  1.00  0.00     0.000 C 
BRANCH  20  21
ATOM     21  C   UNL     1       2.758  51.691  -3.801  1.00  0.00     0.000 C 
BRANCH  21  22
ATOM     22  C   UNL     1       4.155  51.417  -4.382  1.00  0.00     0.000 C 
BRANCH  22  23
ATOM     23  C   UNL     1       5.231  52.366  -3.823  1.00  0.00     0.000 C 
BRANCH  23  24
ATOM     24  C   UNL     1       5.877  51.916  -2.497  1.00  0.00    -0.000 C 
BRANCH  24  25
ATOM     25  C   UNL     1       6.778  52.965  -1.813  1.00  0.00    -0.000 C 
BRANCH  25  26
ATOM     26  C   UNL     1       7.158  54.166  -2.699  1.00  0.00    -0.000 C 
BRANCH  26  27
ATOM     27  C   UNL     1       7.474  55.429  -1.881  1.00  0.00    -0.000 C 
BRANCH  27  28
ATOM     28  C   UNL     1       8.401  55.152  -0.684  1.00  0.00    -0.000 C 
BRANCH  28  29
ATOM     29  C   UNL     1       9.906  55.153  -1.012  1.00  0.00    -0.000 C 
BRANCH  29  30
ATOM     30  C   UNL     1      10.638  53.912  -0.474  1.00  0.00    -0.000 C 
BRANCH  30  31
ATOM     31  C   UNL     1      10.496  52.697  -1.404  1.00  0.00    -0.003 C 
ATOM     32  C   UNL     1       9.845  51.500  -0.711  1.00  0.00     0.004 C 
ENDBRANCH  30  31
ENDBRANCH  29  30
ENDBRANCH  28  29
ENDBRANCH  27  28
ENDBRANCH  26  27
ENDBRANCH  25  26
ENDBRANCH  24  25
ENDBRANCH  23  24
ENDBRANCH  22  23
ENDBRANCH  21  22
ENDBRANCH  20  21
ENDBRANCH  19  20
ENDBRANCH  18  19
ENDBRANCH   1  18
TORSDOF 28
ENDMDL
MODEL 8
REMARK VINA RESULT:    -4.056      1.639      4.416
REMARK INTER + INTRA:         -17.136
REMARK INTER:                 -11.206
REMARK INTRA:                  -5.930
REMARK UNBOUND:                -6.441
REMARK SMILES CCCCCCCCCCCCCCCCCCCCCCCCCCCCCC(=O)[O-]
REMARK SMILES IDX 16 1 17 2 18 3 19 4 20 5 21 6 22 7 23 8 24 9 25 10 26 11
REMARK SMILES IDX 27 12 28 13 29 14 30 15 31 16 32 17 15 18 14 19 13 20 12 21
REMARK SMILES IDX 11 22 10 23 9 24 8 25 7 26 6 27 5 28 4 29 3 30 2 31 1 32
REMARK H PARENT
REMARK Flexibility Score: inf
ROOT
ATOM      1  C   UNL     1       4.987  51.618   1.187  1.00  0.00     0.000 C 
ENDROOT
BRANCH   1   2
ATOM      2  C   UNL     1       5.342  53.113   1.325  1.00  0.00     0.000 C 
BRANCH   2   3
ATOM      3  C   UNL     1       4.144  54.075   1.497  1.00  0.00     0.000 C 
BRANCH   3   4
ATOM      4  C   UNL     1       3.940  55.081   0.351  1.00  0.00     0.000 C 
BRANCH   4   5
ATOM      5  C   UNL     1       5.230  55.832  -0.019  1.00  0.00     0.000 C 
BRANCH   5   6
ATOM      6  C   UNL     1       5.294  57.229   0.619  1.00  0.00     0.000 C 
BRANCH   6   7
ATOM      7  C   UNL     1       6.627  57.473   1.350  1.00  0.00     0.000 C 
BRANCH   7   8
ATOM      8  C   UNL     1       7.196  56.201   2.004  1.00  0.00     0.000 C 
BRANCH   8   9
ATOM      9  C   UNL     1       8.678  55.908   1.678  1.00  0.00     0.000 C 
BRANCH   9  10
ATOM     10  C   UNL     1       9.436  57.101   1.065  1.00  0.00     0.000 C 
BRANCH  10  11
ATOM     11  C   UNL     1      10.216  56.796  -0.229  1.00  0.00     0.000 C 
BRANCH  11  12
ATOM     12  C   UNL     1       9.719  57.538  -1.484  1.00  0.00     0.000 C 
BRANCH  12  13
ATOM     13  C   UNL     1       8.327  57.075  -1.945  1.00  0.00     0.006 C 
BRANCH  13  14
ATOM     14  C   UNL     1       7.508  58.222  -2.554  1.00  0.00     0.053 C 
BRANCH  14  15
ATOM     15  C   UNL     1       8.013  58.613  -3.910  1.00  0.00     0.041 C 
ATOM     16  O   UNL     1       8.264  57.730  -4.774  1.00  0.00    -0.550 OA
ATOM     17  O   UNL     1       8.205  59.953  -4.221  1.00  0.00    -0.550 OA
ENDBRANCH  14  15
ENDBRANCH  13  14
ENDBRANCH  12  13
ENDBRANCH  11  12
ENDBRANCH  10  11
ENDBRANCH   9  10
ENDBRANCH   8   9
ENDBRANCH   7   8
ENDBRANCH   6   7
ENDBRANCH   5   6
ENDBRANCH   4   5
ENDBRANCH   3   4
ENDBRANCH   2   3
ENDBRANCH   1   2
BRANCH   1  18
ATOM     18  C   UNL     1       3.519  51.266   1.519  1.00  0.00     0.000 C 
BRANCH  18  19
ATOM     19  C   UNL     1       2.725  50.714   0.322  1.00  0.00     0.000 C 
BRANCH  19  20
ATOM     20  C   UNL     1       2.314  51.764  -0.726  1.00  0.00     0.000 C 
BRANCH  20  21
ATOM     21  C   UNL     1       2.954  51.592  -2.117  1.00  0.00     0.000 C 
BRANCH  21  22
ATOM     22  C   UNL     1       4.098  52.586  -2.379  1.00  0.00     0.000 C 
BRANCH  22  23
ATOM     23  C   UNL     1       5.293  51.942  -3.105  1.00  0.00     0.000 C 
BRANCH  23  24
ATOM     24  C   UNL     1       6.643  52.045  -2.365  1.00  0.00    -0.000 C 
BRANCH  24  25
ATOM     25  C   UNL     1       7.059  53.471  -1.949  1.00  0.00    -0.000 C 
BRANCH  25  26
ATOM     26  C   UNL     1       8.226  53.537  -0.947  1.00  0.00    -0.000 C 
BRANCH  26  27
ATOM     27  C   UNL     1       9.601  53.457  -1.632  1.00  0.00    -0.000 C 
BRANCH  27  28
ATOM     28  C   UNL     1      10.313  52.114  -1.391  1.00  0.00    -0.000 C 
BRANCH  28  29
ATOM     29  C   UNL     1      11.614  52.206  -0.571  1.00  0.00    -0.000 C 
BRANCH  29  30
ATOM     30  C   UNL     1      11.372  52.601   0.896  1.00  0.00    -0.000 C 
BRANCH  30  31
ATOM     31  C   UNL     1      10.676  51.489   1.696  1.00  0.00    -0.003 C 
ATOM     32  C   UNL     1       9.265  51.877   2.138  1.00  0.00     0.004 C 
ENDBRANCH  30  31
ENDBRANCH  29  30
ENDBRANCH  28  29
ENDBRANCH  27  28
ENDBRANCH  26  27
ENDBRANCH  25  26
ENDBRANCH  24  25
ENDBRANCH  23  24
ENDBRANCH  22  23
ENDBRANCH  21  22
ENDBRANCH  20  21
ENDBRANCH  19  20
ENDBRANCH  18  19
ENDBRANCH   1  18
TORSDOF 28
ENDMDL
MODEL 9
REMARK VINA RESULT:    -4.008      1.805      6.436
REMARK INTER + INTRA:         -17.009
REMARK INTER:                 -10.752
REMARK INTRA:                  -6.257
REMARK UNBOUND:                -6.441
REMARK SMILES CCCCCCCCCCCCCCCCCCCCCCCCCCCCCC(=O)[O-]
REMARK SMILES IDX 16 1 17 2 18 3 19 4 20 5 21 6 22 7 23 8 24 9 25 10 26 11
REMARK SMILES IDX 27 12 28 13 29 14 30 15 31 16 32 17 15 18 14 19 13 20 12 21
REMARK SMILES IDX 11 22 10 23 9 24 8 25 7 26 6 27 5 28 4 29 3 30 2 31 1 32
REMARK H PARENT
REMARK Flexibility Score: inf
ROOT
ATOM      1  C   UNL     1       5.740  52.556  -3.379  1.00  0.00     0.000 C 
ENDROOT
BRANCH   1   2
ATOM      2  C   UNL     1       4.355  51.977  -3.737  1.00  0.00     0.000 C 
BRANCH   2   3
ATOM      3  C   UNL     1       3.231  52.245  -2.712  1.00  0.00     0.000 C 
BRANCH   3   4
ATOM      4  C   UNL     1       2.656  50.994  -2.025  1.00  0.00     0.000 C 
BRANCH   4   5
ATOM      5  C   UNL     1       1.887  51.323  -0.734  1.00  0.00     0.000 C 
BRANCH   5   6
ATOM      6  C   UNL     1       2.558  50.722   0.512  1.00  0.00     0.000 C 
BRANCH   6   7
ATOM      7  C   UNL     1       3.925  51.367   0.804  1.00  0.00     0.000 C 
BRANCH   7   8
ATOM      8  C   UNL     1       3.808  52.739   1.495  1.00  0.00     0.000 C 
BRANCH   8   9
ATOM      9  C   UNL     1       4.207  53.946   0.616  1.00  0.00     0.000 C 
BRANCH   9  10
ATOM     10  C   UNL     1       3.012  54.705   0.007  1.00  0.00     0.000 C 
BRANCH  10  11
ATOM     11  C   UNL     1       3.374  55.949  -0.828  1.00  0.00     0.000 C 
BRANCH  11  12
ATOM     12  C   UNL     1       4.319  55.689  -2.016  1.00  0.00     0.000 C 
BRANCH  12  13
ATOM     13  C   UNL     1       5.739  56.234  -1.786  1.00  0.00     0.006 C 
BRANCH  13  14
ATOM     14  C   UNL     1       6.174  57.202  -2.895  1.00  0.00     0.053 C 
BRANCH  14  15
ATOM     15  C   UNL     1       7.472  56.790  -3.521  1.00  0.00     0.041 C 
ATOM     16  O   UNL     1       8.448  57.588  -3.545  1.00  0.00    -0.550 OA
ATOM     17  O   UNL     1       7.607  55.523  -4.076  1.00  0.00    -0.550 OA
ENDBRANCH  14  15
ENDBRANCH  13  14
ENDBRANCH  12  13
ENDBRANCH  11  12
ENDBRANCH  10  11
ENDBRANCH   9  10
ENDBRANCH   8   9
ENDBRANCH   7   8
ENDBRANCH   6   7
ENDBRANCH   5   6
ENDBRANCH   4   5
ENDBRANCH   3   4
ENDBRANCH   2   3
ENDBRANCH   1   2
BRANCH   1  18
ATOM     18  C   UNL     1       6.238  52.215  -1.956  1.00  0.00     0.000 C 
BRANCH  18  19
ATOM     19  C   UNL     1       7.488  53.006  -1.528  1.00  0.00     0.000 C 
BRANCH  19  20
ATOM     20  C   UNL     1       8.793  52.189  -1.489  1.00  0.00     0.000 C 
BRANCH  20  21
ATOM     21  C   UNL     1      10.088  53.019  -1.416  1.00  0.00     0.000 C 
BRANCH  21  22
ATOM     22  C   UNL     1      11.322  52.178  -1.051  1.00  0.00     0.000 C 
BRANCH  22  23
ATOM     23  C   UNL     1      11.657  52.231   0.451  1.00  0.00     0.000 C 
BRANCH  23  24
ATOM     24  C   UNL     1      11.028  53.408   1.222  1.00  0.00    -0.000 C 
BRANCH  24  25
ATOM     25  C   UNL     1      10.211  53.017   2.471  1.00  0.00    -0.000 C 
BRANCH  25  26
ATOM     26  C   UNL     1       9.057  52.033   2.206  1.00  0.00    -0.000 C 
BRANCH  26  27
ATOM     27  C   UNL     1       7.699  52.740   2.055  1.00  0.00    -0.000 C 
BRANCH  27  28
ATOM     28  C   UNL     1       7.693  54.160   2.647  1.00  0.00    -0.000 C 
BRANCH  28  29
ATOM     29  C   UNL     1       7.341  55.280   1.650  1.00  0.00    -0.000 C 
BRANCH  29  30
ATOM     30  C   UNL     1       8.531  56.203   1.339  1.00  0.00    -0.000 C 
BRANCH  30  31
ATOM     31  C   UNL     1       8.908  56.193  -0.151  1.00  0.00    -0.003 C 
ATOM     32  C   UNL     1      10.262  56.850  -0.419  1.00  0.00     0.004 C 
ENDBRANCH  30  31
ENDBRANCH  29  30
ENDBRANCH  28  29
ENDBRANCH  27  28
ENDBRANCH  26  27
ENDBRANCH  25  26
ENDBRANCH  24  25
ENDBRANCH  23  24
ENDBRANCH  22  23
ENDBRANCH  21  22
ENDBRANCH  20  21
ENDBRANCH  19  20
ENDBRANCH  18  19
ENDBRANCH   1  18
TORSDOF 28
ENDMDL
