MODEL 1
REMARK VINA RESULT:    22.279      0.000      0.000
REMARK INTER + INTRA:          30.930
REMARK INTER:                  30.745
REMARK INTRA:                   0.185
REMARK UNBOUND:                 0.185
REMARK SMILES CC[C@@H](CC[C@@H](C)[C@H]1CC[C@@H]2[C@H]3CC=C4C[C@@H](O)CC[C@]4(C)[C@H]3CC[C@@]21C)C(C)C
REMARK SMILES IDX 5 1 4 2 3 3 2 4 1 5 28 6 29 7 30 8 6 9 7 10 8 11 9 12 26 13
REMARK SMILES IDX 10 14 11 15 25 16 27 17 12 18 24 19 23 20 13 21 21 22 14 23
REMARK SMILES IDX 15 24 20 25 22 26 16 27 19 28 17 29 18 30
REMARK H PARENT 18 31
REMARK Flexibility Score: inf
ROOT
ATOM      1  C   UNL     1     -16.242  -9.339 -18.624  1.00  0.00     0.004 C 
ENDROOT
BRANCH   1   2
ATOM      2  C   UNL     1     -16.149  -8.461 -19.899  1.00  0.00     0.004 C 
BRANCH   2   3
ATOM      3  C   UNL     1     -15.859  -6.958 -19.613  1.00  0.00    -0.009 C 
BRANCH   3   4
ATOM      4  C   UNL     1     -16.426  -6.056 -20.742  1.00  0.00     0.000 C 
ATOM      5  C   UNL     1     -16.920  -4.700 -20.229  1.00  0.00     0.004 C 
ENDBRANCH   3   4
BRANCH   3   6
ATOM      6  C   UNL     1     -14.335  -6.708 -19.353  1.00  0.00    -0.014 C 
ATOM      7  C   UNL     1     -13.763  -5.498 -20.117  1.00  0.00     0.007 C 
ATOM      8  C   UNL     1     -14.032  -6.573 -17.853  1.00  0.00     0.007 C 
ENDBRANCH   3   6
ENDBRANCH   2   3
ENDBRANCH   1   2
BRANCH   1   9
ATOM      9  C   UNL     1     -15.956 -10.863 -18.811  1.00  0.00    -0.011 C 
ATOM     10  C   UNL     1     -17.040 -11.690 -18.103  1.00  0.00     0.008 C 
BRANCH   9  11
ATOM     11  C   UNL     1     -15.726 -11.285 -20.312  1.00  0.00    -0.002 C 
ATOM     12  C   UNL     1     -14.254 -11.675 -20.568  1.00  0.00     0.005 C 
ATOM     13  C   UNL     1     -16.542 -12.490 -20.891  1.00  0.00    -0.026 C 
ATOM     14  C   UNL     1     -14.241 -12.779 -21.621  1.00  0.00     0.005 C 
ATOM     15  C   UNL     1     -15.688 -12.933 -22.112  1.00  0.00    -0.001 C 
ATOM     16  C   UNL     1     -18.001 -12.176 -21.323  1.00  0.00     0.007 C 
ATOM     17  C   UNL     1     -16.606 -13.660 -19.867  1.00  0.00     0.012 C 
ATOM     18  C   UNL     1     -15.887 -12.087 -23.423  1.00  0.00     0.000 C 
ATOM     19  C   UNL     1     -18.131 -11.242 -22.520  1.00  0.00     0.005 C 
ATOM     20  C   UNL     1     -17.356 -11.715 -23.769  1.00  0.00     0.003 C 
ATOM     21  C   UNL     1     -15.131 -12.742 -24.618  1.00  0.00     0.031 C 
ATOM     22  C   UNL     1     -18.084 -12.698 -24.771  1.00  0.00    -0.008 C 
ATOM     23  C   UNL     1     -15.865 -12.764 -25.931  1.00  0.00    -0.027 C 
ATOM     24  C   UNL     1     -17.209 -12.805 -26.025  1.00  0.00    -0.065 C 
ATOM     25  C   UNL     1     -19.481 -12.104 -25.152  1.00  0.00     0.014 C 
ATOM     26  C   UNL     1     -18.282 -14.123 -24.206  1.00  0.00     0.016 C 
ATOM     27  C   UNL     1     -17.818 -13.189 -27.362  1.00  0.00     0.063 C 
ATOM     28  C   UNL     1     -20.090 -12.689 -26.430  1.00  0.00     0.033 C 
ATOM     29  C   UNL     1     -19.149 -12.478 -27.614  1.00  0.00     0.118 C 
BRANCH  29  30
ATOM     30  O   UNL     1     -19.750 -12.991 -28.774  1.00  0.00    -0.393 OA
ATOM     31  H   UNL     1     -19.142 -12.780 -29.530  1.00  0.00     0.210 HD
ENDBRANCH  29  30
ENDBRANCH   9  11
ENDBRANCH   1   9
TORSDOF 7
ENDMDL
MODEL 2
REMARK VINA RESULT:    22.896      5.032     11.068
REMARK INTER + INTRA:          31.782
REMARK INTER:                  30.408
REMARK INTRA:                   1.373
REMARK UNBOUND:                 0.185
REMARK SMILES CC[C@@H](CC[C@@H](C)[C@H]1CC[C@@H]2[C@H]3CC=C4C[C@@H](O)CC[C@]4(C)[C@H]3CC[C@@]21C)C(C)C
REMARK SMILES IDX 5 1 4 2 3 3 2 4 1 5 28 6 29 7 30 8 6 9 7 10 8 11 9 12 26 13
REMARK SMILES IDX 10 14 11 15 25 16 27 17 12 18 24 19 23 20 13 21 21 22 14 23
REMARK SMILES IDX 15 24 20 25 22 26 16 27 19 28 17 29 18 30
REMARK H PARENT 18 31
REMARK Flexibility Score: inf
ROOT
ATOM      1  C   UNL     1     -16.327  -7.982 -20.983  1.00  0.00     0.004 C 
ENDROOT
BRANCH   1   2
ATOM      2  C   UNL     1     -16.079  -9.220 -20.083  1.00  0.00     0.004 C 
BRANCH   2   3
ATOM      3  C   UNL     1     -17.080 -10.387 -20.322  1.00  0.00    -0.009 C 
BRANCH   3   4
ATOM      4  C   UNL     1     -17.580 -10.978 -18.975  1.00  0.00     0.000 C 
ATOM      5  C   UNL     1     -16.686 -12.106 -18.452  1.00  0.00     0.004 C 
ENDBRANCH   3   4
BRANCH   3   6
ATOM      6  C   UNL     1     -16.473 -11.479 -21.267  1.00  0.00    -0.014 C 
ATOM      7  C   UNL     1     -15.274 -12.232 -20.661  1.00  0.00     0.007 C 
ATOM      8  C   UNL     1     -17.541 -12.480 -21.732  1.00  0.00     0.007 C 
ENDBRANCH   3   6
ENDBRANCH   2   3
ENDBRANCH   1   2
BRANCH   1   9
ATOM      9  C   UNL     1     -15.551  -6.681 -20.602  1.00  0.00    -0.011 C 
ATOM     10  C   UNL     1     -16.419  -5.448 -20.896  1.00  0.00     0.008 C 
BRANCH   9  11
ATOM     11  C   UNL     1     -14.962  -6.700 -19.141  1.00  0.00    -0.002 C 
ATOM     12  C   UNL     1     -13.946  -7.848 -18.958  1.00  0.00     0.005 C 
ATOM     13  C   UNL     1     -14.201  -5.436 -18.616  1.00  0.00    -0.026 C 
ATOM     14  C   UNL     1     -12.875  -7.372 -17.981  1.00  0.00     0.005 C 
ATOM     15  C   UNL     1     -13.339  -6.006 -17.455  1.00  0.00    -0.001 C 
ATOM     16  C   UNL     1     -15.093  -4.266 -18.119  1.00  0.00     0.007 C 
ATOM     17  C   UNL     1     -13.257  -4.862 -19.713  1.00  0.00     0.012 C 
ATOM     18  C   UNL     1     -14.088  -6.200 -16.085  1.00  0.00     0.000 C 
ATOM     19  C   UNL     1     -15.898  -4.561 -16.859  1.00  0.00     0.005 C 
ATOM     20  C   UNL     1     -15.042  -5.046 -15.669  1.00  0.00     0.003 C 
ATOM     21  C   UNL     1     -13.082  -6.588 -14.961  1.00  0.00     0.031 C 
ATOM     22  C   UNL     1     -14.411  -3.958 -14.711  1.00  0.00    -0.008 C 
ATOM     23  C   UNL     1     -13.289  -5.919 -13.630  1.00  0.00    -0.027 C 
ATOM     24  C   UNL     1     -13.837  -4.695 -13.495  1.00  0.00    -0.065 C 
ATOM     25  C   UNL     1     -15.530  -2.967 -14.248  1.00  0.00     0.014 C 
ATOM     26  C   UNL     1     -13.264  -3.151 -15.363  1.00  0.00     0.016 C 
ATOM     27  C   UNL     1     -13.665  -3.978 -12.169  1.00  0.00     0.063 C 
ATOM     28  C   UNL     1     -15.181  -2.161 -12.993  1.00  0.00     0.033 C 
ATOM     29  C   UNL     1     -14.868  -3.098 -11.828  1.00  0.00     0.118 C 
BRANCH  29  30
ATOM     30  O   UNL     1     -14.590  -2.331 -10.686  1.00  0.00    -0.393 OA
ATOM     31  H   UNL     1     -15.286  -2.553 -10.014  1.00  0.00     0.210 HD
ENDBRANCH  29  30
ENDBRANCH   9  11
ENDBRANCH   1   9
TORSDOF 7
ENDMDL
MODEL 3
REMARK VINA RESULT:    23.206      4.017      8.270
REMARK INTER + INTRA:          32.209
REMARK INTER:                  32.431
REMARK INTRA:                  -0.223
REMARK UNBOUND:                 0.185
REMARK SMILES CC[C@@H](CC[C@@H](C)[C@H]1CC[C@@H]2[C@H]3CC=C4C[C@@H](O)CC[C@]4(C)[C@H]3CC[C@@]21C)C(C)C
REMARK SMILES IDX 5 1 4 2 3 3 2 4 1 5 28 6 29 7 30 8 6 9 7 10 8 11 9 12 26 13
REMARK SMILES IDX 10 14 11 15 25 16 27 17 12 18 24 19 23 20 13 21 21 22 14 23
REMARK SMILES IDX 15 24 20 25 22 26 16 27 19 28 17 29 18 30
REMARK H PARENT 18 31
REMARK Flexibility Score: inf
ROOT
ATOM      1  C   UNL     1     -17.786 -11.779 -25.175  1.00  0.00     0.004 C 
ENDROOT
BRANCH   1   2
ATOM      2  C   UNL     1     -17.642 -12.378 -26.598  1.00  0.00     0.004 C 
BRANCH   2   3
ATOM      3  C   UNL     1     -18.381 -11.568 -27.704  1.00  0.00    -0.009 C 
BRANCH   3   4
ATOM      4  C   UNL     1     -18.581 -10.089 -27.272  1.00  0.00     0.000 C 
ATOM      5  C   UNL     1     -17.552  -9.142 -27.897  1.00  0.00     0.004 C 
ENDBRANCH   3   4
BRANCH   3   6
ATOM      6  C   UNL     1     -19.724 -12.258 -28.119  1.00  0.00    -0.014 C 
ATOM      7  C   UNL     1     -20.003 -13.579 -27.377  1.00  0.00     0.007 C 
ATOM      8  C   UNL     1     -20.920 -11.306 -27.964  1.00  0.00     0.007 C 
ENDBRANCH   3   6
ENDBRANCH   2   3
ENDBRANCH   1   2
BRANCH   1   9
ATOM      9  C   UNL     1     -18.464 -12.691 -24.104  1.00  0.00    -0.011 C 
ATOM     10  C   UNL     1     -19.051 -13.941 -24.777  1.00  0.00     0.008 C 
BRANCH   9  11
ATOM     11  C   UNL     1     -17.537 -13.018 -22.873  1.00  0.00    -0.002 C 
ATOM     12  C   UNL     1     -16.065 -13.187 -23.305  1.00  0.00     0.005 C 
ATOM     13  C   UNL     1     -17.467 -11.997 -21.687  1.00  0.00    -0.026 C 
ATOM     14  C   UNL     1     -15.184 -12.677 -22.169  1.00  0.00     0.005 C 
ATOM     15  C   UNL     1     -16.122 -12.358 -20.997  1.00  0.00    -0.001 C 
ATOM     16  C   UNL     1     -18.642 -12.055 -20.673  1.00  0.00     0.007 C 
ATOM     17  C   UNL     1     -17.388 -10.536 -22.218  1.00  0.00     0.012 C 
ATOM     18  C   UNL     1     -16.171 -13.588 -20.016  1.00  0.00     0.000 C 
ATOM     19  C   UNL     1     -18.714 -13.331 -19.843  1.00  0.00     0.005 C 
ATOM     20  C   UNL     1     -17.410 -13.657 -19.082  1.00  0.00     0.003 C 
ATOM     21  C   UNL     1     -14.824 -13.728 -19.246  1.00  0.00     0.031 C 
ATOM     22  C   UNL     1     -17.210 -13.029 -17.644  1.00  0.00    -0.008 C 
ATOM     23  C   UNL     1     -14.932 -14.061 -17.783  1.00  0.00    -0.027 C 
ATOM     24  C   UNL     1     -15.981 -13.700 -17.019  1.00  0.00    -0.065 C 
ATOM     25  C   UNL     1     -18.475 -13.324 -16.772  1.00  0.00     0.014 C 
ATOM     26  C   UNL     1     -16.959 -11.504 -17.665  1.00  0.00     0.016 C 
ATOM     27  C   UNL     1     -15.821 -13.764 -15.511  1.00  0.00     0.063 C 
ATOM     28  C   UNL     1     -18.247 -13.189 -15.263  1.00  0.00     0.033 C 
ATOM     29  C   UNL     1     -17.130 -14.125 -14.806  1.00  0.00     0.118 C 
BRANCH  29  30
ATOM     30  O   UNL     1     -16.971 -14.005 -13.417  1.00  0.00    -0.393 OA
ATOM     31  H   UNL     1     -15.996 -13.936 -13.244  1.00  0.00     0.210 HD
ENDBRANCH  29  30
ENDBRANCH   9  11
ENDBRANCH   1   9
TORSDOF 7
ENDMDL
MODEL 4
REMARK VINA RESULT:    23.389      4.106      7.797
REMARK INTER + INTRA:          32.462
REMARK INTER:                  28.044
REMARK INTRA:                   4.418
REMARK UNBOUND:                 0.185
REMARK SMILES CC[C@@H](CC[C@@H](C)[C@H]1CC[C@@H]2[C@H]3CC=C4C[C@@H](O)CC[C@]4(C)[C@H]3CC[C@@]21C)C(C)C
REMARK SMILES IDX 5 1 4 2 3 3 2 4 1 5 28 6 29 7 30 8 6 9 7 10 8 11 9 12 26 13
REMARK SMILES IDX 10 14 11 15 25 16 27 17 12 18 24 19 23 20 13 21 21 22 14 23
REMARK SMILES IDX 15 24 20 25 22 26 16 27 19 28 17 29 18 30
REMARK H PARENT 18 31
REMARK Flexibility Score: inf
ROOT
ATOM      1  C   UNL     1     -19.021 -12.174 -25.268  1.00  0.00     0.004 C 
ENDROOT
BRANCH   1   2
ATOM      2  C   UNL     1     -19.646 -11.924 -26.665  1.00  0.00     0.004 C 
BRANCH   2   3
ATOM      3  C   UNL     1     -18.709 -11.168 -27.652  1.00  0.00    -0.009 C 
BRANCH   3   4
ATOM      4  C   UNL     1     -17.281 -11.777 -27.642  1.00  0.00     0.000 C 
ATOM      5  C   UNL     1     -16.530 -11.512 -26.334  1.00  0.00     0.004 C 
ENDBRANCH   3   4
BRANCH   3   6
ATOM      6  C   UNL     1     -18.706  -9.627 -27.372  1.00  0.00    -0.014 C 
ATOM      7  C   UNL     1     -17.342  -8.952 -27.611  1.00  0.00     0.007 C 
ATOM      8  C   UNL     1     -19.798  -8.905 -28.176  1.00  0.00     0.007 C 
ENDBRANCH   3   6
ENDBRANCH   2   3
ENDBRANCH   1   2
BRANCH   1   9
ATOM      9  C   UNL     1     -18.385 -13.580 -25.034  1.00  0.00    -0.011 C 
ATOM     10  C   UNL     1     -17.732 -14.083 -26.331  1.00  0.00     0.008 C 
BRANCH   9  11
ATOM     11  C   UNL     1     -17.426 -13.643 -23.785  1.00  0.00    -0.002 C 
ATOM     12  C   UNL     1     -15.944 -13.552 -24.208  1.00  0.00     0.005 C 
ATOM     13  C   UNL     1     -17.567 -12.552 -22.670  1.00  0.00    -0.026 C 
ATOM     14  C   UNL     1     -15.190 -12.809 -23.109  1.00  0.00     0.005 C 
ATOM     15  C   UNL     1     -16.186 -12.601 -21.959  1.00  0.00    -0.001 C 
ATOM     16  C   UNL     1     -18.720 -12.770 -21.651  1.00  0.00     0.007 C 
ATOM     17  C   UNL     1     -17.765 -11.141 -23.295  1.00  0.00     0.012 C 
ATOM     18  C   UNL     1     -16.007 -13.751 -20.900  1.00  0.00     0.000 C 
ATOM     19  C   UNL     1     -18.553 -13.980 -20.740  1.00  0.00     0.005 C 
ATOM     20  C   UNL     1     -17.220 -13.998 -19.961  1.00  0.00     0.003 C 
ATOM     21  C   UNL     1     -14.667 -13.578 -20.125  1.00  0.00     0.031 C 
ATOM     22  C   UNL     1     -17.160 -13.251 -18.568  1.00  0.00    -0.008 C 
ATOM     23  C   UNL     1     -14.724 -13.830 -18.643  1.00  0.00    -0.027 C 
ATOM     24  C   UNL     1     -15.832 -13.631 -17.902  1.00  0.00    -0.065 C 
ATOM     25  C   UNL     1     -18.354 -13.728 -17.676  1.00  0.00     0.014 C 
ATOM     26  C   UNL     1     -17.208 -11.711 -18.689  1.00  0.00     0.016 C 
ATOM     27  C   UNL     1     -15.679 -13.565 -16.393  1.00  0.00     0.063 C 
ATOM     28  C   UNL     1     -18.173 -13.454 -16.179  1.00  0.00     0.033 C 
ATOM     29  C   UNL     1     -16.902 -14.125 -15.664  1.00  0.00     0.118 C 
BRANCH  29  30
ATOM     30  O   UNL     1     -16.785 -13.887 -14.286  1.00  0.00    -0.393 OA
ATOM     31  H   UNL     1     -17.131 -14.695 -13.824  1.00  0.00     0.210 HD
ENDBRANCH  29  30
ENDBRANCH   9  11
ENDBRANCH   1   9
TORSDOF 7
ENDMDL
MODEL 5
REMARK VINA RESULT:    23.666      4.029      8.293
REMARK INTER + INTRA:          32.844
REMARK INTER:                  31.813
REMARK INTRA:                   1.031
REMARK UNBOUND:                 0.185
REMARK SMILES CC[C@@H](CC[C@@H](C)[C@H]1CC[C@@H]2[C@H]3CC=C4C[C@@H](O)CC[C@]4(C)[C@H]3CC[C@@]21C)C(C)C
REMARK SMILES IDX 5 1 4 2 3 3 2 4 1 5 28 6 29 7 30 8 6 9 7 10 8 11 9 12 26 13
REMARK SMILES IDX 10 14 11 15 25 16 27 17 12 18 24 19 23 20 13 21 21 22 14 23
REMARK SMILES IDX 15 24 20 25 22 26 16 27 19 28 17 29 18 30
REMARK H PARENT 18 31
REMARK Flexibility Score: inf
ROOT
ATOM      1  C   UNL     1     -17.009 -12.015 -24.468  1.00  0.00     0.004 C 
ENDROOT
BRANCH   1   2
ATOM      2  C   UNL     1     -17.744 -11.922 -25.830  1.00  0.00     0.004 C 
BRANCH   2   3
ATOM      3  C   UNL     1     -19.202 -12.468 -25.801  1.00  0.00    -0.009 C 
BRANCH   3   4
ATOM      4  C   UNL     1     -19.237 -13.939 -25.305  1.00  0.00     0.000 C 
ATOM      5  C   UNL     1     -19.214 -14.052 -23.777  1.00  0.00     0.004 C 
ENDBRANCH   3   4
BRANCH   3   6
ATOM      6  C   UNL     1     -19.910 -12.286 -27.186  1.00  0.00    -0.014 C 
ATOM      7  C   UNL     1     -19.112 -11.429 -28.187  1.00  0.00     0.007 C 
ATOM      8  C   UNL     1     -20.266 -13.640 -27.821  1.00  0.00     0.007 C 
ENDBRANCH   3   6
ENDBRANCH   2   3
ENDBRANCH   1   2
BRANCH   1   9
ATOM      9  C   UNL     1     -16.309 -13.374 -24.150  1.00  0.00    -0.011 C 
ATOM     10  C   UNL     1     -15.249 -13.681 -25.220  1.00  0.00     0.008 C 
BRANCH   9  11
ATOM     11  C   UNL     1     -15.758 -13.472 -22.677  1.00  0.00    -0.002 C 
ATOM     12  C   UNL     1     -14.217 -13.394 -22.645  1.00  0.00     0.005 C 
ATOM     13  C   UNL     1     -16.212 -12.402 -21.627  1.00  0.00    -0.026 C 
ATOM     14  C   UNL     1     -13.813 -12.682 -21.357  1.00  0.00     0.005 C 
ATOM     15  C   UNL     1     -15.101 -12.483 -20.545  1.00  0.00    -0.001 C 
ATOM     16  C   UNL     1     -17.615 -12.624 -20.997  1.00  0.00     0.007 C 
ATOM     17  C   UNL     1     -16.208 -10.977 -22.252  1.00  0.00     0.012 C 
ATOM     18  C   UNL     1     -15.249 -13.655 -19.505  1.00  0.00     0.000 C 
ATOM     19  C   UNL     1     -17.732 -13.853 -20.103  1.00  0.00     0.005 C 
ATOM     20  C   UNL     1     -16.686 -13.903 -18.968  1.00  0.00     0.003 C 
ATOM     21  C   UNL     1     -14.193 -13.515 -18.368  1.00  0.00     0.031 C 
ATOM     22  C   UNL     1     -17.031 -13.185 -17.603  1.00  0.00    -0.008 C 
ATOM     23  C   UNL     1     -14.685 -13.795 -16.974  1.00  0.00    -0.027 C 
ATOM     24  C   UNL     1     -15.960 -13.595 -16.586  1.00  0.00    -0.065 C 
ATOM     25  C   UNL     1     -18.438 -13.662 -17.111  1.00  0.00     0.014 C 
ATOM     26  C   UNL     1     -17.031 -11.642 -17.699  1.00  0.00     0.016 C 
ATOM     27  C   UNL     1     -16.256 -13.560 -15.097  1.00  0.00     0.063 C 
ATOM     28  C   UNL     1     -18.702 -13.420 -15.621  1.00  0.00     0.033 C 
ATOM     29  C   UNL     1     -17.642 -14.117 -14.771  1.00  0.00     0.118 C 
BRANCH  29  30
ATOM     30  O   UNL     1     -17.933 -13.907 -13.414  1.00  0.00    -0.393 OA
ATOM     31  H   UNL     1     -17.588 -13.005 -13.183  1.00  0.00     0.210 HD
ENDBRANCH  29  30
ENDBRANCH   9  11
ENDBRANCH   1   9
TORSDOF 7
ENDMDL
MODEL 6
REMARK VINA RESULT:    24.196      3.974      7.664
REMARK INTER + INTRA:          33.575
REMARK INTER:                  30.968
REMARK INTRA:                   2.607
REMARK UNBOUND:                 0.185
REMARK SMILES CC[C@@H](CC[C@@H](C)[C@H]1CC[C@@H]2[C@H]3CC=C4C[C@@H](O)CC[C@]4(C)[C@H]3CC[C@@]21C)C(C)C
REMARK SMILES IDX 5 1 4 2 3 3 2 4 1 5 28 6 29 7 30 8 6 9 7 10 8 11 9 12 26 13
REMARK SMILES IDX 10 14 11 15 25 16 27 17 12 18 24 19 23 20 13 21 21 22 14 23
REMARK SMILES IDX 15 24 20 25 22 26 16 27 19 28 17 29 18 30
REMARK H PARENT 18 31
REMARK Flexibility Score: inf
ROOT
ATOM      1  C   UNL     1     -19.067 -12.761 -25.961  1.00  0.00     0.004 C 
ENDROOT
BRANCH   1   2
ATOM      2  C   UNL     1     -19.716 -12.294 -27.290  1.00  0.00     0.004 C 
BRANCH   2   3
ATOM      3  C   UNL     1     -19.881 -10.751 -27.406  1.00  0.00    -0.009 C 
BRANCH   3   4
ATOM      4  C   UNL     1     -21.132 -10.385 -28.250  1.00  0.00     0.000 C 
ATOM      5  C   UNL     1     -21.452  -8.887 -28.223  1.00  0.00     0.004 C 
ENDBRANCH   3   4
BRANCH   3   6
ATOM      6  C   UNL     1     -18.575 -10.074 -27.946  1.00  0.00    -0.014 C 
ATOM      7  C   UNL     1     -18.523  -8.550 -27.721  1.00  0.00     0.007 C 
ATOM      8  C   UNL     1     -17.315 -10.733 -27.364  1.00  0.00     0.007 C 
ENDBRANCH   3   6
ENDBRANCH   2   3
ENDBRANCH   1   2
BRANCH   1   9
ATOM      9  C   UNL     1     -17.766 -13.614 -26.087  1.00  0.00    -0.011 C 
ATOM     10  C   UNL     1     -16.974 -13.181 -27.330  1.00  0.00     0.008 C 
BRANCH   9  11
ATOM     11  C   UNL     1     -16.899 -13.644 -24.771  1.00  0.00    -0.002 C 
ATOM     12  C   UNL     1     -15.394 -13.500 -25.085  1.00  0.00     0.005 C 
ATOM     13  C   UNL     1     -17.160 -12.562 -23.669  1.00  0.00    -0.026 C 
ATOM     14  C   UNL     1     -14.749 -12.733 -23.934  1.00  0.00     0.005 C 
ATOM     15  C   UNL     1     -15.833 -12.563 -22.860  1.00  0.00    -0.001 C 
ATOM     16  C   UNL     1     -18.376 -12.822 -22.738  1.00  0.00     0.007 C 
ATOM     17  C   UNL     1     -17.361 -11.157 -24.309  1.00  0.00     0.012 C 
ATOM     18  C   UNL     1     -15.692 -13.708 -21.789  1.00  0.00     0.000 C 
ATOM     19  C   UNL     1     -18.234 -14.027 -21.816  1.00  0.00     0.005 C 
ATOM     20  C   UNL     1     -16.961 -13.999 -20.941  1.00  0.00     0.003 C 
ATOM     21  C   UNL     1     -14.419 -13.489 -20.918  1.00  0.00     0.031 C 
ATOM     22  C   UNL     1     -17.030 -13.253 -19.548  1.00  0.00    -0.008 C 
ATOM     23  C   UNL     1     -14.576 -13.746 -19.444  1.00  0.00    -0.027 C 
ATOM     24  C   UNL     1     -15.741 -13.587 -18.787  1.00  0.00    -0.065 C 
ATOM     25  C   UNL     1     -18.268 -13.773 -18.746  1.00  0.00     0.014 C 
ATOM     26  C   UNL     1     -17.123 -11.715 -19.674  1.00  0.00     0.016 C 
ATOM     27  C   UNL     1     -15.701 -13.518 -17.271  1.00  0.00     0.063 C 
ATOM     28  C   UNL     1     -18.207 -13.496 -17.240  1.00  0.00     0.033 C 
ATOM     29  C   UNL     1     -16.953 -14.122 -16.633  1.00  0.00     0.118 C 
BRANCH  29  30
ATOM     30  O   UNL     1     -16.946 -13.883 -15.250  1.00  0.00    -0.393 OA
ATOM     31  H   UNL     1     -16.103 -13.400 -15.046  1.00  0.00     0.210 HD
ENDBRANCH  29  30
ENDBRANCH   9  11
ENDBRANCH   1   9
TORSDOF 7
ENDMDL
MODEL 7
REMARK VINA RESULT:    24.941      3.877      7.677
REMARK INTER + INTRA:          34.604
REMARK INTER:                  34.107
REMARK INTRA:                   0.497
REMARK UNBOUND:                 0.185
REMARK SMILES CC[C@@H](CC[C@@H](C)[C@H]1CC[C@@H]2[C@H]3CC=C4C[C@@H](O)CC[C@]4(C)[C@H]3CC[C@@]21C)C(C)C
REMARK SMILES IDX 5 1 4 2 3 3 2 4 1 5 28 6 29 7 30 8 6 9 7 10 8 11 9 12 26 13
REMARK SMILES IDX 10 14 11 15 25 16 27 17 12 18 24 19 23 20 13 21 21 22 14 23
REMARK SMILES IDX 15 24 20 25 22 26 16 27 19 28 17 29 18 30
REMARK H PARENT 18 31
REMARK Flexibility Score: inf
ROOT
ATOM      1  C   UNL     1     -16.439 -12.115 -26.828  1.00  0.00     0.004 C 
ENDROOT
BRANCH   1   2
ATOM      2  C   UNL     1     -17.471 -12.124 -27.986  1.00  0.00     0.004 C 
BRANCH   2   3
ATOM      3  C   UNL     1     -18.787 -11.358 -27.667  1.00  0.00    -0.009 C 
BRANCH   3   4
ATOM      4  C   UNL     1     -18.488  -9.992 -26.991  1.00  0.00     0.000 C 
ATOM      5  C   UNL     1     -18.105  -8.902 -27.997  1.00  0.00     0.004 C 
ENDBRANCH   3   4
BRANCH   3   6
ATOM      6  C   UNL     1     -19.774 -12.239 -26.828  1.00  0.00    -0.014 C 
ATOM      7  C   UNL     1     -20.285 -13.486 -27.573  1.00  0.00     0.007 C 
ATOM      8  C   UNL     1     -19.160 -12.647 -25.480  1.00  0.00     0.007 C 
ENDBRANCH   3   6
ENDBRANCH   2   3
ENDBRANCH   1   2
BRANCH   1   9
ATOM      9  C   UNL     1     -15.836 -13.498 -26.427  1.00  0.00    -0.011 C 
ATOM     10  C   UNL     1     -14.816 -13.952 -27.483  1.00  0.00     0.008 C 
BRANCH   9  11
ATOM     11  C   UNL     1     -15.275 -13.541 -24.955  1.00  0.00    -0.002 C 
ATOM     12  C   UNL     1     -13.739 -13.388 -24.933  1.00  0.00     0.005 C 
ATOM     13  C   UNL     1     -15.775 -12.473 -23.924  1.00  0.00    -0.026 C 
ATOM     14  C   UNL     1     -13.364 -12.632 -23.661  1.00  0.00     0.005 C 
ATOM     15  C   UNL     1     -14.656 -12.479 -22.846  1.00  0.00    -0.001 C 
ATOM     16  C   UNL     1     -17.163 -12.749 -23.282  1.00  0.00     0.007 C 
ATOM     17  C   UNL     1     -15.842 -11.062 -24.577  1.00  0.00     0.012 C 
ATOM     18  C   UNL     1     -14.743 -13.637 -21.783  1.00  0.00     0.000 C 
ATOM     19  C   UNL     1     -17.217 -13.965 -22.364  1.00  0.00     0.005 C 
ATOM     20  C   UNL     1     -16.164 -13.943 -21.234  1.00  0.00     0.003 C 
ATOM     21  C   UNL     1     -13.691 -13.424 -20.654  1.00  0.00     0.031 C 
ATOM     22  C   UNL     1     -16.538 -13.214 -19.881  1.00  0.00    -0.008 C 
ATOM     23  C   UNL     1     -14.162 -13.699 -19.253  1.00  0.00    -0.027 C 
ATOM     24  C   UNL     1     -15.444 -13.552 -18.862  1.00  0.00    -0.065 C 
ATOM     25  C   UNL     1     -17.918 -13.749 -19.372  1.00  0.00     0.014 C 
ATOM     26  C   UNL     1     -16.611 -11.675 -20.007  1.00  0.00     0.016 C 
ATOM     27  C   UNL     1     -15.734 -13.502 -17.373  1.00  0.00     0.063 C 
ATOM     28  C   UNL     1     -18.187 -13.490 -17.886  1.00  0.00     0.033 C 
ATOM     29  C   UNL     1     -17.091 -14.118 -17.028  1.00  0.00     0.118 C 
BRANCH  29  30
ATOM     30  O   UNL     1     -17.385 -13.895 -15.674  1.00  0.00    -0.393 OA
ATOM     31  H   UNL     1     -18.374 -13.859 -15.597  1.00  0.00     0.210 HD
ENDBRANCH  29  30
ENDBRANCH   9  11
ENDBRANCH   1   9
TORSDOF 7
ENDMDL
