MODEL 1
REMARK VINA RESULT:    -4.604      0.000      0.000
REMARK INTER + INTRA:         -13.755
REMARK INTER:                 -12.139
REMARK INTRA:                  -1.616
REMARK UNBOUND:                -1.616
REMARK SMILES CCCCCCCCCCCCCCCCCCCCCCCCCCCCCC(=O)[O-]
REMARK SMILES IDX 16 1 17 2 18 3 19 4 20 5 21 6 22 7 23 8 24 9 25 10 26 11
REMARK SMILES IDX 27 12 28 13 29 14 30 15 31 16 32 17 15 18 14 19 13 20 12 21
REMARK SMILES IDX 11 22 10 23 9 24 8 25 7 26 6 27 5 28 4 29 3 30 2 31 1 32
REMARK H PARENT
REMARK Flexibility Score: inf
ROOT
ATOM      1  C   UNL     1      -2.231 -10.312   2.939  1.00  0.00     0.000 C 
ENDROOT
BRANCH   1   2
ATOM      2  C   UNL     1      -3.006  -9.383   3.888  1.00  0.00     0.000 C 
BRANCH   2   3
ATOM      3  C   UNL     1      -4.081 -10.122   4.708  1.00  0.00     0.000 C 
BRANCH   3   4
ATOM      4  C   UNL     1      -5.020  -9.216   5.530  1.00  0.00     0.000 C 
BRANCH   4   5
ATOM      5  C   UNL     1      -6.491  -9.198   5.068  1.00  0.00     0.000 C 
BRANCH   5   6
ATOM      6  C   UNL     1      -7.456  -8.428   5.989  1.00  0.00     0.000 C 
BRANCH   6   7
ATOM      7  C   UNL     1      -8.436  -7.528   5.215  1.00  0.00     0.000 C 
BRANCH   7   8
ATOM      8  C   UNL     1      -8.070  -6.032   5.323  1.00  0.00     0.000 C 
BRANCH   8   9
ATOM      9  C   UNL     1      -6.910  -5.737   6.293  1.00  0.00     0.000 C 
BRANCH   9  10
ATOM     10  C   UNL     1      -6.746  -4.259   6.692  1.00  0.00     0.000 C 
BRANCH  10  11
ATOM     11  C   UNL     1      -6.381  -3.308   5.537  1.00  0.00     0.000 C 
BRANCH  11  12
ATOM     12  C   UNL     1      -5.460  -2.158   5.975  1.00  0.00     0.000 C 
BRANCH  12  13
ATOM     13  C   UNL     1      -4.022  -2.627   6.268  1.00  0.00     0.006 C 
BRANCH  13  14
ATOM     14  C   UNL     1      -3.491  -3.688   5.289  1.00  0.00     0.053 C 
BRANCH  14  15
ATOM     15  C   UNL     1      -3.047  -4.933   5.996  1.00  0.00     0.041 C 
ATOM     16  O   UNL     1      -3.259  -5.074   7.229  1.00  0.00    -0.550 OA
ATOM     17  O   UNL     1      -2.368  -5.922   5.297  1.00  0.00    -0.550 OA
ENDBRANCH  14  15
ENDBRANCH  13  14
ENDBRANCH  12  13
ENDBRANCH  11  12
ENDBRANCH  10  11
ENDBRANCH   9  10
ENDBRANCH   8   9
ENDBRANCH   7   8
ENDBRANCH   6   7
ENDBRANCH   5   6
ENDBRANCH   4   5
ENDBRANCH   3   4
ENDBRANCH   2   3
ENDBRANCH   1   2
BRANCH   1  18
ATOM     18  C   UNL     1      -1.881  -9.632   1.605  1.00  0.00     0.000 C 
BRANCH  18  19
ATOM     19  C   UNL     1      -1.826 -10.619   0.427  1.00  0.00     0.000 C 
BRANCH  19  20
ATOM     20  C   UNL     1      -1.722  -9.897  -0.932  1.00  0.00     0.000 C 
BRANCH  20  21
ATOM     21  C   UNL     1      -0.781  -8.681  -0.917  1.00  0.00     0.000 C 
BRANCH  21  22
ATOM     22  C   UNL     1      -1.114  -7.655  -2.013  1.00  0.00     0.000 C 
BRANCH  22  23
ATOM     23  C   UNL     1       0.065  -6.716  -2.316  1.00  0.00     0.000 C 
BRANCH  23  24
ATOM     24  C   UNL     1       0.219  -5.605  -1.266  1.00  0.00    -0.000 C 
BRANCH  24  25
ATOM     25  C   UNL     1       0.759  -4.315  -1.904  1.00  0.00    -0.000 C 
BRANCH  25  26
ATOM     26  C   UNL     1       0.319  -3.050  -1.149  1.00  0.00    -0.000 C 
BRANCH  26  27
ATOM     27  C   UNL     1       0.464  -1.774  -1.997  1.00  0.00    -0.000 C 
BRANCH  27  28
ATOM     28  C   UNL     1       1.846  -1.660  -2.661  1.00  0.00    -0.000 C 
BRANCH  28  29
ATOM     29  C   UNL     1       2.819  -0.786  -1.851  1.00  0.00    -0.000 C 
BRANCH  29  30
ATOM     30  C   UNL     1       4.146  -0.528  -2.586  1.00  0.00    -0.000 C 
BRANCH  30  31
ATOM     31  C   UNL     1       5.405  -0.604  -1.703  1.00  0.00    -0.003 C 
ATOM     32  C   UNL     1       5.243   0.117  -0.366  1.00  0.00     0.004 C 
ENDBRANCH  30  31
ENDBRANCH  29  30
ENDBRANCH  28  29
ENDBRANCH  27  28
ENDBRANCH  26  27
ENDBRANCH  25  26
ENDBRANCH  24  25
ENDBRANCH  23  24
ENDBRANCH  22  23
ENDBRANCH  21  22
ENDBRANCH  20  21
ENDBRANCH  19  20
ENDBRANCH  18  19
ENDBRANCH   1  18
TORSDOF 28
ENDMDL
MODEL 2
REMARK VINA RESULT:    -4.336      1.066      2.070
REMARK INTER + INTRA:         -13.051
REMARK INTER:                 -11.101
REMARK INTRA:                  -1.949
REMARK UNBOUND:                -1.616
REMARK SMILES CCCCCCCCCCCCCCCCCCCCCCCCCCCCCC(=O)[O-]
REMARK SMILES IDX 16 1 17 2 18 3 19 4 20 5 21 6 22 7 23 8 24 9 25 10 26 11
REMARK SMILES IDX 27 12 28 13 29 14 30 15 31 16 32 17 15 18 14 19 13 20 12 21
REMARK SMILES IDX 11 22 10 23 9 24 8 25 7 26 6 27 5 28 4 29 3 30 2 31 1 32
REMARK H PARENT
REMARK Flexibility Score: inf
ROOT
ATOM      1  C   UNL     1      -2.214  -9.300   1.180  1.00  0.00     0.000 C 
ENDROOT
BRANCH   1   2
ATOM      2  C   UNL     1      -2.073 -10.233   2.394  1.00  0.00     0.000 C 
BRANCH   2   3
ATOM      3  C   UNL     1      -2.849  -9.734   3.628  1.00  0.00     0.000 C 
BRANCH   3   4
ATOM      4  C   UNL     1      -3.725 -10.793   4.327  1.00  0.00     0.000 C 
BRANCH   4   5
ATOM      5  C   UNL     1      -5.036 -10.264   4.943  1.00  0.00     0.000 C 
BRANCH   5   6
ATOM      6  C   UNL     1      -4.858  -9.230   6.070  1.00  0.00     0.000 C 
BRANCH   6   7
ATOM      7  C   UNL     1      -6.191  -8.627   6.548  1.00  0.00     0.000 C 
BRANCH   7   8
ATOM      8  C   UNL     1      -7.240  -8.547   5.418  1.00  0.00     0.000 C 
BRANCH   8   9
ATOM      9  C   UNL     1      -8.295  -7.442   5.617  1.00  0.00     0.000 C 
BRANCH   9  10
ATOM     10  C   UNL     1      -8.068  -6.527   6.834  1.00  0.00     0.000 C 
BRANCH  10  11
ATOM     11  C   UNL     1      -8.057  -5.018   6.522  1.00  0.00     0.000 C 
BRANCH  11  12
ATOM     12  C   UNL     1      -6.862  -4.594   5.655  1.00  0.00     0.000 C 
BRANCH  12  13
ATOM     13  C   UNL     1      -5.532  -4.597   6.432  1.00  0.00     0.006 C 
BRANCH  13  14
ATOM     14  C   UNL     1      -4.481  -5.575   5.882  1.00  0.00     0.053 C 
BRANCH  14  15
ATOM     15  C   UNL     1      -3.118  -4.954   5.811  1.00  0.00     0.041 C 
ATOM     16  O   UNL     1      -2.117  -5.654   5.504  1.00  0.00    -0.550 OA
ATOM     17  O   UNL     1      -2.951  -3.610   6.117  1.00  0.00    -0.550 OA
ENDBRANCH  14  15
ENDBRANCH  13  14
ENDBRANCH  12  13
ENDBRANCH  11  12
ENDBRANCH  10  11
ENDBRANCH   9  10
ENDBRANCH   8   9
ENDBRANCH   7   8
ENDBRANCH   6   7
ENDBRANCH   5   6
ENDBRANCH   4   5
ENDBRANCH   3   4
ENDBRANCH   2   3
ENDBRANCH   1   2
BRANCH   1  18
ATOM     18  C   UNL     1      -1.546  -9.871  -0.082  1.00  0.00     0.000 C 
BRANCH  18  19
ATOM     19  C   UNL     1      -0.628  -8.856  -0.784  1.00  0.00     0.000 C 
BRANCH  19  20
ATOM     20  C   UNL     1      -1.203  -8.393  -2.139  1.00  0.00     0.000 C 
BRANCH  20  21
ATOM     21  C   UNL     1      -0.754  -6.981  -2.552  1.00  0.00     0.000 C 
BRANCH  21  22
ATOM     22  C   UNL     1       0.282  -6.378  -1.589  1.00  0.00     0.000 C 
BRANCH  22  23
ATOM     23  C   UNL     1       0.681  -4.946  -1.977  1.00  0.00     0.000 C 
BRANCH  23  24
ATOM     24  C   UNL     1       0.396  -3.931  -0.859  1.00  0.00    -0.000 C 
BRANCH  24  25
ATOM     25  C   UNL     1       0.027  -2.558  -1.442  1.00  0.00    -0.000 C 
BRANCH  25  26
ATOM     26  C   UNL     1       1.256  -1.673  -1.704  1.00  0.00    -0.000 C 
BRANCH  26  27
ATOM     27  C   UNL     1       1.742  -1.750  -3.162  1.00  0.00    -0.000 C 
BRANCH  27  28
ATOM     28  C   UNL     1       3.158  -1.180  -3.344  1.00  0.00    -0.000 C 
BRANCH  28  29
ATOM     29  C   UNL     1       3.716  -0.561  -2.050  1.00  0.00    -0.000 C 
BRANCH  29  30
ATOM     30  C   UNL     1       5.206  -0.877  -1.828  1.00  0.00    -0.000 C 
BRANCH  30  31
ATOM     31  C   UNL     1       6.008   0.230  -1.122  1.00  0.00    -0.003 C 
ATOM     32  C   UNL     1       5.527   0.502   0.302  1.00  0.00     0.004 C 
ENDBRANCH  30  31
ENDBRANCH  29  30
ENDBRANCH  28  29
ENDBRANCH  27  28
ENDBRANCH  26  27
ENDBRANCH  25  26
ENDBRANCH  24  25
ENDBRANCH  23  24
ENDBRANCH  22  23
ENDBRANCH  21  22
ENDBRANCH  20  21
ENDBRANCH  19  20
ENDBRANCH  18  19
ENDBRANCH   1  18
TORSDOF 28
ENDMDL
MODEL 3
REMARK VINA RESULT:    -4.201      1.997      2.974
REMARK INTER + INTRA:         -12.694
REMARK INTER:                 -11.334
REMARK INTRA:                  -1.360
REMARK UNBOUND:                -1.616
REMARK SMILES CCCCCCCCCCCCCCCCCCCCCCCCCCCCCC(=O)[O-]
REMARK SMILES IDX 16 1 17 2 18 3 19 4 20 5 21 6 22 7 23 8 24 9 25 10 26 11
REMARK SMILES IDX 27 12 28 13 29 14 30 15 31 16 32 17 15 18 14 19 13 20 12 21
REMARK SMILES IDX 11 22 10 23 9 24 8 25 7 26 6 27 5 28 4 29 3 30 2 31 1 32
REMARK H PARENT
REMARK Flexibility Score: inf
ROOT
ATOM      1  C   UNL     1      -2.259  -9.497   1.185  1.00  0.00     0.000 C 
ENDROOT
BRANCH   1   2
ATOM      2  C   UNL     1      -2.000 -10.400   2.402  1.00  0.00     0.000 C 
BRANCH   2   3
ATOM      3  C   UNL     1      -2.750  -9.937   3.665  1.00  0.00     0.000 C 
BRANCH   3   4
ATOM      4  C   UNL     1      -3.898 -10.858   4.124  1.00  0.00     0.000 C 
BRANCH   4   5
ATOM      5  C   UNL     1      -5.013 -10.170   4.937  1.00  0.00     0.000 C 
BRANCH   5   6
ATOM      6  C   UNL     1      -4.527  -9.138   5.971  1.00  0.00     0.000 C 
BRANCH   6   7
ATOM      7  C   UNL     1      -5.665  -8.267   6.532  1.00  0.00     0.000 C 
BRANCH   7   8
ATOM      8  C   UNL     1      -7.037  -8.628   5.923  1.00  0.00     0.000 C 
BRANCH   8   9
ATOM      9  C   UNL     1      -7.860  -7.411   5.462  1.00  0.00     0.000 C 
BRANCH   9  10
ATOM     10  C   UNL     1      -7.560  -6.094   6.203  1.00  0.00     0.000 C 
BRANCH  10  11
ATOM     11  C   UNL     1      -7.574  -4.832   5.321  1.00  0.00     0.000 C 
BRANCH  11  12
ATOM     12  C   UNL     1      -6.605  -3.745   5.815  1.00  0.00     0.000 C 
BRANCH  12  13
ATOM     13  C   UNL     1      -7.229  -2.838   6.892  1.00  0.00     0.006 C 
BRANCH  13  14
ATOM     14  C   UNL     1      -7.840  -1.538   6.347  1.00  0.00     0.053 C 
BRANCH  14  15
ATOM     15  C   UNL     1      -6.954  -0.353   6.590  1.00  0.00     0.041 C 
ATOM     16  O   UNL     1      -7.352   0.601   7.309  1.00  0.00    -0.550 OA
ATOM     17  O   UNL     1      -5.702  -0.289   5.994  1.00  0.00    -0.550 OA
ENDBRANCH  14  15
ENDBRANCH  13  14
ENDBRANCH  12  13
ENDBRANCH  11  12
ENDBRANCH  10  11
ENDBRANCH   9  10
ENDBRANCH   8   9
ENDBRANCH   7   8
ENDBRANCH   6   7
ENDBRANCH   5   6
ENDBRANCH   4   5
ENDBRANCH   3   4
ENDBRANCH   2   3
ENDBRANCH   1   2
BRANCH   1  18
ATOM     18  C   UNL     1      -1.499  -9.963  -0.067  1.00  0.00     0.000 C 
BRANCH  18  19
ATOM     19  C   UNL     1      -0.632  -8.855  -0.688  1.00  0.00     0.000 C 
BRANCH  19  20
ATOM     20  C   UNL     1      -1.149  -8.421  -2.076  1.00  0.00     0.000 C 
BRANCH  20  21
ATOM     21  C   UNL     1      -0.784  -6.975  -2.448  1.00  0.00     0.000 C 
BRANCH  21  22
ATOM     22  C   UNL     1       0.368  -6.412  -1.600  1.00  0.00     0.000 C 
BRANCH  22  23
ATOM     23  C   UNL     1       0.742  -4.975  -1.996  1.00  0.00     0.000 C 
BRANCH  23  24
ATOM     24  C   UNL     1       0.403  -3.953  -0.899  1.00  0.00    -0.000 C 
BRANCH  24  25
ATOM     25  C   UNL     1       0.172  -2.557  -1.498  1.00  0.00    -0.000 C 
BRANCH  25  26
ATOM     26  C   UNL     1       1.484  -1.801  -1.763  1.00  0.00    -0.000 C 
BRANCH  26  27
ATOM     27  C   UNL     1       1.836  -1.732  -3.260  1.00  0.00    -0.000 C 
BRANCH  27  28
ATOM     28  C   UNL     1       3.291  -1.301  -3.505  1.00  0.00    -0.000 C 
BRANCH  28  29
ATOM     29  C   UNL     1       3.792  -0.290  -2.460  1.00  0.00    -0.000 C 
BRANCH  29  30
ATOM     30  C   UNL     1       5.023  -0.790  -1.684  1.00  0.00    -0.000 C 
BRANCH  30  31
ATOM     31  C   UNL     1       6.294   0.060  -1.863  1.00  0.00    -0.003 C 
ATOM     32  C   UNL     1       7.543  -0.780  -2.128  1.00  0.00     0.004 C 
ENDBRANCH  30  31
ENDBRANCH  29  30
ENDBRANCH  28  29
ENDBRANCH  27  28
ENDBRANCH  26  27
ENDBRANCH  25  26
ENDBRANCH  24  25
ENDBRANCH  23  24
ENDBRANCH  22  23
ENDBRANCH  21  22
ENDBRANCH  20  21
ENDBRANCH  19  20
ENDBRANCH  18  19
ENDBRANCH   1  18
TORSDOF 28
ENDMDL
MODEL 4
REMARK VINA RESULT:    -3.584      1.830      4.772
REMARK INTER + INTRA:         -11.066
REMARK INTER:                  -9.368
REMARK INTRA:                  -1.698
REMARK UNBOUND:                -1.616
REMARK SMILES CCCCCCCCCCCCCCCCCCCCCCCCCCCCCC(=O)[O-]
REMARK SMILES IDX 16 1 17 2 18 3 19 4 20 5 21 6 22 7 23 8 24 9 25 10 26 11
REMARK SMILES IDX 27 12 28 13 29 14 30 15 31 16 32 17 15 18 14 19 13 20 12 21
REMARK SMILES IDX 11 22 10 23 9 24 8 25 7 26 6 27 5 28 4 29 3 30 2 31 1 32
REMARK H PARENT
REMARK Flexibility Score: inf
ROOT
ATOM      1  C   UNL     1      -1.160  -8.358  -1.782  1.00  0.00     0.000 C 
ENDROOT
BRANCH   1   2
ATOM      2  C   UNL     1      -0.877  -9.325  -0.621  1.00  0.00     0.000 C 
BRANCH   2   3
ATOM      3  C   UNL     1      -1.978  -9.308   0.457  1.00  0.00     0.000 C 
BRANCH   3   4
ATOM      4  C   UNL     1      -2.336 -10.684   1.053  1.00  0.00     0.000 C 
BRANCH   4   5
ATOM      5  C   UNL     1      -2.560 -10.704   2.579  1.00  0.00     0.000 C 
BRANCH   5   6
ATOM      6  C   UNL     1      -1.922  -9.534   3.350  1.00  0.00     0.000 C 
BRANCH   6   7
ATOM      7  C   UNL     1      -2.888  -8.878   4.353  1.00  0.00     0.000 C 
BRANCH   7   8
ATOM      8  C   UNL     1      -4.153  -9.730   4.595  1.00  0.00     0.000 C 
BRANCH   8   9
ATOM      9  C   UNL     1      -5.328  -8.947   5.210  1.00  0.00     0.000 C 
BRANCH   9  10
ATOM     10  C   UNL     1      -5.280  -8.780   6.740  1.00  0.00     0.000 C 
BRANCH  10  11
ATOM     11  C   UNL     1      -5.282  -7.322   7.237  1.00  0.00     0.000 C 
BRANCH  11  12
ATOM     12  C   UNL     1      -6.015  -6.365   6.284  1.00  0.00     0.000 C 
BRANCH  12  13
ATOM     13  C   UNL     1      -5.447  -4.934   6.327  1.00  0.00     0.006 C 
BRANCH  13  14
ATOM     14  C   UNL     1      -4.185  -4.729   5.474  1.00  0.00     0.053 C 
BRANCH  14  15
ATOM     15  C   UNL     1      -3.052  -4.158   6.274  1.00  0.00     0.041 C 
ATOM     16  O   UNL     1      -2.512  -4.839   7.185  1.00  0.00    -0.550 OA
ATOM     17  O   UNL     1      -2.618  -2.862   6.034  1.00  0.00    -0.550 OA
ENDBRANCH  14  15
ENDBRANCH  13  14
ENDBRANCH  12  13
ENDBRANCH  11  12
ENDBRANCH  10  11
ENDBRANCH   9  10
ENDBRANCH   8   9
ENDBRANCH   7   8
ENDBRANCH   6   7
ENDBRANCH   5   6
ENDBRANCH   4   5
ENDBRANCH   3   4
ENDBRANCH   2   3
ENDBRANCH   1   2
BRANCH   1  18
ATOM     18  C   UNL     1      -0.016  -7.354  -2.004  1.00  0.00     0.000 C 
BRANCH  18  19
ATOM     19  C   UNL     1      -0.229  -6.029  -1.251  1.00  0.00     0.000 C 
BRANCH  19  20
ATOM     20  C   UNL     1       0.635  -4.888  -1.825  1.00  0.00     0.000 C 
BRANCH  20  21
ATOM     21  C   UNL     1       0.578  -3.592  -1.001  1.00  0.00     0.000 C 
BRANCH  21  22
ATOM     22  C   UNL     1       0.324  -2.346  -1.865  1.00  0.00     0.000 C 
BRANCH  22  23
ATOM     23  C   UNL     1       1.525  -1.387  -1.880  1.00  0.00     0.000 C 
BRANCH  23  24
ATOM     24  C   UNL     1       2.391  -1.547  -3.139  1.00  0.00    -0.000 C 
BRANCH  24  25
ATOM     25  C   UNL     1       3.703  -0.758  -3.010  1.00  0.00    -0.000 C 
BRANCH  25  26
ATOM     26  C   UNL     1       4.140  -0.568  -1.548  1.00  0.00    -0.000 C 
BRANCH  26  27
ATOM     27  C   UNL     1       5.640  -0.250  -1.415  1.00  0.00    -0.000 C 
BRANCH  27  28
ATOM     28  C   UNL     1       6.532  -1.335  -2.040  1.00  0.00    -0.000 C 
BRANCH  28  29
ATOM     29  C   UNL     1       7.966  -0.843  -2.300  1.00  0.00    -0.000 C 
BRANCH  29  30
ATOM     30  C   UNL     1       8.877  -1.936  -2.888  1.00  0.00    -0.000 C 
BRANCH  30  31
ATOM     31  C   UNL     1       8.595  -3.361  -2.379  1.00  0.00    -0.003 C 
ATOM     32  C   UNL     1       9.693  -4.357  -2.747  1.00  0.00     0.004 C 
ENDBRANCH  30  31
ENDBRANCH  29  30
ENDBRANCH  28  29
ENDBRANCH  27  28
ENDBRANCH  26  27
ENDBRANCH  25  26
ENDBRANCH  24  25
ENDBRANCH  23  24
ENDBRANCH  22  23
ENDBRANCH  21  22
ENDBRANCH  20  21
ENDBRANCH  19  20
ENDBRANCH  18  19
ENDBRANCH   1  18
TORSDOF 28
ENDMDL
MODEL 5
REMARK VINA RESULT:    -3.522      4.247     12.358
REMARK INTER + INTRA:         -10.904
REMARK INTER:                  -9.571
REMARK INTRA:                  -1.333
REMARK UNBOUND:                -1.616
REMARK SMILES CCCCCCCCCCCCCCCCCCCCCCCCCCCCCC(=O)[O-]
REMARK SMILES IDX 16 1 17 2 18 3 19 4 20 5 21 6 22 7 23 8 24 9 25 10 26 11
REMARK SMILES IDX 27 12 28 13 29 14 30 15 31 16 32 17 15 18 14 19 13 20 12 21
REMARK SMILES IDX 11 22 10 23 9 24 8 25 7 26 6 27 5 28 4 29 3 30 2 31 1 32
REMARK H PARENT
REMARK Flexibility Score: inf
ROOT
ATOM      1  C   UNL     1       0.016  -6.648  -1.505  1.00  0.00     0.000 C 
ENDROOT
BRANCH   1   2
ATOM      2  C   UNL     1       0.381  -5.246  -2.021  1.00  0.00     0.000 C 
BRANCH   2   3
ATOM      3  C   UNL     1       0.728  -4.260  -0.889  1.00  0.00     0.000 C 
BRANCH   3   4
ATOM      4  C   UNL     1       0.121  -2.850  -1.035  1.00  0.00     0.000 C 
BRANCH   4   5
ATOM      5  C   UNL     1       0.670  -2.012  -2.207  1.00  0.00     0.000 C 
BRANCH   5   6
ATOM      6  C   UNL     1       1.940  -1.200  -1.892  1.00  0.00     0.000 C 
BRANCH   6   7
ATOM      7  C   UNL     1       2.986  -1.258  -3.019  1.00  0.00     0.000 C 
BRANCH   7   8
ATOM      8  C   UNL     1       4.061  -0.158  -2.882  1.00  0.00     0.000 C 
BRANCH   8   9
ATOM      9  C   UNL     1       5.052  -0.390  -1.726  1.00  0.00     0.000 C 
BRANCH   9  10
ATOM     10  C   UNL     1       6.201  -1.368  -2.030  1.00  0.00     0.000 C 
BRANCH  10  11
ATOM     11  C   UNL     1       7.599  -0.727  -2.114  1.00  0.00     0.000 C 
BRANCH  11  12
ATOM     12  C   UNL     1       8.597  -1.568  -2.925  1.00  0.00     0.000 C 
BRANCH  12  13
ATOM     13  C   UNL     1       8.718  -3.013  -2.403  1.00  0.00     0.006 C 
BRANCH  13  14
ATOM     14  C   UNL     1      10.072  -3.680  -2.697  1.00  0.00     0.053 C 
BRANCH  14  15
ATOM     15  C   UNL     1       9.917  -5.119  -3.087  1.00  0.00     0.041 C 
ATOM     16  O   UNL     1       9.573  -5.426  -4.259  1.00  0.00    -0.550 OA
ATOM     17  O   UNL     1      10.119  -6.119  -2.146  1.00  0.00    -0.550 OA
ENDBRANCH  14  15
ENDBRANCH  13  14
ENDBRANCH  12  13
ENDBRANCH  11  12
ENDBRANCH  10  11
ENDBRANCH   9  10
ENDBRANCH   8   9
ENDBRANCH   7   8
ENDBRANCH   6   7
ENDBRANCH   5   6
ENDBRANCH   4   5
ENDBRANCH   3   4
ENDBRANCH   2   3
ENDBRANCH   1   2
BRANCH   1  18
ATOM     18  C   UNL     1      -0.983  -7.371  -2.423  1.00  0.00     0.000 C 
BRANCH  18  19
ATOM     19  C   UNL     1      -1.265  -8.817  -1.978  1.00  0.00     0.000 C 
BRANCH  19  20
ATOM     20  C   UNL     1      -1.132  -8.991  -0.451  1.00  0.00     0.000 C 
BRANCH  20  21
ATOM     21  C   UNL     1      -1.420 -10.421   0.036  1.00  0.00     0.000 C 
BRANCH  21  22
ATOM     22  C   UNL     1      -2.365 -10.460   1.248  1.00  0.00     0.000 C 
BRANCH  22  23
ATOM     23  C   UNL     1      -2.252  -9.201   2.122  1.00  0.00     0.000 C 
BRANCH  23  24
ATOM     24  C   UNL     1      -2.219  -9.525   3.624  1.00  0.00    -0.000 C 
BRANCH  24  25
ATOM     25  C   UNL     1      -3.430 -10.380   4.029  1.00  0.00    -0.000 C 
BRANCH  25  26
ATOM     26  C   UNL     1      -4.293  -9.712   5.112  1.00  0.00    -0.000 C 
BRANCH  26  27
ATOM     27  C   UNL     1      -5.800  -9.837   4.829  1.00  0.00    -0.000 C 
BRANCH  27  28
ATOM     28  C   UNL     1      -6.643  -8.874   5.682  1.00  0.00    -0.000 C 
BRANCH  28  29
ATOM     29  C   UNL     1      -5.779  -7.877   6.474  1.00  0.00    -0.000 C 
BRANCH  29  30
ATOM     30  C   UNL     1      -6.350  -6.448   6.461  1.00  0.00    -0.000 C 
BRANCH  30  31
ATOM     31  C   UNL     1      -5.308  -5.333   6.261  1.00  0.00    -0.003 C 
ATOM     32  C   UNL     1      -5.904  -4.053   5.678  1.00  0.00     0.004 C 
ENDBRANCH  30  31
ENDBRANCH  29  30
ENDBRANCH  28  29
ENDBRANCH  27  28
ENDBRANCH  26  27
ENDBRANCH  25  26
ENDBRANCH  24  25
ENDBRANCH  23  24
ENDBRANCH  22  23
ENDBRANCH  21  22
ENDBRANCH  20  21
ENDBRANCH  19  20
ENDBRANCH  18  19
ENDBRANCH   1  18
TORSDOF 28
ENDMDL
MODEL 6
REMARK VINA RESULT:    -3.405      4.995      9.016
REMARK INTER + INTRA:         -10.596
REMARK INTER:                  -8.547
REMARK INTRA:                  -2.048
REMARK UNBOUND:                -1.616
REMARK SMILES CCCCCCCCCCCCCCCCCCCCCCCCCCCCCC(=O)[O-]
REMARK SMILES IDX 16 1 17 2 18 3 19 4 20 5 21 6 22 7 23 8 24 9 25 10 26 11
REMARK SMILES IDX 27 12 28 13 29 14 30 15 31 16 32 17 15 18 14 19 13 20 12 21
REMARK SMILES IDX 11 22 10 23 9 24 8 25 7 26 6 27 5 28 4 29 3 30 2 31 1 32
REMARK H PARENT
REMARK Flexibility Score: inf
ROOT
ATOM      1  C   UNL     1      -2.994  -3.502   5.157  1.00  0.00     0.000 C 
ENDROOT
BRANCH   1   2
ATOM      2  C   UNL     1      -3.763  -2.418   5.929  1.00  0.00     0.000 C 
BRANCH   2   3
ATOM      3  C   UNL     1      -3.449  -2.417   7.437  1.00  0.00     0.000 C 
BRANCH   3   4
ATOM      4  C   UNL     1      -3.522  -1.038   8.124  1.00  0.00     0.000 C 
BRANCH   4   5
ATOM      5  C   UNL     1      -4.848  -0.275   7.936  1.00  0.00     0.000 C 
BRANCH   5   6
ATOM      6  C   UNL     1      -6.096  -1.161   7.771  1.00  0.00     0.000 C 
BRANCH   6   7
ATOM      7  C   UNL     1      -7.055  -0.653   6.679  1.00  0.00     0.000 C 
BRANCH   7   8
ATOM      8  C   UNL     1      -7.822  -1.801   5.989  1.00  0.00     0.000 C 
BRANCH   8   9
ATOM      9  C   UNL     1      -7.583  -3.185   6.620  1.00  0.00     0.000 C 
BRANCH   9  10
ATOM     10  C   UNL     1      -8.518  -3.547   7.790  1.00  0.00     0.000 C 
BRANCH  10  11
ATOM     11  C   UNL     1      -9.967  -3.876   7.388  1.00  0.00     0.000 C 
BRANCH  11  12
ATOM     12  C   UNL     1     -10.125  -5.298   6.825  1.00  0.00     0.000 C 
BRANCH  12  13
ATOM     13  C   UNL     1      -9.912  -5.361   5.301  1.00  0.00     0.006 C 
BRANCH  13  14
ATOM     14  C   UNL     1      -9.107  -6.582   4.826  1.00  0.00     0.053 C 
BRANCH  14  15
ATOM     15  C   UNL     1      -9.352  -6.888   3.379  1.00  0.00     0.041 C 
ATOM     16  O   UNL     1      -8.834  -7.906   2.849  1.00  0.00    -0.550 OA
ATOM     17  O   UNL     1     -10.125  -6.030   2.609  1.00  0.00    -0.550 OA
ENDBRANCH  14  15
ENDBRANCH  13  14
ENDBRANCH  12  13
ENDBRANCH  11  12
ENDBRANCH  10  11
ENDBRANCH   9  10
ENDBRANCH   8   9
ENDBRANCH   7   8
ENDBRANCH   6   7
ENDBRANCH   5   6
ENDBRANCH   4   5
ENDBRANCH   3   4
ENDBRANCH   2   3
ENDBRANCH   1   2
BRANCH   1  18
ATOM     18  C   UNL     1      -3.131  -4.892   5.801  1.00  0.00     0.000 C 
BRANCH  18  19
ATOM     19  C   UNL     1      -4.445  -5.062   6.582  1.00  0.00     0.000 C 
BRANCH  19  20
ATOM     20  C   UNL     1      -4.953  -6.519   6.555  1.00  0.00     0.000 C 
BRANCH  20  21
ATOM     21  C   UNL     1      -6.484  -6.642   6.602  1.00  0.00     0.000 C 
BRANCH  21  22
ATOM     22  C   UNL     1      -6.990  -7.320   7.886  1.00  0.00     0.000 C 
BRANCH  22  23
ATOM     23  C   UNL     1      -7.389  -8.787   7.659  1.00  0.00     0.000 C 
BRANCH  23  24
ATOM     24  C   UNL     1      -6.186  -9.741   7.715  1.00  0.00    -0.000 C 
BRANCH  24  25
ATOM     25  C   UNL     1      -5.850 -10.286   6.318  1.00  0.00    -0.000 C 
BRANCH  25  26
ATOM     26  C   UNL     1      -4.537  -9.716   5.757  1.00  0.00    -0.000 C 
BRANCH  26  27
ATOM     27  C   UNL     1      -3.943 -10.587   4.636  1.00  0.00    -0.000 C 
BRANCH  27  28
ATOM     28  C   UNL     1      -2.829  -9.869   3.857  1.00  0.00    -0.000 C 
BRANCH  28  29
ATOM     29  C   UNL     1      -2.509 -10.554   2.517  1.00  0.00    -0.000 C 
BRANCH  29  30
ATOM     30  C   UNL     1      -2.182  -9.552   1.396  1.00  0.00    -0.000 C 
BRANCH  30  31
ATOM     31  C   UNL     1      -2.016 -10.173  -0.003  1.00  0.00    -0.003 C 
ATOM     32  C   UNL     1      -1.022  -9.414  -0.881  1.00  0.00     0.004 C 
ENDBRANCH  30  31
ENDBRANCH  29  30
ENDBRANCH  28  29
ENDBRANCH  27  28
ENDBRANCH  26  27
ENDBRANCH  25  26
ENDBRANCH  24  25
ENDBRANCH  23  24
ENDBRANCH  22  23
ENDBRANCH  21  22
ENDBRANCH  20  21
ENDBRANCH  19  20
ENDBRANCH  18  19
ENDBRANCH   1  18
TORSDOF 28
ENDMDL
MODEL 7
REMARK VINA RESULT:    -3.119      5.653      9.536
REMARK INTER + INTRA:          -9.841
REMARK INTER:                  -7.005
REMARK INTRA:                  -2.836
REMARK UNBOUND:                -1.616
REMARK SMILES CCCCCCCCCCCCCCCCCCCCCCCCCCCCCC(=O)[O-]
REMARK SMILES IDX 16 1 17 2 18 3 19 4 20 5 21 6 22 7 23 8 24 9 25 10 26 11
REMARK SMILES IDX 27 12 28 13 29 14 30 15 31 16 32 17 15 18 14 19 13 20 12 21
REMARK SMILES IDX 11 22 10 23 9 24 8 25 7 26 6 27 5 28 4 29 3 30 2 31 1 32
REMARK H PARENT
REMARK Flexibility Score: inf
ROOT
ATOM      1  C   UNL     1      -3.204  -3.250   4.844  1.00  0.00     0.000 C 
ENDROOT
BRANCH   1   2
ATOM      2  C   UNL     1      -4.712  -3.050   5.064  1.00  0.00     0.000 C 
BRANCH   2   3
ATOM      3  C   UNL     1      -5.090  -1.582   5.342  1.00  0.00     0.000 C 
BRANCH   3   4
ATOM      4  C   UNL     1      -5.122  -1.181   6.831  1.00  0.00     0.000 C 
BRANCH   4   5
ATOM      5  C   UNL     1      -5.758  -2.216   7.781  1.00  0.00     0.000 C 
BRANCH   5   6
ATOM      6  C   UNL     1      -7.245  -1.979   8.104  1.00  0.00     0.000 C 
BRANCH   6   7
ATOM      7  C   UNL     1      -8.083  -1.631   6.861  1.00  0.00     0.000 C 
BRANCH   7   8
ATOM      8  C   UNL     1      -9.540  -2.126   6.976  1.00  0.00     0.000 C 
BRANCH   8   9
ATOM      9  C   UNL     1      -9.998  -3.010   5.801  1.00  0.00     0.000 C 
BRANCH   9  10
ATOM     10  C   UNL     1      -9.393  -4.426   5.768  1.00  0.00     0.000 C 
BRANCH  10  11
ATOM     11  C   UNL     1      -9.010  -5.004   7.143  1.00  0.00     0.000 C 
BRANCH  11  12
ATOM     12  C   UNL     1      -8.982  -6.541   7.161  1.00  0.00     0.000 C 
BRANCH  12  13
ATOM     13  C   UNL     1      -9.500  -7.160   5.849  1.00  0.00     0.006 C 
BRANCH  13  14
ATOM     14  C   UNL     1      -8.393  -7.573   4.865  1.00  0.00     0.053 C 
BRANCH  14  15
ATOM     15  C   UNL     1      -8.941  -7.910   3.511  1.00  0.00     0.041 C 
ATOM     16  O   UNL     1      -8.897  -9.095   3.086  1.00  0.00    -0.550 OA
ATOM     17  O   UNL     1      -9.469  -6.910   2.707  1.00  0.00    -0.550 OA
ENDBRANCH  14  15
ENDBRANCH  13  14
ENDBRANCH  12  13
ENDBRANCH  11  12
ENDBRANCH  10  11
ENDBRANCH   9  10
ENDBRANCH   8   9
ENDBRANCH   7   8
ENDBRANCH   6   7
ENDBRANCH   5   6
ENDBRANCH   4   5
ENDBRANCH   3   4
ENDBRANCH   2   3
ENDBRANCH   1   2
BRANCH   1  18
ATOM     18  C   UNL     1      -2.406  -3.202   6.157  1.00  0.00     0.000 C 
BRANCH  18  19
ATOM     19  C   UNL     1      -2.795  -4.323   7.135  1.00  0.00     0.000 C 
BRANCH  19  20
ATOM     20  C   UNL     1      -3.358  -5.561   6.406  1.00  0.00     0.000 C 
BRANCH  20  21
ATOM     21  C   UNL     1      -4.832  -5.853   6.729  1.00  0.00     0.000 C 
BRANCH  21  22
ATOM     22  C   UNL     1      -5.160  -7.355   6.715  1.00  0.00     0.000 C 
BRANCH  22  23
ATOM     23  C   UNL     1      -5.483  -7.900   8.115  1.00  0.00     0.000 C 
BRANCH  23  24
ATOM     24  C   UNL     1      -5.904  -9.378   8.091  1.00  0.00    -0.000 C 
BRANCH  24  25
ATOM     25  C   UNL     1      -7.335  -9.535   7.556  1.00  0.00    -0.000 C 
BRANCH  25  26
ATOM     26  C   UNL     1      -7.600 -10.931   6.969  1.00  0.00    -0.000 C 
BRANCH  26  27
ATOM     27  C   UNL     1      -6.968 -11.119   5.579  1.00  0.00    -0.000 C 
BRANCH  27  28
ATOM     28  C   UNL     1      -5.438 -10.963   5.600  1.00  0.00    -0.000 C 
BRANCH  28  29
ATOM     29  C   UNL     1      -4.859 -10.635   4.213  1.00  0.00    -0.000 C 
BRANCH  29  30
ATOM     30  C   UNL     1      -3.321 -10.684   4.179  1.00  0.00    -0.000 C 
BRANCH  30  31
ATOM     31  C   UNL     1      -2.657  -9.637   3.267  1.00  0.00    -0.003 C 
ATOM     32  C   UNL     1      -2.336  -8.330   3.990  1.00  0.00     0.004 C 
ENDBRANCH  30  31
ENDBRANCH  29  30
ENDBRANCH  28  29
ENDBRANCH  27  28
ENDBRANCH  26  27
ENDBRANCH  25  26
ENDBRANCH  24  25
ENDBRANCH  23  24
ENDBRANCH  22  23
ENDBRANCH  21  22
ENDBRANCH  20  21
ENDBRANCH  19  20
ENDBRANCH  18  19
ENDBRANCH   1  18
TORSDOF 28
ENDMDL
MODEL 8
REMARK VINA RESULT:    -2.752      5.423      9.352
REMARK INTER + INTRA:          -8.874
REMARK INTER:                  -5.556
REMARK INTRA:                  -3.318
REMARK UNBOUND:                -1.616
REMARK SMILES CCCCCCCCCCCCCCCCCCCCCCCCCCCCCC(=O)[O-]
REMARK SMILES IDX 16 1 17 2 18 3 19 4 20 5 21 6 22 7 23 8 24 9 25 10 26 11
REMARK SMILES IDX 27 12 28 13 29 14 30 15 31 16 32 17 15 18 14 19 13 20 12 21
REMARK SMILES IDX 11 22 10 23 9 24 8 25 7 26 6 27 5 28 4 29 3 30 2 31 1 32
REMARK H PARENT
REMARK Flexibility Score: inf
ROOT
ATOM      1  C   UNL     1      -5.402  -5.926   6.619  1.00  0.00     0.000 C 
ENDROOT
BRANCH   1   2
ATOM      2  C   UNL     1      -5.554  -5.195   7.963  1.00  0.00     0.000 C 
BRANCH   2   3
ATOM      3  C   UNL     1      -6.798  -4.288   8.017  1.00  0.00     0.000 C 
BRANCH   3   4
ATOM      4  C   UNL     1      -7.583  -4.167   6.695  1.00  0.00     0.000 C 
BRANCH   4   5
ATOM      5  C   UNL     1      -9.042  -3.689   6.834  1.00  0.00     0.000 C 
BRANCH   5   6
ATOM      6  C   UNL     1      -9.434  -2.511   5.924  1.00  0.00     0.000 C 
BRANCH   6   7
ATOM      7  C   UNL     1      -8.281  -1.517   5.698  1.00  0.00     0.000 C 
BRANCH   7   8
ATOM      8  C   UNL     1      -7.810  -0.854   7.011  1.00  0.00     0.000 C 
BRANCH   8   9
ATOM      9  C   UNL     1      -6.895   0.368   6.805  1.00  0.00     0.000 C 
BRANCH   9  10
ATOM     10  C   UNL     1      -6.036   0.760   8.021  1.00  0.00     0.000 C 
BRANCH  10  11
ATOM     11  C   UNL     1      -4.530   0.905   7.736  1.00  0.00     0.000 C 
BRANCH  11  12
ATOM     12  C   UNL     1      -3.739  -0.381   8.024  1.00  0.00     0.000 C 
BRANCH  12  13
ATOM     13  C   UNL     1      -4.410  -1.636   7.435  1.00  0.00     0.006 C 
BRANCH  13  14
ATOM     14  C   UNL     1      -4.448  -1.670   5.899  1.00  0.00     0.053 C 
BRANCH  14  15
ATOM     15  C   UNL     1      -3.640  -2.803   5.341  1.00  0.00     0.041 C 
ATOM     16  O   UNL     1      -4.065  -3.460   4.354  1.00  0.00    -0.550 OA
ATOM     17  O   UNL     1      -2.435  -3.154   5.934  1.00  0.00    -0.550 OA
ENDBRANCH  14  15
ENDBRANCH  13  14
ENDBRANCH  12  13
ENDBRANCH  11  12
ENDBRANCH  10  11
ENDBRANCH   9  10
ENDBRANCH   8   9
ENDBRANCH   7   8
ENDBRANCH   6   7
ENDBRANCH   5   6
ENDBRANCH   4   5
ENDBRANCH   3   4
ENDBRANCH   2   3
ENDBRANCH   1   2
BRANCH   1  18
ATOM     18  C   UNL     1      -5.529  -7.452   6.762  1.00  0.00     0.000 C 
BRANCH  18  19
ATOM     19  C   UNL     1      -6.132  -7.879   8.111  1.00  0.00     0.000 C 
BRANCH  19  20
ATOM     20  C   UNL     1      -7.559  -8.444   7.957  1.00  0.00     0.000 C 
BRANCH  20  21
ATOM     21  C   UNL     1      -8.590  -7.405   7.486  1.00  0.00     0.000 C 
BRANCH  21  22
ATOM     22  C   UNL     1      -9.878  -8.045   6.944  1.00  0.00     0.000 C 
BRANCH  22  23
ATOM     23  C   UNL     1      -9.797  -9.579   6.896  1.00  0.00     0.000 C 
BRANCH  23  24
ATOM     24  C   UNL     1      -9.802 -10.126   5.460  1.00  0.00    -0.000 C 
BRANCH  24  25
ATOM     25  C   UNL     1      -8.743  -9.421   4.598  1.00  0.00    -0.000 C 
BRANCH  25  26
ATOM     26  C   UNL     1      -8.251 -10.291   3.431  1.00  0.00    -0.000 C 
BRANCH  26  27
ATOM     27  C   UNL     1      -7.010 -11.125   3.795  1.00  0.00    -0.000 C 
BRANCH  27  28
ATOM     28  C   UNL     1      -6.248 -10.554   5.002  1.00  0.00    -0.000 C 
BRANCH  28  29
ATOM     29  C   UNL     1      -4.792 -11.047   5.069  1.00  0.00    -0.000 C 
BRANCH  29  30
ATOM     30  C   UNL     1      -3.803 -10.091   4.379  1.00  0.00    -0.000 C 
BRANCH  30  31
ATOM     31  C   UNL     1      -2.942 -10.730   3.275  1.00  0.00    -0.003 C 
ATOM     32  C   UNL     1      -2.397  -9.712   2.275  1.00  0.00     0.004 C 
ENDBRANCH  30  31
ENDBRANCH  29  30
ENDBRANCH  28  29
ENDBRANCH  27  28
ENDBRANCH  26  27
ENDBRANCH  25  26
ENDBRANCH  24  25
ENDBRANCH  23  24
ENDBRANCH  22  23
ENDBRANCH  21  22
ENDBRANCH  20  21
ENDBRANCH  19  20
ENDBRANCH  18  19
ENDBRANCH   1  18
TORSDOF 28
ENDMDL
MODEL 9
REMARK VINA RESULT:    -2.555      4.237     13.029
REMARK INTER + INTRA:          -8.353
REMARK INTER:                  -6.986
REMARK INTRA:                  -1.367
REMARK UNBOUND:                -1.616
REMARK SMILES CCCCCCCCCCCCCCCCCCCCCCCCCCCCCC(=O)[O-]
REMARK SMILES IDX 16 1 17 2 18 3 19 4 20 5 21 6 22 7 23 8 24 9 25 10 26 11
REMARK SMILES IDX 27 12 28 13 29 14 30 15 31 16 32 17 15 18 14 19 13 20 12 21
REMARK SMILES IDX 11 22 10 23 9 24 8 25 7 26 6 27 5 28 4 29 3 30 2 31 1 32
REMARK H PARENT
REMARK Flexibility Score: inf
ROOT
ATOM      1  C   UNL     1       0.613  -3.030  -1.573  1.00  0.00     0.000 C 
ENDROOT
BRANCH   1   2
ATOM      2  C   UNL     1       1.440  -2.250  -2.608  1.00  0.00     0.000 C 
BRANCH   2   3
ATOM      3  C   UNL     1       2.126  -1.005  -2.015  1.00  0.00     0.000 C 
BRANCH   3   4
ATOM      4  C   UNL     1       3.653  -0.933  -2.222  1.00  0.00     0.000 C 
BRANCH   4   5
ATOM      5  C   UNL     1       4.438  -0.211  -1.109  1.00  0.00     0.000 C 
BRANCH   5   6
ATOM      6  C   UNL     1       5.970  -0.320  -1.213  1.00  0.00     0.000 C 
BRANCH   6   7
ATOM      7  C   UNL     1       6.431  -1.272  -2.331  1.00  0.00     0.000 C 
BRANCH   7   8
ATOM      8  C   UNL     1       7.590  -2.188  -1.882  1.00  0.00     0.000 C 
BRANCH   8   9
ATOM      9  C   UNL     1       8.775  -2.228  -2.866  1.00  0.00     0.000 C 
BRANCH   9  10
ATOM     10  C   UNL     1       9.715  -3.438  -2.715  1.00  0.00     0.000 C 
BRANCH  10  11
ATOM     11  C   UNL     1       9.108  -4.648  -1.981  1.00  0.00     0.000 C 
BRANCH  11  12
ATOM     12  C   UNL     1      10.124  -5.777  -1.745  1.00  0.00     0.000 C 
BRANCH  12  13
ATOM     13  C   UNL     1      10.045  -6.359  -0.321  1.00  0.00     0.006 C 
BRANCH  13  14
ATOM     14  C   UNL     1       8.618  -6.469   0.240  1.00  0.00     0.053 C 
BRANCH  14  15
ATOM     15  C   UNL     1       8.610  -6.645   1.729  1.00  0.00     0.041 C 
ATOM     16  O   UNL     1       7.530  -6.874   2.335  1.00  0.00    -0.550 OA
ATOM     17  O   UNL     1       9.790  -6.520   2.449  1.00  0.00    -0.550 OA
ENDBRANCH  14  15
ENDBRANCH  13  14
ENDBRANCH  12  13
ENDBRANCH  11  12
ENDBRANCH  10  11
ENDBRANCH   9  10
ENDBRANCH   8   9
ENDBRANCH   7   8
ENDBRANCH   6   7
ENDBRANCH   5   6
ENDBRANCH   4   5
ENDBRANCH   3   4
ENDBRANCH   2   3
ENDBRANCH   1   2
BRANCH   1  18
ATOM     18  C   UNL     1       1.022  -4.509  -1.487  1.00  0.00     0.000 C 
BRANCH  18  19
ATOM     19  C   UNL     1       0.136  -5.426  -2.347  1.00  0.00     0.000 C 
BRANCH  19  20
ATOM     20  C   UNL     1      -0.157  -6.771  -1.651  1.00  0.00     0.000 C 
BRANCH  20  21
ATOM     21  C   UNL     1      -1.030  -7.723  -2.485  1.00  0.00     0.000 C 
BRANCH  21  22
ATOM     22  C   UNL     1      -1.338  -9.042  -1.758  1.00  0.00     0.000 C 
BRANCH  22  23
ATOM     23  C   UNL     1      -1.087  -8.951  -0.244  1.00  0.00     0.000 C 
BRANCH  23  24
ATOM     24  C   UNL     1      -0.960 -10.333   0.417  1.00  0.00    -0.000 C 
BRANCH  24  25
ATOM     25  C   UNL     1      -2.343 -10.915   0.747  1.00  0.00    -0.000 C 
BRANCH  25  26
ATOM     26  C   UNL     1      -2.601 -11.013   2.259  1.00  0.00    -0.000 C 
BRANCH  26  27
ATOM     27  C   UNL     1      -2.564  -9.642   2.957  1.00  0.00    -0.000 C 
BRANCH  27  28
ATOM     28  C   UNL     1      -3.195  -9.677   4.359  1.00  0.00    -0.000 C 
BRANCH  28  29
ATOM     29  C   UNL     1      -3.914 -11.005   4.651  1.00  0.00    -0.000 C 
BRANCH  29  30
ATOM     30  C   UNL     1      -5.188 -10.824   5.494  1.00  0.00    -0.000 C 
BRANCH  30  31
ATOM     31  C   UNL     1      -5.874  -9.453   5.350  1.00  0.00    -0.003 C 
ATOM     32  C   UNL     1      -7.175  -9.516   4.552  1.00  0.00     0.004 C 
ENDBRANCH  30  31
ENDBRANCH  29  30
ENDBRANCH  28  29
ENDBRANCH  27  28
ENDBRANCH  26  27
ENDBRANCH  25  26
ENDBRANCH  24  25
ENDBRANCH  23  24
ENDBRANCH  22  23
ENDBRANCH  21  22
ENDBRANCH  20  21
ENDBRANCH  19  20
ENDBRANCH  18  19
ENDBRANCH   1  18
TORSDOF 28
ENDMDL
