MODEL 1
REMARK VINA RESULT:    -5.339      0.000      0.000
REMARK INTER + INTRA:         -14.241
REMARK INTER:                 -12.206
REMARK INTRA:                  -2.035
REMARK UNBOUND:                -2.035
REMARK SMILES CCCCCCCCCCCCCCCCCCCCCCCC(=O)[O-]
REMARK SMILES IDX 13 1 14 2 15 3 16 4 17 5 18 6 19 7 20 8 21 9 22 10 23 11
REMARK SMILES IDX 24 12 25 13 26 14 12 15 11 16 10 17 9 18 8 19 7 20 6 21 5 22
REMARK SMILES IDX 4 23 3 24 2 25 1 26
REMARK H PARENT
REMARK Flexibility Score: inf
ROOT
ATOM      1  C   UNL     1      42.381  55.277  17.697  1.00  0.00     0.000 C 
ENDROOT
BRANCH   1   2
ATOM      2  C   UNL     1      41.089  55.970  17.207  1.00  0.00     0.000 C 
BRANCH   2   3
ATOM      3  C   UNL     1      39.991  56.071  18.285  1.00  0.00     0.000 C 
BRANCH   3   4
ATOM      4  C   UNL     1      38.892  57.102  17.985  1.00  0.00     0.000 C 
BRANCH   4   5
ATOM      5  C   UNL     1      37.924  56.636  16.882  1.00  0.00     0.000 C 
BRANCH   5   6
ATOM      6  C   UNL     1      36.497  57.165  17.091  1.00  0.00     0.000 C 
BRANCH   6   7
ATOM      7  C   UNL     1      35.952  57.895  15.853  1.00  0.00     0.000 C 
BRANCH   7   8
ATOM      8  C   UNL     1      35.602  56.899  14.738  1.00  0.00     0.000 C 
BRANCH   8   9
ATOM      9  C   UNL     1      34.120  56.962  14.332  1.00  0.00     0.000 C 
BRANCH   9  10
ATOM     10  C   UNL     1      33.292  55.814  14.935  1.00  0.00     0.006 C 
BRANCH  10  11
ATOM     11  C   UNL     1      32.766  56.153  16.337  1.00  0.00     0.053 C 
BRANCH  11  12
ATOM     12  C   UNL     1      31.328  56.571  16.307  1.00  0.00     0.041 C 
ATOM     13  O   UNL     1      30.536  56.059  15.469  1.00  0.00    -0.550 OA
ATOM     14  O   UNL     1      30.868  57.547  17.182  1.00  0.00    -0.550 OA
ENDBRANCH  11  12
ENDBRANCH  10  11
ENDBRANCH   9  10
ENDBRANCH   8   9
ENDBRANCH   7   8
ENDBRANCH   6   7
ENDBRANCH   5   6
ENDBRANCH   4   5
ENDBRANCH   3   4
ENDBRANCH   2   3
ENDBRANCH   1   2
BRANCH   1  15
ATOM     15  C   UNL     1      42.808  54.064  16.843  1.00  0.00     0.000 C 
BRANCH  15  16
ATOM     16  C   UNL     1      42.319  54.081  15.380  1.00  0.00     0.000 C 
BRANCH  16  17
ATOM     17  C   UNL     1      43.365  53.669  14.329  1.00  0.00     0.000 C 
BRANCH  17  18
ATOM     18  C   UNL     1      44.553  52.907  14.935  1.00  0.00    -0.000 C 
BRANCH  18  19
ATOM     19  C   UNL     1      45.814  53.082  14.080  1.00  0.00    -0.000 C 
BRANCH  19  20
ATOM     20  C   UNL     1      46.904  52.089  14.502  1.00  0.00    -0.000 C 
BRANCH  20  21
ATOM     21  C   UNL     1      48.293  52.743  14.458  1.00  0.00    -0.000 C 
BRANCH  21  22
ATOM     22  C   UNL     1      48.540  53.684  15.648  1.00  0.00    -0.000 C 
BRANCH  22  23
ATOM     23  C   UNL     1      48.638  55.157  15.224  1.00  0.00    -0.000 C 
BRANCH  23  24
ATOM     24  C   UNL     1      48.020  56.076  16.284  1.00  0.00    -0.000 C 
BRANCH  24  25
ATOM     25  C   UNL     1      46.619  55.596  16.681  1.00  0.00    -0.003 C 
ATOM     26  C   UNL     1      45.552  56.608  16.273  1.00  0.00     0.004 C 
ENDBRANCH  24  25
ENDBRANCH  23  24
ENDBRANCH  22  23
ENDBRANCH  21  22
ENDBRANCH  20  21
ENDBRANCH  19  20
ENDBRANCH  18  19
ENDBRANCH  17  18
ENDBRANCH  16  17
ENDBRANCH  15  16
ENDBRANCH   1  15
TORSDOF 22
ENDMDL
MODEL 2
REMARK VINA RESULT:    -5.259      1.027      1.758
REMARK INTER + INTRA:         -14.057
REMARK INTER:                 -12.207
REMARK INTRA:                  -1.850
REMARK UNBOUND:                -2.035
REMARK SMILES CCCCCCCCCCCCCCCCCCCCCCCC(=O)[O-]
REMARK SMILES IDX 13 1 14 2 15 3 16 4 17 5 18 6 19 7 20 8 21 9 22 10 23 11
REMARK SMILES IDX 24 12 25 13 26 14 12 15 11 16 10 17 9 18 8 19 7 20 6 21 5 22
REMARK SMILES IDX 4 23 3 24 2 25 1 26
REMARK H PARENT
REMARK Flexibility Score: inf
ROOT
ATOM      1  C   UNL     1      40.891  55.987  17.232  1.00  0.00     0.000 C 
ENDROOT
BRANCH   1   2
ATOM      2  C   UNL     1      39.858  56.219  18.358  1.00  0.00     0.000 C 
BRANCH   2   3
ATOM      3  C   UNL     1      38.711  57.171  17.964  1.00  0.00     0.000 C 
BRANCH   3   4
ATOM      4  C   UNL     1      37.844  56.679  16.794  1.00  0.00     0.000 C 
BRANCH   4   5
ATOM      5  C   UNL     1      36.398  57.202  16.865  1.00  0.00     0.000 C 
BRANCH   5   6
ATOM      6  C   UNL     1      36.065  58.166  15.716  1.00  0.00     0.000 C 
BRANCH   6   7
ATOM      7  C   UNL     1      36.216  57.509  14.334  1.00  0.00     0.000 C 
BRANCH   7   8
ATOM      8  C   UNL     1      35.211  56.361  14.158  1.00  0.00     0.000 C 
BRANCH   8   9
ATOM      9  C   UNL     1      33.751  56.837  14.232  1.00  0.00     0.000 C 
BRANCH   9  10
ATOM     10  C   UNL     1      32.835  55.830  14.950  1.00  0.00     0.006 C 
BRANCH  10  11
ATOM     11  C   UNL     1      32.675  56.153  16.442  1.00  0.00     0.053 C 
BRANCH  11  12
ATOM     12  C   UNL     1      32.017  55.032  17.187  1.00  0.00     0.041 C 
ATOM     13  O   UNL     1      31.178  55.281  18.094  1.00  0.00    -0.550 OA
ATOM     14  O   UNL     1      32.353  53.714  16.902  1.00  0.00    -0.550 OA
ENDBRANCH  11  12
ENDBRANCH  10  11
ENDBRANCH   9  10
ENDBRANCH   8   9
ENDBRANCH   7   8
ENDBRANCH   6   7
ENDBRANCH   5   6
ENDBRANCH   4   5
ENDBRANCH   3   4
ENDBRANCH   2   3
ENDBRANCH   1   2
BRANCH   1  15
ATOM     15  C   UNL     1      42.300  55.614  17.735  1.00  0.00     0.000 C 
BRANCH  15  16
ATOM     16  C   UNL     1      43.069  54.604  16.858  1.00  0.00     0.000 C 
BRANCH  16  17
ATOM     17  C   UNL     1      42.306  54.084  15.627  1.00  0.00     0.000 C 
BRANCH  17  18
ATOM     18  C   UNL     1      43.236  53.525  14.539  1.00  0.00    -0.000 C 
BRANCH  18  19
ATOM     19  C   UNL     1      44.702  53.856  14.844  1.00  0.00    -0.000 C 
BRANCH  19  20
ATOM     20  C   UNL     1      45.601  52.637  14.602  1.00  0.00    -0.000 C 
BRANCH  20  21
ATOM     21  C   UNL     1      47.009  53.069  14.166  1.00  0.00    -0.000 C 
BRANCH  21  22
ATOM     22  C   UNL     1      48.117  52.352  14.954  1.00  0.00    -0.000 C 
BRANCH  22  23
ATOM     23  C   UNL     1      48.835  53.284  15.943  1.00  0.00    -0.000 C 
BRANCH  23  24
ATOM     24  C   UNL     1      48.440  54.746  15.706  1.00  0.00    -0.000 C 
BRANCH  24  25
ATOM     25  C   UNL     1      48.052  55.432  17.021  1.00  0.00    -0.003 C 
ATOM     26  C   UNL     1      46.674  56.080  16.920  1.00  0.00     0.004 C 
ENDBRANCH  24  25
ENDBRANCH  23  24
ENDBRANCH  22  23
ENDBRANCH  21  22
ENDBRANCH  20  21
ENDBRANCH  19  20
ENDBRANCH  18  19
ENDBRANCH  17  18
ENDBRANCH  16  17
ENDBRANCH  15  16
ENDBRANCH   1  15
TORSDOF 22
ENDMDL
MODEL 3
REMARK VINA RESULT:    -5.233      4.741     12.130
REMARK INTER + INTRA:         -13.998
REMARK INTER:                 -12.478
REMARK INTRA:                  -1.519
REMARK UNBOUND:                -2.035
REMARK SMILES CCCCCCCCCCCCCCCCCCCCCCCC(=O)[O-]
REMARK SMILES IDX 13 1 14 2 15 3 16 4 17 5 18 6 19 7 20 8 21 9 22 10 23 11
REMARK SMILES IDX 24 12 25 13 26 14 12 15 11 16 10 17 9 18 8 19 7 20 6 21 5 22
REMARK SMILES IDX 4 23 3 24 2 25 1 26
REMARK H PARENT
REMARK Flexibility Score: inf
ROOT
ATOM      1  C   UNL     1      40.959  55.987  17.266  1.00  0.00     0.000 C 
ENDROOT
BRANCH   1   2
ATOM      2  C   UNL     1      42.348  55.585  17.812  1.00  0.00     0.000 C 
BRANCH   2   3
ATOM      3  C   UNL     1      43.259  54.919  16.761  1.00  0.00     0.000 C 
BRANCH   3   4
ATOM      4  C   UNL     1      42.763  53.555  16.255  1.00  0.00     0.000 C 
BRANCH   4   5
ATOM      5  C   UNL     1      43.489  53.096  14.977  1.00  0.00     0.000 C 
BRANCH   5   6
ATOM      6  C   UNL     1      44.950  53.571  14.929  1.00  0.00     0.000 C 
BRANCH   6   7
ATOM      7  C   UNL     1      45.884  52.536  14.282  1.00  0.00     0.000 C 
BRANCH   7   8
ATOM      8  C   UNL     1      47.295  53.114  14.090  1.00  0.00     0.000 C 
BRANCH   8   9
ATOM      9  C   UNL     1      48.297  52.585  15.129  1.00  0.00     0.000 C 
BRANCH   9  10
ATOM     10  C   UNL     1      48.816  53.689  16.067  1.00  0.00     0.006 C 
BRANCH  10  11
ATOM     11  C   UNL     1      48.457  55.094  15.563  1.00  0.00     0.053 C 
BRANCH  11  12
ATOM     12  C   UNL     1      47.915  55.958  16.661  1.00  0.00     0.041 C 
ATOM     13  O   UNL     1      46.820  55.669  17.213  1.00  0.00    -0.550 OA
ATOM     14  O   UNL     1      48.605  57.098  17.054  1.00  0.00    -0.550 OA
ENDBRANCH  11  12
ENDBRANCH  10  11
ENDBRANCH   9  10
ENDBRANCH   8   9
ENDBRANCH   7   8
ENDBRANCH   6   7
ENDBRANCH   5   6
ENDBRANCH   4   5
ENDBRANCH   3   4
ENDBRANCH   2   3
ENDBRANCH   1   2
BRANCH   1  15
ATOM     15  C   UNL     1      39.877  56.152  18.353  1.00  0.00     0.000 C 
BRANCH  15  16
ATOM     16  C   UNL     1      38.722  57.112  17.996  1.00  0.00     0.000 C 
BRANCH  16  17
ATOM     17  C   UNL     1      37.871  56.698  16.783  1.00  0.00     0.000 C 
BRANCH  17  18
ATOM     18  C   UNL     1      36.395  57.100  16.924  1.00  0.00    -0.000 C 
BRANCH  18  19
ATOM     19  C   UNL     1      35.977  58.062  15.806  1.00  0.00    -0.000 C 
BRANCH  19  20
ATOM     20  C   UNL     1      36.337  57.493  14.428  1.00  0.00    -0.000 C 
BRANCH  20  21
ATOM     21  C   UNL     1      35.345  56.399  14.006  1.00  0.00    -0.000 C 
BRANCH  21  22
ATOM     22  C   UNL     1      33.891  56.754  14.359  1.00  0.00    -0.000 C 
BRANCH  22  23
ATOM     23  C   UNL     1      33.231  55.705  15.266  1.00  0.00    -0.000 C 
BRANCH  23  24
ATOM     24  C   UNL     1      32.759  56.334  16.582  1.00  0.00    -0.000 C 
BRANCH  24  25
ATOM     25  C   UNL     1      31.234  56.492  16.601  1.00  0.00    -0.003 C 
ATOM     26  C   UNL     1      30.628  55.849  17.845  1.00  0.00     0.004 C 
ENDBRANCH  24  25
ENDBRANCH  23  24
ENDBRANCH  22  23
ENDBRANCH  21  22
ENDBRANCH  20  21
ENDBRANCH  19  20
ENDBRANCH  18  19
ENDBRANCH  17  18
ENDBRANCH  16  17
ENDBRANCH  15  16
ENDBRANCH   1  15
TORSDOF 22
ENDMDL
MODEL 4
REMARK VINA RESULT:    -5.196      0.908      2.033
REMARK INTER + INTRA:         -13.914
REMARK INTER:                 -11.690
REMARK INTRA:                  -2.224
REMARK UNBOUND:                -2.035
REMARK SMILES CCCCCCCCCCCCCCCCCCCCCCCC(=O)[O-]
REMARK SMILES IDX 13 1 14 2 15 3 16 4 17 5 18 6 19 7 20 8 21 9 22 10 23 11
REMARK SMILES IDX 24 12 25 13 26 14 12 15 11 16 10 17 9 18 8 19 7 20 6 21 5 22
REMARK SMILES IDX 4 23 3 24 2 25 1 26
REMARK H PARENT
REMARK Flexibility Score: inf
ROOT
ATOM      1  C   UNL     1      41.000  55.729  16.990  1.00  0.00     0.000 C 
ENDROOT
BRANCH   1   2
ATOM      2  C   UNL     1      40.136  56.031  18.236  1.00  0.00     0.000 C 
BRANCH   2   3
ATOM      3  C   UNL     1      39.027  57.071  17.986  1.00  0.00     0.000 C 
BRANCH   3   4
ATOM      4  C   UNL     1      38.031  56.692  16.878  1.00  0.00     0.000 C 
BRANCH   4   5
ATOM      5  C   UNL     1      36.616  57.244  17.136  1.00  0.00     0.000 C 
BRANCH   5   6
ATOM      6  C   UNL     1      36.045  57.985  15.917  1.00  0.00     0.000 C 
BRANCH   6   7
ATOM      7  C   UNL     1      36.359  57.270  14.593  1.00  0.00     0.000 C 
BRANCH   7   8
ATOM      8  C   UNL     1      35.265  56.249  14.247  1.00  0.00     0.000 C 
BRANCH   8   9
ATOM      9  C   UNL     1      33.858  56.734  14.634  1.00  0.00     0.000 C 
BRANCH   9  10
ATOM     10  C   UNL     1      33.003  55.625  15.271  1.00  0.00     0.006 C 
BRANCH  10  11
ATOM     11  C   UNL     1      32.675  55.919  16.741  1.00  0.00     0.053 C 
BRANCH  11  12
ATOM     12  C   UNL     1      31.249  56.342  16.920  1.00  0.00     0.041 C 
ATOM     13  O   UNL     1      30.735  57.186  16.136  1.00  0.00    -0.550 OA
ATOM     14  O   UNL     1      30.496  55.829  17.969  1.00  0.00    -0.550 OA
ENDBRANCH  11  12
ENDBRANCH  10  11
ENDBRANCH   9  10
ENDBRANCH   8   9
ENDBRANCH   7   8
ENDBRANCH   6   7
ENDBRANCH   5   6
ENDBRANCH   4   5
ENDBRANCH   3   4
ENDBRANCH   2   3
ENDBRANCH   1   2
BRANCH   1  15
ATOM     15  C   UNL     1      42.515  55.665  17.273  1.00  0.00     0.000 C 
BRANCH  15  16
ATOM     16  C   UNL     1      43.125  54.247  17.292  1.00  0.00     0.000 C 
BRANCH  16  17
ATOM     17  C   UNL     1      42.631  53.302  16.183  1.00  0.00     0.000 C 
BRANCH  17  18
ATOM     18  C   UNL     1      43.257  53.608  14.814  1.00  0.00    -0.000 C 
BRANCH  18  19
ATOM     19  C   UNL     1      44.697  53.086  14.737  1.00  0.00    -0.000 C 
BRANCH  19  20
ATOM     20  C   UNL     1      45.622  54.122  14.086  1.00  0.00    -0.000 C 
BRANCH  20  21
ATOM     21  C   UNL     1      45.331  55.533  14.618  1.00  0.00    -0.000 C 
BRANCH  21  22
ATOM     22  C   UNL     1      46.565  56.188  15.260  1.00  0.00    -0.000 C 
BRANCH  22  23
ATOM     23  C   UNL     1      46.671  55.899  16.765  1.00  0.00    -0.000 C 
BRANCH  23  24
ATOM     24  C   UNL     1      48.001  55.216  17.102  1.00  0.00    -0.000 C 
BRANCH  24  25
ATOM     25  C   UNL     1      48.700  54.714  15.832  1.00  0.00    -0.003 C 
ATOM     26  C   UNL     1      48.875  53.199  15.861  1.00  0.00     0.004 C 
ENDBRANCH  24  25
ENDBRANCH  23  24
ENDBRANCH  22  23
ENDBRANCH  21  22
ENDBRANCH  20  21
ENDBRANCH  19  20
ENDBRANCH  18  19
ENDBRANCH  17  18
ENDBRANCH  16  17
ENDBRANCH  15  16
ENDBRANCH   1  15
TORSDOF 22
ENDMDL
MODEL 5
REMARK VINA RESULT:    -5.153      4.798     12.131
REMARK INTER + INTRA:         -13.815
REMARK INTER:                 -12.340
REMARK INTRA:                  -1.474
REMARK UNBOUND:                -2.035
REMARK SMILES CCCCCCCCCCCCCCCCCCCCCCCC(=O)[O-]
REMARK SMILES IDX 13 1 14 2 15 3 16 4 17 5 18 6 19 7 20 8 21 9 22 10 23 11
REMARK SMILES IDX 24 12 25 13 26 14 12 15 11 16 10 17 9 18 8 19 7 20 6 21 5 22
REMARK SMILES IDX 4 23 3 24 2 25 1 26
REMARK H PARENT
REMARK Flexibility Score: inf
ROOT
ATOM      1  C   UNL     1      40.050  56.052  18.314  1.00  0.00     0.000 C 
ENDROOT
BRANCH   1   2
ATOM      2  C   UNL     1      41.150  55.958  17.233  1.00  0.00     0.000 C 
BRANCH   2   3
ATOM      3  C   UNL     1      42.467  55.336  17.737  1.00  0.00     0.000 C 
BRANCH   3   4
ATOM      4  C   UNL     1      42.900  54.062  16.994  1.00  0.00     0.000 C 
BRANCH   4   5
ATOM      5  C   UNL     1      44.008  54.325  15.958  1.00  0.00     0.000 C 
BRANCH   5   6
ATOM      6  C   UNL     1      43.947  53.350  14.772  1.00  0.00     0.000 C 
BRANCH   6   7
ATOM      7  C   UNL     1      45.304  52.688  14.483  1.00  0.00     0.000 C 
BRANCH   7   8
ATOM      8  C   UNL     1      46.436  53.727  14.497  1.00  0.00     0.000 C 
BRANCH   8   9
ATOM      9  C   UNL     1      47.732  53.180  15.116  1.00  0.00     0.000 C 
BRANCH   9  10
ATOM     10  C   UNL     1      48.689  54.297  15.572  1.00  0.00     0.006 C 
BRANCH  10  11
ATOM     11  C   UNL     1      47.992  55.662  15.646  1.00  0.00     0.053 C 
BRANCH  11  12
ATOM     12  C   UNL     1      47.836  56.132  17.060  1.00  0.00     0.041 C 
ATOM     13  O   UNL     1      47.438  57.305  17.297  1.00  0.00    -0.550 OA
ATOM     14  O   UNL     1      48.158  55.287  18.114  1.00  0.00    -0.550 OA
ENDBRANCH  11  12
ENDBRANCH  10  11
ENDBRANCH   9  10
ENDBRANCH   8   9
ENDBRANCH   7   8
ENDBRANCH   6   7
ENDBRANCH   5   6
ENDBRANCH   4   5
ENDBRANCH   3   4
ENDBRANCH   2   3
ENDBRANCH   1   2
BRANCH   1  15
ATOM     15  C   UNL     1      38.937  57.071  17.995  1.00  0.00     0.000 C 
BRANCH  15  16
ATOM     16  C   UNL     1      37.986  56.672  16.846  1.00  0.00     0.000 C 
BRANCH  16  17
ATOM     17  C   UNL     1      36.517  57.092  17.029  1.00  0.00     0.000 C 
BRANCH  17  18
ATOM     18  C   UNL     1      36.008  57.995  15.895  1.00  0.00    -0.000 C 
BRANCH  18  19
ATOM     19  C   UNL     1      36.433  57.452  14.525  1.00  0.00    -0.000 C 
BRANCH  19  20
ATOM     20  C   UNL     1      35.510  56.311  14.078  1.00  0.00    -0.000 C 
BRANCH  20  21
ATOM     21  C   UNL     1      34.039  56.649  14.360  1.00  0.00    -0.000 C 
BRANCH  21  22
ATOM     22  C   UNL     1      33.281  55.484  15.017  1.00  0.00    -0.000 C 
BRANCH  22  23
ATOM     23  C   UNL     1      33.197  55.621  16.545  1.00  0.00    -0.000 C 
BRANCH  23  24
ATOM     24  C   UNL     1      32.202  54.614  17.133  1.00  0.00    -0.000 C 
BRANCH  24  25
ATOM     25  C   UNL     1      31.133  55.321  17.974  1.00  0.00    -0.003 C 
ATOM     26  C   UNL     1      30.811  56.702  17.410  1.00  0.00     0.004 C 
ENDBRANCH  24  25
ENDBRANCH  23  24
ENDBRANCH  22  23
ENDBRANCH  21  22
ENDBRANCH  20  21
ENDBRANCH  19  20
ENDBRANCH  18  19
ENDBRANCH  17  18
ENDBRANCH  16  17
ENDBRANCH  15  16
ENDBRANCH   1  15
TORSDOF 22
ENDMDL
MODEL 6
REMARK VINA RESULT:    -5.108      1.935      3.461
REMARK INTER + INTRA:         -13.712
REMARK INTER:                 -11.742
REMARK INTRA:                  -1.970
REMARK UNBOUND:                -2.035
REMARK SMILES CCCCCCCCCCCCCCCCCCCCCCCC(=O)[O-]
REMARK SMILES IDX 13 1 14 2 15 3 16 4 17 5 18 6 19 7 20 8 21 9 22 10 23 11
REMARK SMILES IDX 24 12 25 13 26 14 12 15 11 16 10 17 9 18 8 19 7 20 6 21 5 22
REMARK SMILES IDX 4 23 3 24 2 25 1 26
REMARK H PARENT
REMARK Flexibility Score: inf
ROOT
ATOM      1  C   UNL     1      38.937  57.092  18.001  1.00  0.00     0.000 C 
ENDROOT
BRANCH   1   2
ATOM      2  C   UNL     1      37.892  56.704  16.931  1.00  0.00     0.000 C 
BRANCH   2   3
ATOM      3  C   UNL     1      36.554  57.459  17.067  1.00  0.00     0.000 C 
BRANCH   3   4
ATOM      4  C   UNL     1      36.028  58.072  15.759  1.00  0.00     0.000 C 
BRANCH   4   5
ATOM      5  C   UNL     1      36.257  57.159  14.540  1.00  0.00     0.000 C 
BRANCH   5   6
ATOM      6  C   UNL     1      35.124  56.138  14.351  1.00  0.00     0.000 C 
BRANCH   6   7
ATOM      7  C   UNL     1      33.758  56.809  14.136  1.00  0.00     0.000 C 
BRANCH   7   8
ATOM      8  C   UNL     1      32.715  56.260  15.121  1.00  0.00     0.000 C 
BRANCH   8   9
ATOM      9  C   UNL     1      33.352  55.683  16.396  1.00  0.00     0.000 C 
BRANCH   9  10
ATOM     10  C   UNL     1      32.417  54.711  17.138  1.00  0.00     0.006 C 
BRANCH  10  11
ATOM     11  C   UNL     1      31.724  53.730  16.183  1.00  0.00     0.053 C 
BRANCH  11  12
ATOM     12  C   UNL     1      32.591  52.547  15.874  1.00  0.00     0.041 C 
ATOM     13  O   UNL     1      33.418  52.598  14.924  1.00  0.00    -0.550 OA
ATOM     14  O   UNL     1      32.465  51.379  16.616  1.00  0.00    -0.550 OA
ENDBRANCH  11  12
ENDBRANCH  10  11
ENDBRANCH   9  10
ENDBRANCH   8   9
ENDBRANCH   7   8
ENDBRANCH   6   7
ENDBRANCH   5   6
ENDBRANCH   4   5
ENDBRANCH   3   4
ENDBRANCH   2   3
ENDBRANCH   1   2
BRANCH   1  15
ATOM     15  C   UNL     1      40.002  56.007  18.265  1.00  0.00     0.000 C 
BRANCH  15  16
ATOM     16  C   UNL     1      41.167  55.965  17.255  1.00  0.00     0.000 C 
BRANCH  16  17
ATOM     17  C   UNL     1      42.497  55.416  17.803  1.00  0.00     0.000 C 
BRANCH  17  18
ATOM     18  C   UNL     1      42.882  54.062  17.190  1.00  0.00    -0.000 C 
BRANCH  18  19
ATOM     19  C   UNL     1      42.988  54.158  15.663  1.00  0.00    -0.000 C 
BRANCH  19  20
ATOM     20  C   UNL     1      44.155  53.311  15.140  1.00  0.00    -0.000 C 
BRANCH  20  21
ATOM     21  C   UNL     1      45.455  54.130  15.097  1.00  0.00    -0.000 C 
BRANCH  21  22
ATOM     22  C   UNL     1      45.199  55.633  14.905  1.00  0.00    -0.000 C 
BRANCH  22  23
ATOM     23  C   UNL     1      45.708  56.474  16.085  1.00  0.00    -0.000 C 
BRANCH  23  24
ATOM     24  C   UNL     1      46.718  55.686  16.927  1.00  0.00    -0.000 C 
BRANCH  24  25
ATOM     25  C   UNL     1      48.110  56.325  16.859  1.00  0.00    -0.003 C 
ATOM     26  C   UNL     1      48.113  57.711  17.495  1.00  0.00     0.004 C 
ENDBRANCH  24  25
ENDBRANCH  23  24
ENDBRANCH  22  23
ENDBRANCH  21  22
ENDBRANCH  20  21
ENDBRANCH  19  20
ENDBRANCH  18  19
ENDBRANCH  17  18
ENDBRANCH  16  17
ENDBRANCH  15  16
ENDBRANCH   1  15
TORSDOF 22
ENDMDL
MODEL 7
REMARK VINA RESULT:    -5.055      1.046      2.576
REMARK INTER + INTRA:         -13.591
REMARK INTER:                 -11.528
REMARK INTRA:                  -2.063
REMARK UNBOUND:                -2.035
REMARK SMILES CCCCCCCCCCCCCCCCCCCCCCCC(=O)[O-]
REMARK SMILES IDX 13 1 14 2 15 3 16 4 17 5 18 6 19 7 20 8 21 9 22 10 23 11
REMARK SMILES IDX 24 12 25 13 26 14 12 15 11 16 10 17 9 18 8 19 7 20 6 21 5 22
REMARK SMILES IDX 4 23 3 24 2 25 1 26
REMARK H PARENT
REMARK Flexibility Score: inf
ROOT
ATOM      1  C   UNL     1      40.670  55.658  16.483  1.00  0.00     0.000 C 
ENDROOT
BRANCH   1   2
ATOM      2  C   UNL     1      40.398  56.265  17.878  1.00  0.00     0.000 C 
BRANCH   2   3
ATOM      3  C   UNL     1      38.999  56.897  18.018  1.00  0.00     0.000 C 
BRANCH   3   4
ATOM      4  C   UNL     1      38.046  56.611  16.846  1.00  0.00     0.000 C 
BRANCH   4   5
ATOM      5  C   UNL     1      36.622  57.140  17.095  1.00  0.00     0.000 C 
BRANCH   5   6
ATOM      6  C   UNL     1      36.109  58.011  15.939  1.00  0.00     0.000 C 
BRANCH   6   7
ATOM      7  C   UNL     1      35.861  57.201  14.656  1.00  0.00     0.000 C 
BRANCH   7   8
ATOM      8  C   UNL     1      34.357  57.011  14.409  1.00  0.00     0.000 C 
BRANCH   8   9
ATOM      9  C   UNL     1      33.860  55.617  14.827  1.00  0.00     0.000 C 
BRANCH   9  10
ATOM     10  C   UNL     1      33.439  55.556  16.305  1.00  0.00     0.006 C 
BRANCH  10  11
ATOM     11  C   UNL     1      32.074  56.215  16.547  1.00  0.00     0.053 C 
BRANCH  11  12
ATOM     12  C   UNL     1      31.154  55.323  17.322  1.00  0.00     0.041 C 
ATOM     13  O   UNL     1      31.009  54.117  16.987  1.00  0.00    -0.550 OA
ATOM     14  O   UNL     1      30.433  55.831  18.397  1.00  0.00    -0.550 OA
ENDBRANCH  11  12
ENDBRANCH  10  11
ENDBRANCH   9  10
ENDBRANCH   8   9
ENDBRANCH   7   8
ENDBRANCH   6   7
ENDBRANCH   5   6
ENDBRANCH   4   5
ENDBRANCH   3   4
ENDBRANCH   2   3
ENDBRANCH   1   2
BRANCH   1  15
ATOM     15  C   UNL     1      42.077  55.042  16.326  1.00  0.00     0.000 C 
BRANCH  15  16
ATOM     16  C   UNL     1      43.107  55.470  17.393  1.00  0.00     0.000 C 
BRANCH  16  17
ATOM     17  C   UNL     1      44.583  55.325  16.981  1.00  0.00     0.000 C 
BRANCH  17  18
ATOM     18  C   UNL     1      45.093  56.519  16.160  1.00  0.00    -0.000 C 
BRANCH  18  19
ATOM     19  C   UNL     1      46.621  56.483  16.026  1.00  0.00    -0.000 C 
BRANCH  19  20
ATOM     20  C   UNL     1      47.264  55.837  17.259  1.00  0.00    -0.000 C 
BRANCH  20  21
ATOM     21  C   UNL     1      48.413  54.901  16.856  1.00  0.00    -0.000 C 
BRANCH  21  22
ATOM     22  C   UNL     1      48.274  54.383  15.415  1.00  0.00    -0.000 C 
BRANCH  22  23
ATOM     23  C   UNL     1      48.483  52.865  15.311  1.00  0.00    -0.000 C 
BRANCH  23  24
ATOM     24  C   UNL     1      47.339  52.204  14.534  1.00  0.00    -0.000 C 
BRANCH  24  25
ATOM     25  C   UNL     1      46.274  53.234  14.139  1.00  0.00    -0.003 C 
ATOM     26  C   UNL     1      44.885  52.791  14.588  1.00  0.00     0.004 C 
ENDBRANCH  24  25
ENDBRANCH  23  24
ENDBRANCH  22  23
ENDBRANCH  21  22
ENDBRANCH  20  21
ENDBRANCH  19  20
ENDBRANCH  18  19
ENDBRANCH  17  18
ENDBRANCH  16  17
ENDBRANCH  15  16
ENDBRANCH   1  15
TORSDOF 22
ENDMDL
MODEL 8
REMARK VINA RESULT:    -4.878      1.642      4.027
REMARK INTER + INTRA:         -13.187
REMARK INTER:                 -11.148
REMARK INTRA:                  -2.039
REMARK UNBOUND:                -2.035
REMARK SMILES CCCCCCCCCCCCCCCCCCCCCCCC(=O)[O-]
REMARK SMILES IDX 13 1 14 2 15 3 16 4 17 5 18 6 19 7 20 8 21 9 22 10 23 11
REMARK SMILES IDX 24 12 25 13 26 14 12 15 11 16 10 17 9 18 8 19 7 20 6 21 5 22
REMARK SMILES IDX 4 23 3 24 2 25 1 26
REMARK H PARENT
REMARK Flexibility Score: inf
ROOT
ATOM      1  C   UNL     1      37.560  57.485  17.627  1.00  0.00     0.000 C 
ENDROOT
BRANCH   1   2
ATOM      2  C   UNL     1      36.165  57.356  16.975  1.00  0.00     0.000 C 
BRANCH   2   3
ATOM      3  C   UNL     1      35.985  58.225  15.714  1.00  0.00     0.000 C 
BRANCH   3   4
ATOM      4  C   UNL     1      36.279  57.501  14.390  1.00  0.00     0.000 C 
BRANCH   4   5
ATOM      5  C   UNL     1      35.314  56.330  14.126  1.00  0.00     0.000 C 
BRANCH   5   6
ATOM      6  C   UNL     1      33.845  56.777  14.090  1.00  0.00     0.000 C 
BRANCH   6   7
ATOM      7  C   UNL     1      32.977  56.030  15.116  1.00  0.00     0.000 C 
BRANCH   7   8
ATOM      8  C   UNL     1      31.583  56.667  15.224  1.00  0.00     0.000 C 
BRANCH   8   9
ATOM      9  C   UNL     1      31.106  56.803  16.679  1.00  0.00     0.000 C 
BRANCH   9  10
ATOM     10  C   UNL     1      31.530  55.612  17.556  1.00  0.00     0.006 C 
BRANCH  10  11
ATOM     11  C   UNL     1      30.378  54.625  17.791  1.00  0.00     0.053 C 
BRANCH  11  12
ATOM     12  C   UNL     1      30.441  53.461  16.849  1.00  0.00     0.041 C 
ATOM     13  O   UNL     1      29.397  53.057  16.270  1.00  0.00    -0.550 OA
ATOM     14  O   UNL     1      31.647  52.804  16.634  1.00  0.00    -0.550 OA
ENDBRANCH  11  12
ENDBRANCH  10  11
ENDBRANCH   9  10
ENDBRANCH   8   9
ENDBRANCH   7   8
ENDBRANCH   6   7
ENDBRANCH   5   6
ENDBRANCH   4   5
ENDBRANCH   3   4
ENDBRANCH   2   3
ENDBRANCH   1   2
BRANCH   1  15
ATOM     15  C   UNL     1      38.554  56.379  17.214  1.00  0.00     0.000 C 
BRANCH  15  16
ATOM     16  C   UNL     1      39.894  56.376  17.980  1.00  0.00     0.000 C 
BRANCH  16  17
ATOM     17  C   UNL     1      41.131  55.998  17.146  1.00  0.00     0.000 C 
BRANCH  17  18
ATOM     18  C   UNL     1      42.233  55.329  17.981  1.00  0.00    -0.000 C 
BRANCH  18  19
ATOM     19  C   UNL     1      42.874  54.165  17.216  1.00  0.00    -0.000 C 
BRANCH  19  20
ATOM     20  C   UNL     1      42.627  54.297  15.709  1.00  0.00    -0.000 C 
BRANCH  20  21
ATOM     21  C   UNL     1      43.476  53.289  14.920  1.00  0.00    -0.000 C 
BRANCH  21  22
ATOM     22  C   UNL     1      44.602  53.964  14.120  1.00  0.00    -0.000 C 
BRANCH  22  23
ATOM     23  C   UNL     1      45.962  53.881  14.830  1.00  0.00    -0.000 C 
BRANCH  23  24
ATOM     24  C   UNL     1      46.519  55.280  15.116  1.00  0.00    -0.000 C 
BRANCH  24  25
ATOM     25  C   UNL     1      46.045  55.794  16.481  1.00  0.00    -0.003 C 
ATOM     26  C   UNL     1      45.392  57.167  16.358  1.00  0.00     0.004 C 
ENDBRANCH  24  25
ENDBRANCH  23  24
ENDBRANCH  22  23
ENDBRANCH  21  22
ENDBRANCH  20  21
ENDBRANCH  19  20
ENDBRANCH  18  19
ENDBRANCH  17  18
ENDBRANCH  16  17
ENDBRANCH  15  16
ENDBRANCH   1  15
TORSDOF 22
ENDMDL
MODEL 9
REMARK VINA RESULT:    -2.386      1.313      2.542
REMARK INTER + INTRA:          -7.489
REMARK INTER:                  -5.461
REMARK INTRA:                  -2.028
REMARK UNBOUND:                -2.035
REMARK SMILES CCCCCCCCCCCCCCCCCCCCCCCC(=O)[O-]
REMARK SMILES IDX 13 1 14 2 15 3 16 4 17 5 18 6 19 7 20 8 21 9 22 10 23 11
REMARK SMILES IDX 24 12 25 13 26 14 12 15 11 16 10 17 9 18 8 19 7 20 6 21 5 22
REMARK SMILES IDX 4 23 3 24 2 25 1 26
REMARK H PARENT
REMARK Flexibility Score: inf
ROOT
ATOM      1  C   UNL     1      39.873  56.191  18.333  1.00  0.00     0.000 C 
ENDROOT
BRANCH   1   2
ATOM      2  C   UNL     1      38.695  57.140  18.012  1.00  0.00     0.000 C 
BRANCH   2   3
ATOM      3  C   UNL     1      37.883  56.724  16.769  1.00  0.00     0.000 C 
BRANCH   3   4
ATOM      4  C   UNL     1      36.395  57.109  16.818  1.00  0.00     0.000 C 
BRANCH   4   5
ATOM      5  C   UNL     1      36.040  58.236  15.830  1.00  0.00     0.000 C 
BRANCH   5   6
ATOM      6  C   UNL     1      36.048  57.759  14.370  1.00  0.00     0.000 C 
BRANCH   6   7
ATOM      7  C   UNL     1      34.649  57.356  13.875  1.00  0.00     0.000 C 
BRANCH   7   8
ATOM      8  C   UNL     1      34.472  55.831  13.912  1.00  0.00     0.000 C 
BRANCH   8   9
ATOM      9  C   UNL     1      33.495  55.375  15.008  1.00  0.00     0.000 C 
BRANCH   9  10
ATOM     10  C   UNL     1      32.348  56.376  15.234  1.00  0.00     0.006 C 
BRANCH  10  11
ATOM     11  C   UNL     1      31.997  56.527  16.721  1.00  0.00     0.053 C 
BRANCH  11  12
ATOM     12  C   UNL     1      30.858  55.639  17.117  1.00  0.00     0.041 C 
ATOM     13  O   UNL     1      30.389  55.692  18.286  1.00  0.00    -0.550 OA
ATOM     14  O   UNL     1      30.334  54.729  16.206  1.00  0.00    -0.550 OA
ENDBRANCH  11  12
ENDBRANCH  10  11
ENDBRANCH   9  10
ENDBRANCH   8   9
ENDBRANCH   7   8
ENDBRANCH   6   7
ENDBRANCH   5   6
ENDBRANCH   4   5
ENDBRANCH   3   4
ENDBRANCH   2   3
ENDBRANCH   1   2
BRANCH   1  15
ATOM     15  C   UNL     1      40.876  56.017  17.173  1.00  0.00     0.000 C 
BRANCH  15  16
ATOM     16  C   UNL     1      42.260  55.465  17.575  1.00  0.00     0.000 C 
BRANCH  16  17
ATOM     17  C   UNL     1      42.742  54.243  16.772  1.00  0.00     0.000 C 
BRANCH  17  18
ATOM     18  C   UNL     1      42.148  54.186  15.357  1.00  0.00    -0.000 C 
BRANCH  18  19
ATOM     19  C   UNL     1      43.170  53.640  14.352  1.00  0.00    -0.000 C 
BRANCH  19  20
ATOM     20  C   UNL     1      44.448  53.180  15.064  1.00  0.00    -0.000 C 
BRANCH  20  21
ATOM     21  C   UNL     1      45.698  53.745  14.374  1.00  0.00    -0.000 C 
BRANCH  21  22
ATOM     22  C   UNL     1      45.855  55.260  14.583  1.00  0.00    -0.000 C 
BRANCH  22  23
ATOM     23  C   UNL     1      45.950  55.643  16.068  1.00  0.00    -0.000 C 
BRANCH  23  24
ATOM     24  C   UNL     1      45.764  57.153  16.259  1.00  0.00    -0.000 C 
BRANCH  24  25
ATOM     25  C   UNL     1      47.102  57.841  16.553  1.00  0.00    -0.003 C 
ATOM     26  C   UNL     1      48.014  56.943  17.384  1.00  0.00     0.004 C 
ENDBRANCH  24  25
ENDBRANCH  23  24
ENDBRANCH  22  23
ENDBRANCH  21  22
ENDBRANCH  20  21
ENDBRANCH  19  20
ENDBRANCH  18  19
ENDBRANCH  17  18
ENDBRANCH  16  17
ENDBRANCH  15  16
ENDBRANCH   1  15
TORSDOF 22
ENDMDL
