MODEL 1
REMARK VINA RESULT:    -4.262      0.000      0.000
REMARK INTER + INTRA:          -5.326
REMARK INTER:                  -5.009
REMARK INTRA:                  -0.316
REMARK UNBOUND:                -0.316
REMARK SMILES O=c1cc(-c2ccc(O)c(O)c2)oc2cc(O)cc(O)c12
REMARK SMILES IDX 4 1 3 2 2 3 1 4 21 5 19 6 18 7 16 8 15 9 14 10 13 11 5 12
REMARK SMILES IDX 6 13 7 14 8 15 12 16 10 17 9 18 11 20 20 22 17 24
REMARK H PARENT 9 19 11 21 20 23 17 25
REMARK Flexibility Score: inf
ROOT
ATOM      1  C   UNL     1      20.897  49.205  87.909  1.00  0.00     0.138 A 
ATOM      2  C   UNL     1      21.064  50.568  88.192  1.00  0.00     0.100 A 
ATOM      3  C   UNL     1      22.275  51.192  87.888  1.00  0.00     0.197 A 
ATOM      4  O   UNL     1      22.417  52.400  88.211  1.00  0.00    -0.289 OA
ATOM      5  C   UNL     1      23.311  50.455  87.267  1.00  0.00     0.107 A 
ATOM      6  C   UNL     1      24.571  50.996  86.874  1.00  0.00     0.134 A 
ATOM      7  C   UNL     1      25.563  50.143  86.375  1.00  0.00     0.093 A 
ATOM      8  C   UNL     1      25.319  48.779  86.199  1.00  0.00     0.123 A 
ATOM      9  C   UNL     1      24.074  48.250  86.529  1.00  0.00     0.094 A 
ATOM     10  C   UNL     1      23.075  49.069  87.062  1.00  0.00     0.146 A 
ATOM     11  O   UNL     1      21.906  48.522  87.377  1.00  0.00    -0.456 OA
ENDROOT
BRANCH   1  12
ATOM     12  C   UNL     1      19.631  48.491  88.212  1.00  0.00     0.021 A 
ATOM     13  C   UNL     1      18.494  49.228  88.586  1.00  0.00     0.016 A 
ATOM     14  C   UNL     1      17.293  48.579  88.883  1.00  0.00     0.051 A 
ATOM     15  C   UNL     1      17.209  47.185  88.823  1.00  0.00     0.157 A 
ATOM     16  C   UNL     1      19.545  47.085  88.166  1.00  0.00     0.062 A 
ATOM     17  C   UNL     1      18.340  46.434  88.467  1.00  0.00     0.158 A 
BRANCH  15  18
ATOM     18  O   UNL     1      15.996  46.566  89.125  1.00  0.00    -0.504 OA
ATOM     19  H   UNL     1      15.353  46.262  88.404  1.00  0.00     0.293 HD
ENDBRANCH  15  18
BRANCH  17  20
ATOM     20  O   UNL     1      18.264  45.042  88.416  1.00  0.00    -0.504 OA
ATOM     21  H   UNL     1      18.031  44.554  87.559  1.00  0.00     0.293 HD
ENDBRANCH  17  20
ENDBRANCH   1  12
BRANCH   6  22
ATOM     22  O   UNL     1      24.888  52.357  86.930  1.00  0.00    -0.507 OA
ATOM     23  H   UNL     1      24.844  52.926  87.761  1.00  0.00     0.293 HD
ENDBRANCH   6  22
BRANCH   8  24
ATOM     24  O   UNL     1      26.308  47.941  85.687  1.00  0.00    -0.508 OA
ATOM     25  H   UNL     1      26.353  47.716  84.700  1.00  0.00     0.293 HD
ENDBRANCH   8  24
TORSDOF 5
ENDMDL
MODEL 2
REMARK VINA RESULT:    -4.254      1.810      7.161
REMARK INTER + INTRA:          -5.317
REMARK INTER:                  -5.020
REMARK INTRA:                  -0.296
REMARK UNBOUND:                -0.316
REMARK SMILES O=c1cc(-c2ccc(O)c(O)c2)oc2cc(O)cc(O)c12
REMARK SMILES IDX 4 1 3 2 2 3 1 4 21 5 19 6 18 7 16 8 15 9 14 10 13 11 5 12
REMARK SMILES IDX 6 13 7 14 8 15 12 16 10 17 9 18 11 20 20 22 17 24
REMARK H PARENT 9 19 11 21 20 23 17 25
REMARK Flexibility Score: inf
ROOT
ATOM      1  C   UNL     1      22.602  49.599  87.098  1.00  0.00     0.138 A 
ATOM      2  C   UNL     1      21.951  48.360  87.179  1.00  0.00     0.100 A 
ATOM      3  C   UNL     1      20.621  48.305  87.598  1.00  0.00     0.197 A 
ATOM      4  O   UNL     1      20.084  47.174  87.721  1.00  0.00    -0.289 OA
ATOM      5  C   UNL     1      19.930  49.502  87.905  1.00  0.00     0.107 A 
ATOM      6  C   UNL     1      18.561  49.570  88.301  1.00  0.00     0.134 A 
ATOM      7  C   UNL     1      18.017  50.800  88.694  1.00  0.00     0.093 A 
ATOM      8  C   UNL     1      18.776  51.972  88.645  1.00  0.00     0.123 A 
ATOM      9  C   UNL     1      20.097  51.924  88.207  1.00  0.00     0.094 A 
ATOM     10  C   UNL     1      20.679  50.707  87.843  1.00  0.00     0.146 A 
ATOM     11  O   UNL     1      21.947  50.702  87.445  1.00  0.00    -0.456 OA
ENDROOT
BRANCH   1  12
ATOM     12  C   UNL     1      24.015  49.715  86.659  1.00  0.00     0.021 A 
ATOM     13  C   UNL     1      24.671  50.955  86.758  1.00  0.00     0.016 A 
ATOM     14  C   UNL     1      25.998  51.091  86.345  1.00  0.00     0.051 A 
ATOM     15  C   UNL     1      26.690  49.998  85.816  1.00  0.00     0.157 A 
ATOM     16  C   UNL     1      24.713  48.620  86.113  1.00  0.00     0.062 A 
ATOM     17  C   UNL     1      26.045  48.758  85.696  1.00  0.00     0.158 A 
BRANCH  15  18
ATOM     18  O   UNL     1      28.015  50.165  85.413  1.00  0.00    -0.504 OA
ATOM     19  H   UNL     1      28.414  49.640  84.645  1.00  0.00     0.293 HD
ENDBRANCH  15  18
BRANCH  17  20
ATOM     20  O   UNL     1      26.727  47.666  85.159  1.00  0.00    -0.504 OA
ATOM     21  H   UNL     1      27.693  47.738  84.861  1.00  0.00     0.293 HD
ENDBRANCH  17  20
ENDBRANCH   1  12
BRANCH   6  22
ATOM     22  O   UNL     1      17.693  48.474  88.304  1.00  0.00    -0.507 OA
ATOM     23  H   UNL     1      17.049  48.246  87.563  1.00  0.00     0.293 HD
ENDBRANCH   6  22
BRANCH   8  24
ATOM     24  O   UNL     1      18.221  53.193  89.022  1.00  0.00    -0.508 OA
ATOM     25  H   UNL     1      18.484  53.651  89.887  1.00  0.00     0.293 HD
ENDBRANCH   8  24
TORSDOF 5
ENDMDL
MODEL 3
REMARK VINA RESULT:    -4.198      1.401      6.755
REMARK INTER + INTRA:          -5.251
REMARK INTER:                  -4.937
REMARK INTRA:                  -0.313
REMARK UNBOUND:                -0.316
REMARK SMILES O=c1cc(-c2ccc(O)c(O)c2)oc2cc(O)cc(O)c12
REMARK SMILES IDX 4 1 3 2 2 3 1 4 21 5 19 6 18 7 16 8 15 9 14 10 13 11 5 12
REMARK SMILES IDX 6 13 7 14 8 15 12 16 10 17 9 18 11 20 20 22 17 24
REMARK H PARENT 9 19 11 21 20 23 17 25
REMARK Flexibility Score: inf
ROOT
ATOM      1  C   UNL     1      22.162  49.780  87.331  1.00  0.00     0.138 A 
ATOM      2  C   UNL     1      21.347  50.893  87.581  1.00  0.00     0.100 A 
ATOM      3  C   UNL     1      20.031  50.703  88.004  1.00  0.00     0.197 A 
ATOM      4  O   UNL     1      19.305  51.719  88.159  1.00  0.00    -0.289 OA
ATOM      5  C   UNL     1      19.540  49.391  88.210  1.00  0.00     0.107 A 
ATOM      6  C   UNL     1      18.230  49.078  88.679  1.00  0.00     0.134 A 
ATOM      7  C   UNL     1      17.817  47.741  88.732  1.00  0.00     0.093 A 
ATOM      8  C   UNL     1      18.688  46.704  88.390  1.00  0.00     0.123 A 
ATOM      9  C   UNL     1      19.987  46.997  87.982  1.00  0.00     0.094 A 
ATOM     10  C   UNL     1      20.418  48.323  87.886  1.00  0.00     0.146 A 
ATOM     11  O   UNL     1      21.660  48.559  87.478  1.00  0.00    -0.456 OA
ENDROOT
BRANCH   1  12
ATOM     12  C   UNL     1      23.569  49.925  86.879  1.00  0.00     0.021 A 
ATOM     13  C   UNL     1      24.225  51.157  87.044  1.00  0.00     0.016 A 
ATOM     14  C   UNL     1      25.546  51.322  86.620  1.00  0.00     0.051 A 
ATOM     15  C   UNL     1      26.231  50.264  86.015  1.00  0.00     0.157 A 
ATOM     16  C   UNL     1      24.260  48.866  86.257  1.00  0.00     0.062 A 
ATOM     17  C   UNL     1      25.585  49.032  85.829  1.00  0.00     0.158 A 
BRANCH  15  18
ATOM     18  O   UNL     1      27.549  50.458  85.603  1.00  0.00    -0.504 OA
ATOM     19  H   UNL     1      27.783  50.720  84.653  1.00  0.00     0.293 HD
ENDBRANCH  15  18
BRANCH  17  20
ATOM     20  O   UNL     1      26.260  47.977  85.216  1.00  0.00    -0.504 OA
ATOM     21  H   UNL     1      26.863  47.354  85.742  1.00  0.00     0.293 HD
ENDBRANCH  17  20
ENDBRANCH   1  12
BRANCH   6  22
ATOM     22  O   UNL     1      17.311  50.034  89.125  1.00  0.00    -0.507 OA
ATOM     23  H   UNL     1      17.209  50.960  88.740  1.00  0.00     0.293 HD
ENDBRANCH   6  22
BRANCH   8  24
ATOM     24  O   UNL     1      18.273  45.375  88.461  1.00  0.00    -0.508 OA
ATOM     25  H   UNL     1      18.900  44.639  88.763  1.00  0.00     0.293 HD
ENDBRANCH   8  24
TORSDOF 5
ENDMDL
MODEL 4
REMARK VINA RESULT:    -4.041      2.897      4.979
REMARK INTER + INTRA:          -5.066
REMARK INTER:                  -4.781
REMARK INTRA:                  -0.285
REMARK UNBOUND:                -0.316
REMARK SMILES O=c1cc(-c2ccc(O)c(O)c2)oc2cc(O)cc(O)c12
REMARK SMILES IDX 4 1 3 2 2 3 1 4 21 5 19 6 18 7 16 8 15 9 14 10 13 11 5 12
REMARK SMILES IDX 6 13 7 14 8 15 12 16 10 17 9 18 11 20 20 22 17 24
REMARK H PARENT 9 19 11 21 20 23 17 25
REMARK Flexibility Score: inf
ROOT
ATOM      1  C   UNL     1      21.195  49.965  87.766  1.00  0.00     0.138 A 
ATOM      2  C   UNL     1      19.876  50.328  88.072  1.00  0.00     0.100 A 
ATOM      3  C   UNL     1      19.598  51.632  88.484  1.00  0.00     0.197 A 
ATOM      4  O   UNL     1      18.415  51.911  88.812  1.00  0.00    -0.289 OA
ATOM      5  C   UNL     1      20.641  52.586  88.557  1.00  0.00     0.107 A 
ATOM      6  C   UNL     1      20.468  53.953  88.924  1.00  0.00     0.134 A 
ATOM      7  C   UNL     1      21.592  54.775  89.076  1.00  0.00     0.093 A 
ATOM      8  C   UNL     1      22.878  54.293  88.815  1.00  0.00     0.123 A 
ATOM      9  C   UNL     1      23.052  52.974  88.404  1.00  0.00     0.094 A 
ATOM     10  C   UNL     1      21.953  52.119  88.277  1.00  0.00     0.146 A 
ATOM     11  O   UNL     1      22.165  50.864  87.897  1.00  0.00    -0.456 OA
ENDROOT
BRANCH   1  12
ATOM     12  C   UNL     1      21.547  48.593  87.324  1.00  0.00     0.021 A 
ATOM     13  C   UNL     1      21.135  47.491  88.093  1.00  0.00     0.016 A 
ATOM     14  C   UNL     1      21.460  46.189  87.702  1.00  0.00     0.051 A 
ATOM     15  C   UNL     1      22.211  45.966  86.545  1.00  0.00     0.157 A 
ATOM     16  C   UNL     1      22.316  48.362  86.165  1.00  0.00     0.062 A 
ATOM     17  C   UNL     1      22.645  47.056  85.774  1.00  0.00     0.158 A 
BRANCH  15  18
ATOM     18  O   UNL     1      22.519  44.655  86.180  1.00  0.00    -0.504 OA
ATOM     19  H   UNL     1      22.271  43.863  86.759  1.00  0.00     0.293 HD
ENDBRANCH  15  18
BRANCH  17  20
ATOM     20  O   UNL     1      23.404  46.839  84.625  1.00  0.00    -0.504 OA
ATOM     21  H   UNL     1      24.324  47.248  84.511  1.00  0.00     0.293 HD
ENDBRANCH  17  20
ENDBRANCH   1  12
BRANCH   6  22
ATOM     22  O   UNL     1      19.222  54.557  89.125  1.00  0.00    -0.507 OA
ATOM     23  H   UNL     1      19.082  55.472  89.524  1.00  0.00     0.293 HD
ENDBRANCH   6  22
BRANCH   8  24
ATOM     24  O   UNL     1      23.989  55.122  88.954  1.00  0.00    -0.508 OA
ATOM     25  H   UNL     1      24.356  55.369  89.866  1.00  0.00     0.293 HD
ENDBRANCH   8  24
TORSDOF 5
ENDMDL
MODEL 5
REMARK VINA RESULT:    -3.864      2.181      3.157
REMARK INTER + INTRA:          -4.858
REMARK INTER:                  -4.595
REMARK INTRA:                  -0.264
REMARK UNBOUND:                -0.316
REMARK SMILES O=c1cc(-c2ccc(O)c(O)c2)oc2cc(O)cc(O)c12
REMARK SMILES IDX 4 1 3 2 2 3 1 4 21 5 19 6 18 7 16 8 15 9 14 10 13 11 5 12
REMARK SMILES IDX 6 13 7 14 8 15 12 16 10 17 9 18 11 20 20 22 17 24
REMARK H PARENT 9 19 11 21 20 23 17 25
REMARK Flexibility Score: inf
ROOT
ATOM      1  C   UNL     1      22.990  50.550  87.219  1.00  0.00     0.138 A 
ATOM      2  C   UNL     1      23.676  51.751  87.448  1.00  0.00     0.100 A 
ATOM      3  C   UNL     1      25.007  51.872  87.044  1.00  0.00     0.197 A 
ATOM      4  O   UNL     1      25.615  52.939  87.318  1.00  0.00    -0.289 OA
ATOM      5  C   UNL     1      25.642  50.797  86.378  1.00  0.00     0.107 A 
ATOM      6  C   UNL     1      26.980  50.823  85.885  1.00  0.00     0.134 A 
ATOM      7  C   UNL     1      27.540  49.657  85.347  1.00  0.00     0.093 A 
ATOM      8  C   UNL     1      26.789  48.484  85.230  1.00  0.00     0.123 A 
ATOM      9  C   UNL     1      25.465  48.465  85.659  1.00  0.00     0.094 A 
ATOM     10  C   UNL     1      24.888  49.601  86.233  1.00  0.00     0.146 A 
ATOM     11  O   UNL     1      23.627  49.536  86.643  1.00  0.00    -0.456 OA
ENDROOT
BRANCH   1  12
ATOM     12  C   UNL     1      21.575  50.366  87.629  1.00  0.00     0.021 A 
ATOM     13  C   UNL     1      21.273  49.537  88.723  1.00  0.00     0.016 A 
ATOM     14  C   UNL     1      19.949  49.342  89.123  1.00  0.00     0.051 A 
ATOM     15  C   UNL     1      18.904  49.961  88.433  1.00  0.00     0.157 A 
ATOM     16  C   UNL     1      20.516  50.977  86.928  1.00  0.00     0.062 A 
ATOM     17  C   UNL     1      19.186  50.779  87.328  1.00  0.00     0.158 A 
BRANCH  15  18
ATOM     18  O   UNL     1      17.592  49.748  88.856  1.00  0.00    -0.504 OA
ATOM     19  H   UNL     1      17.376  49.230  89.700  1.00  0.00     0.293 HD
ENDBRANCH  15  18
BRANCH  17  20
ATOM     20  O   UNL     1      18.146  51.390  86.629  1.00  0.00    -0.504 OA
ATOM     21  H   UNL     1      17.181  51.297  86.924  1.00  0.00     0.293 HD
ENDBRANCH  17  20
ENDBRANCH   1  12
BRANCH   6  22
ATOM     22  O   UNL     1      27.787  51.965  85.877  1.00  0.00    -0.507 OA
ATOM     23  H   UNL     1      27.950  52.551  85.072  1.00  0.00     0.293 HD
ENDBRANCH   6  22
BRANCH   8  24
ATOM     24  O   UNL     1      27.351  47.334  84.679  1.00  0.00    -0.508 OA
ATOM     25  H   UNL     1      28.131  47.381  84.035  1.00  0.00     0.293 HD
ENDBRANCH   8  24
TORSDOF 5
ENDMDL
MODEL 6
REMARK VINA RESULT:    -3.840      1.643      7.431
REMARK INTER + INTRA:          -4.830
REMARK INTER:                  -4.532
REMARK INTRA:                  -0.299
REMARK UNBOUND:                -0.316
REMARK SMILES O=c1cc(-c2ccc(O)c(O)c2)oc2cc(O)cc(O)c12
REMARK SMILES IDX 4 1 3 2 2 3 1 4 21 5 19 6 18 7 16 8 15 9 14 10 13 11 5 12
REMARK SMILES IDX 6 13 7 14 8 15 12 16 10 17 9 18 11 20 20 22 17 24
REMARK H PARENT 9 19 11 21 20 23 17 25
REMARK Flexibility Score: inf
ROOT
ATOM      1  C   UNL     1      22.833  48.554  87.082  1.00  0.00     0.138 A 
ATOM      2  C   UNL     1      22.854  47.163  87.259  1.00  0.00     0.100 A 
ATOM      3  C   UNL     1      21.718  46.513  87.743  1.00  0.00     0.197 A 
ATOM      4  O   UNL     1      21.786  45.274  87.951  1.00  0.00    -0.289 OA
ATOM      5  C   UNL     1      20.545  47.256  88.019  1.00  0.00     0.107 A 
ATOM      6  C   UNL     1      19.316  46.694  88.476  1.00  0.00     0.134 A 
ATOM      7  C   UNL     1      18.258  47.542  88.828  1.00  0.00     0.093 A 
ATOM      8  C   UNL     1      18.366  48.927  88.682  1.00  0.00     0.123 A 
ATOM      9  C   UNL     1      19.543  49.482  88.185  1.00  0.00     0.094 A 
ATOM     10  C   UNL     1      20.628  48.664  87.858  1.00  0.00     0.146 A 
ATOM     11  O   UNL     1      21.738  49.234  87.402  1.00  0.00    -0.456 OA
ENDROOT
BRANCH   1  12
ATOM     12  C   UNL     1      24.013  49.296  86.571  1.00  0.00     0.021 A 
ATOM     13  C   UNL     1      24.806  48.723  85.561  1.00  0.00     0.016 A 
ATOM     14  C   UNL     1      25.926  49.398  85.069  1.00  0.00     0.051 A 
ATOM     15  C   UNL     1      26.280  50.649  85.582  1.00  0.00     0.157 A 
ATOM     16  C   UNL     1      24.382  50.551  87.095  1.00  0.00     0.062 A 
ATOM     17  C   UNL     1      25.508  51.227  86.602  1.00  0.00     0.158 A 
BRANCH  15  18
ATOM     18  O   UNL     1      27.403  51.298  85.070  1.00  0.00    -0.504 OA
ATOM     19  H   UNL     1      27.329  52.048  84.393  1.00  0.00     0.293 HD
ENDBRANCH  15  18
BRANCH  17  20
ATOM     20  O   UNL     1      25.863  52.469  87.126  1.00  0.00    -0.504 OA
ATOM     21  H   UNL     1      25.353  53.312  86.887  1.00  0.00     0.293 HD
ENDBRANCH  17  20
ENDBRANCH   1  12
BRANCH   6  22
ATOM     22  O   UNL     1      19.075  45.320  88.578  1.00  0.00    -0.507 OA
ATOM     23  H   UNL     1      19.438  44.723  89.305  1.00  0.00     0.293 HD
ENDBRANCH   6  22
BRANCH   8  24
ATOM     24  O   UNL     1      17.302  49.762  89.020  1.00  0.00    -0.508 OA
ATOM     25  H   UNL     1      16.733  49.589  89.840  1.00  0.00     0.293 HD
ENDBRANCH   8  24
TORSDOF 5
ENDMDL
MODEL 7
REMARK VINA RESULT:    -3.792      2.687      4.304
REMARK INTER + INTRA:          -4.773
REMARK INTER:                  -4.487
REMARK INTRA:                  -0.286
REMARK UNBOUND:                -0.316
REMARK SMILES O=c1cc(-c2ccc(O)c(O)c2)oc2cc(O)cc(O)c12
REMARK SMILES IDX 4 1 3 2 2 3 1 4 21 5 19 6 18 7 16 8 15 9 14 10 13 11 5 12
REMARK SMILES IDX 6 13 7 14 8 15 12 16 10 17 9 18 11 20 20 22 17 24
REMARK H PARENT 9 19 11 21 20 23 17 25
REMARK Flexibility Score: inf
ROOT
ATOM      1  C   UNL     1      23.497  49.311  87.330  1.00  0.00     0.138 A 
ATOM      2  C   UNL     1      24.700  49.393  86.614  1.00  0.00     0.100 A 
ATOM      3  C   UNL     1      25.291  50.638  86.398  1.00  0.00     0.197 A 
ATOM      4  O   UNL     1      26.337  50.686  85.700  1.00  0.00    -0.289 OA
ATOM      5  C   UNL     1      24.692  51.804  86.932  1.00  0.00     0.107 A 
ATOM      6  C   UNL     1      25.227  53.121  86.811  1.00  0.00     0.134 A 
ATOM      7  C   UNL     1      24.485  54.213  87.278  1.00  0.00     0.093 A 
ATOM      8  C   UNL     1      23.255  54.029  87.915  1.00  0.00     0.123 A 
ATOM      9  C   UNL     1      22.750  52.743  88.087  1.00  0.00     0.094 A 
ATOM     10  C   UNL     1      23.450  51.636  87.600  1.00  0.00     0.146 A 
ATOM     11  O   UNL     1      22.926  50.427  87.771  1.00  0.00    -0.456 OA
ENDROOT
BRANCH   1  12
ATOM     12  C   UNL     1      22.825  48.013  87.588  1.00  0.00     0.021 A 
ATOM     13  C   UNL     1      22.087  47.839  88.771  1.00  0.00     0.016 A 
ATOM     14  C   UNL     1      21.451  46.625  89.041  1.00  0.00     0.051 A 
ATOM     15  C   UNL     1      21.549  45.561  88.140  1.00  0.00     0.157 A 
ATOM     16  C   UNL     1      22.932  46.933  86.690  1.00  0.00     0.062 A 
ATOM     17  C   UNL     1      22.296  45.713  86.961  1.00  0.00     0.158 A 
BRANCH  15  18
ATOM     18  O   UNL     1      20.903  44.361  88.436  1.00  0.00    -0.504 OA
ATOM     19  H   UNL     1      20.224  43.946  87.810  1.00  0.00     0.293 HD
ENDBRANCH  15  18
BRANCH  17  20
ATOM     20  O   UNL     1      22.407  44.650  86.065  1.00  0.00    -0.504 OA
ATOM     21  H   UNL     1      21.937  43.767  86.228  1.00  0.00     0.293 HD
ENDBRANCH  17  20
ENDBRANCH   1  12
BRANCH   6  22
ATOM     22  O   UNL     1      26.483  53.407  86.266  1.00  0.00    -0.507 OA
ATOM     23  H   UNL     1      27.141  54.068  86.649  1.00  0.00     0.293 HD
ENDBRANCH   6  22
BRANCH   8  24
ATOM     24  O   UNL     1      22.532  55.121  88.391  1.00  0.00    -0.508 OA
ATOM     25  H   UNL     1      22.189  55.842  87.767  1.00  0.00     0.293 HD
ENDBRANCH   8  24
TORSDOF 5
ENDMDL
MODEL 8
REMARK VINA RESULT:    -3.721      1.329      2.807
REMARK INTER + INTRA:          -4.691
REMARK INTER:                  -4.394
REMARK INTRA:                  -0.296
REMARK UNBOUND:                -0.316
REMARK SMILES O=c1cc(-c2ccc(O)c(O)c2)oc2cc(O)cc(O)c12
REMARK SMILES IDX 4 1 3 2 2 3 1 4 21 5 19 6 18 7 16 8 15 9 14 10 13 11 5 12
REMARK SMILES IDX 6 13 7 14 8 15 12 16 10 17 9 18 11 20 20 22 17 24
REMARK H PARENT 9 19 11 21 20 23 17 25
REMARK Flexibility Score: inf
ROOT
ATOM      1  C   UNL     1      21.706  49.231  87.584  1.00  0.00     0.138 A 
ATOM      2  C   UNL     1      22.709  48.441  87.005  1.00  0.00     0.100 A 
ATOM      3  C   UNL     1      23.930  49.021  86.660  1.00  0.00     0.197 A 
ATOM      4  O   UNL     1      24.787  48.300  86.085  1.00  0.00    -0.289 OA
ATOM      5  C   UNL     1      24.159  50.391  86.926  1.00  0.00     0.107 A 
ATOM      6  C   UNL     1      25.380  51.079  86.655  1.00  0.00     0.134 A 
ATOM      7  C   UNL     1      25.450  52.464  86.853  1.00  0.00     0.093 A 
ATOM      8  C   UNL     1      24.363  53.174  87.369  1.00  0.00     0.123 A 
ATOM      9  C   UNL     1      23.186  52.503  87.687  1.00  0.00     0.094 A 
ATOM     10  C   UNL     1      23.073  51.127  87.468  1.00  0.00     0.146 A 
ATOM     11  O   UNL     1      21.927  50.528  87.772  1.00  0.00    -0.456 OA
ENDROOT
BRANCH   1  12
ATOM     12  C   UNL     1      20.388  48.667  87.970  1.00  0.00     0.021 A 
ATOM     13  C   UNL     1      19.355  49.532  88.370  1.00  0.00     0.016 A 
ATOM     14  C   UNL     1      18.109  49.025  88.746  1.00  0.00     0.051 A 
ATOM     15  C   UNL     1      17.875  47.647  88.739  1.00  0.00     0.157 A 
ATOM     16  C   UNL     1      20.152  47.277  87.978  1.00  0.00     0.062 A 
ATOM     17  C   UNL     1      18.901  46.768  88.358  1.00  0.00     0.158 A 
BRANCH  15  18
ATOM     18  O   UNL     1      16.620  47.171  89.118  1.00  0.00    -0.504 OA
ATOM     19  H   UNL     1      15.766  47.669  88.899  1.00  0.00     0.293 HD
ENDBRANCH  15  18
BRANCH  17  20
ATOM     20  O   UNL     1      18.677  45.392  88.360  1.00  0.00    -0.504 OA
ATOM     21  H   UNL     1      18.140  44.940  87.629  1.00  0.00     0.293 HD
ENDBRANCH  17  20
ENDBRANCH   1  12
BRANCH   6  22
ATOM     22  O   UNL     1      26.550  50.451  86.218  1.00  0.00    -0.507 OA
ATOM     23  H   UNL     1      26.619  49.863  85.401  1.00  0.00     0.293 HD
ENDBRANCH   6  22
BRANCH   8  24
ATOM     24  O   UNL     1      24.449  54.550  87.577  1.00  0.00    -0.508 OA
ATOM     25  H   UNL     1      24.172  55.212  86.862  1.00  0.00     0.293 HD
ENDBRANCH   8  24
TORSDOF 5
ENDMDL
