MODEL 1
REMARK VINA RESULT:    -6.535      0.000      0.000
REMARK INTER + INTRA:          -7.993
REMARK INTER:                  -7.681
REMARK INTRA:                  -0.312
REMARK UNBOUND:                -0.312
REMARK SMILES O=c1cc(-c2ccc(O)c(O)c2)oc2cc(O)cc(O)c12
REMARK SMILES IDX 4 1 3 2 2 3 1 4 21 5 19 6 18 7 16 8 15 9 14 10 13 11 5 12
REMARK SMILES IDX 6 13 7 14 8 15 12 16 10 17 9 18 11 20 20 22 17 24
REMARK H PARENT 9 19 11 21 20 23 17 25
REMARK Flexibility Score: inf
ROOT
ATOM      1  C   UNL     1       8.021  -6.663  -8.565  1.00  0.00     0.138 A 
ATOM      2  C   UNL     1       8.315  -7.840  -9.266  1.00  0.00     0.100 A 
ATOM      3  C   UNL     1       8.377  -7.816 -10.661  1.00  0.00     0.197 A 
ATOM      4  O   UNL     1       8.581  -8.901 -11.264  1.00  0.00    -0.289 OA
ATOM      5  C   UNL     1       8.175  -6.599 -11.353  1.00  0.00     0.107 A 
ATOM      6  C   UNL     1       8.255  -6.447 -12.769  1.00  0.00     0.134 A 
ATOM      7  C   UNL     1       7.921  -5.218 -13.351  1.00  0.00     0.093 A 
ATOM      8  C   UNL     1       7.568  -4.121 -12.566  1.00  0.00     0.123 A 
ATOM      9  C   UNL     1       7.539  -4.243 -11.176  1.00  0.00     0.094 A 
ATOM     10  C   UNL     1       7.834  -5.465 -10.567  1.00  0.00     0.146 A 
ATOM     11  O   UNL     1       7.781  -5.544  -9.242  1.00  0.00    -0.456 OA
ENDROOT
BRANCH   1  12
ATOM     12  C   UNL     1       7.943  -6.631  -7.082  1.00  0.00     0.021 A 
ATOM     13  C   UNL     1       7.738  -7.802  -6.328  1.00  0.00     0.016 A 
ATOM     14  C   UNL     1       7.679  -7.744  -4.933  1.00  0.00     0.051 A 
ATOM     15  C   UNL     1       7.829  -6.524  -4.267  1.00  0.00     0.157 A 
ATOM     16  C   UNL     1       8.107  -5.409  -6.406  1.00  0.00     0.062 A 
ATOM     17  C   UNL     1       8.047  -5.351  -5.006  1.00  0.00     0.158 A 
BRANCH  15  18
ATOM     18  O   UNL     1       7.765  -6.499  -2.875  1.00  0.00    -0.504 OA
ATOM     19  H   UNL     1       8.594  -6.559  -2.296  1.00  0.00     0.293 HD
ENDBRANCH  15  18
BRANCH  17  20
ATOM     20  O   UNL     1       8.203  -4.131  -4.349  1.00  0.00    -0.504 OA
ATOM     21  H   UNL     1       8.981  -3.515  -4.549  1.00  0.00     0.293 HD
ENDBRANCH  17  20
ENDBRANCH   1  12
BRANCH   6  22
ATOM     22  O   UNL     1       8.678  -7.455 -13.641  1.00  0.00    -0.507 OA
ATOM     23  H   UNL     1       8.682  -8.440 -13.424  1.00  0.00     0.293 HD
ENDBRANCH   6  22
BRANCH   8  24
ATOM     24  O   UNL     1       7.257  -2.909 -13.179  1.00  0.00    -0.508 OA
ATOM     25  H   UNL     1       7.849  -2.510 -13.897  1.00  0.00     0.293 HD
ENDBRANCH   8  24
TORSDOF 5
ENDMDL
MODEL 2
REMARK VINA RESULT:    -6.455      2.310      3.284
REMARK INTER + INTRA:          -7.899
REMARK INTER:                  -7.631
REMARK INTRA:                  -0.267
REMARK UNBOUND:                -0.312
REMARK SMILES O=c1cc(-c2ccc(O)c(O)c2)oc2cc(O)cc(O)c12
REMARK SMILES IDX 4 1 3 2 2 3 1 4 21 5 19 6 18 7 16 8 15 9 14 10 13 11 5 12
REMARK SMILES IDX 6 13 7 14 8 15 12 16 10 17 9 18 11 20 20 22 17 24
REMARK H PARENT 9 19 11 21 20 23 17 25
REMARK Flexibility Score: inf
ROOT
ATOM      1  C   UNL     1       8.714  -7.682  -8.819  1.00  0.00     0.138 A 
ATOM      2  C   UNL     1       7.701  -7.782  -9.783  1.00  0.00     0.100 A 
ATOM      3  C   UNL     1       8.031  -8.120 -11.097  1.00  0.00     0.197 A 
ATOM      4  O   UNL     1       7.109  -8.140 -11.953  1.00  0.00    -0.289 OA
ATOM      5  C   UNL     1       9.377  -8.389 -11.438  1.00  0.00     0.107 A 
ATOM      6  C   UNL     1       9.824  -8.783 -12.735  1.00  0.00     0.134 A 
ATOM      7  C   UNL     1      11.197  -8.909 -12.982  1.00  0.00     0.093 A 
ATOM      8  C   UNL     1      12.133  -8.716 -11.968  1.00  0.00     0.123 A 
ATOM      9  C   UNL     1      11.704  -8.384 -10.682  1.00  0.00     0.094 A 
ATOM     10  C   UNL     1      10.344  -8.217 -10.411  1.00  0.00     0.146 A 
ATOM     11  O   UNL     1       9.978  -7.887  -9.178  1.00  0.00    -0.456 OA
ENDROOT
BRANCH   1  12
ATOM     12  C   UNL     1       8.420  -7.327  -7.407  1.00  0.00     0.021 A 
ATOM     13  C   UNL     1       7.915  -8.275  -6.498  1.00  0.00     0.016 A 
ATOM     14  C   UNL     1       7.658  -7.917  -5.172  1.00  0.00     0.051 A 
ATOM     15  C   UNL     1       7.903  -6.614  -4.729  1.00  0.00     0.157 A 
ATOM     16  C   UNL     1       8.678  -6.021  -6.953  1.00  0.00     0.062 A 
ATOM     17  C   UNL     1       8.418  -5.661  -5.622  1.00  0.00     0.158 A 
BRANCH  15  18
ATOM     18  O   UNL     1       7.635  -6.287  -3.401  1.00  0.00    -0.504 OA
ATOM     19  H   UNL     1       7.647  -5.330  -3.069  1.00  0.00     0.293 HD
ENDBRANCH  15  18
BRANCH  17  20
ATOM     20  O   UNL     1       8.670  -4.361  -5.187  1.00  0.00    -0.504 OA
ATOM     21  H   UNL     1       9.567  -4.095  -4.799  1.00  0.00     0.293 HD
ENDBRANCH  17  20
ENDBRANCH   1  12
BRANCH   6  22
ATOM     22  O   UNL     1       8.969  -9.083 -13.799  1.00  0.00    -0.507 OA
ATOM     23  H   UNL     1       8.381  -9.901 -13.853  1.00  0.00     0.293 HD
ENDBRANCH   6  22
BRANCH   8  24
ATOM     24  O   UNL     1      13.490  -8.866 -12.247  1.00  0.00    -0.508 OA
ATOM     25  H   UNL     1      13.811  -9.347 -13.079  1.00  0.00     0.293 HD
ENDBRANCH   8  24
TORSDOF 5
ENDMDL
MODEL 3
REMARK VINA RESULT:    -6.270     12.047     15.226
REMARK INTER + INTRA:          -7.682
REMARK INTER:                  -7.418
REMARK INTRA:                  -0.263
REMARK UNBOUND:                -0.312
REMARK SMILES O=c1cc(-c2ccc(O)c(O)c2)oc2cc(O)cc(O)c12
REMARK SMILES IDX 4 1 3 2 2 3 1 4 21 5 19 6 18 7 16 8 15 9 14 10 13 11 5 12
REMARK SMILES IDX 6 13 7 14 8 15 12 16 10 17 9 18 11 20 20 22 17 24
REMARK H PARENT 9 19 11 21 20 23 17 25
REMARK Flexibility Score: inf
ROOT
ATOM      1  C   UNL     1      18.426  -1.141 -16.773  1.00  0.00     0.138 A 
ATOM      2  C   UNL     1      17.579  -0.304 -16.034  1.00  0.00     0.100 A 
ATOM      3  C   UNL     1      16.817  -0.839 -14.993  1.00  0.00     0.197 A 
ATOM      4  O   UNL     1      16.020  -0.075 -14.389  1.00  0.00    -0.289 OA
ATOM      5  C   UNL     1      16.930  -2.212 -14.672  1.00  0.00     0.107 A 
ATOM      6  C   UNL     1      16.234  -2.857 -13.607  1.00  0.00     0.134 A 
ATOM      7  C   UNL     1      16.336  -4.246 -13.458  1.00  0.00     0.093 A 
ATOM      8  C   UNL     1      17.154  -5.003 -14.295  1.00  0.00     0.123 A 
ATOM      9  C   UNL     1      17.881  -4.375 -15.307  1.00  0.00     0.094 A 
ATOM     10  C   UNL     1      17.774  -2.996 -15.504  1.00  0.00     0.146 A 
ATOM     11  O   UNL     1      18.472  -2.439 -16.487  1.00  0.00    -0.456 OA
ENDROOT
BRANCH   1  12
ATOM     12  C   UNL     1      19.259  -0.625 -17.890  1.00  0.00     0.021 A 
ATOM     13  C   UNL     1      18.938  -0.891 -19.234  1.00  0.00     0.016 A 
ATOM     14  C   UNL     1      19.734  -0.385 -20.265  1.00  0.00     0.051 A 
ATOM     15  C   UNL     1      20.856   0.396 -19.976  1.00  0.00     0.157 A 
ATOM     16  C   UNL     1      20.382   0.172 -17.605  1.00  0.00     0.062 A 
ATOM     17  C   UNL     1      21.181   0.679 -18.640  1.00  0.00     0.158 A 
BRANCH  15  18
ATOM     18  O   UNL     1      21.631   0.886 -21.027  1.00  0.00    -0.504 OA
ATOM     19  H   UNL     1      22.561   0.534 -21.219  1.00  0.00     0.293 HD
ENDBRANCH  15  18
BRANCH  17  20
ATOM     20  O   UNL     1      22.297   1.462 -18.344  1.00  0.00    -0.504 OA
ATOM     21  H   UNL     1      23.104   1.078 -17.868  1.00  0.00     0.293 HD
ENDBRANCH  17  20
ENDBRANCH   1  12
BRANCH   6  22
ATOM     22  O   UNL     1      15.457  -2.184 -12.660  1.00  0.00    -0.507 OA
ATOM     23  H   UNL     1      14.526  -2.455 -12.380  1.00  0.00     0.293 HD
ENDBRANCH   6  22
BRANCH   8  24
ATOM     24  O   UNL     1      17.242  -6.381 -14.108  1.00  0.00    -0.508 OA
ATOM     25  H   UNL     1      16.416  -6.953 -13.979  1.00  0.00     0.293 HD
ENDBRANCH   8  24
TORSDOF 5
ENDMDL
MODEL 4
REMARK VINA RESULT:    -6.245      3.804      6.835
REMARK INTER + INTRA:          -7.652
REMARK INTER:                  -7.335
REMARK INTRA:                  -0.317
REMARK UNBOUND:                -0.312
REMARK SMILES O=c1cc(-c2ccc(O)c(O)c2)oc2cc(O)cc(O)c12
REMARK SMILES IDX 4 1 3 2 2 3 1 4 21 5 19 6 18 7 16 8 15 9 14 10 13 11 5 12
REMARK SMILES IDX 6 13 7 14 8 15 12 16 10 17 9 18 11 20 20 22 17 24
REMARK H PARENT 9 19 11 21 20 23 17 25
REMARK Flexibility Score: inf
ROOT
ATOM      1  C   UNL     1      10.886  -6.818  -9.231  1.00  0.00     0.138 A 
ATOM      2  C   UNL     1      10.027  -7.914  -9.389  1.00  0.00     0.100 A 
ATOM      3  C   UNL     1       8.971  -8.098  -8.494  1.00  0.00     0.197 A 
ATOM      4  O   UNL     1       8.256  -9.125  -8.625  1.00  0.00    -0.289 OA
ATOM      5  C   UNL     1       8.757  -7.161  -7.456  1.00  0.00     0.107 A 
ATOM      6  C   UNL     1       7.689  -7.225  -6.511  1.00  0.00     0.134 A 
ATOM      7  C   UNL     1       7.646  -6.305  -5.456  1.00  0.00     0.093 A 
ATOM      8  C   UNL     1       8.595  -5.290  -5.346  1.00  0.00     0.123 A 
ATOM      9  C   UNL     1       9.613  -5.185  -6.295  1.00  0.00     0.094 A 
ATOM     10  C   UNL     1       9.703  -6.108  -7.339  1.00  0.00     0.146 A 
ATOM     11  O   UNL     1      10.695  -5.982  -8.214  1.00  0.00    -0.456 OA
ENDROOT
BRANCH   1  12
ATOM     12  C   UNL     1      12.024  -6.573 -10.153  1.00  0.00     0.021 A 
ATOM     13  C   UNL     1      12.375  -7.498 -11.154  1.00  0.00     0.016 A 
ATOM     14  C   UNL     1      13.444  -7.237 -12.015  1.00  0.00     0.051 A 
ATOM     15  C   UNL     1      14.175  -6.052 -11.899  1.00  0.00     0.157 A 
ATOM     16  C   UNL     1      12.754  -5.376 -10.050  1.00  0.00     0.062 A 
ATOM     17  C   UNL     1      13.828  -5.114 -10.914  1.00  0.00     0.158 A 
BRANCH  15  18
ATOM     18  O   UNL     1      15.237  -5.821 -12.772  1.00  0.00    -0.504 OA
ATOM     19  H   UNL     1      15.582  -6.536 -13.402  1.00  0.00     0.293 HD
ENDBRANCH  15  18
BRANCH  17  20
ATOM     20  O   UNL     1      14.549  -3.927 -10.794  1.00  0.00    -0.504 OA
ATOM     21  H   UNL     1      14.848  -3.575  -9.892  1.00  0.00     0.293 HD
ENDBRANCH  17  20
ENDBRANCH   1  12
BRANCH   6  22
ATOM     22  O   UNL     1       6.641  -8.147  -6.578  1.00  0.00    -0.507 OA
ATOM     23  H   UNL     1       6.736  -9.108  -6.871  1.00  0.00     0.293 HD
ENDBRANCH   6  22
BRANCH   8  24
ATOM     24  O   UNL     1       8.512  -4.383  -4.291  1.00  0.00    -0.508 OA
ATOM     25  H   UNL     1       9.078  -4.486  -3.457  1.00  0.00     0.293 HD
ENDBRANCH   8  24
TORSDOF 5
ENDMDL
MODEL 5
REMARK VINA RESULT:    -6.107     21.405     23.632
REMARK INTER + INTRA:          -7.490
REMARK INTER:                  -7.199
REMARK INTRA:                  -0.291
REMARK UNBOUND:                -0.312
REMARK SMILES O=c1cc(-c2ccc(O)c(O)c2)oc2cc(O)cc(O)c12
REMARK SMILES IDX 4 1 3 2 2 3 1 4 21 5 19 6 18 7 16 8 15 9 14 10 13 11 5 12
REMARK SMILES IDX 6 13 7 14 8 15 12 16 10 17 9 18 11 20 20 22 17 24
REMARK H PARENT 9 19 11 21 20 23 17 25
REMARK Flexibility Score: inf
ROOT
ATOM      1  C   UNL     1      23.932   7.629 -17.474  1.00  0.00     0.138 A 
ATOM      2  C   UNL     1      23.899   8.974 -17.083  1.00  0.00     0.100 A 
ATOM      3  C   UNL     1      24.152   9.313 -15.753  1.00  0.00     0.197 A 
ATOM      4  O   UNL     1      24.052  10.521 -15.419  1.00  0.00    -0.289 OA
ATOM      5  C   UNL     1      24.473   8.300 -14.818  1.00  0.00     0.107 A 
ATOM      6  C   UNL     1      24.789   8.532 -13.446  1.00  0.00     0.134 A 
ATOM      7  C   UNL     1      24.977   7.441 -12.588  1.00  0.00     0.093 A 
ATOM      8  C   UNL     1      24.918   6.132 -13.062  1.00  0.00     0.123 A 
ATOM      9  C   UNL     1      24.662   5.894 -14.414  1.00  0.00     0.094 A 
ATOM     10  C   UNL     1      24.437   6.960 -15.289  1.00  0.00     0.146 A 
ATOM     11  O   UNL     1      24.182   6.692 -16.565  1.00  0.00    -0.456 OA
ENDROOT
BRANCH   1  12
ATOM     12  C   UNL     1      23.672   7.212 -18.876  1.00  0.00     0.021 A 
ATOM     13  C   UNL     1      24.016   5.929 -19.341  1.00  0.00     0.016 A 
ATOM     14  C   UNL     1      23.750   5.560 -20.662  1.00  0.00     0.051 A 
ATOM     15  C   UNL     1      23.133   6.457 -21.538  1.00  0.00     0.157 A 
ATOM     16  C   UNL     1      23.039   8.106 -19.758  1.00  0.00     0.062 A 
ATOM     17  C   UNL     1      22.773   7.736 -21.085  1.00  0.00     0.158 A 
BRANCH  15  18
ATOM     18  O   UNL     1      22.882   6.060 -22.851  1.00  0.00    -0.504 OA
ATOM     19  H   UNL     1      22.085   6.402 -23.374  1.00  0.00     0.293 HD
ENDBRANCH  15  18
BRANCH  17  20
ATOM     20  O   UNL     1      22.153   8.635 -21.951  1.00  0.00    -0.504 OA
ATOM     21  H   UNL     1      22.041   9.613 -21.712  1.00  0.00     0.293 HD
ENDBRANCH  17  20
ENDBRANCH   1  12
BRANCH   6  22
ATOM     22  O   UNL     1      24.956   9.801 -12.886  1.00  0.00    -0.507 OA
ATOM     23  H   UNL     1      25.002  10.662 -13.411  1.00  0.00     0.293 HD
ENDBRANCH   6  22
BRANCH   8  24
ATOM     24  O   UNL     1      25.124   5.071 -12.183  1.00  0.00    -0.508 OA
ATOM     25  H   UNL     1      24.385   4.416 -11.960  1.00  0.00     0.293 HD
ENDBRANCH   8  24
TORSDOF 5
ENDMDL
MODEL 6
REMARK VINA RESULT:    -6.009     11.815     13.887
REMARK INTER + INTRA:          -7.375
REMARK INTER:                  -7.105
REMARK INTRA:                  -0.270
REMARK UNBOUND:                -0.312
REMARK SMILES O=c1cc(-c2ccc(O)c(O)c2)oc2cc(O)cc(O)c12
REMARK SMILES IDX 4 1 3 2 2 3 1 4 21 5 19 6 18 7 16 8 15 9 14 10 13 11 5 12
REMARK SMILES IDX 6 13 7 14 8 15 12 16 10 17 9 18 11 20 20 22 17 24
REMARK H PARENT 9 19 11 21 20 23 17 25
REMARK Flexibility Score: inf
ROOT
ATOM      1  C   UNL     1      17.569  -0.029 -15.242  1.00  0.00     0.138 A 
ATOM      2  C   UNL     1      18.645   0.680 -14.690  1.00  0.00     0.100 A 
ATOM      3  C   UNL     1      19.792   0.899 -15.455  1.00  0.00     0.197 A 
ATOM      4  O   UNL     1      20.765   1.483 -14.911  1.00  0.00    -0.289 OA
ATOM      5  C   UNL     1      19.848   0.432 -16.789  1.00  0.00     0.107 A 
ATOM      6  C   UNL     1      20.949   0.633 -17.675  1.00  0.00     0.134 A 
ATOM      7  C   UNL     1      20.939   0.024 -18.937  1.00  0.00     0.093 A 
ATOM      8  C   UNL     1      19.845  -0.726 -19.367  1.00  0.00     0.123 A 
ATOM      9  C   UNL     1      18.740  -0.884 -18.529  1.00  0.00     0.094 A 
ATOM     10  C   UNL     1      18.734  -0.318 -17.252  1.00  0.00     0.146 A 
ATOM     11  O   UNL     1      17.669  -0.504 -16.480  1.00  0.00    -0.456 OA
ENDROOT
BRANCH   1  12
ATOM     12  C   UNL     1      16.325  -0.289 -14.475  1.00  0.00     0.021 A 
ATOM     13  C   UNL     1      16.294  -1.204 -13.406  1.00  0.00     0.016 A 
ATOM     14  C   UNL     1      15.111  -1.423 -12.694  1.00  0.00     0.051 A 
ATOM     15  C   UNL     1      13.944  -0.731 -13.030  1.00  0.00     0.157 A 
ATOM     16  C   UNL     1      15.151   0.414 -14.799  1.00  0.00     0.062 A 
ATOM     17  C   UNL     1      13.963   0.194 -14.086  1.00  0.00     0.158 A 
BRANCH  15  18
ATOM     18  O   UNL     1      12.780  -0.971 -12.302  1.00  0.00    -0.504 OA
ATOM     19  H   UNL     1      12.194  -1.780 -12.474  1.00  0.00     0.293 HD
ENDBRANCH  15  18
BRANCH  17  20
ATOM     20  O   UNL     1      12.804   0.892 -14.424  1.00  0.00    -0.504 OA
ATOM     21  H   UNL     1      11.888   0.468 -14.349  1.00  0.00     0.293 HD
ENDBRANCH  17  20
ENDBRANCH   1  12
BRANCH   6  22
ATOM     22  O   UNL     1      22.054   1.434 -17.378  1.00  0.00    -0.507 OA
ATOM     23  H   UNL     1      22.978   1.310 -17.766  1.00  0.00     0.293 HD
ENDBRANCH   6  22
BRANCH   8  24
ATOM     24  O   UNL     1      19.864  -1.304 -20.634  1.00  0.00    -0.508 OA
ATOM     25  H   UNL     1      20.665  -1.829 -20.966  1.00  0.00     0.293 HD
ENDBRANCH   8  24
TORSDOF 5
ENDMDL
MODEL 7
REMARK VINA RESULT:    -5.839      3.533      6.856
REMARK INTER + INTRA:          -7.175
REMARK INTER:                  -6.913
REMARK INTRA:                  -0.262
REMARK UNBOUND:                -0.312
REMARK SMILES O=c1cc(-c2ccc(O)c(O)c2)oc2cc(O)cc(O)c12
REMARK SMILES IDX 4 1 3 2 2 3 1 4 21 5 19 6 18 7 16 8 15 9 14 10 13 11 5 12
REMARK SMILES IDX 6 13 7 14 8 15 12 16 10 17 9 18 11 20 20 22 17 24
REMARK H PARENT 9 19 11 21 20 23 17 25
REMARK Flexibility Score: inf
ROOT
ATOM      1  C   UNL     1      10.426  -6.322 -10.342  1.00  0.00     0.138 A 
ATOM      2  C   UNL     1       9.497  -5.507 -11.001  1.00  0.00     0.100 A 
ATOM      3  C   UNL     1       8.392  -5.016 -10.303  1.00  0.00     0.197 A 
ATOM      4  O   UNL     1       7.543  -4.338 -10.938  1.00  0.00    -0.289 OA
ATOM      5  C   UNL     1       8.237  -5.318  -8.930  1.00  0.00     0.107 A 
ATOM      6  C   UNL     1       7.173  -4.839  -8.108  1.00  0.00     0.134 A 
ATOM      7  C   UNL     1       7.059  -5.300  -6.790  1.00  0.00     0.093 A 
ATOM      8  C   UNL     1       8.000  -6.172  -6.247  1.00  0.00     0.123 A 
ATOM      9  C   UNL     1       9.075  -6.605  -7.025  1.00  0.00     0.094 A 
ATOM     10  C   UNL     1       9.198  -6.191  -8.354  1.00  0.00     0.146 A 
ATOM     11  O   UNL     1      10.228  -6.636  -9.065  1.00  0.00    -0.456 OA
ENDROOT
BRANCH   1  12
ATOM     12  C   UNL     1      11.620  -6.871 -11.036  1.00  0.00     0.021 A 
ATOM     13  C   UNL     1      11.633  -8.176 -11.562  1.00  0.00     0.016 A 
ATOM     14  C   UNL     1      12.766  -8.664 -12.218  1.00  0.00     0.051 A 
ATOM     15  C   UNL     1      13.899  -7.860 -12.367  1.00  0.00     0.157 A 
ATOM     16  C   UNL     1      12.758  -6.062 -11.200  1.00  0.00     0.062 A 
ATOM     17  C   UNL     1      13.896  -6.552 -11.858  1.00  0.00     0.158 A 
BRANCH  15  18
ATOM     18  O   UNL     1      15.015  -8.375 -13.026  1.00  0.00    -0.504 OA
ATOM     19  H   UNL     1      15.903  -8.508 -12.558  1.00  0.00     0.293 HD
ENDBRANCH  15  18
BRANCH  17  20
ATOM     20  O   UNL     1      15.021  -5.742 -12.007  1.00  0.00    -0.504 OA
ATOM     21  H   UNL     1      15.765  -5.979 -12.652  1.00  0.00     0.293 HD
ENDBRANCH  17  20
ENDBRANCH   1  12
BRANCH   6  22
ATOM     22  O   UNL     1       6.225  -3.900  -8.524  1.00  0.00    -0.507 OA
ATOM     23  H   UNL     1       6.350  -3.256  -9.291  1.00  0.00     0.293 HD
ENDBRANCH   6  22
BRANCH   8  24
ATOM     24  O   UNL     1       7.863  -6.598  -4.927  1.00  0.00    -0.508 OA
ATOM     25  H   UNL     1       7.763  -7.578  -4.694  1.00  0.00     0.293 HD
ENDBRANCH   8  24
TORSDOF 5
ENDMDL
MODEL 8
REMARK VINA RESULT:    -5.834      9.409     10.229
REMARK INTER + INTRA:          -7.169
REMARK INTER:                  -6.887
REMARK INTRA:                  -0.282
REMARK UNBOUND:                -0.312
REMARK SMILES O=c1cc(-c2ccc(O)c(O)c2)oc2cc(O)cc(O)c12
REMARK SMILES IDX 4 1 3 2 2 3 1 4 21 5 19 6 18 7 16 8 15 9 14 10 13 11 5 12
REMARK SMILES IDX 6 13 7 14 8 15 12 16 10 17 9 18 11 20 20 22 17 24
REMARK H PARENT 9 19 11 21 20 23 17 25
REMARK Flexibility Score: inf
ROOT
ATOM      1  C   UNL     1      16.877  -3.755 -11.555  1.00  0.00     0.138 A 
ATOM      2  C   UNL     1      15.859  -4.700 -11.364  1.00  0.00     0.100 A 
ATOM      3  C   UNL     1      15.514  -5.562 -12.406  1.00  0.00     0.197 A 
ATOM      4  O   UNL     1      14.555  -6.355 -12.226  1.00  0.00    -0.289 OA
ATOM      5  C   UNL     1      16.215  -5.498 -13.633  1.00  0.00     0.107 A 
ATOM      6  C   UNL     1      15.977  -6.354 -14.750  1.00  0.00     0.134 A 
ATOM      7  C   UNL     1      16.654  -6.121 -15.954  1.00  0.00     0.093 A 
ATOM      8  C   UNL     1      17.601  -5.105 -16.064  1.00  0.00     0.123 A 
ATOM      9  C   UNL     1      17.881  -4.295 -14.962  1.00  0.00     0.094 A 
ATOM     10  C   UNL     1      17.198  -4.480 -13.757  1.00  0.00     0.146 A 
ATOM     11  O   UNL     1      17.483  -3.680 -12.736  1.00  0.00    -0.456 OA
ENDROOT
BRANCH   1  12
ATOM     12  C   UNL     1      17.286  -2.814 -10.481  1.00  0.00     0.021 A 
ATOM     13  C   UNL     1      17.643  -1.482 -10.763  1.00  0.00     0.016 A 
ATOM     14  C   UNL     1      18.014  -0.615  -9.731  1.00  0.00     0.051 A 
ATOM     15  C   UNL     1      18.029  -1.057  -8.405  1.00  0.00     0.157 A 
ATOM     16  C   UNL     1      17.290  -3.249  -9.143  1.00  0.00     0.062 A 
ATOM     17  C   UNL     1      17.663  -2.379  -8.108  1.00  0.00     0.158 A 
BRANCH  15  18
ATOM     18  O   UNL     1      18.405  -0.168  -7.399  1.00  0.00    -0.504 OA
ATOM     19  H   UNL     1      18.180  -0.332  -6.425  1.00  0.00     0.293 HD
ENDBRANCH  15  18
BRANCH  17  20
ATOM     20  O   UNL     1      17.672  -2.826  -6.787  1.00  0.00    -0.504 OA
ATOM     21  H   UNL     1      17.077  -3.586  -6.480  1.00  0.00     0.293 HD
ENDBRANCH  17  20
ENDBRANCH   1  12
BRANCH   6  22
ATOM     22  O   UNL     1      15.114  -7.453 -14.723  1.00  0.00    -0.507 OA
ATOM     23  H   UNL     1      14.965  -8.089 -15.492  1.00  0.00     0.293 HD
ENDBRANCH   6  22
BRANCH   8  24
ATOM     24  O   UNL     1      18.266  -4.912 -17.273  1.00  0.00    -0.508 OA
ATOM     25  H   UNL     1      19.070  -4.299 -17.344  1.00  0.00     0.293 HD
ENDBRANCH   8  24
TORSDOF 5
ENDMDL
MODEL 9
REMARK VINA RESULT:    -5.805     11.795     14.791
REMARK INTER + INTRA:          -7.135
REMARK INTER:                  -6.866
REMARK INTRA:                  -0.269
REMARK UNBOUND:                -0.312
REMARK SMILES O=c1cc(-c2ccc(O)c(O)c2)oc2cc(O)cc(O)c12
REMARK SMILES IDX 4 1 3 2 2 3 1 4 21 5 19 6 18 7 16 8 15 9 14 10 13 11 5 12
REMARK SMILES IDX 6 13 7 14 8 15 12 16 10 17 9 18 11 20 20 22 17 24
REMARK H PARENT 9 19 11 21 20 23 17 25
REMARK Flexibility Score: inf
ROOT
ATOM      1  C   UNL     1      18.207  -1.002 -16.516  1.00  0.00     0.138 A 
ATOM      2  C   UNL     1      18.289  -2.282 -15.952  1.00  0.00     0.100 A 
ATOM      3  C   UNL     1      17.458  -2.620 -14.882  1.00  0.00     0.197 A 
ATOM      4  O   UNL     1      17.599  -3.754 -14.357  1.00  0.00    -0.289 OA
ATOM      5  C   UNL     1      16.517  -1.681 -14.399  1.00  0.00     0.107 A 
ATOM      6  C   UNL     1      15.591  -1.929 -13.341  1.00  0.00     0.134 A 
ATOM      7  C   UNL     1      14.786  -0.884 -12.870  1.00  0.00     0.093 A 
ATOM      8  C   UNL     1      14.830   0.381 -13.455  1.00  0.00     0.123 A 
ATOM      9  C   UNL     1      15.694   0.620 -14.525  1.00  0.00     0.094 A 
ATOM     10  C   UNL     1      16.534  -0.392 -14.996  1.00  0.00     0.146 A 
ATOM     11  O   UNL     1      17.352  -0.119 -16.007  1.00  0.00    -0.456 OA
ENDROOT
BRANCH   1  12
ATOM     12  C   UNL     1      19.066  -0.590 -17.655  1.00  0.00     0.021 A 
ATOM     13  C   UNL     1      18.737  -0.917 -18.984  1.00  0.00     0.016 A 
ATOM     14  C   UNL     1      19.559  -0.507 -20.037  1.00  0.00     0.051 A 
ATOM     15  C   UNL     1      20.714   0.239 -19.787  1.00  0.00     0.157 A 
ATOM     16  C   UNL     1      20.222   0.172 -17.410  1.00  0.00     0.062 A 
ATOM     17  C   UNL     1      21.047   0.583 -18.467  1.00  0.00     0.158 A 
BRANCH  15  18
ATOM     18  O   UNL     1      21.514   0.632 -20.859  1.00  0.00    -0.504 OA
ATOM     19  H   UNL     1      21.228   1.357 -21.506  1.00  0.00     0.293 HD
ENDBRANCH  15  18
BRANCH  17  20
ATOM     20  O   UNL     1      22.196   1.330 -18.209  1.00  0.00    -0.504 OA
ATOM     21  H   UNL     1      23.066   1.153 -18.697  1.00  0.00     0.293 HD
ENDBRANCH  17  20
ENDBRANCH   1  12
BRANCH   6  22
ATOM     22  O   UNL     1      15.405  -3.178 -12.743  1.00  0.00    -0.507 OA
ATOM     23  H   UNL     1      15.710  -3.423 -11.813  1.00  0.00     0.293 HD
ENDBRANCH   6  22
BRANCH   8  24
ATOM     24  O   UNL     1      14.005   1.392 -12.970  1.00  0.00    -0.508 OA
ATOM     25  H   UNL     1      12.997   1.290 -12.948  1.00  0.00     0.293 HD
ENDBRANCH   8  24
TORSDOF 5
ENDMDL
