MODEL 1
REMARK VINA RESULT:    10.223      0.000      0.000
REMARK INTER + INTRA:          11.363
REMARK INTER:                  11.120
REMARK INTRA:                   0.244
REMARK UNBOUND:                 0.244
REMARK SMILES C[C@@H]1[C@H](C)CC[C@@]2(C(=O)[O-])CC[C@]3(C)C(=CC[C@H]4[C@@]5(C)CC[C@@H](O)C(C)(C)[C@H]5CC[C@@]43C)[C@H]12
REMARK SMILES IDX 7 1 6 2 11 3 33 4 5 5 12 6 15 7 2 8 3 9 13 10 16 11 1 12
REMARK SMILES IDX 4 13 14 14 31 15 17 16 18 17 30 18 32 19 19 20 29 21 28 22
REMARK SMILES IDX 21 23 20 24 25 25 22 26 23 27 26 28 27 29 8 30 9 31 10 32
REMARK SMILES IDX 24 33
REMARK H PARENT 24 34
REMARK Flexibility Score: inf
ROOT
ATOM      1  C   UNL     1      -5.921   6.343  -6.569  1.00  0.00     0.017 C 
ATOM      2  C   UNL     1      -6.280   5.353  -7.714  1.00  0.00     0.014 C 
ATOM      3  C   UNL     1      -4.749   5.740  -5.724  1.00  0.00     0.014 C 
ATOM      4  C   UNL     1      -5.482   7.673  -7.275  1.00  0.00     0.030 C 
ATOM      5  C   UNL     1      -7.386   5.888  -8.639  1.00  0.00     0.004 C 
ATOM      6  C   UNL     1      -3.411   6.471  -5.878  1.00  0.00     0.013 C 
ATOM      7  C   UNL     1      -4.638   8.639  -6.425  1.00  0.00    -0.063 C 
ATOM      8  C   UNL     1      -6.611   8.289  -8.159  1.00  0.00    -0.003 C 
ATOM      9  C   UNL     1      -7.036   7.269  -9.248  1.00  0.00    -0.011 C 
ATOM     10  C   UNL     1      -3.500   8.017  -5.549  1.00  0.00    -0.006 C 
ATOM     11  C   UNL     1      -4.409   9.865  -6.963  1.00  0.00    -0.027 C 
ATOM     12  C   UNL     1      -7.780   8.877  -7.348  1.00  0.00     0.008 C 
ATOM     13  C   UNL     1      -8.188   7.789 -10.124  1.00  0.00     0.008 C 
ATOM     14  C   UNL     1      -3.923   8.150  -4.045  1.00  0.00     0.017 C 
ATOM     15  C   UNL     1      -2.087   8.753  -5.857  1.00  0.00    -0.020 C 
ATOM     16  C   UNL     1      -3.120  10.121  -7.730  1.00  0.00     0.032 C 
ATOM     17  C   UNL     1      -2.061   9.031  -7.394  1.00  0.00     0.006 C 
ATOM     18  C   UNL     1      -0.847   7.923  -5.429  1.00  0.00     0.008 C 
ATOM     19  C   UNL     1      -1.988  10.125  -5.086  1.00  0.00     0.012 C 
ATOM     20  C   UNL     1      -0.649   9.043  -8.132  1.00  0.00    -0.025 C 
ATOM     21  C   UNL     1      -0.205   7.023  -6.512  1.00  0.00     0.005 C 
ATOM     22  C   UNL     1      -0.040   7.588  -7.977  1.00  0.00     0.003 C 
ATOM     23  C   UNL     1       0.372  10.089  -7.592  1.00  0.00     0.010 C 
ATOM     24  C   UNL     1      -0.963   9.388  -9.627  1.00  0.00     0.012 C 
ATOM     25  C   UNL     1       1.431   7.393  -8.553  1.00  0.00    -0.006 C 
ATOM     26  C   UNL     1       1.787   9.923  -8.185  1.00  0.00     0.033 C 
ATOM     27  C   UNL     1       2.377   8.501  -7.988  1.00  0.00     0.120 C 
ATOM     28  C   UNL     1       1.964   5.957  -8.208  1.00  0.00     0.014 C 
ATOM     29  C   UNL     1       1.471   7.426 -10.121  1.00  0.00     0.014 C 
ENDROOT
BRANCH   1  30
ATOM     30  C   UNL     1      -7.113   6.509  -5.626  1.00  0.00     0.048 C 
ATOM     31  O   UNL     1      -6.977   7.071  -4.504  1.00  0.00    -0.550 OA
ATOM     32  O   UNL     1      -8.330   5.893  -5.906  1.00  0.00    -0.550 OA
ENDBRANCH   1  30
BRANCH  27  33
ATOM     33  O   UNL     1       2.621   8.285  -6.615  1.00  0.00    -0.393 OA
ATOM     34  H   UNL     1       3.551   8.576  -6.426  1.00  0.00     0.210 HD
ENDBRANCH  27  33
TORSDOF 2
ENDMDL
MODEL 2
REMARK VINA RESULT:    11.955      1.332      1.743
REMARK INTER + INTRA:          13.247
REMARK INTER:                  13.016
REMARK INTRA:                   0.231
REMARK UNBOUND:                 0.244
REMARK SMILES C[C@@H]1[C@H](C)CC[C@@]2(C(=O)[O-])CC[C@]3(C)C(=CC[C@H]4[C@@]5(C)CC[C@@H](O)C(C)(C)[C@H]5CC[C@@]43C)[C@H]12
REMARK SMILES IDX 7 1 6 2 11 3 33 4 5 5 12 6 15 7 2 8 3 9 13 10 16 11 1 12
REMARK SMILES IDX 4 13 14 14 31 15 17 16 18 17 30 18 32 19 19 20 29 21 28 22
REMARK SMILES IDX 21 23 20 24 25 25 22 26 23 27 26 28 27 29 8 30 9 31 10 32
REMARK SMILES IDX 24 33
REMARK H PARENT 24 34
REMARK Flexibility Score: inf
ROOT
ATOM      1  C   UNL     1      -7.482   6.145  -6.905  1.00  0.00     0.017 C 
ATOM      2  C   UNL     1      -7.890   5.631  -8.315  1.00  0.00     0.014 C 
ATOM      3  C   UNL     1      -6.282   5.285  -6.379  1.00  0.00     0.014 C 
ATOM      4  C   UNL     1      -7.060   7.642  -7.100  1.00  0.00     0.030 C 
ATOM      5  C   UNL     1      -9.026   6.456  -8.943  1.00  0.00     0.004 C 
ATOM      6  C   UNL     1      -4.946   6.032  -6.310  1.00  0.00     0.013 C 
ATOM      7  C   UNL     1      -6.178   8.243  -5.991  1.00  0.00    -0.063 C 
ATOM      8  C   UNL     1      -8.217   8.528  -7.659  1.00  0.00    -0.003 C 
ATOM      9  C   UNL     1      -8.691   7.966  -9.026  1.00  0.00    -0.011 C 
ATOM     10  C   UNL     1      -5.013   7.354  -5.442  1.00  0.00    -0.006 C 
ATOM     11  C   UNL     1      -5.961   9.582  -6.059  1.00  0.00    -0.027 C 
ATOM     12  C   UNL     1      -9.352   8.775  -6.647  1.00  0.00     0.008 C 
ATOM     13  C   UNL     1      -9.871   8.758  -9.611  1.00  0.00     0.008 C 
ATOM     14  C   UNL     1      -5.377   6.933  -3.976  1.00  0.00     0.017 C 
ATOM     15  C   UNL     1      -3.607   8.163  -5.517  1.00  0.00    -0.020 C 
ATOM     16  C   UNL     1      -4.700  10.106  -6.730  1.00  0.00     0.032 C 
ATOM     17  C   UNL     1      -3.637   8.976  -6.850  1.00  0.00     0.006 C 
ATOM     18  C   UNL     1      -2.357   7.243  -5.464  1.00  0.00     0.008 C 
ATOM     19  C   UNL     1      -3.469   9.164  -4.308  1.00  0.00     0.012 C 
ATOM     20  C   UNL     1      -2.254   9.264  -7.587  1.00  0.00    -0.025 C 
ATOM     21  C   UNL     1      -1.763   6.799  -6.822  1.00  0.00     0.005 C 
ATOM     22  C   UNL     1      -1.650   7.856  -7.989  1.00  0.00     0.003 C 
ATOM     23  C   UNL     1      -1.206  10.052  -6.744  1.00  0.00     0.010 C 
ATOM     24  C   UNL     1      -2.622  10.122  -8.843  1.00  0.00     0.012 C 
ATOM     25  C   UNL     1      -0.202   7.892  -8.653  1.00  0.00    -0.006 C 
ATOM     26  C   UNL     1       0.185  10.122  -7.410  1.00  0.00     0.033 C 
ATOM     27  C   UNL     1       0.772   8.728  -7.762  1.00  0.00     0.120 C 
ATOM     28  C   UNL     1       0.333   6.432  -8.869  1.00  0.00     0.014 C 
ATOM     29  C   UNL     1      -0.222   8.489 -10.104  1.00  0.00     0.014 C 
ENDROOT
BRANCH   1  30
ATOM     30  C   UNL     1      -8.636   5.950  -5.922  1.00  0.00     0.048 C 
ATOM     31  O   UNL     1      -8.583   6.436  -4.758  1.00  0.00    -0.550 OA
ATOM     32  O   UNL     1      -9.689   5.091  -6.225  1.00  0.00    -0.550 OA
ENDBRANCH   1  30
BRANCH  27  33
ATOM     33  O   UNL     1       1.065   8.033  -6.570  1.00  0.00    -0.393 OA
ATOM     34  H   UNL     1       0.203   7.750  -6.167  1.00  0.00     0.210 HD
ENDBRANCH  27  33
TORSDOF 2
ENDMDL
MODEL 3
REMARK VINA RESULT:    13.125      2.068      7.713
REMARK INTER + INTRA:          14.519
REMARK INTER:                  13.991
REMARK INTRA:                   0.529
REMARK UNBOUND:                 0.244
REMARK SMILES C[C@@H]1[C@H](C)CC[C@@]2(C(=O)[O-])CC[C@]3(C)C(=CC[C@H]4[C@@]5(C)CC[C@@H](O)C(C)(C)[C@H]5CC[C@@]43C)[C@H]12
REMARK SMILES IDX 7 1 6 2 11 3 33 4 5 5 12 6 15 7 2 8 3 9 13 10 16 11 1 12
REMARK SMILES IDX 4 13 14 14 31 15 17 16 18 17 30 18 32 19 19 20 29 21 28 22
REMARK SMILES IDX 21 23 20 24 25 25 22 26 23 27 26 28 27 29 8 30 9 31 10 32
REMARK SMILES IDX 24 33
REMARK H PARENT 24 34
REMARK Flexibility Score: inf
ROOT
ATOM      1  C   UNL     1      -1.663   8.108  -7.883  1.00  0.00     0.017 C 
ATOM      2  C   UNL     1      -0.852   6.865  -7.417  1.00  0.00     0.014 C 
ATOM      3  C   UNL     1      -2.445   7.744  -9.190  1.00  0.00     0.014 C 
ATOM      4  C   UNL     1      -2.648   8.441  -6.710  1.00  0.00     0.030 C 
ATOM      5  C   UNL     1      -0.095   7.107  -6.101  1.00  0.00     0.004 C 
ATOM      6  C   UNL     1      -3.964   7.645  -9.016  1.00  0.00     0.013 C 
ATOM      7  C   UNL     1      -3.868   9.303  -7.081  1.00  0.00    -0.063 C 
ATOM      8  C   UNL     1      -1.909   8.774  -5.376  1.00  0.00    -0.003 C 
ATOM      9  C   UNL     1      -1.028   7.569  -4.953  1.00  0.00    -0.011 C 
ATOM     10  C   UNL     1      -4.612   8.957  -8.414  1.00  0.00    -0.006 C 
ATOM     11  C   UNL     1      -4.625   9.746  -6.043  1.00  0.00    -0.027 C 
ATOM     12  C   UNL     1      -1.170  10.125  -5.399  1.00  0.00     0.008 C 
ATOM     13  C   UNL     1      -0.224   7.849  -3.672  1.00  0.00     0.008 C 
ATOM     14  C   UNL     1      -4.343  10.120  -9.431  1.00  0.00     0.017 C 
ATOM     15  C   UNL     1      -6.196   8.741  -8.134  1.00  0.00    -0.020 C 
ATOM     16  C   UNL     1      -5.863   8.966  -5.628  1.00  0.00     0.032 C 
ATOM     17  C   UNL     1      -6.304   7.998  -6.764  1.00  0.00     0.006 C 
ATOM     18  C   UNL     1      -6.921   7.940  -9.249  1.00  0.00     0.008 C 
ATOM     19  C   UNL     1      -6.942  10.125  -8.027  1.00  0.00     0.012 C 
ATOM     20  C   UNL     1      -7.538   7.017  -6.535  1.00  0.00    -0.025 C 
ATOM     21  C   UNL     1      -7.040   6.412  -9.043  1.00  0.00     0.005 C 
ATOM     22  C   UNL     1      -7.406   5.860  -7.610  1.00  0.00     0.003 C 
ATOM     23  C   UNL     1      -8.943   7.679  -6.662  1.00  0.00     0.010 C 
ATOM     24  C   UNL     1      -7.377   6.478  -5.075  1.00  0.00     0.012 C 
ATOM     25  C   UNL     1      -8.601   4.808  -7.639  1.00  0.00    -0.006 C 
ATOM     26  C   UNL     1     -10.102   6.660  -6.646  1.00  0.00     0.033 C 
ATOM     27  C   UNL     1      -9.969   5.558  -7.732  1.00  0.00     0.120 C 
ATOM     28  C   UNL     1      -8.416   3.807  -8.834  1.00  0.00     0.014 C 
ATOM     29  C   UNL     1      -8.606   3.870  -6.381  1.00  0.00     0.014 C 
ENDROOT
BRANCH   1  30
ATOM     30  C   UNL     1      -0.711   9.252  -8.235  1.00  0.00     0.048 C 
ATOM     31  O   UNL     1      -1.023  10.106  -9.110  1.00  0.00    -0.550 OA
ATOM     32  O   UNL     1       0.585   9.277  -7.729  1.00  0.00    -0.550 OA
ENDBRANCH   1  30
BRANCH  27  33
ATOM     33  O   UNL     1     -10.124   6.140  -9.007  1.00  0.00    -0.393 OA
ATOM     34  H   UNL     1     -11.074   6.027  -9.275  1.00  0.00     0.210 HD
ENDBRANCH  27  33
TORSDOF 2
ENDMDL
