MODEL 1
REMARK VINA RESULT:    -5.199      0.000      0.000
REMARK INTER + INTRA:         -17.927
REMARK INTER:                 -13.100
REMARK INTRA:                  -4.827
REMARK UNBOUND:                -4.827
REMARK SMILES CCCCCCCCCCCCCCCCCCCCCCCCCCCC(=O)[O-]
REMARK SMILES IDX 15 1 16 2 17 3 18 4 19 5 20 6 21 7 22 8 23 9 24 10 25 11
REMARK SMILES IDX 26 12 27 13 28 14 29 15 30 16 14 17 13 18 12 19 11 20 10 21
REMARK SMILES IDX 9 22 8 23 7 24 6 25 5 26 4 27 3 28 2 29 1 30
REMARK H PARENT
REMARK Flexibility Score: inf
ROOT
ATOM      1  C   UNL     1      14.309 -30.161  23.397  1.00  0.00     0.000 C 
ENDROOT
BRANCH   1   2
ATOM      2  C   UNL     1      14.476 -28.956  22.459  1.00  0.00     0.000 C 
BRANCH   2   3
ATOM      3  C   UNL     1      15.788 -29.055  21.667  1.00  0.00     0.000 C 
BRANCH   3   4
ATOM      4  C   UNL     1      16.607 -30.301  22.040  1.00  0.00     0.000 C 
BRANCH   4   5
ATOM      5  C   UNL     1      17.127 -31.058  20.805  1.00  0.00     0.000 C 
BRANCH   5   6
ATOM      6  C   UNL     1      18.109 -32.187  21.184  1.00  0.00     0.000 C 
BRANCH   6   7
ATOM      7  C   UNL     1      19.499 -32.047  20.540  1.00  0.00     0.000 C 
BRANCH   7   8
ATOM      8  C   UNL     1      20.612 -31.799  21.567  1.00  0.00     0.000 C 
BRANCH   8   9
ATOM      9  C   UNL     1      20.526 -30.382  22.150  1.00  0.00     0.000 C 
BRANCH   9  10
ATOM     10  C   UNL     1      20.693 -29.327  21.046  1.00  0.00     0.000 C 
BRANCH  10  11
ATOM     11  C   UNL     1      19.454 -28.432  20.889  1.00  0.00     0.000 C 
BRANCH  11  12
ATOM     12  C   UNL     1      19.812 -26.936  20.859  1.00  0.00     0.006 C 
BRANCH  12  13
ATOM     13  C   UNL     1      20.959 -26.591  21.821  1.00  0.00     0.053 C 
BRANCH  13  14
ATOM     14  C   UNL     1      22.141 -26.020  21.099  1.00  0.00     0.041 C 
ATOM     15  O   UNL     1      22.810 -25.086  21.615  1.00  0.00    -0.550 OA
ATOM     16  O   UNL     1      22.477 -26.490  19.835  1.00  0.00    -0.550 OA
ENDBRANCH  13  14
ENDBRANCH  12  13
ENDBRANCH  11  12
ENDBRANCH  10  11
ENDBRANCH   9  10
ENDBRANCH   8   9
ENDBRANCH   7   8
ENDBRANCH   6   7
ENDBRANCH   5   6
ENDBRANCH   4   5
ENDBRANCH   3   4
ENDBRANCH   2   3
ENDBRANCH   1   2
BRANCH   1  17
ATOM     17  C   UNL     1      13.156 -31.086  22.972  1.00  0.00     0.000 C 
BRANCH  17  18
ATOM     18  C   UNL     1      12.545 -30.678  21.622  1.00  0.00     0.000 C 
BRANCH  18  19
ATOM     19  C   UNL     1      13.079 -31.559  20.483  1.00  0.00     0.000 C 
BRANCH  19  20
ATOM     20  C   UNL     1      14.014 -32.679  20.977  1.00  0.00     0.000 C 
BRANCH  20  21
ATOM     21  C   UNL     1      14.562 -33.602  19.874  1.00  0.00     0.000 C 
BRANCH  21  22
ATOM     22  C   UNL     1      15.417 -34.752  20.426  1.00  0.00    -0.000 C 
BRANCH  22  23
ATOM     23  C   UNL     1      16.241 -35.406  19.306  1.00  0.00    -0.000 C 
BRANCH  23  24
ATOM     24  C   UNL     1      17.712 -35.621  19.699  1.00  0.00    -0.000 C 
BRANCH  24  25
ATOM     25  C   UNL     1      17.860 -36.507  20.948  1.00  0.00    -0.000 C 
BRANCH  25  26
ATOM     26  C   UNL     1      18.583 -35.792  22.102  1.00  0.00    -0.000 C 
BRANCH  26  27
ATOM     27  C   UNL     1      17.685 -35.386  23.286  1.00  0.00    -0.000 C 
BRANCH  27  28
ATOM     28  C   UNL     1      18.288 -34.279  24.177  1.00  0.00    -0.000 C 
BRANCH  28  29
ATOM     29  C   UNL     1      17.229 -33.277  24.661  1.00  0.00    -0.003 C 
ATOM     30  C   UNL     1      15.884 -33.526  23.984  1.00  0.00     0.004 C 
ENDBRANCH  28  29
ENDBRANCH  27  28
ENDBRANCH  26  27
ENDBRANCH  25  26
ENDBRANCH  24  25
ENDBRANCH  23  24
ENDBRANCH  22  23
ENDBRANCH  21  22
ENDBRANCH  20  21
ENDBRANCH  19  20
ENDBRANCH  18  19
ENDBRANCH  17  18
ENDBRANCH   1  17
TORSDOF 26
ENDMDL
MODEL 2
REMARK VINA RESULT:    -5.187      3.073      7.377
REMARK INTER + INTRA:         -17.899
REMARK INTER:                 -13.615
REMARK INTRA:                  -4.284
REMARK UNBOUND:                -4.827
REMARK SMILES CCCCCCCCCCCCCCCCCCCCCCCCCCCC(=O)[O-]
REMARK SMILES IDX 15 1 16 2 17 3 18 4 19 5 20 6 21 7 22 8 23 9 24 10 25 11
REMARK SMILES IDX 26 12 27 13 28 14 29 15 30 16 14 17 13 18 12 19 11 20 10 21
REMARK SMILES IDX 9 22 8 23 7 24 6 25 5 26 4 27 3 28 2 29 1 30
REMARK H PARENT
REMARK Flexibility Score: inf
ROOT
ATOM      1  C   UNL     1      14.334 -30.521  23.326  1.00  0.00     0.000 C 
ENDROOT
BRANCH   1   2
ATOM      2  C   UNL     1      13.757 -31.926  23.095  1.00  0.00     0.000 C 
BRANCH   2   3
ATOM      3  C   UNL     1      14.746 -33.007  23.553  1.00  0.00     0.000 C 
BRANCH   3   4
ATOM      4  C   UNL     1      15.183 -33.928  22.403  1.00  0.00     0.000 C 
BRANCH   4   5
ATOM      5  C   UNL     1      14.734 -33.407  21.026  1.00  0.00     0.000 C 
BRANCH   5   6
ATOM      6  C   UNL     1      15.017 -34.423  19.898  1.00  0.00     0.000 C 
BRANCH   6   7
ATOM      7  C   UNL     1      16.240 -34.071  19.034  1.00  0.00     0.000 C 
BRANCH   7   8
ATOM      8  C   UNL     1      17.342 -35.139  19.094  1.00  0.00     0.000 C 
BRANCH   8   9
ATOM      9  C   UNL     1      16.788 -36.484  19.581  1.00  0.00     0.000 C 
BRANCH   9  10
ATOM     10  C   UNL     1      17.638 -37.036  20.737  1.00  0.00     0.000 C 
BRANCH  10  11
ATOM     11  C   UNL     1      18.261 -35.925  21.597  1.00  0.00     0.000 C 
BRANCH  11  12
ATOM     12  C   UNL     1      18.674 -36.427  22.992  1.00  0.00     0.006 C 
BRANCH  12  13
ATOM     13  C   UNL     1      18.955 -35.274  23.967  1.00  0.00     0.053 C 
BRANCH  13  14
ATOM     14  C   UNL     1      17.767 -34.965  24.826  1.00  0.00     0.041 C 
ATOM     15  O   UNL     1      16.873 -35.833  25.009  1.00  0.00    -0.550 OA
ATOM     16  O   UNL     1      17.625 -33.702  25.388  1.00  0.00    -0.550 OA
ENDBRANCH  13  14
ENDBRANCH  12  13
ENDBRANCH  11  12
ENDBRANCH  10  11
ENDBRANCH   9  10
ENDBRANCH   8   9
ENDBRANCH   7   8
ENDBRANCH   6   7
ENDBRANCH   5   6
ENDBRANCH   4   5
ENDBRANCH   3   4
ENDBRANCH   2   3
ENDBRANCH   1   2
BRANCH   1  17
ATOM     17  C   UNL     1      14.449 -29.709  22.024  1.00  0.00     0.000 C 
BRANCH  17  18
ATOM     18  C   UNL     1      15.891 -29.262  21.738  1.00  0.00     0.000 C 
BRANCH  18  19
ATOM     19  C   UNL     1      16.900 -30.341  22.160  1.00  0.00     0.000 C 
BRANCH  19  20
ATOM     20  C   UNL     1      17.607 -31.003  20.963  1.00  0.00     0.000 C 
BRANCH  20  21
ATOM     21  C   UNL     1      18.337 -32.320  21.286  1.00  0.00     0.000 C 
BRANCH  21  22
ATOM     22  C   UNL     1      19.674 -32.101  22.009  1.00  0.00    -0.000 C 
BRANCH  22  23
ATOM     23  C   UNL     1      20.608 -31.213  21.173  1.00  0.00    -0.000 C 
BRANCH  23  24
ATOM     24  C   UNL     1      20.814 -29.821  21.792  1.00  0.00    -0.000 C 
BRANCH  24  25
ATOM     25  C   UNL     1      20.846 -28.707  20.731  1.00  0.00    -0.000 C 
BRANCH  25  26
ATOM     26  C   UNL     1      19.613 -27.790  20.793  1.00  0.00    -0.000 C 
BRANCH  26  27
ATOM     27  C   UNL     1      19.913 -26.306  21.080  1.00  0.00    -0.000 C 
BRANCH  27  28
ATOM     28  C   UNL     1      20.718 -25.605  19.964  1.00  0.00    -0.000 C 
BRANCH  28  29
ATOM     29  C   UNL     1      22.216 -25.513  20.294  1.00  0.00    -0.003 C 
ATOM     30  C   UNL     1      22.955 -24.661  19.266  1.00  0.00     0.004 C 
ENDBRANCH  28  29
ENDBRANCH  27  28
ENDBRANCH  26  27
ENDBRANCH  25  26
ENDBRANCH  24  25
ENDBRANCH  23  24
ENDBRANCH  22  23
ENDBRANCH  21  22
ENDBRANCH  20  21
ENDBRANCH  19  20
ENDBRANCH  18  19
ENDBRANCH  17  18
ENDBRANCH   1  17
TORSDOF 26
ENDMDL
MODEL 3
REMARK VINA RESULT:    -5.078      1.232      1.999
REMARK INTER + INTRA:         -17.624
REMARK INTER:                 -11.907
REMARK INTRA:                  -5.717
REMARK UNBOUND:                -4.827
REMARK SMILES CCCCCCCCCCCCCCCCCCCCCCCCCCCC(=O)[O-]
REMARK SMILES IDX 15 1 16 2 17 3 18 4 19 5 20 6 21 7 22 8 23 9 24 10 25 11
REMARK SMILES IDX 26 12 27 13 28 14 29 15 30 16 14 17 13 18 12 19 11 20 10 21
REMARK SMILES IDX 9 22 8 23 7 24 6 25 5 26 4 27 3 28 2 29 1 30
REMARK H PARENT
REMARK Flexibility Score: inf
ROOT
ATOM      1  C   UNL     1      13.956 -30.738  22.678  1.00  0.00     0.000 C 
ENDROOT
BRANCH   1   2
ATOM      2  C   UNL     1      15.038 -29.649  22.617  1.00  0.00     0.000 C 
BRANCH   2   3
ATOM      3  C   UNL     1      16.441 -30.260  22.740  1.00  0.00     0.000 C 
BRANCH   3   4
ATOM      4  C   UNL     1      17.339 -29.916  21.541  1.00  0.00     0.000 C 
BRANCH   4   5
ATOM      5  C   UNL     1      17.549 -31.113  20.597  1.00  0.00     0.000 C 
BRANCH   5   6
ATOM      6  C   UNL     1      18.081 -32.356  21.342  1.00  0.00     0.000 C 
BRANCH   6   7
ATOM      7  C   UNL     1      19.483 -32.801  20.891  1.00  0.00     0.000 C 
BRANCH   7   8
ATOM      8  C   UNL     1      20.401 -33.168  22.065  1.00  0.00     0.000 C 
BRANCH   8   9
ATOM      9  C   UNL     1      19.846 -32.637  23.393  1.00  0.00     0.000 C 
BRANCH   9  10
ATOM     10  C   UNL     1      20.283 -31.182  23.624  1.00  0.00     0.000 C 
BRANCH  10  11
ATOM     11  C   UNL     1      21.673 -30.881  23.042  1.00  0.00     0.000 C 
BRANCH  11  12
ATOM     12  C   UNL     1      21.762 -29.469  22.437  1.00  0.00     0.006 C 
BRANCH  12  13
ATOM     13  C   UNL     1      20.902 -29.321  21.173  1.00  0.00     0.053 C 
BRANCH  13  14
ATOM     14  C   UNL     1      20.739 -27.886  20.773  1.00  0.00     0.041 C 
ATOM     15  O   UNL     1      21.745 -27.133  20.686  1.00  0.00    -0.550 OA
ATOM     16  O   UNL     1      19.470 -27.369  20.541  1.00  0.00    -0.550 OA
ENDBRANCH  13  14
ENDBRANCH  12  13
ENDBRANCH  11  12
ENDBRANCH  10  11
ENDBRANCH   9  10
ENDBRANCH   8   9
ENDBRANCH   7   8
ENDBRANCH   6   7
ENDBRANCH   5   6
ENDBRANCH   4   5
ENDBRANCH   3   4
ENDBRANCH   2   3
ENDBRANCH   1   2
BRANCH   1  17
ATOM     17  C   UNL     1      13.264 -30.960  21.323  1.00  0.00     0.000 C 
BRANCH  17  18
ATOM     18  C   UNL     1      13.844 -32.160  20.558  1.00  0.00     0.000 C 
BRANCH  18  19
ATOM     19  C   UNL     1      14.475 -33.178  21.520  1.00  0.00     0.000 C 
BRANCH  19  20
ATOM     20  C   UNL     1      15.053 -34.410  20.797  1.00  0.00     0.000 C 
BRANCH  20  21
ATOM     21  C   UNL     1      15.624 -34.131  19.394  1.00  0.00     0.000 C 
BRANCH  21  22
ATOM     22  C   UNL     1      16.905 -34.925  19.101  1.00  0.00    -0.000 C 
BRANCH  22  23
ATOM     23  C   UNL     1      16.617 -36.435  19.074  1.00  0.00    -0.000 C 
BRANCH  23  24
ATOM     24  C   UNL     1      17.434 -37.213  20.118  1.00  0.00    -0.000 C 
BRANCH  24  25
ATOM     25  C   UNL     1      18.295 -36.288  20.996  1.00  0.00    -0.000 C 
BRANCH  25  26
ATOM     26  C   UNL     1      18.835 -36.993  22.252  1.00  0.00    -0.000 C 
BRANCH  26  27
ATOM     27  C   UNL     1      18.600 -36.242  23.577  1.00  0.00    -0.000 C 
BRANCH  27  28
ATOM     28  C   UNL     1      17.328 -35.367  23.582  1.00  0.00    -0.000 C 
BRANCH  28  29
ATOM     29  C   UNL     1      17.177 -34.565  24.884  1.00  0.00    -0.003 C 
ATOM     30  C   UNL     1      16.261 -33.360  24.686  1.00  0.00     0.004 C 
ENDBRANCH  28  29
ENDBRANCH  27  28
ENDBRANCH  26  27
ENDBRANCH  25  26
ENDBRANCH  24  25
ENDBRANCH  23  24
ENDBRANCH  22  23
ENDBRANCH  21  22
ENDBRANCH  20  21
ENDBRANCH  19  20
ENDBRANCH  18  19
ENDBRANCH  17  18
ENDBRANCH   1  17
TORSDOF 26
ENDMDL
MODEL 4
REMARK VINA RESULT:    -5.074      1.321      2.134
REMARK INTER + INTRA:         -17.613
REMARK INTER:                 -13.703
REMARK INTRA:                  -3.910
REMARK UNBOUND:                -4.827
REMARK SMILES CCCCCCCCCCCCCCCCCCCCCCCCCCCC(=O)[O-]
REMARK SMILES IDX 15 1 16 2 17 3 18 4 19 5 20 6 21 7 22 8 23 9 24 10 25 11
REMARK SMILES IDX 26 12 27 13 28 14 29 15 30 16 14 17 13 18 12 19 11 20 10 21
REMARK SMILES IDX 9 22 8 23 7 24 6 25 5 26 4 27 3 28 2 29 1 30
REMARK H PARENT
REMARK Flexibility Score: inf
ROOT
ATOM      1  C   UNL     1      14.646 -29.899  21.924  1.00  0.00     0.000 C 
ENDROOT
BRANCH   1   2
ATOM      2  C   UNL     1      15.319 -30.719  23.035  1.00  0.00     0.000 C 
BRANCH   2   3
ATOM      3  C   UNL     1      16.828 -30.442  23.086  1.00  0.00     0.000 C 
BRANCH   3   4
ATOM      4  C   UNL     1      17.657 -31.599  22.507  1.00  0.00     0.000 C 
BRANCH   4   5
ATOM      5  C   UNL     1      17.963 -31.415  21.009  1.00  0.00     0.000 C 
BRANCH   5   6
ATOM      6  C   UNL     1      19.329 -32.018  20.615  1.00  0.00     0.000 C 
BRANCH   6   7
ATOM      7  C   UNL     1      20.535 -31.279  21.219  1.00  0.00     0.000 C 
BRANCH   7   8
ATOM      8  C   UNL     1      20.806 -29.925  20.548  1.00  0.00     0.000 C 
BRANCH   8   9
ATOM      9  C   UNL     1      20.606 -28.766  21.532  1.00  0.00     0.000 C 
BRANCH   9  10
ATOM     10  C   UNL     1      19.533 -27.793  21.017  1.00  0.00     0.000 C 
BRANCH  10  11
ATOM     11  C   UNL     1      19.893 -26.322  21.277  1.00  0.00     0.000 C 
BRANCH  11  12
ATOM     12  C   UNL     1      20.333 -25.591  19.997  1.00  0.00     0.006 C 
BRANCH  12  13
ATOM     13  C   UNL     1      21.862 -25.505  19.870  1.00  0.00     0.053 C 
BRANCH  13  14
ATOM     14  C   UNL     1      22.515 -25.202  21.183  1.00  0.00     0.041 C 
ATOM     15  O   UNL     1      22.924 -26.138  21.921  1.00  0.00    -0.550 OA
ATOM     16  O   UNL     1      22.632 -23.886  21.614  1.00  0.00    -0.550 OA
ENDBRANCH  13  14
ENDBRANCH  12  13
ENDBRANCH  11  12
ENDBRANCH  10  11
ENDBRANCH   9  10
ENDBRANCH   8   9
ENDBRANCH   7   8
ENDBRANCH   6   7
ENDBRANCH   5   6
ENDBRANCH   4   5
ENDBRANCH   3   4
ENDBRANCH   2   3
ENDBRANCH   1   2
BRANCH   1  17
ATOM     17  C   UNL     1      13.866 -30.778  20.932  1.00  0.00     0.000 C 
BRANCH  17  18
ATOM     18  C   UNL     1      13.896 -32.265  21.316  1.00  0.00     0.000 C 
BRANCH  18  19
ATOM     19  C   UNL     1      14.248 -33.143  20.105  1.00  0.00     0.000 C 
BRANCH  19  20
ATOM     20  C   UNL     1      15.545 -33.949  20.305  1.00  0.00     0.000 C 
BRANCH  20  21
ATOM     21  C   UNL     1      16.424 -34.087  19.048  1.00  0.00     0.000 C 
BRANCH  21  22
ATOM     22  C   UNL     1      17.523 -35.148  19.200  1.00  0.00    -0.000 C 
BRANCH  22  23
ATOM     23  C   UNL     1      17.017 -36.346  20.020  1.00  0.00    -0.000 C 
BRANCH  23  24
ATOM     24  C   UNL     1      17.969 -36.724  21.166  1.00  0.00    -0.000 C 
BRANCH  24  25
ATOM     25  C   UNL     1      18.751 -35.512  21.702  1.00  0.00    -0.000 C 
BRANCH  25  26
ATOM     26  C   UNL     1      18.499 -35.256  23.198  1.00  0.00    -0.000 C 
BRANCH  26  27
ATOM     27  C   UNL     1      17.017 -35.125  23.599  1.00  0.00    -0.000 C 
BRANCH  27  28
ATOM     28  C   UNL     1      16.713 -35.608  25.033  1.00  0.00    -0.000 C 
BRANCH  28  29
ATOM     29  C   UNL     1      17.575 -36.814  25.438  1.00  0.00    -0.003 C 
ATOM     30  C   UNL     1      16.889 -37.645  26.519  1.00  0.00     0.004 C 
ENDBRANCH  28  29
ENDBRANCH  27  28
ENDBRANCH  26  27
ENDBRANCH  25  26
ENDBRANCH  24  25
ENDBRANCH  23  24
ENDBRANCH  22  23
ENDBRANCH  21  22
ENDBRANCH  20  21
ENDBRANCH  19  20
ENDBRANCH  18  19
ENDBRANCH  17  18
ENDBRANCH   1  17
TORSDOF 26
ENDMDL
MODEL 5
REMARK VINA RESULT:    -5.011      1.094      3.412
REMARK INTER + INTRA:         -17.454
REMARK INTER:                 -12.843
REMARK INTRA:                  -4.611
REMARK UNBOUND:                -4.827
REMARK SMILES CCCCCCCCCCCCCCCCCCCCCCCCCCCC(=O)[O-]
REMARK SMILES IDX 15 1 16 2 17 3 18 4 19 5 20 6 21 7 22 8 23 9 24 10 25 11
REMARK SMILES IDX 26 12 27 13 28 14 29 15 30 16 14 17 13 18 12 19 11 20 10 21
REMARK SMILES IDX 9 22 8 23 7 24 6 25 5 26 4 27 3 28 2 29 1 30
REMARK H PARENT
REMARK Flexibility Score: inf
ROOT
ATOM      1  C   UNL     1      14.600 -33.329  21.185  1.00  0.00     0.000 C 
ENDROOT
BRANCH   1   2
ATOM      2  C   UNL     1      15.259 -34.518  20.470  1.00  0.00     0.000 C 
BRANCH   2   3
ATOM      3  C   UNL     1      16.195 -34.037  19.352  1.00  0.00     0.000 C 
BRANCH   3   4
ATOM      4  C   UNL     1      17.495 -34.854  19.283  1.00  0.00     0.000 C 
BRANCH   4   5
ATOM      5  C   UNL     1      18.753 -33.969  19.357  1.00  0.00     0.000 C 
BRANCH   5   6
ATOM      6  C   UNL     1      18.721 -33.010  20.566  1.00  0.00     0.000 C 
BRANCH   6   7
ATOM      7  C   UNL     1      19.708 -31.835  20.457  1.00  0.00     0.000 C 
BRANCH   7   8
ATOM      8  C   UNL     1      20.313 -31.433  21.809  1.00  0.00     0.000 C 
BRANCH   8   9
ATOM      9  C   UNL     1      20.560 -29.921  21.881  1.00  0.00     0.000 C 
BRANCH   9  10
ATOM     10  C   UNL     1      20.026 -29.221  20.622  1.00  0.00     0.000 C 
BRANCH  10  11
ATOM     11  C   UNL     1      19.119 -28.024  20.948  1.00  0.00     0.000 C 
BRANCH  11  12
ATOM     12  C   UNL     1      19.922 -26.763  21.313  1.00  0.00     0.006 C 
BRANCH  12  13
ATOM     13  C   UNL     1      20.288 -25.927  20.078  1.00  0.00     0.053 C 
BRANCH  13  14
ATOM     14  C   UNL     1      21.604 -25.229  20.245  1.00  0.00     0.041 C 
ATOM     15  O   UNL     1      21.746 -24.345  21.131  1.00  0.00    -0.550 OA
ATOM     16  O   UNL     1      22.660 -25.524  19.392  1.00  0.00    -0.550 OA
ENDBRANCH  13  14
ENDBRANCH  12  13
ENDBRANCH  11  12
ENDBRANCH  10  11
ENDBRANCH   9  10
ENDBRANCH   8   9
ENDBRANCH   7   8
ENDBRANCH   6   7
ENDBRANCH   5   6
ENDBRANCH   4   5
ENDBRANCH   3   4
ENDBRANCH   2   3
ENDBRANCH   1   2
BRANCH   1  17
ATOM     17  C   UNL     1      13.818 -32.420  20.221  1.00  0.00     0.000 C 
BRANCH  17  18
ATOM     18  C   UNL     1      13.108 -31.267  20.949  1.00  0.00     0.000 C 
BRANCH  18  19
ATOM     19  C   UNL     1      13.519 -31.209  22.428  1.00  0.00     0.000 C 
BRANCH  19  20
ATOM     20  C   UNL     1      14.112 -29.846  22.833  1.00  0.00     0.000 C 
BRANCH  20  21
ATOM     21  C   UNL     1      15.309 -29.380  21.984  1.00  0.00     0.000 C 
BRANCH  21  22
ATOM     22  C   UNL     1      16.487 -30.364  22.020  1.00  0.00    -0.000 C 
BRANCH  22  23
ATOM     23  C   UNL     1      16.874 -30.700  23.468  1.00  0.00    -0.000 C 
BRANCH  23  24
ATOM     24  C   UNL     1      17.235 -32.182  23.658  1.00  0.00    -0.000 C 
BRANCH  24  25
ATOM     25  C   UNL     1      16.069 -32.998  24.243  1.00  0.00    -0.000 C 
BRANCH  25  26
ATOM     26  C   UNL     1      16.439 -34.471  24.487  1.00  0.00    -0.000 C 
BRANCH  26  27
ATOM     27  C   UNL     1      17.412 -35.082  23.461  1.00  0.00    -0.000 C 
BRANCH  27  28
ATOM     28  C   UNL     1      18.239 -36.264  24.010  1.00  0.00    -0.000 C 
BRANCH  28  29
ATOM     29  C   UNL     1      19.653 -35.839  24.436  1.00  0.00    -0.003 C 
ATOM     30  C   UNL     1      20.123 -34.618  23.649  1.00  0.00     0.004 C 
ENDBRANCH  28  29
ENDBRANCH  27  28
ENDBRANCH  26  27
ENDBRANCH  25  26
ENDBRANCH  24  25
ENDBRANCH  23  24
ENDBRANCH  22  23
ENDBRANCH  21  22
ENDBRANCH  20  21
ENDBRANCH  19  20
ENDBRANCH  18  19
ENDBRANCH  17  18
ENDBRANCH   1  17
TORSDOF 26
ENDMDL
MODEL 6
REMARK VINA RESULT:    -5.000      2.726      6.431
REMARK INTER + INTRA:         -17.426
REMARK INTER:                 -13.037
REMARK INTRA:                  -4.389
REMARK UNBOUND:                -4.827
REMARK SMILES CCCCCCCCCCCCCCCCCCCCCCCCCCCC(=O)[O-]
REMARK SMILES IDX 15 1 16 2 17 3 18 4 19 5 20 6 21 7 22 8 23 9 24 10 25 11
REMARK SMILES IDX 26 12 27 13 28 14 29 15 30 16 14 17 13 18 12 19 11 20 10 21
REMARK SMILES IDX 9 22 8 23 7 24 6 25 5 26 4 27 3 28 2 29 1 30
REMARK H PARENT
REMARK Flexibility Score: inf
ROOT
ATOM      1  C   UNL     1      18.391 -30.649  21.133  1.00  0.00     0.000 C 
ENDROOT
BRANCH   1   2
ATOM      2  C   UNL     1      17.616 -31.740  20.381  1.00  0.00     0.000 C 
BRANCH   2   3
ATOM      3  C   UNL     1      18.500 -32.971  20.133  1.00  0.00     0.000 C 
BRANCH   3   4
ATOM      4  C   UNL     1      18.008 -33.819  18.950  1.00  0.00     0.000 C 
BRANCH   4   5
ATOM      5  C   UNL     1      16.490 -34.071  18.994  1.00  0.00     0.000 C 
BRANCH   5   6
ATOM      6  C   UNL     1      16.143 -35.436  19.628  1.00  0.00     0.000 C 
BRANCH   6   7
ATOM      7  C   UNL     1      17.056 -36.586  19.169  1.00  0.00     0.000 C 
BRANCH   7   8
ATOM      8  C   UNL     1      17.659 -37.375  20.339  1.00  0.00     0.000 C 
BRANCH   8   9
ATOM      9  C   UNL     1      18.131 -36.438  21.459  1.00  0.00     0.000 C 
BRANCH   9  10
ATOM     10  C   UNL     1      19.169 -37.136  22.352  1.00  0.00     0.000 C 
BRANCH  10  11
ATOM     11  C   UNL     1      19.981 -36.145  23.201  1.00  0.00     0.000 C 
BRANCH  11  12
ATOM     12  C   UNL     1      20.536 -34.977  22.368  1.00  0.00     0.006 C 
BRANCH  12  13
ATOM     13  C   UNL     1      21.502 -34.094  23.172  1.00  0.00     0.053 C 
BRANCH  13  14
ATOM     14  C   UNL     1      22.333 -33.220  22.282  1.00  0.00     0.041 C 
ATOM     15  O   UNL     1      23.578 -33.396  22.203  1.00  0.00    -0.550 OA
ATOM     16  O   UNL     1      21.738 -32.182  21.575  1.00  0.00    -0.550 OA
ENDBRANCH  13  14
ENDBRANCH  12  13
ENDBRANCH  11  12
ENDBRANCH  10  11
ENDBRANCH   9  10
ENDBRANCH   8   9
ENDBRANCH   7   8
ENDBRANCH   6   7
ENDBRANCH   5   6
ENDBRANCH   4   5
ENDBRANCH   3   4
ENDBRANCH   2   3
ENDBRANCH   1   2
BRANCH   1  17
ATOM     17  C   UNL     1      18.748 -31.063  22.571  1.00  0.00     0.000 C 
BRANCH  17  18
ATOM     18  C   UNL     1      17.530 -31.039  23.508  1.00  0.00     0.000 C 
BRANCH  18  19
ATOM     19  C   UNL     1      17.435 -32.336  24.326  1.00  0.00     0.000 C 
BRANCH  19  20
ATOM     20  C   UNL     1      17.172 -33.578  23.453  1.00  0.00     0.000 C 
BRANCH  20  21
ATOM     21  C   UNL     1      15.750 -34.160  23.563  1.00  0.00     0.000 C 
BRANCH  21  22
ATOM     22  C   UNL     1      14.654 -33.105  23.358  1.00  0.00    -0.000 C 
BRANCH  22  23
ATOM     23  C   UNL     1      14.511 -32.748  21.870  1.00  0.00    -0.000 C 
BRANCH  23  24
ATOM     24  C   UNL     1      13.626 -31.513  21.639  1.00  0.00    -0.000 C 
BRANCH  24  25
ATOM     25  C   UNL     1      14.178 -30.258  22.337  1.00  0.00    -0.000 C 
BRANCH  25  26
ATOM     26  C   UNL     1      13.260 -29.752  23.463  1.00  0.00    -0.000 C 
BRANCH  26  27
ATOM     27  C   UNL     1      11.941 -29.109  22.993  1.00  0.00    -0.000 C 
BRANCH  27  28
ATOM     28  C   UNL     1      11.529 -27.862  23.804  1.00  0.00    -0.000 C 
BRANCH  28  29
ATOM     29  C   UNL     1      12.700 -27.277  24.609  1.00  0.00    -0.003 C 
ATOM     30  C   UNL     1      13.391 -26.154  23.840  1.00  0.00     0.004 C 
ENDBRANCH  28  29
ENDBRANCH  27  28
ENDBRANCH  26  27
ENDBRANCH  25  26
ENDBRANCH  24  25
ENDBRANCH  23  24
ENDBRANCH  22  23
ENDBRANCH  21  22
ENDBRANCH  20  21
ENDBRANCH  19  20
ENDBRANCH  18  19
ENDBRANCH  17  18
ENDBRANCH   1  17
TORSDOF 26
ENDMDL
MODEL 7
REMARK VINA RESULT:    -4.998      1.315      2.033
REMARK INTER + INTRA:         -17.422
REMARK INTER:                 -13.356
REMARK INTRA:                  -4.066
REMARK UNBOUND:                -4.827
REMARK SMILES CCCCCCCCCCCCCCCCCCCCCCCCCCCC(=O)[O-]
REMARK SMILES IDX 15 1 16 2 17 3 18 4 19 5 20 6 21 7 22 8 23 9 24 10 25 11
REMARK SMILES IDX 26 12 27 13 28 14 29 15 30 16 14 17 13 18 12 19 11 20 10 21
REMARK SMILES IDX 9 22 8 23 7 24 6 25 5 26 4 27 3 28 2 29 1 30
REMARK H PARENT
REMARK Flexibility Score: inf
ROOT
ATOM      1  C   UNL     1      15.628 -29.214  22.373  1.00  0.00     0.000 C 
ENDROOT
BRANCH   1   2
ATOM      2  C   UNL     1      16.193 -30.358  23.227  1.00  0.00     0.000 C 
BRANCH   2   3
ATOM      3  C   UNL     1      17.292 -31.118  22.470  1.00  0.00     0.000 C 
BRANCH   3   4
ATOM      4  C   UNL     1      17.105 -31.055  20.946  1.00  0.00     0.000 C 
BRANCH   4   5
ATOM      5  C   UNL     1      18.009 -32.053  20.198  1.00  0.00     0.000 C 
BRANCH   5   6
ATOM      6  C   UNL     1      19.302 -32.368  20.981  1.00  0.00     0.000 C 
BRANCH   6   7
ATOM      7  C   UNL     1      20.449 -31.378  20.715  1.00  0.00     0.000 C 
BRANCH   7   8
ATOM      8  C   UNL     1      21.025 -30.769  22.001  1.00  0.00     0.000 C 
BRANCH   8   9
ATOM      9  C   UNL     1      21.025 -29.236  21.939  1.00  0.00     0.000 C 
BRANCH   9  10
ATOM     10  C   UNL     1      19.833 -28.723  21.118  1.00  0.00     0.000 C 
BRANCH  10  11
ATOM     11  C   UNL     1      19.701 -27.192  21.155  1.00  0.00     0.000 C 
BRANCH  11  12
ATOM     12  C   UNL     1      20.544 -26.505  20.066  1.00  0.00     0.006 C 
BRANCH  12  13
ATOM     13  C   UNL     1      20.948 -25.076  20.456  1.00  0.00     0.053 C 
BRANCH  13  14
ATOM     14  C   UNL     1      22.387 -24.994  20.866  1.00  0.00     0.041 C 
ATOM     15  O   UNL     1      22.765 -24.111  21.681  1.00  0.00    -0.550 OA
ATOM     16  O   UNL     1      23.318 -25.863  20.312  1.00  0.00    -0.550 OA
ENDBRANCH  13  14
ENDBRANCH  12  13
ENDBRANCH  11  12
ENDBRANCH  10  11
ENDBRANCH   9  10
ENDBRANCH   8   9
ENDBRANCH   7   8
ENDBRANCH   6   7
ENDBRANCH   5   6
ENDBRANCH   4   5
ENDBRANCH   3   4
ENDBRANCH   2   3
ENDBRANCH   1   2
BRANCH   1  17
ATOM     17  C   UNL     1      14.156 -28.905  22.697  1.00  0.00     0.000 C 
BRANCH  17  18
ATOM     18  C   UNL     1      13.365 -30.164  23.085  1.00  0.00     0.000 C 
BRANCH  18  19
ATOM     19  C   UNL     1      12.354 -30.542  21.992  1.00  0.00     0.000 C 
BRANCH  19  20
ATOM     20  C   UNL     1      13.003 -31.263  20.796  1.00  0.00     0.000 C 
BRANCH  20  21
ATOM     21  C   UNL     1      13.880 -32.474  21.166  1.00  0.00     0.000 C 
BRANCH  21  22
ATOM     22  C   UNL     1      14.261 -33.331  19.950  1.00  0.00    -0.000 C 
BRANCH  22  23
ATOM     23  C   UNL     1      15.322 -34.376  20.329  1.00  0.00    -0.000 C 
BRANCH  23  24
ATOM     24  C   UNL     1      15.619 -34.400  21.837  1.00  0.00    -0.000 C 
BRANCH  24  25
ATOM     25  C   UNL     1      16.923 -35.147  22.165  1.00  0.00    -0.000 C 
BRANCH  25  26
ATOM     26  C   UNL     1      17.586 -34.647  23.459  1.00  0.00    -0.000 C 
BRANCH  26  27
ATOM     27  C   UNL     1      18.702 -35.551  24.016  1.00  0.00    -0.000 C 
BRANCH  27  28
ATOM     28  C   UNL     1      18.186 -36.712  24.894  1.00  0.00    -0.000 C 
BRANCH  28  29
ATOM     29  C   UNL     1      16.953 -36.315  25.719  1.00  0.00    -0.003 C 
ATOM     30  C   UNL     1      16.488 -37.469  26.605  1.00  0.00     0.004 C 
ENDBRANCH  28  29
ENDBRANCH  27  28
ENDBRANCH  26  27
ENDBRANCH  25  26
ENDBRANCH  24  25
ENDBRANCH  23  24
ENDBRANCH  22  23
ENDBRANCH  21  22
ENDBRANCH  20  21
ENDBRANCH  19  20
ENDBRANCH  18  19
ENDBRANCH  17  18
ENDBRANCH   1  17
TORSDOF 26
ENDMDL
MODEL 8
REMARK VINA RESULT:    -4.993      1.435      2.847
REMARK INTER + INTRA:         -17.408
REMARK INTER:                 -13.359
REMARK INTRA:                  -4.048
REMARK UNBOUND:                -4.827
REMARK SMILES CCCCCCCCCCCCCCCCCCCCCCCCCCCC(=O)[O-]
REMARK SMILES IDX 15 1 16 2 17 3 18 4 19 5 20 6 21 7 22 8 23 9 24 10 25 11
REMARK SMILES IDX 26 12 27 13 28 14 29 15 30 16 14 17 13 18 12 19 11 20 10 21
REMARK SMILES IDX 9 22 8 23 7 24 6 25 5 26 4 27 3 28 2 29 1 30
REMARK H PARENT
REMARK Flexibility Score: inf
ROOT
ATOM      1  C   UNL     1      14.624 -33.538  23.313  1.00  0.00     0.000 C 
ENDROOT
BRANCH   1   2
ATOM      2  C   UNL     1      14.733 -32.084  23.797  1.00  0.00     0.000 C 
BRANCH   2   3
ATOM      3  C   UNL     1      13.474 -31.286  23.427  1.00  0.00     0.000 C 
BRANCH   3   4
ATOM      4  C   UNL     1      13.803 -29.880  22.903  1.00  0.00     0.000 C 
BRANCH   4   5
ATOM      5  C   UNL     1      14.498 -29.908  21.530  1.00  0.00     0.000 C 
BRANCH   5   6
ATOM      6  C   UNL     1      15.946 -29.378  21.598  1.00  0.00     0.000 C 
BRANCH   6   7
ATOM      7  C   UNL     1      17.011 -30.420  21.212  1.00  0.00     0.000 C 
BRANCH   7   8
ATOM      8  C   UNL     1      18.428 -29.834  21.151  1.00  0.00     0.000 C 
BRANCH   8   9
ATOM      9  C   UNL     1      18.404 -28.360  20.725  1.00  0.00     0.000 C 
BRANCH   9  10
ATOM     10  C   UNL     1      19.669 -27.633  21.206  1.00  0.00     0.000 C 
BRANCH  10  11
ATOM     11  C   UNL     1      20.961 -28.283  20.684  1.00  0.00     0.000 C 
BRANCH  11  12
ATOM     12  C   UNL     1      22.031 -27.242  20.312  1.00  0.00     0.006 C 
BRANCH  12  13
ATOM     13  C   UNL     1      21.440 -25.835  20.137  1.00  0.00     0.053 C 
BRANCH  13  14
ATOM     14  C   UNL     1      22.508 -24.788  20.045  1.00  0.00     0.041 C 
ATOM     15  O   UNL     1      23.176 -24.653  18.985  1.00  0.00    -0.550 OA
ATOM     16  O   UNL     1      22.797 -23.990  21.146  1.00  0.00    -0.550 OA
ENDBRANCH  13  14
ENDBRANCH  12  13
ENDBRANCH  11  12
ENDBRANCH  10  11
ENDBRANCH   9  10
ENDBRANCH   8   9
ENDBRANCH   7   8
ENDBRANCH   6   7
ENDBRANCH   5   6
ENDBRANCH   4   5
ENDBRANCH   3   4
ENDBRANCH   2   3
ENDBRANCH   1   2
BRANCH   1  17
ATOM     17  C   UNL     1      15.462 -33.806  22.051  1.00  0.00     0.000 C 
BRANCH  17  18
ATOM     18  C   UNL     1      14.718 -33.427  20.762  1.00  0.00     0.000 C 
BRANCH  18  19
ATOM     19  C   UNL     1      15.373 -34.074  19.533  1.00  0.00     0.000 C 
BRANCH  19  20
ATOM     20  C   UNL     1      16.875 -33.752  19.413  1.00  0.00     0.000 C 
BRANCH  20  21
ATOM     21  C   UNL     1      17.810 -34.973  19.494  1.00  0.00     0.000 C 
BRANCH  21  22
ATOM     22  C   UNL     1      17.050 -36.304  19.586  1.00  0.00    -0.000 C 
BRANCH  22  23
ATOM     23  C   UNL     1      17.696 -37.231  20.627  1.00  0.00    -0.000 C 
BRANCH  23  24
ATOM     24  C   UNL     1      18.671 -36.491  21.557  1.00  0.00    -0.000 C 
BRANCH  24  25
ATOM     25  C   UNL     1      18.002 -36.038  22.866  1.00  0.00    -0.000 C 
BRANCH  25  26
ATOM     26  C   UNL     1      18.797 -34.939  23.591  1.00  0.00    -0.000 C 
BRANCH  26  27
ATOM     27  C   UNL     1      19.155 -33.713  22.729  1.00  0.00    -0.000 C 
BRANCH  27  28
ATOM     28  C   UNL     1      19.193 -32.386  23.517  1.00  0.00    -0.000 C 
BRANCH  28  29
ATOM     29  C   UNL     1      18.109 -32.320  24.604  1.00  0.00    -0.003 C 
ATOM     30  C   UNL     1      18.727 -32.126  25.987  1.00  0.00     0.004 C 
ENDBRANCH  28  29
ENDBRANCH  27  28
ENDBRANCH  26  27
ENDBRANCH  25  26
ENDBRANCH  24  25
ENDBRANCH  23  24
ENDBRANCH  22  23
ENDBRANCH  21  22
ENDBRANCH  20  21
ENDBRANCH  19  20
ENDBRANCH  18  19
ENDBRANCH  17  18
ENDBRANCH   1  17
TORSDOF 26
ENDMDL
MODEL 9
REMARK VINA RESULT:    -4.987      1.158      3.987
REMARK INTER + INTRA:         -17.393
REMARK INTER:                 -12.517
REMARK INTRA:                  -4.876
REMARK UNBOUND:                -4.827
REMARK SMILES CCCCCCCCCCCCCCCCCCCCCCCCCCCC(=O)[O-]
REMARK SMILES IDX 15 1 16 2 17 3 18 4 19 5 20 6 21 7 22 8 23 9 24 10 25 11
REMARK SMILES IDX 26 12 27 13 28 14 29 15 30 16 14 17 13 18 12 19 11 20 10 21
REMARK SMILES IDX 9 22 8 23 7 24 6 25 5 26 4 27 3 28 2 29 1 30
REMARK H PARENT
REMARK Flexibility Score: inf
ROOT
ATOM      1  C   UNL     1      14.955 -33.383  22.848  1.00  0.00     0.000 C 
ENDROOT
BRANCH   1   2
ATOM      2  C   UNL     1      16.109 -34.396  22.874  1.00  0.00     0.000 C 
BRANCH   2   3
ATOM      3  C   UNL     1      17.188 -33.975  23.882  1.00  0.00     0.000 C 
BRANCH   3   4
ATOM      4  C   UNL     1      18.536 -34.667  23.623  1.00  0.00     0.000 C 
BRANCH   4   5
ATOM      5  C   UNL     1      19.731 -33.847  24.142  1.00  0.00     0.000 C 
BRANCH   5   6
ATOM      6  C   UNL     1      20.522 -33.181  22.996  1.00  0.00     0.000 C 
BRANCH   6   7
ATOM      7  C   UNL     1      21.097 -31.800  23.356  1.00  0.00     0.000 C 
BRANCH   7   8
ATOM      8  C   UNL     1      21.566 -31.008  22.127  1.00  0.00     0.000 C 
BRANCH   8   9
ATOM      9  C   UNL     1      21.125 -29.541  22.208  1.00  0.00     0.000 C 
BRANCH   9  10
ATOM     10  C   UNL     1      20.708 -29.021  20.824  1.00  0.00     0.000 C 
BRANCH  10  11
ATOM     11  C   UNL     1      19.621 -27.937  20.902  1.00  0.00     0.000 C 
BRANCH  11  12
ATOM     12  C   UNL     1      20.205 -26.515  20.832  1.00  0.00     0.006 C 
BRANCH  12  13
ATOM     13  C   UNL     1      21.629 -26.497  20.256  1.00  0.00     0.053 C 
BRANCH  13  14
ATOM     14  C   UNL     1      22.179 -25.106  20.168  1.00  0.00     0.041 C 
ATOM     15  O   UNL     1      22.784 -24.727  19.130  1.00  0.00    -0.550 OA
ATOM     16  O   UNL     1      22.062 -24.243  21.251  1.00  0.00    -0.550 OA
ENDBRANCH  13  14
ENDBRANCH  12  13
ENDBRANCH  11  12
ENDBRANCH  10  11
ENDBRANCH   9  10
ENDBRANCH   8   9
ENDBRANCH   7   8
ENDBRANCH   6   7
ENDBRANCH   5   6
ENDBRANCH   4   5
ENDBRANCH   3   4
ENDBRANCH   2   3
ENDBRANCH   1   2
BRANCH   1  17
ATOM     17  C   UNL     1      14.465 -33.081  21.421  1.00  0.00     0.000 C 
BRANCH  17  18
ATOM     18  C   UNL     1      13.581 -31.826  21.358  1.00  0.00     0.000 C 
BRANCH  18  19
ATOM     19  C   UNL     1      13.166 -31.370  22.765  1.00  0.00     0.000 C 
BRANCH  19  20
ATOM     20  C   UNL     1      13.869 -30.072  23.207  1.00  0.00     0.000 C 
BRANCH  20  21
ATOM     21  C   UNL     1      14.353 -29.171  22.056  1.00  0.00     0.000 C 
BRANCH  21  22
ATOM     22  C   UNL     1      15.883 -29.132  21.929  1.00  0.00    -0.000 C 
BRANCH  22  23
ATOM     23  C   UNL     1      16.537 -30.136  22.891  1.00  0.00    -0.000 C 
BRANCH  23  24
ATOM     24  C   UNL     1      17.784 -30.805  22.291  1.00  0.00    -0.000 C 
BRANCH  24  25
ATOM     25  C   UNL     1      17.611 -31.135  20.798  1.00  0.00    -0.000 C 
BRANCH  25  26
ATOM     26  C   UNL     1      18.165 -32.521  20.428  1.00  0.00    -0.000 C 
BRANCH  26  27
ATOM     27  C   UNL     1      17.277 -33.349  19.479  1.00  0.00    -0.000 C 
BRANCH  27  28
ATOM     28  C   UNL     1      17.883 -34.713  19.087  1.00  0.00    -0.000 C 
BRANCH  28  29
ATOM     29  C   UNL     1      16.893 -35.871  19.287  1.00  0.00    -0.003 C 
ATOM     30  C   UNL     1      17.484 -36.953  20.188  1.00  0.00     0.004 C 
ENDBRANCH  28  29
ENDBRANCH  27  28
ENDBRANCH  26  27
ENDBRANCH  25  26
ENDBRANCH  24  25
ENDBRANCH  23  24
ENDBRANCH  22  23
ENDBRANCH  21  22
ENDBRANCH  20  21
ENDBRANCH  19  20
ENDBRANCH  18  19
ENDBRANCH  17  18
ENDBRANCH   1  17
TORSDOF 26
ENDMDL
