MODEL 1
REMARK VINA RESULT:    -3.975      0.000      0.000
REMARK INTER + INTRA:          -8.784
REMARK INTER:                  -7.692
REMARK INTRA:                  -1.092
REMARK UNBOUND:                -1.092
REMARK SMILES CCCCCCCCCCCCCCCCCC(=O)[O-]
REMARK SMILES IDX 10 1 11 2 12 3 13 4 14 5 15 6 16 7 17 8 18 9 19 10 20 11
REMARK SMILES IDX 9 12 8 13 7 14 6 15 5 16 4 17 3 18 2 19 1 20
REMARK H PARENT
REMARK Flexibility Score: inf
ROOT
ATOM      1  C   UNL     1      68.893  49.208  56.501  1.00  0.00     0.000 C 
ENDROOT
BRANCH   1   2
ATOM      2  C   UNL     1      70.159  49.313  57.371  1.00  0.00     0.000 C 
BRANCH   2   3
ATOM      3  C   UNL     1      71.397  49.726  56.560  1.00  0.00     0.000 C 
BRANCH   3   4
ATOM      4  C   UNL     1      71.339  51.192  56.101  1.00  0.00     0.000 C 
BRANCH   4   5
ATOM      5  C   UNL     1      71.328  51.338  54.569  1.00  0.00     0.000 C 
BRANCH   5   6
ATOM      6  C   UNL     1      69.934  51.662  53.990  1.00  0.00     0.000 C 
BRANCH   6   7
ATOM      7  C   UNL     1      69.665  50.920  52.670  1.00  0.00     0.006 C 
BRANCH   7   8
ATOM      8  C   UNL     1      70.011  51.775  51.443  1.00  0.00     0.053 C 
BRANCH   8   9
ATOM      9  C   UNL     1      69.162  51.417  50.260  1.00  0.00     0.041 C 
ATOM     10  O   UNL     1      69.299  52.035  49.172  1.00  0.00    -0.550 OA
ATOM     11  O   UNL     1      68.245  50.378  50.352  1.00  0.00    -0.550 OA
ENDBRANCH   8   9
ENDBRANCH   7   8
ENDBRANCH   6   7
ENDBRANCH   5   6
ENDBRANCH   4   5
ENDBRANCH   3   4
ENDBRANCH   2   3
ENDBRANCH   1   2
BRANCH   1  12
ATOM     12  C   UNL     1      67.781  50.168  56.954  1.00  0.00     0.000 C 
BRANCH  12  13
ATOM     13  C   UNL     1      66.848  49.537  58.003  1.00  0.00    -0.000 C 
BRANCH  13  14
ATOM     14  C   UNL     1      66.834  48.001  57.930  1.00  0.00    -0.000 C 
BRANCH  14  15
ATOM     15  C   UNL     1      65.440  47.406  58.195  1.00  0.00    -0.000 C 
BRANCH  15  16
ATOM     16  C   UNL     1      65.508  46.025  58.865  1.00  0.00    -0.000 C 
BRANCH  16  17
ATOM     17  C   UNL     1      64.847  44.925  58.016  1.00  0.00    -0.000 C 
BRANCH  17  18
ATOM     18  C   UNL     1      65.800  44.330  56.963  1.00  0.00    -0.000 C 
BRANCH  18  19
ATOM     19  C   UNL     1      66.164  42.851  57.187  1.00  0.00    -0.003 C 
ATOM     20  C   UNL     1      67.158  42.645  58.329  1.00  0.00     0.004 C 
ENDBRANCH  18  19
ENDBRANCH  17  18
ENDBRANCH  16  17
ENDBRANCH  15  16
ENDBRANCH  14  15
ENDBRANCH  13  14
ENDBRANCH  12  13
ENDBRANCH   1  12
TORSDOF 16
ENDMDL
MODEL 2
REMARK VINA RESULT:    -3.953     14.711     17.922
REMARK INTER + INTRA:          -8.742
REMARK INTER:                  -7.474
REMARK INTRA:                  -1.269
REMARK UNBOUND:                -1.092
REMARK SMILES CCCCCCCCCCCCCCCCCC(=O)[O-]
REMARK SMILES IDX 10 1 11 2 12 3 13 4 14 5 15 6 16 7 17 8 18 9 19 10 20 11
REMARK SMILES IDX 9 12 8 13 7 14 6 15 5 16 4 17 3 18 2 19 1 20
REMARK H PARENT
REMARK Flexibility Score: inf
ROOT
ATOM      1  C   UNL     1      60.177  34.876  50.205  1.00  0.00     0.000 C 
ENDROOT
BRANCH   1   2
ATOM      2  C   UNL     1      58.882  35.628  50.562  1.00  0.00     0.000 C 
BRANCH   2   3
ATOM      3  C   UNL     1      58.474  35.432  52.031  1.00  0.00     0.000 C 
BRANCH   3   4
ATOM      4  C   UNL     1      57.577  36.568  52.549  1.00  0.00     0.000 C 
BRANCH   4   5
ATOM      5  C   UNL     1      57.910  36.978  53.995  1.00  0.00     0.000 C 
BRANCH   5   6
ATOM      6  C   UNL     1      59.200  36.328  54.539  1.00  0.00     0.000 C 
BRANCH   6   7
ATOM      7  C   UNL     1      59.785  37.106  55.731  1.00  0.00     0.006 C 
BRANCH   7   8
ATOM      8  C   UNL     1      58.976  38.369  56.054  1.00  0.00     0.053 C 
BRANCH   8   9
ATOM      9  C   UNL     1      58.698  38.489  57.522  1.00  0.00     0.041 C 
ATOM     10  O   UNL     1      59.125  37.615  58.321  1.00  0.00    -0.550 OA
ATOM     11  O   UNL     1      57.996  39.584  58.008  1.00  0.00    -0.550 OA
ENDBRANCH   8   9
ENDBRANCH   7   8
ENDBRANCH   6   7
ENDBRANCH   5   6
ENDBRANCH   4   5
ENDBRANCH   3   4
ENDBRANCH   2   3
ENDBRANCH   1   2
BRANCH   1  12
ATOM     12  C   UNL     1      60.681  35.202  48.789  1.00  0.00     0.000 C 
BRANCH  12  13
ATOM     13  C   UNL     1      61.028  36.690  48.615  1.00  0.00    -0.000 C 
BRANCH  13  14
ATOM     14  C   UNL     1      60.793  37.185  47.178  1.00  0.00    -0.000 C 
BRANCH  14  15
ATOM     15  C   UNL     1      59.388  37.779  46.976  1.00  0.00    -0.000 C 
BRANCH  15  16
ATOM     16  C   UNL     1      58.385  36.746  46.437  1.00  0.00    -0.000 C 
BRANCH  16  17
ATOM     17  C   UNL     1      58.953  35.932  45.261  1.00  0.00    -0.000 C 
BRANCH  17  18
ATOM     18  C   UNL     1      59.046  36.750  43.960  1.00  0.00    -0.000 C 
BRANCH  18  19
ATOM     19  C   UNL     1      60.425  36.716  43.276  1.00  0.00    -0.003 C 
ATOM     20  C   UNL     1      61.104  35.350  43.364  1.00  0.00     0.004 C 
ENDBRANCH  18  19
ENDBRANCH  17  18
ENDBRANCH  16  17
ENDBRANCH  15  16
ENDBRANCH  14  15
ENDBRANCH  13  14
ENDBRANCH  12  13
ENDBRANCH   1  12
TORSDOF 16
ENDMDL
MODEL 3
REMARK VINA RESULT:    -3.933      1.156      2.071
REMARK INTER + INTRA:          -8.703
REMARK INTER:                  -7.905
REMARK INTRA:                  -0.799
REMARK UNBOUND:                -1.092
REMARK SMILES CCCCCCCCCCCCCCCCCC(=O)[O-]
REMARK SMILES IDX 10 1 11 2 12 3 13 4 14 5 15 6 16 7 17 8 18 9 19 10 20 11
REMARK SMILES IDX 9 12 8 13 7 14 6 15 5 16 4 17 3 18 2 19 1 20
REMARK H PARENT
REMARK Flexibility Score: inf
ROOT
ATOM      1  C   UNL     1      68.048  48.924  56.904  1.00  0.00     0.000 C 
ENDROOT
BRANCH   1   2
ATOM      2  C   UNL     1      67.832  50.446  56.837  1.00  0.00     0.000 C 
BRANCH   2   3
ATOM      3  C   UNL     1      69.138  51.214  56.582  1.00  0.00     0.000 C 
BRANCH   3   4
ATOM      4  C   UNL     1      69.979  50.591  55.456  1.00  0.00     0.000 C 
BRANCH   4   5
ATOM      5  C   UNL     1      69.599  51.123  54.063  1.00  0.00     0.000 C 
BRANCH   5   6
ATOM      6  C   UNL     1      70.780  51.765  53.304  1.00  0.00     0.000 C 
BRANCH   6   7
ATOM      7  C   UNL     1      70.323  52.511  52.039  1.00  0.00     0.006 C 
BRANCH   7   8
ATOM      8  C   UNL     1      70.284  51.596  50.808  1.00  0.00     0.053 C 
BRANCH   8   9
ATOM      9  C   UNL     1      68.878  51.292  50.386  1.00  0.00     0.041 C 
ATOM     10  O   UNL     1      68.338  50.205  50.718  1.00  0.00    -0.550 OA
ATOM     11  O   UNL     1      68.156  52.226  49.655  1.00  0.00    -0.550 OA
ENDBRANCH   8   9
ENDBRANCH   7   8
ENDBRANCH   6   7
ENDBRANCH   5   6
ENDBRANCH   4   5
ENDBRANCH   3   4
ENDBRANCH   2   3
ENDBRANCH   1   2
BRANCH   1  12
ATOM     12  C   UNL     1      67.243  48.259  58.033  1.00  0.00     0.000 C 
BRANCH  12  13
ATOM     13  C   UNL     1      66.060  47.430  57.505  1.00  0.00    -0.000 C 
BRANCH  13  14
ATOM     14  C   UNL     1      65.344  46.650  58.620  1.00  0.00    -0.000 C 
BRANCH  14  15
ATOM     15  C   UNL     1      65.635  45.139  58.569  1.00  0.00    -0.000 C 
BRANCH  15  16
ATOM     16  C   UNL     1      65.726  44.606  57.130  1.00  0.00    -0.000 C 
BRANCH  16  17
ATOM     17  C   UNL     1      65.404  43.105  57.036  1.00  0.00    -0.000 C 
BRANCH  17  18
ATOM     18  C   UNL     1      66.638  42.214  57.270  1.00  0.00    -0.000 C 
BRANCH  18  19
ATOM     19  C   UNL     1      66.388  40.991  58.171  1.00  0.00    -0.003 C 
ATOM     20  C   UNL     1      64.913  40.601  58.255  1.00  0.00     0.004 C 
ENDBRANCH  18  19
ENDBRANCH  17  18
ENDBRANCH  16  17
ENDBRANCH  15  16
ENDBRANCH  14  15
ENDBRANCH  13  14
ENDBRANCH  12  13
ENDBRANCH   1  12
TORSDOF 16
ENDMDL
MODEL 4
REMARK VINA RESULT:    -3.923     14.506     16.757
REMARK INTER + INTRA:          -8.685
REMARK INTER:                  -7.828
REMARK INTRA:                  -0.857
REMARK UNBOUND:                -1.092
REMARK SMILES CCCCCCCCCCCCCCCCCC(=O)[O-]
REMARK SMILES IDX 10 1 11 2 12 3 13 4 14 5 15 6 16 7 17 8 18 9 19 10 20 11
REMARK SMILES IDX 9 12 8 13 7 14 6 15 5 16 4 17 3 18 2 19 1 20
REMARK H PARENT
REMARK Flexibility Score: inf
ROOT
ATOM      1  C   UNL     1      58.599  35.592  50.205  1.00  0.00     0.000 C 
ENDROOT
BRANCH   1   2
ATOM      2  C   UNL     1      59.691  35.934  49.175  1.00  0.00     0.000 C 
BRANCH   2   3
ATOM      3  C   UNL     1      59.163  36.806  48.025  1.00  0.00     0.000 C 
BRANCH   3   4
ATOM      4  C   UNL     1      60.289  37.331  47.119  1.00  0.00     0.000 C 
BRANCH   4   5
ATOM      5  C   UNL     1      61.261  36.225  46.673  1.00  0.00     0.000 C 
BRANCH   5   6
ATOM      6  C   UNL     1      60.620  35.186  45.727  1.00  0.00     0.000 C 
BRANCH   6   7
ATOM      7  C   UNL     1      59.929  35.845  44.521  1.00  0.00     0.006 C 
BRANCH   7   8
ATOM      8  C   UNL     1      60.936  36.397  43.504  1.00  0.00     0.053 C 
BRANCH   8   9
ATOM      9  C   UNL     1      60.253  37.114  42.379  1.00  0.00     0.041 C 
ATOM     10  O   UNL     1      59.017  36.969  42.193  1.00  0.00    -0.550 OA
ATOM     11  O   UNL     1      60.977  37.969  41.558  1.00  0.00    -0.550 OA
ENDBRANCH   8   9
ENDBRANCH   7   8
ENDBRANCH   6   7
ENDBRANCH   5   6
ENDBRANCH   4   5
ENDBRANCH   3   4
ENDBRANCH   2   3
ENDBRANCH   1   2
BRANCH   1  12
ATOM     12  C   UNL     1      59.166  34.937  51.475  1.00  0.00     0.000 C 
BRANCH  12  13
ATOM     13  C   UNL     1      58.329  35.254  52.726  1.00  0.00    -0.000 C 
BRANCH  13  14
ATOM     14  C   UNL     1      57.545  36.570  52.591  1.00  0.00    -0.000 C 
BRANCH  14  15
ATOM     15  C   UNL     1      57.493  37.368  53.907  1.00  0.00    -0.000 C 
BRANCH  15  16
ATOM     16  C   UNL     1      58.711  37.100  54.805  1.00  0.00    -0.000 C 
BRANCH  16  17
ATOM     17  C   UNL     1      58.913  38.196  55.865  1.00  0.00    -0.000 C 
BRANCH  17  18
ATOM     18  C   UNL     1      59.469  37.648  57.192  1.00  0.00    -0.000 C 
BRANCH  18  19
ATOM     19  C   UNL     1      58.942  38.356  58.453  1.00  0.00    -0.003 C 
ATOM     20  C   UNL     1      58.172  39.639  58.141  1.00  0.00     0.004 C 
ENDBRANCH  18  19
ENDBRANCH  17  18
ENDBRANCH  16  17
ENDBRANCH  15  16
ENDBRANCH  14  15
ENDBRANCH  13  14
ENDBRANCH  12  13
ENDBRANCH   1  12
TORSDOF 16
ENDMDL
MODEL 5
REMARK VINA RESULT:    -3.895      3.389      8.980
REMARK INTER + INTRA:          -8.631
REMARK INTER:                  -7.591
REMARK INTRA:                  -1.040
REMARK UNBOUND:                -1.092
REMARK SMILES CCCCCCCCCCCCCCCCCC(=O)[O-]
REMARK SMILES IDX 10 1 11 2 12 3 13 4 14 5 15 6 16 7 17 8 18 9 19 10 20 11
REMARK SMILES IDX 9 12 8 13 7 14 6 15 5 16 4 17 3 18 2 19 1 20
REMARK H PARENT
REMARK Flexibility Score: inf
ROOT
ATOM      1  C   UNL     1      68.779  51.103  56.174  1.00  0.00     0.000 C 
ENDROOT
BRANCH   1   2
ATOM      2  C   UNL     1      68.403  49.646  56.498  1.00  0.00     0.000 C 
BRANCH   2   3
ATOM      3  C   UNL     1      67.383  49.542  57.642  1.00  0.00     0.000 C 
BRANCH   3   4
ATOM      4  C   UNL     1      67.221  48.103  58.159  1.00  0.00     0.000 C 
BRANCH   4   5
ATOM      5  C   UNL     1      66.005  47.384  57.548  1.00  0.00     0.000 C 
BRANCH   5   6
ATOM      6  C   UNL     1      65.240  46.502  58.558  1.00  0.00     0.000 C 
BRANCH   6   7
ATOM      7  C   UNL     1      65.980  45.188  58.862  1.00  0.00     0.006 C 
BRANCH   7   8
ATOM      8  C   UNL     1      65.240  43.963  58.310  1.00  0.00     0.053 C 
BRANCH   8   9
ATOM      9  C   UNL     1      65.874  43.452  57.051  1.00  0.00     0.041 C 
ATOM     10  O   UNL     1      65.766  44.101  55.978  1.00  0.00    -0.550 OA
ATOM     11  O   UNL     1      66.614  42.276  57.074  1.00  0.00    -0.550 OA
ENDBRANCH   8   9
ENDBRANCH   7   8
ENDBRANCH   6   7
ENDBRANCH   5   6
ENDBRANCH   4   5
ENDBRANCH   3   4
ENDBRANCH   2   3
ENDBRANCH   1   2
BRANCH   1  12
ATOM     12  C   UNL     1      69.222  51.290  54.713  1.00  0.00     0.000 C 
BRANCH  12  13
ATOM     13  C   UNL     1      70.750  51.400  54.570  1.00  0.00    -0.000 C 
BRANCH  13  14
ATOM     14  C   UNL     1      71.205  51.397  53.101  1.00  0.00    -0.000 C 
BRANCH  14  15
ATOM     15  C   UNL     1      70.976  52.751  52.406  1.00  0.00    -0.000 C 
BRANCH  15  16
ATOM     16  C   UNL     1      71.490  52.762  50.957  1.00  0.00    -0.000 C 
BRANCH  16  17
ATOM     17  C   UNL     1      70.407  53.190  49.951  1.00  0.00    -0.000 C 
BRANCH  17  18
ATOM     18  C   UNL     1      68.996  52.733  50.363  1.00  0.00    -0.000 C 
BRANCH  18  19
ATOM     19  C   UNL     1      68.603  51.329  49.869  1.00  0.00    -0.003 C 
ATOM     20  C   UNL     1      68.488  50.307  50.999  1.00  0.00     0.004 C 
ENDBRANCH  18  19
ENDBRANCH  17  18
ENDBRANCH  16  17
ENDBRANCH  15  16
ENDBRANCH  14  15
ENDBRANCH  13  14
ENDBRANCH  12  13
ENDBRANCH   1  12
TORSDOF 16
ENDMDL
MODEL 6
REMARK VINA RESULT:    -3.887     14.818     17.943
REMARK INTER + INTRA:          -8.614
REMARK INTER:                  -7.622
REMARK INTRA:                  -0.992
REMARK UNBOUND:                -1.092
REMARK SMILES CCCCCCCCCCCCCCCCCC(=O)[O-]
REMARK SMILES IDX 10 1 11 2 12 3 13 4 14 5 15 6 16 7 17 8 18 9 19 10 20 11
REMARK SMILES IDX 9 12 8 13 7 14 6 15 5 16 4 17 3 18 2 19 1 20
REMARK H PARENT
REMARK Flexibility Score: inf
ROOT
ATOM      1  C   UNL     1      59.838  36.753  47.929  1.00  0.00     0.000 C 
ENDROOT
BRANCH   1   2
ATOM      2  C   UNL     1      59.017  37.527  46.882  1.00  0.00     0.000 C 
BRANCH   2   3
ATOM      3  C   UNL     1      59.354  37.107  45.442  1.00  0.00     0.000 C 
BRANCH   3   4
ATOM      4  C   UNL     1      58.367  36.067  44.885  1.00  0.00     0.000 C 
BRANCH   4   5
ATOM      5  C   UNL     1      56.900  36.406  45.204  1.00  0.00     0.000 C 
BRANCH   5   6
ATOM      6  C   UNL     1      56.039  36.660  43.949  1.00  0.00     0.000 C 
BRANCH   6   7
ATOM      7  C   UNL     1      56.894  36.827  42.680  1.00  0.00     0.006 C 
BRANCH   7   8
ATOM      8  C   UNL     1      56.366  37.940  41.766  1.00  0.00     0.053 C 
BRANCH   8   9
ATOM      9  C   UNL     1      57.481  38.742  41.166  1.00  0.00     0.041 C 
ATOM     10  O   UNL     1      57.356  39.239  40.017  1.00  0.00    -0.550 OA
ATOM     11  O   UNL     1      58.643  38.968  41.893  1.00  0.00    -0.550 OA
ENDBRANCH   8   9
ENDBRANCH   7   8
ENDBRANCH   6   7
ENDBRANCH   5   6
ENDBRANCH   4   5
ENDBRANCH   3   4
ENDBRANCH   2   3
ENDBRANCH   1   2
BRANCH   1  12
ATOM     12  C   UNL     1      59.028  35.638  48.611  1.00  0.00     0.000 C 
BRANCH  12  13
ATOM     13  C   UNL     1      58.558  36.030  50.022  1.00  0.00    -0.000 C 
BRANCH  13  14
ATOM     14  C   UNL     1      59.082  35.072  51.105  1.00  0.00    -0.000 C 
BRANCH  14  15
ATOM     15  C   UNL     1      58.453  35.335  52.485  1.00  0.00    -0.000 C 
BRANCH  15  16
ATOM     16  C   UNL     1      57.465  36.512  52.466  1.00  0.00    -0.000 C 
BRANCH  16  17
ATOM     17  C   UNL     1      57.427  37.271  53.805  1.00  0.00    -0.000 C 
BRANCH  17  18
ATOM     18  C   UNL     1      58.663  36.998  54.681  1.00  0.00    -0.000 C 
BRANCH  18  19
ATOM     19  C   UNL     1      58.919  38.046  55.779  1.00  0.00    -0.003 C 
ATOM     20  C   UNL     1      59.835  37.536  56.891  1.00  0.00     0.004 C 
ENDBRANCH  18  19
ENDBRANCH  17  18
ENDBRANCH  16  17
ENDBRANCH  15  16
ENDBRANCH  14  15
ENDBRANCH  13  14
ENDBRANCH  12  13
ENDBRANCH   1  12
TORSDOF 16
ENDMDL
MODEL 7
REMARK VINA RESULT:    -3.852      4.583      9.591
REMARK INTER + INTRA:          -8.547
REMARK INTER:                  -7.764
REMARK INTRA:                  -0.783
REMARK UNBOUND:                -1.092
REMARK SMILES CCCCCCCCCCCCCCCCCC(=O)[O-]
REMARK SMILES IDX 10 1 11 2 12 3 13 4 14 5 15 6 16 7 17 8 18 9 19 10 20 11
REMARK SMILES IDX 9 12 8 13 7 14 6 15 5 16 4 17 3 18 2 19 1 20
REMARK H PARENT
REMARK Flexibility Score: inf
ROOT
ATOM      1  C   UNL     1      67.794  48.582  57.946  1.00  0.00     0.000 C 
ENDROOT
BRANCH   1   2
ATOM      2  C   UNL     1      66.701  47.653  57.389  1.00  0.00     0.000 C 
BRANCH   2   3
ATOM      3  C   UNL     1      65.434  47.646  58.259  1.00  0.00     0.000 C 
BRANCH   3   4
ATOM      4  C   UNL     1      65.073  46.240  58.763  1.00  0.00     0.000 C 
BRANCH   4   5
ATOM      5  C   UNL     1      66.056  45.160  58.277  1.00  0.00     0.000 C 
BRANCH   5   6
ATOM      6  C   UNL     1      65.433  44.165  57.275  1.00  0.00     0.000 C 
BRANCH   6   7
ATOM      7  C   UNL     1      66.299  42.907  57.089  1.00  0.00     0.006 C 
BRANCH   7   8
ATOM      8  C   UNL     1      66.316  42.023  58.343  1.00  0.00     0.053 C 
BRANCH   8   9
ATOM      9  C   UNL     1      65.450  40.811  58.180  1.00  0.00     0.041 C 
ATOM     10  O   UNL     1      64.197  40.926  58.152  1.00  0.00    -0.550 OA
ATOM     11  O   UNL     1      66.031  39.559  58.024  1.00  0.00    -0.550 OA
ENDBRANCH   8   9
ENDBRANCH   7   8
ENDBRANCH   6   7
ENDBRANCH   5   6
ENDBRANCH   4   5
ENDBRANCH   3   4
ENDBRANCH   2   3
ENDBRANCH   1   2
BRANCH   1  12
ATOM     12  C   UNL     1      67.942  49.878  57.132  1.00  0.00     0.000 C 
BRANCH  12  13
ATOM     13  C   UNL     1      69.130  49.828  56.156  1.00  0.00    -0.000 C 
BRANCH  13  14
ATOM     14  C   UNL     1      68.863  50.616  54.863  1.00  0.00    -0.000 C 
BRANCH  14  15
ATOM     15  C   UNL     1      70.113  51.349  54.345  1.00  0.00    -0.000 C 
BRANCH  15  16
ATOM     16  C   UNL     1      70.183  51.379  52.810  1.00  0.00    -0.000 C 
BRANCH  16  17
ATOM     17  C   UNL     1      69.010  50.632  52.152  1.00  0.00    -0.000 C 
BRANCH  17  18
ATOM     18  C   UNL     1      68.801  51.030  50.679  1.00  0.00    -0.000 C 
BRANCH  18  19
ATOM     19  C   UNL     1      69.908  51.922  50.090  1.00  0.00    -0.003 C 
ATOM     20  C   UNL     1      69.408  52.831  48.967  1.00  0.00     0.004 C 
ENDBRANCH  18  19
ENDBRANCH  17  18
ENDBRANCH  16  17
ENDBRANCH  15  16
ENDBRANCH  14  15
ENDBRANCH  13  14
ENDBRANCH  12  13
ENDBRANCH   1  12
TORSDOF 16
ENDMDL
MODEL 8
REMARK VINA RESULT:    -3.805      1.338      2.012
REMARK INTER + INTRA:          -8.456
REMARK INTER:                  -7.528
REMARK INTRA:                  -0.928
REMARK UNBOUND:                -1.092
REMARK SMILES CCCCCCCCCCCCCCCCCC(=O)[O-]
REMARK SMILES IDX 10 1 11 2 12 3 13 4 14 5 15 6 16 7 17 8 18 9 19 10 20 11
REMARK SMILES IDX 9 12 8 13 7 14 6 15 5 16 4 17 3 18 2 19 1 20
REMARK H PARENT
REMARK Flexibility Score: inf
ROOT
ATOM      1  C   UNL     1      68.242  50.873  56.223  1.00  0.00     0.000 C 
ENDROOT
BRANCH   1   2
ATOM      2  C   UNL     1      69.133  51.725  55.301  1.00  0.00     0.000 C 
BRANCH   2   3
ATOM      3  C   UNL     1      69.590  50.958  54.051  1.00  0.00     0.000 C 
BRANCH   3   4
ATOM      4  C   UNL     1      71.015  51.337  53.615  1.00  0.00     0.000 C 
BRANCH   4   5
ATOM      5  C   UNL     1      71.045  52.127  52.296  1.00  0.00     0.000 C 
BRANCH   5   6
ATOM      6  C   UNL     1      70.674  53.616  52.461  1.00  0.00     0.000 C 
BRANCH   6   7
ATOM      7  C   UNL     1      69.608  54.066  51.446  1.00  0.00     0.006 C 
BRANCH   7   8
ATOM      8  C   UNL     1      69.726  53.321  50.110  1.00  0.00     0.053 C 
BRANCH   8   9
ATOM      9  C   UNL     1      68.468  52.578  49.776  1.00  0.00     0.041 C 
ATOM     10  O   UNL     1      67.484  53.188  49.284  1.00  0.00    -0.550 OA
ATOM     11  O   UNL     1      68.398  51.205  49.976  1.00  0.00    -0.550 OA
ENDBRANCH   8   9
ENDBRANCH   7   8
ENDBRANCH   6   7
ENDBRANCH   5   6
ENDBRANCH   4   5
ENDBRANCH   3   4
ENDBRANCH   2   3
ENDBRANCH   1   2
BRANCH   1  12
ATOM     12  C   UNL     1      68.794  49.453  56.434  1.00  0.00     0.000 C 
BRANCH  12  13
ATOM     13  C   UNL     1      68.119  48.728  57.611  1.00  0.00    -0.000 C 
BRANCH  13  14
ATOM     14  C   UNL     1      66.686  49.224  57.864  1.00  0.00    -0.000 C 
BRANCH  14  15
ATOM     15  C   UNL     1      65.741  48.100  58.326  1.00  0.00    -0.000 C 
BRANCH  15  16
ATOM     16  C   UNL     1      65.862  46.837  57.459  1.00  0.00    -0.000 C 
BRANCH  16  17
ATOM     17  C   UNL     1      64.962  45.693  57.956  1.00  0.00    -0.000 C 
BRANCH  17  18
ATOM     18  C   UNL     1      65.743  44.393  58.224  1.00  0.00    -0.000 C 
BRANCH  18  19
ATOM     19  C   UNL     1      65.956  43.503  56.986  1.00  0.00    -0.003 C 
ATOM     20  C   UNL     1      66.602  42.159  57.319  1.00  0.00     0.004 C 
ENDBRANCH  18  19
ENDBRANCH  17  18
ENDBRANCH  16  17
ENDBRANCH  15  16
ENDBRANCH  14  15
ENDBRANCH  13  14
ENDBRANCH  12  13
ENDBRANCH   1  12
TORSDOF 16
ENDMDL
MODEL 9
REMARK VINA RESULT:    -3.715      1.118      2.205
REMARK INTER + INTRA:          -8.281
REMARK INTER:                  -6.955
REMARK INTRA:                  -1.326
REMARK UNBOUND:                -1.092
REMARK SMILES CCCCCCCCCCCCCCCCCC(=O)[O-]
REMARK SMILES IDX 10 1 11 2 12 3 13 4 14 5 15 6 16 7 17 8 18 9 19 10 20 11
REMARK SMILES IDX 9 12 8 13 7 14 6 15 5 16 4 17 3 18 2 19 1 20
REMARK H PARENT
REMARK Flexibility Score: inf
ROOT
ATOM      1  C   UNL     1      71.642  48.412  57.302  1.00  0.00     0.000 C 
ENDROOT
BRANCH   1   2
ATOM      2  C   UNL     1      72.932  49.249  57.357  1.00  0.00     0.000 C 
BRANCH   2   3
ATOM      3  C   UNL     1      72.904  50.439  56.386  1.00  0.00     0.000 C 
BRANCH   3   4
ATOM      4  C   UNL     1      71.740  51.403  56.668  1.00  0.00     0.000 C 
BRANCH   4   5
ATOM      5  C   UNL     1      70.932  51.750  55.405  1.00  0.00     0.000 C 
BRANCH   5   6
ATOM      6  C   UNL     1      71.450  51.050  54.131  1.00  0.00     0.000 C 
BRANCH   6   7
ATOM      7  C   UNL     1      70.951  51.735  52.847  1.00  0.00     0.006 C 
BRANCH   7   8
ATOM      8  C   UNL     1      69.624  51.145  52.351  1.00  0.00     0.053 C 
BRANCH   8   9
ATOM      9  C   UNL     1      69.492  51.249  50.862  1.00  0.00     0.041 C 
ATOM     10  O   UNL     1      68.478  50.781  50.282  1.00  0.00    -0.550 OA
ATOM     11  O   UNL     1      70.473  51.894  50.121  1.00  0.00    -0.550 OA
ENDBRANCH   8   9
ENDBRANCH   7   8
ENDBRANCH   6   7
ENDBRANCH   5   6
ENDBRANCH   4   5
ENDBRANCH   3   4
ENDBRANCH   2   3
ENDBRANCH   1   2
BRANCH   1  12
ATOM     12  C   UNL     1      70.949  48.299  58.670  1.00  0.00     0.000 C 
BRANCH  12  13
ATOM     13  C   UNL     1      69.634  49.096  58.731  1.00  0.00    -0.000 C 
BRANCH  13  14
ATOM     14  C   UNL     1      68.828  49.005  57.425  1.00  0.00    -0.000 C 
BRANCH  14  15
ATOM     15  C   UNL     1      67.313  48.884  57.669  1.00  0.00    -0.000 C 
BRANCH  15  16
ATOM     16  C   UNL     1      66.917  47.513  58.239  1.00  0.00    -0.000 C 
BRANCH  16  17
ATOM     17  C   UNL     1      65.403  47.255  58.153  1.00  0.00    -0.000 C 
BRANCH  17  18
ATOM     18  C   UNL     1      65.055  45.756  58.098  1.00  0.00    -0.000 C 
BRANCH  18  19
ATOM     19  C   UNL     1      65.627  45.006  56.881  1.00  0.00    -0.003 C 
ATOM     20  C   UNL     1      66.103  43.593  57.218  1.00  0.00     0.004 C 
ENDBRANCH  18  19
ENDBRANCH  17  18
ENDBRANCH  16  17
ENDBRANCH  15  16
ENDBRANCH  14  15
ENDBRANCH  13  14
ENDBRANCH  12  13
ENDBRANCH   1  12
TORSDOF 16
ENDMDL
