MODEL 1
REMARK VINA RESULT:    -2.075      0.000      0.000
REMARK INTER + INTRA:          -2.617
REMARK INTER:                  -2.499
REMARK INTRA:                  -0.117
REMARK UNBOUND:                -0.117
REMARK SMILES O=c1c(O)c(-c2ccc(O)cc2O)oc2cc(O)cc(O)c12
REMARK SMILES IDX 5 1 3 2 2 3 1 4 22 5 20 6 19 7 17 8 16 9 15 10 14 11 6 12
REMARK SMILES IDX 8 13 7 14 9 15 11 16 12 17 10 18 13 20 4 22 21 24 18 26
REMARK H PARENT 10 19 13 21 4 23 21 25 18 27
REMARK Flexibility Score: inf
ROOT
ATOM      1  C   UNL     1       8.883  12.014 -16.346  1.00  0.00     0.184 A 
ATOM      2  C   UNL     1       7.709  12.737 -16.090  1.00  0.00     0.208 A 
ATOM      3  C   UNL     1       7.344  13.774 -16.962  1.00  0.00     0.238 A 
ATOM      4  O   UNL     1       6.257  14.378 -16.762  1.00  0.00    -0.285 OA
ATOM      5  C   UNL     1       8.175  14.093 -18.063  1.00  0.00     0.111 A 
ATOM      6  C   UNL     1       7.925  15.149 -18.990  1.00  0.00     0.134 A 
ATOM      7  C   UNL     1       8.750  15.295 -20.112  1.00  0.00     0.093 A 
ATOM      8  C   UNL     1       9.855  14.462 -20.306  1.00  0.00     0.123 A 
ATOM      9  C   UNL     1      10.142  13.465 -19.377  1.00  0.00     0.094 A 
ATOM     10  C   UNL     1       9.316  13.271 -18.268  1.00  0.00     0.146 A 
ATOM     11  O   UNL     1       9.617  12.299 -17.415  1.00  0.00    -0.451 OA
ENDROOT
BRANCH   1  12
ATOM     12  C   UNL     1       9.329  10.926 -15.449  1.00  0.00     0.063 A 
ATOM     13  C   UNL     1      11.082   9.947 -14.073  1.00  0.00     0.047 A 
ATOM     14  C   UNL     1      10.613  10.987 -14.880  1.00  0.00     0.020 A 
ATOM     15  C   UNL     1      10.282   8.830 -13.832  1.00  0.00     0.119 A 
ATOM     16  C   UNL     1       9.002   8.756 -14.396  1.00  0.00     0.093 A 
ATOM     17  C   UNL     1       8.515   9.797 -15.197  1.00  0.00     0.130 A 
BRANCH  15  18
ATOM     18  O   UNL     1      10.764   7.797 -13.031  1.00  0.00    -0.508 OA
ATOM     19  H   UNL     1      11.691   7.410 -13.165  1.00  0.00     0.293 HD
ENDBRANCH  15  18
BRANCH  17  20
ATOM     20  O   UNL     1       7.219   9.688 -15.704  1.00  0.00    -0.507 OA
ATOM     21  H   UNL     1       6.393   9.914 -15.164  1.00  0.00     0.293 HD
ENDBRANCH  17  20
ENDBRANCH   1  12
BRANCH   2  22
ATOM     22  O   UNL     1       6.910  12.402 -14.993  1.00  0.00    -0.502 OA
ATOM     23  H   UNL     1       6.734  11.442 -14.723  1.00  0.00     0.293 HD
ENDBRANCH   2  22
BRANCH   6  24
ATOM     24  O   UNL     1       6.903  16.092 -18.842  1.00  0.00    -0.507 OA
ATOM     25  H   UNL     1       6.295  16.161 -18.040  1.00  0.00     0.293 HD
ENDBRANCH   6  24
BRANCH   8  26
ATOM     26  O   UNL     1      10.680  14.624 -21.416  1.00  0.00    -0.508 OA
ATOM     27  H   UNL     1      10.688  13.950 -22.173  1.00  0.00     0.293 HD
ENDBRANCH   8  26
TORSDOF 6
ENDMDL
MODEL 2
REMARK VINA RESULT:     0.341      1.530      6.507
REMARK INTER + INTRA:           0.293
REMARK INTER:                   0.637
REMARK INTRA:                  -0.344
REMARK UNBOUND:                -0.117
REMARK SMILES O=c1c(O)c(-c2ccc(O)cc2O)oc2cc(O)cc(O)c12
REMARK SMILES IDX 5 1 3 2 2 3 1 4 22 5 20 6 19 7 17 8 16 9 15 10 14 11 6 12
REMARK SMILES IDX 8 13 7 14 9 15 11 16 12 17 10 18 13 20 4 22 21 24 18 26
REMARK H PARENT 10 19 13 21 4 23 21 25 18 27
REMARK Flexibility Score: inf
ROOT
ATOM      1  C   UNL     1       9.189  13.844 -18.707  1.00  0.00     0.184 A 
ATOM      2  C   UNL     1       8.074  14.564 -18.251  1.00  0.00     0.208 A 
ATOM      3  C   UNL     1       7.364  14.087 -17.139  1.00  0.00     0.238 A 
ATOM      4  O   UNL     1       6.403  14.771 -16.698  1.00  0.00    -0.285 OA
ATOM      5  C   UNL     1       7.761  12.880 -16.514  1.00  0.00     0.111 A 
ATOM      6  C   UNL     1       7.091  12.282 -15.404  1.00  0.00     0.134 A 
ATOM      7  C   UNL     1       7.645  11.152 -14.790  1.00  0.00     0.093 A 
ATOM      8  C   UNL     1       8.809  10.561 -15.286  1.00  0.00     0.123 A 
ATOM      9  C   UNL     1       9.439  11.102 -16.404  1.00  0.00     0.094 A 
ATOM     10  C   UNL     1       8.932  12.250 -17.016  1.00  0.00     0.146 A 
ATOM     11  O   UNL     1       9.571  12.742 -18.071  1.00  0.00    -0.451 OA
ENDROOT
BRANCH   1  12
ATOM     12  C   UNL     1       9.962  14.285 -19.887  1.00  0.00     0.063 A 
ATOM     13  C   UNL     1      10.590  13.942 -22.213  1.00  0.00     0.047 A 
ATOM     14  C   UNL     1       9.832  13.581 -21.097  1.00  0.00     0.020 A 
ATOM     15  C   UNL     1      11.496  15.001 -22.135  1.00  0.00     0.119 A 
ATOM     16  C   UNL     1      11.636  15.708 -20.934  1.00  0.00     0.093 A 
ATOM     17  C   UNL     1      10.874  15.364 -19.811  1.00  0.00     0.130 A 
BRANCH  15  18
ATOM     18  O   UNL     1      12.251  15.346 -23.254  1.00  0.00    -0.508 OA
ATOM     19  H   UNL     1      13.222  15.625 -23.173  1.00  0.00     0.293 HD
ENDBRANCH  15  18
BRANCH  17  20
ATOM     20  O   UNL     1      11.027  16.125 -18.651  1.00  0.00    -0.507 OA
ATOM     21  H   UNL     1      10.408  16.050 -17.854  1.00  0.00     0.293 HD
ENDBRANCH  17  20
ENDBRANCH   1  12
BRANCH   2  22
ATOM     22  O   UNL     1       7.703  15.750 -18.890  1.00  0.00    -0.502 OA
ATOM     23  H   UNL     1       7.621  15.821 -19.897  1.00  0.00     0.293 HD
ENDBRANCH   2  22
BRANCH   6  24
ATOM     24  O   UNL     1       5.876  12.739 -14.887  1.00  0.00    -0.507 OA
ATOM     25  H   UNL     1       5.452  12.409 -14.033  1.00  0.00     0.293 HD
ENDBRANCH   6  24
BRANCH   8  26
ATOM     26  O   UNL     1       9.345   9.427 -14.679  1.00  0.00    -0.508 OA
ATOM     27  H   UNL     1       9.590   8.604 -15.217  1.00  0.00     0.293 HD
ENDBRANCH   8  26
TORSDOF 6
ENDMDL
