MODEL 1
REMARK VINA RESULT:    -5.179      0.000      0.000
REMARK INTER + INTRA:          -6.227
REMARK INTER:                  -6.088
REMARK INTRA:                  -0.139
REMARK UNBOUND:                -0.139
REMARK SMILES O=C([O-])C=Cc1ccc(O)c(O)c1
REMARK SMILES IDX 6 1 13 2 7 3 11 4 8 5 9 6 5 7 4 8 2 9 1 10 3 11 12 12 10 14
REMARK H PARENT 12 13 10 15
REMARK Flexibility Score: inf
ROOT
ATOM      1  C   UNL     1      16.484 -10.909  24.346  1.00  0.00    -0.022 A 
ATOM      2  C   UNL     1      17.278  -9.787  24.063  1.00  0.00     0.058 A 
ATOM      3  C   UNL     1      15.102 -10.843  24.097  1.00  0.00     0.012 A 
ATOM      4  C   UNL     1      16.712  -8.607  23.565  1.00  0.00     0.157 A 
ATOM      5  C   UNL     1      14.530  -9.669  23.601  1.00  0.00     0.051 A 
ATOM      6  C   UNL     1      15.319  -8.546  23.335  1.00  0.00     0.157 A 
ENDROOT
BRANCH   1   7
ATOM      7  C   UNL     1      17.145 -12.135  24.863  1.00  0.00     0.010 C 
ATOM      8  C   UNL     1      16.633 -13.366  24.738  1.00  0.00     0.025 C 
BRANCH   8   9
ATOM      9  C   UNL     1      17.317 -14.553  25.275  1.00  0.00     0.064 C 
ATOM     10  O   UNL     1      17.615 -14.599  26.497  1.00  0.00    -0.545 OA
ATOM     11  O   UNL     1      17.640 -15.627  24.454  1.00  0.00    -0.545 OA
ENDBRANCH   8   9
ENDBRANCH   1   7
BRANCH   4  12
ATOM     12  O   UNL     1      17.565  -7.529  23.316  1.00  0.00    -0.504 OA
ATOM     13  H   UNL     1      17.504  -6.936  22.502  1.00  0.00     0.293 HD
ENDBRANCH   4  12
BRANCH   6  14
ATOM     14  O   UNL     1      14.683  -7.403  22.843  1.00  0.00    -0.504 OA
ATOM     15  H   UNL     1      13.813  -7.041  23.204  1.00  0.00     0.293 HD
ENDBRANCH   6  14
TORSDOF 4
ENDMDL
MODEL 2
REMARK VINA RESULT:    -5.053      0.773      1.849
REMARK INTER + INTRA:          -6.078
REMARK INTER:                  -5.947
REMARK INTRA:                  -0.132
REMARK UNBOUND:                -0.139
REMARK SMILES O=C([O-])C=Cc1ccc(O)c(O)c1
REMARK SMILES IDX 6 1 13 2 7 3 11 4 8 5 9 6 5 7 4 8 2 9 1 10 3 11 12 12 10 14
REMARK H PARENT 12 13 10 15
REMARK Flexibility Score: inf
ROOT
ATOM      1  C   UNL     1      16.501 -10.717  24.307  1.00  0.00    -0.022 A 
ATOM      2  C   UNL     1      15.258 -10.137  24.011  1.00  0.00     0.058 A 
ATOM      3  C   UNL     1      17.669  -9.961  24.101  1.00  0.00     0.012 A 
ATOM      4  C   UNL     1      15.168  -8.838  23.496  1.00  0.00     0.157 A 
ATOM      5  C   UNL     1      17.588  -8.664  23.587  1.00  0.00     0.051 A 
ATOM      6  C   UNL     1      16.350  -8.093  23.278  1.00  0.00     0.157 A 
ENDROOT
BRANCH   1   7
ATOM      7  C   UNL     1      16.529 -12.095  24.860  1.00  0.00     0.010 C 
ATOM      8  C   UNL     1      17.360 -13.053  24.429  1.00  0.00     0.025 C 
BRANCH   8   9
ATOM      9  C   UNL     1      17.346 -14.410  24.999  1.00  0.00     0.064 C 
ATOM     10  O   UNL     1      17.356 -14.560  26.248  1.00  0.00    -0.545 OA
ATOM     11  O   UNL     1      17.321 -15.532  24.178  1.00  0.00    -0.545 OA
ENDBRANCH   8   9
ENDBRANCH   1   7
BRANCH   4  12
ATOM     12  O   UNL     1      13.896  -8.332  23.219  1.00  0.00    -0.504 OA
ATOM     13  H   UNL     1      13.190  -8.163  23.920  1.00  0.00     0.293 HD
ENDBRANCH   4  12
BRANCH   6  14
ATOM     14  O   UNL     1      16.340  -6.794  22.765  1.00  0.00    -0.504 OA
ATOM     15  H   UNL     1      17.120  -6.156  22.827  1.00  0.00     0.293 HD
ENDBRANCH   6  14
TORSDOF 4
ENDMDL
MODEL 3
REMARK VINA RESULT:    -5.033      9.026     10.524
REMARK INTER + INTRA:          -6.055
REMARK INTER:                  -5.917
REMARK INTRA:                  -0.138
REMARK UNBOUND:                -0.139
REMARK SMILES O=C([O-])C=Cc1ccc(O)c(O)c1
REMARK SMILES IDX 6 1 13 2 7 3 11 4 8 5 9 6 5 7 4 8 2 9 1 10 3 11 12 12 10 14
REMARK H PARENT 12 13 10 15
REMARK Flexibility Score: inf
ROOT
ATOM      1  C   UNL     1      14.008 -13.461  33.445  1.00  0.00    -0.022 A 
ATOM      2  C   UNL     1      14.038 -13.811  34.804  1.00  0.00     0.058 A 
ATOM      3  C   UNL     1      14.283 -12.130  33.080  1.00  0.00     0.012 A 
ATOM      4  C   UNL     1      14.312 -12.857  35.792  1.00  0.00     0.157 A 
ATOM      5  C   UNL     1      14.556 -11.173  34.060  1.00  0.00     0.051 A 
ATOM      6  C   UNL     1      14.570 -11.519  35.414  1.00  0.00     0.157 A 
ENDROOT
BRANCH   1   7
ATOM      7  C   UNL     1      13.722 -14.520  32.444  1.00  0.00     0.010 C 
ATOM      8  C   UNL     1      13.542 -14.282  31.139  1.00  0.00     0.025 C 
BRANCH   8   9
ATOM      9  C   UNL     1      13.250 -15.362  30.183  1.00  0.00     0.064 C 
ATOM     10  O   UNL     1      14.198 -15.977  29.630  1.00  0.00    -0.545 OA
ATOM     11  O   UNL     1      11.940 -15.717  29.881  1.00  0.00    -0.545 OA
ENDBRANCH   8   9
ENDBRANCH   1   7
BRANCH   4  12
ATOM     12  O   UNL     1      14.316 -13.280  37.123  1.00  0.00    -0.504 OA
ATOM     13  H   UNL     1      15.025 -13.875  37.525  1.00  0.00     0.293 HD
ENDBRANCH   4  12
BRANCH   6  14
ATOM     14  O   UNL     1      14.847 -10.513  36.343  1.00  0.00    -0.504 OA
ATOM     15  H   UNL     1      14.586 -10.556  37.317  1.00  0.00     0.293 HD
ENDBRANCH   6  14
TORSDOF 4
ENDMDL
MODEL 4
REMARK VINA RESULT:    -4.885      1.837      6.153
REMARK INTER + INTRA:          -5.881
REMARK INTER:                  -5.752
REMARK INTRA:                  -0.129
REMARK UNBOUND:                -0.139
REMARK SMILES O=C([O-])C=Cc1ccc(O)c(O)c1
REMARK SMILES IDX 6 1 13 2 7 3 11 4 8 5 9 6 5 7 4 8 2 9 1 10 3 11 12 12 10 14
REMARK H PARENT 12 13 10 15
REMARK Flexibility Score: inf
ROOT
ATOM      1  C   UNL     1      17.487 -12.018  25.645  1.00  0.00    -0.022 A 
ATOM      2  C   UNL     1      17.104 -12.996  24.713  1.00  0.00     0.058 A 
ATOM      3  C   UNL     1      17.923 -12.427  26.918  1.00  0.00     0.012 A 
ATOM      4  C   UNL     1      17.129 -14.358  25.041  1.00  0.00     0.157 A 
ATOM      5  C   UNL     1      17.950 -13.782  27.252  1.00  0.00     0.051 A 
ATOM      6  C   UNL     1      17.554 -14.755  26.330  1.00  0.00     0.157 A 
ENDROOT
BRANCH   1   7
ATOM      7  C   UNL     1      17.448 -10.592  25.233  1.00  0.00     0.010 C 
ATOM      8  C   UNL     1      17.885 -10.147  24.048  1.00  0.00     0.025 C 
BRANCH   8   9
ATOM      9  C   UNL     1      17.838  -8.721  23.686  1.00  0.00     0.064 C 
ATOM     10  O   UNL     1      17.531  -8.388  22.512  1.00  0.00    -0.545 OA
ATOM     11  O   UNL     1      18.125  -7.734  24.621  1.00  0.00    -0.545 OA
ENDBRANCH   8   9
ENDBRANCH   1   7
BRANCH   4  12
ATOM     12  O   UNL     1      16.726 -15.271  24.065  1.00  0.00    -0.504 OA
ATOM     13  H   UNL     1      16.891 -15.151  23.076  1.00  0.00     0.293 HD
ENDBRANCH   4  12
BRANCH   6  14
ATOM     14  O   UNL     1      17.602 -16.093  26.730  1.00  0.00    -0.504 OA
ATOM     15  H   UNL     1      17.019 -16.820  26.341  1.00  0.00     0.293 HD
ENDBRANCH   6  14
TORSDOF 4
ENDMDL
MODEL 5
REMARK VINA RESULT:    -4.849      2.136      3.309
REMARK INTER + INTRA:          -5.839
REMARK INTER:                  -5.698
REMARK INTRA:                  -0.140
REMARK UNBOUND:                -0.139
REMARK SMILES O=C([O-])C=Cc1ccc(O)c(O)c1
REMARK SMILES IDX 6 1 13 2 7 3 11 4 8 5 9 6 5 7 4 8 2 9 1 10 3 11 12 12 10 14
REMARK H PARENT 12 13 10 15
REMARK Flexibility Score: inf
ROOT
ATOM      1  C   UNL     1      14.692  -9.021  23.840  1.00  0.00    -0.022 A 
ATOM      2  C   UNL     1      13.701  -8.026  23.825  1.00  0.00     0.058 A 
ATOM      3  C   UNL     1      15.955  -8.730  23.294  1.00  0.00     0.012 A 
ATOM      4  C   UNL     1      13.946  -6.769  23.258  1.00  0.00     0.157 A 
ATOM      5  C   UNL     1      16.206  -7.479  22.727  1.00  0.00     0.051 A 
ATOM      6  C   UNL     1      15.215  -6.493  22.698  1.00  0.00     0.157 A 
ENDROOT
BRANCH   1   7
ATOM      7  C   UNL     1      14.374 -10.329  24.465  1.00  0.00     0.010 C 
ATOM      8  C   UNL     1      15.210 -11.376  24.467  1.00  0.00     0.025 C 
BRANCH   8   9
ATOM      9  C   UNL     1      14.849 -12.660  25.091  1.00  0.00     0.064 C 
ATOM     10  O   UNL     1      15.687 -13.598  25.110  1.00  0.00    -0.545 OA
ATOM     11  O   UNL     1      13.596 -12.852  25.661  1.00  0.00    -0.545 OA
ENDBRANCH   8   9
ENDBRANCH   1   7
BRANCH   4  12
ATOM     12  O   UNL     1      12.909  -5.834  23.273  1.00  0.00    -0.504 OA
ATOM     13  H   UNL     1      12.603  -5.342  24.100  1.00  0.00     0.293 HD
ENDBRANCH   4  12
BRANCH   6  14
ATOM     14  O   UNL     1      15.531  -5.265  22.112  1.00  0.00    -0.504 OA
ATOM     15  H   UNL     1      14.938  -4.785  21.451  1.00  0.00     0.293 HD
ENDBRANCH   6  14
TORSDOF 4
ENDMDL
MODEL 6
REMARK VINA RESULT:    -4.833      2.116      2.579
REMARK INTER + INTRA:          -5.820
REMARK INTER:                  -5.692
REMARK INTRA:                  -0.128
REMARK UNBOUND:                -0.139
REMARK SMILES O=C([O-])C=Cc1ccc(O)c(O)c1
REMARK SMILES IDX 6 1 13 2 7 3 11 4 8 5 9 6 5 7 4 8 2 9 1 10 3 11 12 12 10 14
REMARK H PARENT 12 13 10 15
REMARK Flexibility Score: inf
ROOT
ATOM      1  C   UNL     1      17.891 -10.613  24.672  1.00  0.00    -0.022 A 
ATOM      2  C   UNL     1      17.487 -10.203  25.952  1.00  0.00     0.058 A 
ATOM      3  C   UNL     1      18.124  -9.635  23.688  1.00  0.00     0.012 A 
ATOM      4  C   UNL     1      17.292  -8.849  26.252  1.00  0.00     0.157 A 
ATOM      5  C   UNL     1      17.932  -8.283  23.979  1.00  0.00     0.051 A 
ATOM      6  C   UNL     1      17.514  -7.876  25.250  1.00  0.00     0.157 A 
ENDROOT
BRANCH   1   7
ATOM      7  C   UNL     1      18.090 -12.063  24.420  1.00  0.00     0.010 C 
ATOM      8  C   UNL     1      17.232 -13.012  24.815  1.00  0.00     0.025 C 
BRANCH   8   9
ATOM      9  C   UNL     1      17.474 -14.440  24.552  1.00  0.00     0.064 C 
ATOM     10  O   UNL     1      17.628 -15.232  25.518  1.00  0.00    -0.545 OA
ATOM     11  O   UNL     1      17.534 -14.929  23.253  1.00  0.00    -0.545 OA
ENDBRANCH   8   9
ENDBRANCH   1   7
BRANCH   4  12
ATOM     12  O   UNL     1      16.882  -8.520  27.545  1.00  0.00    -0.504 OA
ATOM     13  H   UNL     1      16.370  -7.682  27.780  1.00  0.00     0.293 HD
ENDBRANCH   4  12
BRANCH   6  14
ATOM     14  O   UNL     1      17.338  -6.509  25.473  1.00  0.00    -0.504 OA
ATOM     15  H   UNL     1      17.260  -5.821  24.738  1.00  0.00     0.293 HD
ENDBRANCH   6  14
TORSDOF 4
ENDMDL
MODEL 7
REMARK VINA RESULT:    -4.818      8.509     10.575
REMARK INTER + INTRA:          -5.802
REMARK INTER:                  -5.662
REMARK INTRA:                  -0.140
REMARK UNBOUND:                -0.139
REMARK SMILES O=C([O-])C=Cc1ccc(O)c(O)c1
REMARK SMILES IDX 6 1 13 2 7 3 11 4 8 5 9 6 5 7 4 8 2 9 1 10 3 11 12 12 10 14
REMARK H PARENT 12 13 10 15
REMARK Flexibility Score: inf
ROOT
ATOM      1  C   UNL     1      13.659 -14.452  32.522  1.00  0.00    -0.022 A 
ATOM      2  C   UNL     1      13.561 -14.143  31.157  1.00  0.00     0.058 A 
ATOM      3  C   UNL     1      13.391 -15.768  32.941  1.00  0.00     0.012 A 
ATOM      4  C   UNL     1      13.181 -15.112  30.220  1.00  0.00     0.157 A 
ATOM      5  C   UNL     1      13.011 -16.740  32.013  1.00  0.00     0.051 A 
ATOM      6  C   UNL     1      12.899 -16.427  30.655  1.00  0.00     0.157 A 
ENDROOT
BRANCH   1   7
ATOM      7  C   UNL     1      14.076 -13.384  33.465  1.00  0.00     0.010 C 
ATOM      8  C   UNL     1      14.168 -13.554  34.790  1.00  0.00     0.025 C 
BRANCH   8   9
ATOM      9  C   UNL     1      14.576 -12.463  35.690  1.00  0.00     0.064 C 
ATOM     10  O   UNL     1      15.177 -12.732  36.762  1.00  0.00    -0.545 OA
ATOM     11  O   UNL     1      14.309 -11.136  35.373  1.00  0.00    -0.545 OA
ENDBRANCH   8   9
ENDBRANCH   1   7
BRANCH   4  12
ATOM     12  O   UNL     1      13.098 -14.726  28.880  1.00  0.00    -0.504 OA
ATOM     13  H   UNL     1      12.259 -14.375  28.444  1.00  0.00     0.293 HD
ENDBRANCH   4  12
BRANCH   6  14
ATOM     14  O   UNL     1      12.511 -17.445  29.780  1.00  0.00    -0.504 OA
ATOM     15  H   UNL     1      13.111 -18.206  29.497  1.00  0.00     0.293 HD
ENDBRANCH   6  14
TORSDOF 4
ENDMDL
MODEL 8
REMARK VINA RESULT:    -4.669      5.154      7.186
REMARK INTER + INTRA:          -5.627
REMARK INTER:                  -5.496
REMARK INTRA:                  -0.130
REMARK UNBOUND:                -0.139
REMARK SMILES O=C([O-])C=Cc1ccc(O)c(O)c1
REMARK SMILES IDX 6 1 13 2 7 3 11 4 8 5 9 6 5 7 4 8 2 9 1 10 3 11 12 12 10 14
REMARK H PARENT 12 13 10 15
REMARK Flexibility Score: inf
ROOT
ATOM      1  C   UNL     1      11.149  -7.911  25.306  1.00  0.00    -0.022 A 
ATOM      2  C   UNL     1      10.802  -8.273  26.617  1.00  0.00     0.058 A 
ATOM      3  C   UNL     1      10.131  -7.520  24.418  1.00  0.00     0.012 A 
ATOM      4  C   UNL     1       9.467  -8.272  27.039  1.00  0.00     0.157 A 
ATOM      5  C   UNL     1       8.797  -7.517  24.831  1.00  0.00     0.051 A 
ATOM      6  C   UNL     1       8.450  -7.892  26.132  1.00  0.00     0.157 A 
ENDROOT
BRANCH   1   7
ATOM      7  C   UNL     1      12.583  -7.923  24.922  1.00  0.00     0.010 C 
ATOM      8  C   UNL     1      13.106  -8.765  24.022  1.00  0.00     0.025 C 
BRANCH   8   9
ATOM      9  C   UNL     1      14.538  -8.749  23.678  1.00  0.00     0.064 C 
ATOM     10  O   UNL     1      15.094  -7.659  23.387  1.00  0.00    -0.545 OA
ATOM     11  O   UNL     1      15.287  -9.920  23.673  1.00  0.00    -0.545 OA
ENDBRANCH   8   9
ENDBRANCH   1   7
BRANCH   4  12
ATOM     12  O   UNL     1       9.199  -8.653  28.356  1.00  0.00    -0.504 OA
ATOM     13  H   UNL     1       9.699  -8.300  29.159  1.00  0.00     0.293 HD
ENDBRANCH   4  12
BRANCH   6  14
ATOM     14  O   UNL     1       7.098  -7.870  26.480  1.00  0.00    -0.504 OA
ATOM     15  H   UNL     1       6.512  -7.050  26.420  1.00  0.00     0.293 HD
ENDBRANCH   6  14
TORSDOF 4
ENDMDL
MODEL 9
REMARK VINA RESULT:    -4.584      2.171      6.085
REMARK INTER + INTRA:          -5.527
REMARK INTER:                  -5.394
REMARK INTRA:                  -0.132
REMARK UNBOUND:                -0.139
REMARK SMILES O=C([O-])C=Cc1ccc(O)c(O)c1
REMARK SMILES IDX 6 1 13 2 7 3 11 4 8 5 9 6 5 7 4 8 2 9 1 10 3 11 12 12 10 14
REMARK H PARENT 12 13 10 15
REMARK Flexibility Score: inf
ROOT
ATOM      1  C   UNL     1      15.286  -9.904  24.264  1.00  0.00    -0.022 A 
ATOM      2  C   UNL     1      14.855 -11.222  24.478  1.00  0.00     0.058 A 
ATOM      3  C   UNL     1      16.666  -9.631  24.277  1.00  0.00     0.012 A 
ATOM      4  C   UNL     1      15.770 -12.253  24.726  1.00  0.00     0.157 A 
ATOM      5  C   UNL     1      17.585 -10.653  24.523  1.00  0.00     0.051 A 
ATOM      6  C   UNL     1      17.154 -11.963  24.753  1.00  0.00     0.157 A 
ENDROOT
BRANCH   1   7
ATOM      7  C   UNL     1      14.267  -8.858  23.996  1.00  0.00     0.010 C 
ATOM      8  C   UNL     1      13.083  -8.796  24.618  1.00  0.00     0.025 C 
BRANCH   8   9
ATOM      9  C   UNL     1      12.097  -7.746  24.314  1.00  0.00     0.064 C 
ATOM     10  O   UNL     1      12.446  -6.742  23.640  1.00  0.00    -0.545 OA
ATOM     11  O   UNL     1      10.783  -7.846  24.758  1.00  0.00    -0.545 OA
ENDBRANCH   8   9
ENDBRANCH   1   7
BRANCH   4  12
ATOM     12  O   UNL     1      15.264 -13.537  24.938  1.00  0.00    -0.504 OA
ATOM     13  H   UNL     1      15.830 -14.332  25.198  1.00  0.00     0.293 HD
ENDBRANCH   4  12
BRANCH   6  14
ATOM     14  O   UNL     1      18.125 -12.937  24.997  1.00  0.00    -0.504 OA
ATOM     15  H   UNL     1      18.835 -12.861  25.710  1.00  0.00     0.293 HD
ENDBRANCH   6  14
TORSDOF 4
ENDMDL
