MODEL 1
REMARK VINA RESULT:    -5.362      0.000      0.000
REMARK INTER + INTRA:         -14.357
REMARK INTER:                 -12.258
REMARK INTRA:                  -2.098
REMARK UNBOUND:                -2.098
REMARK SMILES CCCCCCCCCCCCCCCCCCCCCCCC(=O)[O-]
REMARK SMILES IDX 13 1 14 2 15 3 16 4 17 5 18 6 19 7 20 8 21 9 22 10 23 11
REMARK SMILES IDX 24 12 25 13 26 14 12 15 11 16 10 17 9 18 8 19 7 20 6 21 5 22
REMARK SMILES IDX 4 23 3 24 2 25 1 26
REMARK H PARENT
REMARK Flexibility Score: inf
ROOT
ATOM      1  C   UNL     1       3.720  58.316  20.139  1.00  0.00     0.000 C 
ENDROOT
BRANCH   1   2
ATOM      2  C   UNL     1       2.365  58.943  20.516  1.00  0.00     0.000 C 
BRANCH   2   3
ATOM      3  C   UNL     1       2.392  59.649  21.882  1.00  0.00     0.000 C 
BRANCH   3   4
ATOM      4  C   UNL     1       0.984  59.951  22.421  1.00  0.00     0.000 C 
BRANCH   4   5
ATOM      5  C   UNL     1      -0.028  58.835  22.108  1.00  0.00     0.000 C 
BRANCH   5   6
ATOM      6  C   UNL     1      -1.405  59.392  21.687  1.00  0.00     0.000 C 
BRANCH   6   7
ATOM      7  C   UNL     1      -1.321  60.656  20.812  1.00  0.00     0.000 C 
BRANCH   7   8
ATOM      8  C   UNL     1      -0.858  60.417  19.362  1.00  0.00     0.000 C 
BRANCH   8   9
ATOM      9  C   UNL     1       0.148  61.451  18.822  1.00  0.00     0.000 C 
BRANCH   9  10
ATOM     10  C   UNL     1       0.542  61.200  17.358  1.00  0.00     0.006 C 
BRANCH  10  11
ATOM     11  C   UNL     1       1.440  59.965  17.238  1.00  0.00     0.053 C 
BRANCH  11  12
ATOM     12  C   UNL     1       1.293  59.340  15.886  1.00  0.00     0.041 C 
ATOM     13  O   UNL     1       2.094  59.637  14.961  1.00  0.00    -0.550 OA
ATOM     14  O   UNL     1       0.235  58.476  15.630  1.00  0.00    -0.550 OA
ENDBRANCH  11  12
ENDBRANCH  10  11
ENDBRANCH   9  10
ENDBRANCH   8   9
ENDBRANCH   7   8
ENDBRANCH   6   7
ENDBRANCH   5   6
ENDBRANCH   4   5
ENDBRANCH   3   4
ENDBRANCH   2   3
ENDBRANCH   1   2
BRANCH   1  15
ATOM     15  C   UNL     1       4.464  57.608  21.291  1.00  0.00     0.000 C 
BRANCH  15  16
ATOM     16  C   UNL     1       5.325  56.403  20.872  1.00  0.00     0.000 C 
BRANCH  16  17
ATOM     17  C   UNL     1       6.673  56.813  20.261  1.00  0.00     0.000 C 
BRANCH  17  18
ATOM     18  C   UNL     1       7.201  55.723  19.316  1.00  0.00    -0.000 C 
BRANCH  18  19
ATOM     19  C   UNL     1       6.762  54.308  19.733  1.00  0.00    -0.000 C 
BRANCH  19  20
ATOM     20  C   UNL     1       7.672  53.627  20.773  1.00  0.00    -0.000 C 
BRANCH  20  21
ATOM     21  C   UNL     1       9.023  54.327  21.013  1.00  0.00    -0.000 C 
BRANCH  21  22
ATOM     22  C   UNL     1      10.150  53.413  21.537  1.00  0.00    -0.000 C 
BRANCH  22  23
ATOM     23  C   UNL     1      10.436  53.526  23.046  1.00  0.00    -0.000 C 
BRANCH  23  24
ATOM     24  C   UNL     1       9.853  54.805  23.671  1.00  0.00    -0.000 C 
BRANCH  24  25
ATOM     25  C   UNL     1       8.856  54.505  24.802  1.00  0.00    -0.003 C 
ATOM     26  C   UNL     1       8.025  53.249  24.545  1.00  0.00     0.004 C 
ENDBRANCH  24  25
ENDBRANCH  23  24
ENDBRANCH  22  23
ENDBRANCH  21  22
ENDBRANCH  20  21
ENDBRANCH  19  20
ENDBRANCH  18  19
ENDBRANCH  17  18
ENDBRANCH  16  17
ENDBRANCH  15  16
ENDBRANCH   1  15
TORSDOF 22
ENDMDL
MODEL 2
REMARK VINA RESULT:    -5.177      7.994     14.691
REMARK INTER + INTRA:         -13.932
REMARK INTER:                 -12.206
REMARK INTRA:                  -1.726
REMARK UNBOUND:                -2.098
REMARK SMILES CCCCCCCCCCCCCCCCCCCCCCCC(=O)[O-]
REMARK SMILES IDX 13 1 14 2 15 3 16 4 17 5 18 6 19 7 20 8 21 9 22 10 23 11
REMARK SMILES IDX 24 12 25 13 26 14 12 15 11 16 10 17 9 18 8 19 7 20 6 21 5 22
REMARK SMILES IDX 4 23 3 24 2 25 1 26
REMARK H PARENT
REMARK Flexibility Score: inf
ROOT
ATOM      1  C   UNL     1      11.405  49.118  23.020  1.00  0.00     0.000 C 
ENDROOT
BRANCH   1   2
ATOM      2  C   UNL     1      11.530  47.603  22.774  1.00  0.00     0.000 C 
BRANCH   2   3
ATOM      3  C   UNL     1      10.241  46.834  23.108  1.00  0.00     0.000 C 
BRANCH   3   4
ATOM      4  C   UNL     1      10.228  46.296  24.549  1.00  0.00     0.000 C 
BRANCH   4   5
ATOM      5  C   UNL     1      11.532  45.573  24.929  1.00  0.00     0.000 C 
BRANCH   5   6
ATOM      6  C   UNL     1      11.271  44.242  25.668  1.00  0.00     0.000 C 
BRANCH   6   7
ATOM      7  C   UNL     1      11.004  44.412  27.175  1.00  0.00     0.000 C 
BRANCH   7   8
ATOM      8  C   UNL     1      12.231  44.201  28.082  1.00  0.00     0.000 C 
BRANCH   8   9
ATOM      9  C   UNL     1      12.550  45.375  29.028  1.00  0.00     0.000 C 
BRANCH   9  10
ATOM     10  C   UNL     1      12.619  46.729  28.306  1.00  0.00     0.006 C 
BRANCH  10  11
ATOM     11  C   UNL     1      13.947  46.882  27.558  1.00  0.00     0.053 C 
BRANCH  11  12
ATOM     12  C   UNL     1      13.982  48.180  26.813  1.00  0.00     0.041 C 
ATOM     13  O   UNL     1      14.157  49.262  27.436  1.00  0.00    -0.550 OA
ATOM     14  O   UNL     1      13.761  48.202  25.442  1.00  0.00    -0.550 OA
ENDBRANCH  11  12
ENDBRANCH  10  11
ENDBRANCH   9  10
ENDBRANCH   8   9
ENDBRANCH   7   8
ENDBRANCH   6   7
ENDBRANCH   5   6
ENDBRANCH   4   5
ENDBRANCH   3   4
ENDBRANCH   2   3
ENDBRANCH   1   2
BRANCH   1  15
ATOM     15  C   UNL     1      10.149  49.783  22.418  1.00  0.00     0.000 C 
BRANCH  15  16
ATOM     16  C   UNL     1      10.317  51.261  22.021  1.00  0.00     0.000 C 
BRANCH  16  17
ATOM     17  C   UNL     1       9.725  52.229  23.056  1.00  0.00     0.000 C 
BRANCH  17  18
ATOM     18  C   UNL     1      10.205  53.666  22.800  1.00  0.00    -0.000 C 
BRANCH  18  19
ATOM     19  C   UNL     1       9.046  54.642  22.526  1.00  0.00    -0.000 C 
BRANCH  19  20
ATOM     20  C   UNL     1       7.644  54.087  22.844  1.00  0.00    -0.000 C 
BRANCH  20  21
ATOM     21  C   UNL     1       6.633  54.168  21.684  1.00  0.00    -0.000 C 
BRANCH  21  22
ATOM     22  C   UNL     1       6.224  55.597  21.271  1.00  0.00    -0.000 C 
BRANCH  22  23
ATOM     23  C   UNL     1       6.984  56.173  20.063  1.00  0.00    -0.000 C 
BRANCH  23  24
ATOM     24  C   UNL     1       7.578  55.083  19.155  1.00  0.00    -0.000 C 
BRANCH  24  25
ATOM     25  C   UNL     1       6.561  54.547  18.135  1.00  0.00    -0.003 C 
ATOM     26  C   UNL     1       6.860  54.997  16.705  1.00  0.00     0.004 C 
ENDBRANCH  24  25
ENDBRANCH  23  24
ENDBRANCH  22  23
ENDBRANCH  21  22
ENDBRANCH  20  21
ENDBRANCH  19  20
ENDBRANCH  18  19
ENDBRANCH  17  18
ENDBRANCH  16  17
ENDBRANCH  15  16
ENDBRANCH   1  15
TORSDOF 22
ENDMDL
MODEL 3
REMARK VINA RESULT:    -5.157      5.901     10.159
REMARK INTER + INTRA:         -13.888
REMARK INTER:                 -12.377
REMARK INTRA:                  -1.511
REMARK UNBOUND:                -2.098
REMARK SMILES CCCCCCCCCCCCCCCCCCCCCCCC(=O)[O-]
REMARK SMILES IDX 13 1 14 2 15 3 16 4 17 5 18 6 19 7 20 8 21 9 22 10 23 11
REMARK SMILES IDX 24 12 25 13 26 14 12 15 11 16 10 17 9 18 8 19 7 20 6 21 5 22
REMARK SMILES IDX 4 23 3 24 2 25 1 26
REMARK H PARENT
REMARK Flexibility Score: inf
ROOT
ATOM      1  C   UNL     1      10.347  49.584  22.391  1.00  0.00     0.000 C 
ENDROOT
BRANCH   1   2
ATOM      2  C   UNL     1      10.221  51.086  22.706  1.00  0.00     0.000 C 
BRANCH   2   3
ATOM      3  C   UNL     1      10.144  51.958  21.441  1.00  0.00     0.000 C 
BRANCH   3   4
ATOM      4  C   UNL     1      10.519  53.425  21.709  1.00  0.00     0.000 C 
BRANCH   4   5
ATOM      5  C   UNL     1      10.070  53.912  23.098  1.00  0.00     0.000 C 
BRANCH   5   6
ATOM      6  C   UNL     1       8.823  54.820  23.026  1.00  0.00     0.000 C 
BRANCH   6   7
ATOM      7  C   UNL     1       7.499  54.045  22.883  1.00  0.00     0.000 C 
BRANCH   7   8
ATOM      8  C   UNL     1       6.777  54.230  21.535  1.00  0.00     0.000 C 
BRANCH   8   9
ATOM      9  C   UNL     1       6.263  55.656  21.263  1.00  0.00     0.000 C 
BRANCH   9  10
ATOM     10  C   UNL     1       6.741  56.221  19.917  1.00  0.00     0.006 C 
BRANCH  10  11
ATOM     11  C   UNL     1       7.676  55.235  19.210  1.00  0.00     0.053 C 
BRANCH  11  12
ATOM     12  C   UNL     1       7.029  54.692  17.975  1.00  0.00     0.041 C 
ATOM     13  O   UNL     1       6.959  55.399  16.934  1.00  0.00    -0.550 OA
ATOM     14  O   UNL     1       6.449  53.430  17.990  1.00  0.00    -0.550 OA
ENDBRANCH  11  12
ENDBRANCH  10  11
ENDBRANCH   9  10
ENDBRANCH   8   9
ENDBRANCH   7   8
ENDBRANCH   6   7
ENDBRANCH   5   6
ENDBRANCH   4   5
ENDBRANCH   3   4
ENDBRANCH   2   3
ENDBRANCH   1   2
BRANCH   1  15
ATOM     15  C   UNL     1      11.618  48.898  22.936  1.00  0.00     0.000 C 
BRANCH  15  16
ATOM     16  C   UNL     1      11.527  47.368  23.079  1.00  0.00     0.000 C 
BRANCH  16  17
ATOM     17  C   UNL     1      10.080  46.859  23.154  1.00  0.00     0.000 C 
BRANCH  17  18
ATOM     18  C   UNL     1      10.040  45.384  23.583  1.00  0.00    -0.000 C 
BRANCH  18  19
ATOM     19  C   UNL     1       8.628  44.776  23.491  1.00  0.00    -0.000 C 
BRANCH  19  20
ATOM     20  C   UNL     1       8.084  44.200  24.813  1.00  0.00    -0.000 C 
BRANCH  20  21
ATOM     21  C   UNL     1       6.553  44.261  24.968  1.00  0.00    -0.000 C 
BRANCH  21  22
ATOM     22  C   UNL     1       5.948  45.679  24.941  1.00  0.00    -0.000 C 
BRANCH  22  23
ATOM     23  C   UNL     1       5.306  46.092  23.604  1.00  0.00    -0.000 C 
BRANCH  23  24
ATOM     24  C   UNL     1       3.848  46.556  23.758  1.00  0.00    -0.000 C 
BRANCH  24  25
ATOM     25  C   UNL     1       3.173  46.835  22.406  1.00  0.00    -0.003 C 
ATOM     26  C   UNL     1       1.772  46.231  22.305  1.00  0.00     0.004 C 
ENDBRANCH  24  25
ENDBRANCH  23  24
ENDBRANCH  22  23
ENDBRANCH  21  22
ENDBRANCH  20  21
ENDBRANCH  19  20
ENDBRANCH  18  19
ENDBRANCH  17  18
ENDBRANCH  16  17
ENDBRANCH  15  16
ENDBRANCH   1  15
TORSDOF 22
ENDMDL
MODEL 4
REMARK VINA RESULT:    -5.150      1.606      2.505
REMARK INTER + INTRA:         -13.872
REMARK INTER:                 -12.172
REMARK INTRA:                  -1.700
REMARK UNBOUND:                -2.098
REMARK SMILES CCCCCCCCCCCCCCCCCCCCCCCC(=O)[O-]
REMARK SMILES IDX 13 1 14 2 15 3 16 4 17 5 18 6 19 7 20 8 21 9 22 10 23 11
REMARK SMILES IDX 24 12 25 13 26 14 12 15 11 16 10 17 9 18 8 19 7 20 6 21 5 22
REMARK SMILES IDX 4 23 3 24 2 25 1 26
REMARK H PARENT
REMARK Flexibility Score: inf
ROOT
ATOM      1  C   UNL     1       3.852  58.181  21.269  1.00  0.00     0.000 C 
ENDROOT
BRANCH   1   2
ATOM      2  C   UNL     1       3.534  58.997  20.003  1.00  0.00     0.000 C 
BRANCH   2   3
ATOM      3  C   UNL     1       2.462  60.075  20.239  1.00  0.00     0.000 C 
BRANCH   3   4
ATOM      4  C   UNL     1       1.494  60.218  19.053  1.00  0.00     0.000 C 
BRANCH   4   5
ATOM      5  C   UNL     1       0.117  60.764  19.469  1.00  0.00     0.000 C 
BRANCH   5   6
ATOM      6  C   UNL     1      -0.273  62.033  18.680  1.00  0.00     0.000 C 
BRANCH   6   7
ATOM      7  C   UNL     1      -1.327  61.782  17.585  1.00  0.00     0.000 C 
BRANCH   7   8
ATOM      8  C   UNL     1      -1.675  60.302  17.341  1.00  0.00     0.000 C 
BRANCH   8   9
ATOM      9  C   UNL     1      -1.183  59.731  15.997  1.00  0.00     0.000 C 
BRANCH   9  10
ATOM     10  C   UNL     1       0.137  60.357  15.524  1.00  0.00     0.006 C 
BRANCH  10  11
ATOM     11  C   UNL     1       1.235  59.296  15.402  1.00  0.00     0.053 C 
BRANCH  11  12
ATOM     12  C   UNL     1       2.390  59.824  14.611  1.00  0.00     0.041 C 
ATOM     13  O   UNL     1       2.572  61.067  14.511  1.00  0.00    -0.550 OA
ATOM     14  O   UNL     1       3.229  58.948  13.935  1.00  0.00    -0.550 OA
ENDBRANCH  11  12
ENDBRANCH  10  11
ENDBRANCH   9  10
ENDBRANCH   8   9
ENDBRANCH   7   8
ENDBRANCH   6   7
ENDBRANCH   5   6
ENDBRANCH   4   5
ENDBRANCH   3   4
ENDBRANCH   2   3
ENDBRANCH   1   2
BRANCH   1  15
ATOM     15  C   UNL     1       4.703  56.914  21.043  1.00  0.00     0.000 C 
BRANCH  15  16
ATOM     16  C   UNL     1       5.947  57.109  20.158  1.00  0.00     0.000 C 
BRANCH  16  17
ATOM     17  C   UNL     1       7.219  56.510  20.774  1.00  0.00     0.000 C 
BRANCH  17  18
ATOM     18  C   UNL     1       7.577  55.174  20.104  1.00  0.00    -0.000 C 
BRANCH  18  19
ATOM     19  C   UNL     1       6.915  53.966  20.792  1.00  0.00    -0.000 C 
BRANCH  19  20
ATOM     20  C   UNL     1       6.644  54.147  22.299  1.00  0.00    -0.000 C 
BRANCH  20  21
ATOM     21  C   UNL     1       7.392  53.161  23.217  1.00  0.00    -0.000 C 
BRANCH  21  22
ATOM     22  C   UNL     1       7.701  53.691  24.632  1.00  0.00    -0.000 C 
BRANCH  22  23
ATOM     23  C   UNL     1       9.111  54.281  24.816  1.00  0.00    -0.000 C 
BRANCH  23  24
ATOM     24  C   UNL     1       9.784  54.650  23.484  1.00  0.00    -0.000 C 
BRANCH  24  25
ATOM     25  C   UNL     1      10.587  53.483  22.888  1.00  0.00    -0.003 C 
ATOM     26  C   UNL     1      10.519  53.433  21.361  1.00  0.00     0.004 C 
ENDBRANCH  24  25
ENDBRANCH  23  24
ENDBRANCH  22  23
ENDBRANCH  21  22
ENDBRANCH  20  21
ENDBRANCH  19  20
ENDBRANCH  18  19
ENDBRANCH  17  18
ENDBRANCH  16  17
ENDBRANCH  15  16
ENDBRANCH   1  15
TORSDOF 22
ENDMDL
MODEL 5
REMARK VINA RESULT:    -5.117      5.820      9.720
REMARK INTER + INTRA:         -13.797
REMARK INTER:                 -11.800
REMARK INTRA:                  -1.997
REMARK UNBOUND:                -2.098
REMARK SMILES CCCCCCCCCCCCCCCCCCCCCCCC(=O)[O-]
REMARK SMILES IDX 13 1 14 2 15 3 16 4 17 5 18 6 19 7 20 8 21 9 22 10 23 11
REMARK SMILES IDX 24 12 25 13 26 14 12 15 11 16 10 17 9 18 8 19 7 20 6 21 5 22
REMARK SMILES IDX 4 23 3 24 2 25 1 26
REMARK H PARENT
REMARK Flexibility Score: inf
ROOT
ATOM      1  C   UNL     1       9.815  51.193  22.366  1.00  0.00     0.000 C 
ENDROOT
BRANCH   1   2
ATOM      2  C   UNL     1      10.259  52.223  21.311  1.00  0.00     0.000 C 
BRANCH   2   3
ATOM      3  C   UNL     1      10.505  53.620  21.905  1.00  0.00     0.000 C 
BRANCH   3   4
ATOM      4  C   UNL     1      10.315  53.656  23.431  1.00  0.00     0.000 C 
BRANCH   4   5
ATOM      5  C   UNL     1       9.263  54.685  23.878  1.00  0.00     0.000 C 
BRANCH   5   6
ATOM      6  C   UNL     1       8.386  55.175  22.705  1.00  0.00     0.000 C 
BRANCH   6   7
ATOM      7  C   UNL     1       7.089  54.365  22.520  1.00  0.00     0.000 C 
BRANCH   7   8
ATOM      8  C   UNL     1       6.228  54.777  21.311  1.00  0.00     0.000 C 
BRANCH   8   9
ATOM      9  C   UNL     1       6.327  56.264  20.919  1.00  0.00     0.000 C 
BRANCH   9  10
ATOM     10  C   UNL     1       7.021  56.484  19.566  1.00  0.00     0.006 C 
BRANCH  10  11
ATOM     11  C   UNL     1       7.708  55.202  19.088  1.00  0.00     0.053 C 
BRANCH  11  12
ATOM     12  C   UNL     1       7.059  54.693  17.840  1.00  0.00     0.041 C 
ATOM     13  O   UNL     1       6.956  55.441  16.830  1.00  0.00    -0.550 OA
ATOM     14  O   UNL     1       6.513  53.416  17.809  1.00  0.00    -0.550 OA
ENDBRANCH  11  12
ENDBRANCH  10  11
ENDBRANCH   9  10
ENDBRANCH   8   9
ENDBRANCH   7   8
ENDBRANCH   6   7
ENDBRANCH   5   6
ENDBRANCH   4   5
ENDBRANCH   3   4
ENDBRANCH   2   3
ENDBRANCH   1   2
BRANCH   1  15
ATOM     15  C   UNL     1      10.833  50.073  22.667  1.00  0.00     0.000 C 
BRANCH  15  16
ATOM     16  C   UNL     1      10.256  48.646  22.673  1.00  0.00     0.000 C 
BRANCH  16  17
ATOM     17  C   UNL     1      11.318  47.573  22.950  1.00  0.00     0.000 C 
BRANCH  17  18
ATOM     18  C   UNL     1      11.677  47.528  24.444  1.00  0.00    -0.000 C 
BRANCH  18  19
ATOM     19  C   UNL     1      12.339  46.201  24.858  1.00  0.00    -0.000 C 
BRANCH  19  20
ATOM     20  C   UNL     1      11.368  45.136  25.405  1.00  0.00    -0.000 C 
BRANCH  20  21
ATOM     21  C   UNL     1      11.441  44.909  26.927  1.00  0.00    -0.000 C 
BRANCH  21  22
ATOM     22  C   UNL     1      12.845  44.581  27.474  1.00  0.00    -0.000 C 
BRANCH  22  23
ATOM     23  C   UNL     1      13.442  45.637  28.422  1.00  0.00    -0.000 C 
BRANCH  23  24
ATOM     24  C   UNL     1      14.232  46.728  27.682  1.00  0.00    -0.000 C 
BRANCH  24  25
ATOM     25  C   UNL     1      13.577  48.113  27.801  1.00  0.00    -0.003 C 
ATOM     26  C   UNL     1      12.224  48.072  28.513  1.00  0.00     0.004 C 
ENDBRANCH  24  25
ENDBRANCH  23  24
ENDBRANCH  22  23
ENDBRANCH  21  22
ENDBRANCH  20  21
ENDBRANCH  19  20
ENDBRANCH  18  19
ENDBRANCH  17  18
ENDBRANCH  16  17
ENDBRANCH  15  16
ENDBRANCH   1  15
TORSDOF 22
ENDMDL
MODEL 6
REMARK VINA RESULT:    -5.028      6.454     12.544
REMARK INTER + INTRA:         -13.592
REMARK INTER:                 -11.992
REMARK INTRA:                  -1.600
REMARK UNBOUND:                -2.098
REMARK SMILES CCCCCCCCCCCCCCCCCCCCCCCC(=O)[O-]
REMARK SMILES IDX 13 1 14 2 15 3 16 4 17 5 18 6 19 7 20 8 21 9 22 10 23 11
REMARK SMILES IDX 24 12 25 13 26 14 12 15 11 16 10 17 9 18 8 19 7 20 6 21 5 22
REMARK SMILES IDX 4 23 3 24 2 25 1 26
REMARK H PARENT
REMARK Flexibility Score: inf
ROOT
ATOM      1  C   UNL     1      10.866  50.394  22.528  1.00  0.00     0.000 C 
ENDROOT
BRANCH   1   2
ATOM      2  C   UNL     1      10.378  48.935  22.584  1.00  0.00     0.000 C 
BRANCH   2   3
ATOM      3  C   UNL     1      11.521  47.930  22.810  1.00  0.00     0.000 C 
BRANCH   3   4
ATOM      4  C   UNL     1      11.515  47.336  24.228  1.00  0.00     0.000 C 
BRANCH   4   5
ATOM      5  C   UNL     1      10.357  46.348  24.456  1.00  0.00     0.000 C 
BRANCH   5   6
ATOM      6  C   UNL     1      10.222  45.327  23.306  1.00  0.00     0.000 C 
BRANCH   6   7
ATOM      7  C   UNL     1       9.375  44.093  23.670  1.00  0.00     0.000 C 
BRANCH   7   8
ATOM      8  C   UNL     1       7.915  44.136  23.182  1.00  0.00     0.000 C 
BRANCH   8   9
ATOM      9  C   UNL     1       6.891  44.599  24.235  1.00  0.00     0.000 C 
BRANCH   9  10
ATOM     10  C   UNL     1       6.123  45.861  23.814  1.00  0.00     0.006 C 
BRANCH  10  11
ATOM     11  C   UNL     1       4.893  46.076  24.702  1.00  0.00     0.053 C 
BRANCH  11  12
ATOM     12  C   UNL     1       3.845  46.851  23.968  1.00  0.00     0.041 C 
ATOM     13  O   UNL     1       3.556  46.554  22.778  1.00  0.00    -0.550 OA
ATOM     14  O   UNL     1       3.230  47.939  24.575  1.00  0.00    -0.550 OA
ENDBRANCH  11  12
ENDBRANCH  10  11
ENDBRANCH   9  10
ENDBRANCH   8   9
ENDBRANCH   7   8
ENDBRANCH   6   7
ENDBRANCH   5   6
ENDBRANCH   4   5
ENDBRANCH   3   4
ENDBRANCH   2   3
ENDBRANCH   1   2
BRANCH   1  15
ATOM     15  C   UNL     1       9.759  51.456  22.358  1.00  0.00     0.000 C 
BRANCH  15  16
ATOM     16  C   UNL     1      10.175  52.719  21.582  1.00  0.00     0.000 C 
BRANCH  16  17
ATOM     17  C   UNL     1       9.547  54.001  22.146  1.00  0.00     0.000 C 
BRANCH  17  18
ATOM     18  C   UNL     1       8.582  53.680  23.298  1.00  0.00    -0.000 C 
BRANCH  18  19
ATOM     19  C   UNL     1       7.131  53.484  22.822  1.00  0.00    -0.000 C 
BRANCH  19  20
ATOM     20  C   UNL     1       6.783  54.188  21.496  1.00  0.00    -0.000 C 
BRANCH  20  21
ATOM     21  C   UNL     1       6.058  55.539  21.647  1.00  0.00    -0.000 C 
BRANCH  21  22
ATOM     22  C   UNL     1       6.454  56.613  20.615  1.00  0.00    -0.000 C 
BRANCH  22  23
ATOM     23  C   UNL     1       7.663  56.258  19.731  1.00  0.00    -0.000 C 
BRANCH  23  24
ATOM     24  C   UNL     1       7.268  55.926  18.282  1.00  0.00    -0.000 C 
BRANCH  24  25
ATOM     25  C   UNL     1       7.444  54.435  17.950  1.00  0.00    -0.003 C 
ATOM     26  C   UNL     1       6.162  53.787  17.427  1.00  0.00     0.004 C 
ENDBRANCH  24  25
ENDBRANCH  23  24
ENDBRANCH  22  23
ENDBRANCH  21  22
ENDBRANCH  20  21
ENDBRANCH  19  20
ENDBRANCH  18  19
ENDBRANCH  17  18
ENDBRANCH  16  17
ENDBRANCH  15  16
ENDBRANCH   1  15
TORSDOF 22
ENDMDL
MODEL 7
REMARK VINA RESULT:    -5.019      3.979     10.828
REMARK INTER + INTRA:         -13.572
REMARK INTER:                 -11.997
REMARK INTRA:                  -1.575
REMARK UNBOUND:                -2.098
REMARK SMILES CCCCCCCCCCCCCCCCCCCCCCCC(=O)[O-]
REMARK SMILES IDX 13 1 14 2 15 3 16 4 17 5 18 6 19 7 20 8 21 9 22 10 23 11
REMARK SMILES IDX 24 12 25 13 26 14 12 15 11 16 10 17 9 18 8 19 7 20 6 21 5 22
REMARK SMILES IDX 4 23 3 24 2 25 1 26
REMARK H PARENT
REMARK Flexibility Score: inf
ROOT
ATOM      1  C   UNL     1       3.752  58.450  20.104  1.00  0.00     0.000 C 
ENDROOT
BRANCH   1   2
ATOM      2  C   UNL     1       4.336  57.710  21.320  1.00  0.00     0.000 C 
BRANCH   2   3
ATOM      3  C   UNL     1       5.116  56.442  20.931  1.00  0.00     0.000 C 
BRANCH   3   4
ATOM      4  C   UNL     1       6.637  56.616  21.070  1.00  0.00     0.000 C 
BRANCH   4   5
ATOM      5  C   UNL     1       7.361  56.650  19.712  1.00  0.00     0.000 C 
BRANCH   5   6
ATOM      6  C   UNL     1       7.276  55.299  18.969  1.00  0.00     0.000 C 
BRANCH   6   7
ATOM      7  C   UNL     1       7.647  54.086  19.842  1.00  0.00     0.000 C 
BRANCH   7   8
ATOM      8  C   UNL     1       9.019  54.176  20.535  1.00  0.00     0.000 C 
BRANCH   8   9
ATOM      9  C   UNL     1       9.167  53.309  21.800  1.00  0.00     0.000 C 
BRANCH   9  10
ATOM     10  C   UNL     1      10.228  53.843  22.775  1.00  0.00     0.006 C 
BRANCH  10  11
ATOM     11  C   UNL     1       9.608  54.826  23.773  1.00  0.00     0.053 C 
BRANCH  11  12
ATOM     12  C   UNL     1       9.140  54.105  24.997  1.00  0.00     0.041 C 
ATOM     13  O   UNL     1       9.840  54.118  26.046  1.00  0.00    -0.550 OA
ATOM     14  O   UNL     1       7.964  53.367  24.964  1.00  0.00    -0.550 OA
ENDBRANCH  11  12
ENDBRANCH  10  11
ENDBRANCH   9  10
ENDBRANCH   8   9
ENDBRANCH   7   8
ENDBRANCH   6   7
ENDBRANCH   5   6
ENDBRANCH   4   5
ENDBRANCH   3   4
ENDBRANCH   2   3
ENDBRANCH   1   2
BRANCH   1  15
ATOM     15  C   UNL     1       2.340  59.041  20.305  1.00  0.00     0.000 C 
BRANCH  15  16
ATOM     16  C   UNL     1       2.197  60.006  21.496  1.00  0.00     0.000 C 
BRANCH  16  17
ATOM     17  C   UNL     1       0.790  59.995  22.110  1.00  0.00     0.000 C 
BRANCH  17  18
ATOM     18  C   UNL     1      -0.278  59.767  21.029  1.00  0.00    -0.000 C 
BRANCH  18  19
ATOM     19  C   UNL     1      -1.000  61.064  20.622  1.00  0.00    -0.000 C 
BRANCH  19  20
ATOM     20  C   UNL     1      -0.334  61.843  19.472  1.00  0.00    -0.000 C 
BRANCH  20  21
ATOM     21  C   UNL     1      -1.091  61.798  18.131  1.00  0.00    -0.000 C 
BRANCH  21  22
ATOM     22  C   UNL     1      -1.452  60.385  17.630  1.00  0.00    -0.000 C 
BRANCH  22  23
ATOM     23  C   UNL     1      -1.229  60.146  16.126  1.00  0.00    -0.000 C 
BRANCH  23  24
ATOM     24  C   UNL     1      -0.198  61.108  15.514  1.00  0.00    -0.000 C 
BRANCH  24  25
ATOM     25  C   UNL     1       1.181  60.454  15.329  1.00  0.00    -0.003 C 
ATOM     26  C   UNL     1       1.600  59.603  16.528  1.00  0.00     0.004 C 
ENDBRANCH  24  25
ENDBRANCH  23  24
ENDBRANCH  22  23
ENDBRANCH  21  22
ENDBRANCH  20  21
ENDBRANCH  19  20
ENDBRANCH  18  19
ENDBRANCH  17  18
ENDBRANCH  16  17
ENDBRANCH  15  16
ENDBRANCH   1  15
TORSDOF 22
ENDMDL
MODEL 8
REMARK VINA RESULT:    -4.982      8.417     13.364
REMARK INTER + INTRA:         -13.487
REMARK INTER:                 -11.223
REMARK INTRA:                  -2.264
REMARK UNBOUND:                -2.098
REMARK SMILES CCCCCCCCCCCCCCCCCCCCCCCC(=O)[O-]
REMARK SMILES IDX 13 1 14 2 15 3 16 4 17 5 18 6 19 7 20 8 21 9 22 10 23 11
REMARK SMILES IDX 24 12 25 13 26 14 12 15 11 16 10 17 9 18 8 19 7 20 6 21 5 22
REMARK SMILES IDX 4 23 3 24 2 25 1 26
REMARK H PARENT
REMARK Flexibility Score: inf
ROOT
ATOM      1  C   UNL     1      12.112  47.492  25.821  1.00  0.00     0.000 C 
ENDROOT
BRANCH   1   2
ATOM      2  C   UNL     1      11.892  46.126  26.496  1.00  0.00     0.000 C 
BRANCH   2   3
ATOM      3  C   UNL     1      12.454  44.955  25.673  1.00  0.00     0.000 C 
BRANCH   3   4
ATOM      4  C   UNL     1      11.362  43.971  25.220  1.00  0.00     0.000 C 
BRANCH   4   5
ATOM      5  C   UNL     1      10.526  44.506  24.044  1.00  0.00     0.000 C 
BRANCH   5   6
ATOM      6  C   UNL     1       9.071  44.823  24.455  1.00  0.00     0.000 C 
BRANCH   6   7
ATOM      7  C   UNL     1       8.398  45.893  23.576  1.00  0.00     0.000 C 
BRANCH   7   8
ATOM      8  C   UNL     1       6.881  45.718  23.382  1.00  0.00     0.000 C 
BRANCH   8   9
ATOM      9  C   UNL     1       6.203  44.760  24.380  1.00  0.00     0.000 C 
BRANCH   9  10
ATOM     10  C   UNL     1       4.761  45.166  24.720  1.00  0.00     0.006 C 
BRANCH  10  11
ATOM     11  C   UNL     1       4.379  46.471  24.014  1.00  0.00     0.053 C 
BRANCH  11  12
ATOM     12  C   UNL     1       3.140  46.281  23.197  1.00  0.00     0.041 C 
ATOM     13  O   UNL     1       2.983  46.927  22.126  1.00  0.00    -0.550 OA
ATOM     14  O   UNL     1       2.132  45.438  23.647  1.00  0.00    -0.550 OA
ENDBRANCH  11  12
ENDBRANCH  10  11
ENDBRANCH   9  10
ENDBRANCH   8   9
ENDBRANCH   7   8
ENDBRANCH   6   7
ENDBRANCH   5   6
ENDBRANCH   4   5
ENDBRANCH   3   4
ENDBRANCH   2   3
ENDBRANCH   1   2
BRANCH   1  15
ATOM     15  C   UNL     1      13.194  47.519  24.720  1.00  0.00     0.000 C 
BRANCH  15  16
ATOM     16  C   UNL     1      12.774  48.202  23.406  1.00  0.00     0.000 C 
BRANCH  16  17
ATOM     17  C   UNL     1      11.589  47.505  22.722  1.00  0.00     0.000 C 
BRANCH  17  18
ATOM     18  C   UNL     1      10.458  48.504  22.431  1.00  0.00    -0.000 C 
BRANCH  18  19
ATOM     19  C   UNL     1      10.858  49.960  22.730  1.00  0.00    -0.000 C 
BRANCH  19  20
ATOM     20  C   UNL     1       9.810  51.016  22.328  1.00  0.00    -0.000 C 
BRANCH  20  21
ATOM     21  C   UNL     1      10.389  52.380  21.908  1.00  0.00    -0.000 C 
BRANCH  21  22
ATOM     22  C   UNL     1       9.346  53.425  21.462  1.00  0.00    -0.000 C 
BRANCH  22  23
ATOM     23  C   UNL     1       9.263  54.685  22.343  1.00  0.00    -0.000 C 
BRANCH  23  24
ATOM     24  C   UNL     1       9.932  54.501  23.715  1.00  0.00    -0.000 C 
BRANCH  24  25
ATOM     25  C   UNL     1       8.912  54.410  24.861  1.00  0.00    -0.003 C 
ATOM     26  C   UNL     1       7.967  53.216  24.722  1.00  0.00     0.004 C 
ENDBRANCH  24  25
ENDBRANCH  23  24
ENDBRANCH  22  23
ENDBRANCH  21  22
ENDBRANCH  20  21
ENDBRANCH  19  20
ENDBRANCH  18  19
ENDBRANCH  17  18
ENDBRANCH  16  17
ENDBRANCH  15  16
ENDBRANCH   1  15
TORSDOF 22
ENDMDL
MODEL 9
REMARK VINA RESULT:    -4.894     10.576     15.167
REMARK INTER + INTRA:         -13.287
REMARK INTER:                 -10.839
REMARK INTRA:                  -2.448
REMARK UNBOUND:                -2.098
REMARK SMILES CCCCCCCCCCCCCCCCCCCCCCCC(=O)[O-]
REMARK SMILES IDX 13 1 14 2 15 3 16 4 17 5 18 6 19 7 20 8 21 9 22 10 23 11
REMARK SMILES IDX 24 12 25 13 26 14 12 15 11 16 10 17 9 18 8 19 7 20 6 21 5 22
REMARK SMILES IDX 4 23 3 24 2 25 1 26
REMARK H PARENT
REMARK Flexibility Score: inf
ROOT
ATOM      1  C   UNL     1       4.452  46.093  24.345  1.00  0.00     0.000 C 
ENDROOT
BRANCH   1   2
ATOM      2  C   UNL     1       5.744  46.143  23.510  1.00  0.00     0.000 C 
BRANCH   2   3
ATOM      3  C   UNL     1       6.992  45.735  24.312  1.00  0.00     0.000 C 
BRANCH   3   4
ATOM      4  C   UNL     1       7.963  44.867  23.495  1.00  0.00     0.000 C 
BRANCH   4   5
ATOM      5  C   UNL     1       9.406  45.400  23.521  1.00  0.00     0.000 C 
BRANCH   5   6
ATOM      6  C   UNL     1       9.466  46.920  23.786  1.00  0.00     0.000 C 
BRANCH   6   7
ATOM      7  C   UNL     1      10.478  47.665  22.895  1.00  0.00     0.000 C 
BRANCH   7   8
ATOM      8  C   UNL     1      11.880  47.839  23.506  1.00  0.00     0.000 C 
BRANCH   8   9
ATOM      9  C   UNL     1      11.924  47.842  25.046  1.00  0.00     0.000 C 
BRANCH   9  10
ATOM     10  C   UNL     1      12.520  46.555  25.634  1.00  0.00     0.006 C 
BRANCH  10  11
ATOM     11  C   UNL     1      13.673  46.873  26.591  1.00  0.00     0.053 C 
BRANCH  11  12
ATOM     12  C   UNL     1      13.267  47.932  27.568  1.00  0.00     0.041 C 
ATOM     13  O   UNL     1      13.874  49.036  27.594  1.00  0.00    -0.550 OA
ATOM     14  O   UNL     1      12.258  47.678  28.489  1.00  0.00    -0.550 OA
ENDBRANCH  11  12
ENDBRANCH  10  11
ENDBRANCH   9  10
ENDBRANCH   8   9
ENDBRANCH   7   8
ENDBRANCH   6   7
ENDBRANCH   5   6
ENDBRANCH   4   5
ENDBRANCH   3   4
ENDBRANCH   2   3
ENDBRANCH   1   2
BRANCH   1  15
ATOM     15  C   UNL     1       3.149  45.912  23.539  1.00  0.00     0.000 C 
BRANCH  15  16
ATOM     16  C   UNL     1       2.955  46.900  22.375  1.00  0.00     0.000 C 
BRANCH  16  17
ATOM     17  C   UNL     1       1.611  46.720  21.655  1.00  0.00     0.000 C 
BRANCH  17  18
ATOM     18  C   UNL     1       1.036  45.318  21.908  1.00  0.00    -0.000 C 
BRANCH  18  19
ATOM     19  C   UNL     1      -0.448  45.348  22.318  1.00  0.00    -0.000 C 
BRANCH  19  20
ATOM     20  C   UNL     1      -1.018  46.755  22.585  1.00  0.00    -0.000 C 
BRANCH  20  21
ATOM     21  C   UNL     1      -1.303  47.071  24.066  1.00  0.00    -0.000 C 
BRANCH  21  22
ATOM     22  C   UNL     1      -0.076  47.005  24.997  1.00  0.00    -0.000 C 
BRANCH  22  23
ATOM     23  C   UNL     1       0.301  48.332  25.679  1.00  0.00    -0.000 C 
BRANCH  23  24
ATOM     24  C   UNL     1       1.808  48.632  25.613  1.00  0.00    -0.000 C 
BRANCH  24  25
ATOM     25  C   UNL     1       2.159  49.641  24.507  1.00  0.00    -0.003 C 
ATOM     26  C   UNL     1       0.923  50.248  23.842  1.00  0.00     0.004 C 
ENDBRANCH  24  25
ENDBRANCH  23  24
ENDBRANCH  22  23
ENDBRANCH  21  22
ENDBRANCH  20  21
ENDBRANCH  19  20
ENDBRANCH  18  19
ENDBRANCH  17  18
ENDBRANCH  16  17
ENDBRANCH  15  16
ENDBRANCH   1  15
TORSDOF 22
ENDMDL
