MODEL 1
REMARK VINA RESULT:    -5.792      0.000      0.000
REMARK INTER + INTRA:          -6.912
REMARK INTER:                  -6.808
REMARK INTRA:                  -0.104
REMARK UNBOUND:                -0.104
REMARK SMILES O=c1c(O)c(-c2ccc(O)cc2)oc2cc(O)cc(O)c12
REMARK SMILES IDX 5 1 3 2 2 3 1 4 21 5 19 6 18 7 16 8 15 9 14 10 13 11 6 12
REMARK SMILES IDX 7 13 8 14 9 15 12 16 11 17 10 18 4 20 20 22 17 24
REMARK H PARENT 10 19 4 21 20 23 17 25
REMARK Flexibility Score: inf
ROOT
ATOM      1  C   UNL     1      36.795  13.445  28.995  1.00  0.00     0.180 A 
ATOM      2  C   UNL     1      35.485  13.236  29.469  1.00  0.00     0.208 A 
ATOM      3  C   UNL     1      34.873  11.993  29.245  1.00  0.00     0.238 A 
ATOM      4  O   UNL     1      33.704  11.791  29.673  1.00  0.00    -0.285 OA
ATOM      5  C   UNL     1      35.567  10.991  28.536  1.00  0.00     0.111 A 
ATOM      6  C   UNL     1      35.020   9.714  28.264  1.00  0.00     0.134 A 
ATOM      7  C   UNL     1      35.773   8.774  27.544  1.00  0.00     0.093 A 
ATOM      8  C   UNL     1      37.057   9.084  27.091  1.00  0.00     0.123 A 
ATOM      9  C   UNL     1      37.603  10.345  27.357  1.00  0.00     0.094 A 
ATOM     10  C   UNL     1      36.870  11.295  28.075  1.00  0.00     0.146 A 
ATOM     11  O   UNL     1      37.414  12.482  28.318  1.00  0.00    -0.452 OA
ENDROOT
BRANCH   1  12
ATOM     12  C   UNL     1      37.516  14.720  29.209  1.00  0.00     0.021 A 
ATOM     13  C   UNL     1      37.024  15.899  28.623  1.00  0.00     0.016 A 
ATOM     14  C   UNL     1      37.701  17.110  28.793  1.00  0.00     0.047 A 
ATOM     15  C   UNL     1      38.885  17.156  29.540  1.00  0.00     0.115 A 
ATOM     16  C   UNL     1      38.716  14.770  29.941  1.00  0.00     0.016 A 
ATOM     17  C   UNL     1      39.390  15.984  30.109  1.00  0.00     0.047 A 
BRANCH  15  18
ATOM     18  O   UNL     1      39.567  18.357  29.718  1.00  0.00    -0.508 OA
ATOM     19  H   UNL     1      39.522  18.868  30.592  1.00  0.00     0.293 HD
ENDBRANCH  15  18
ENDBRANCH   1  12
BRANCH   2  20
ATOM     20  O   UNL     1      34.799  14.261  30.125  1.00  0.00    -0.502 OA
ATOM     21  H   UNL     1      33.952  14.671  29.754  1.00  0.00     0.293 HD
ENDBRANCH   2  20
BRANCH   6  22
ATOM     22  O   UNL     1      33.740   9.373  28.702  1.00  0.00    -0.507 OA
ATOM     23  H   UNL     1      33.080   8.895  28.099  1.00  0.00     0.293 HD
ENDBRANCH   6  22
BRANCH   8  24
ATOM     24  O   UNL     1      37.782   8.133  26.378  1.00  0.00    -0.508 OA
ATOM     25  H   UNL     1      37.820   8.145  25.365  1.00  0.00     0.293 HD
ENDBRANCH   8  24
TORSDOF 5
ENDMDL
MODEL 2
REMARK VINA RESULT:    -5.771      3.189      5.461
REMARK INTER + INTRA:          -6.887
REMARK INTER:                  -6.996
REMARK INTRA:                   0.108
REMARK UNBOUND:                -0.104
REMARK SMILES O=c1c(O)c(-c2ccc(O)cc2)oc2cc(O)cc(O)c12
REMARK SMILES IDX 5 1 3 2 2 3 1 4 21 5 19 6 18 7 16 8 15 9 14 10 13 11 6 12
REMARK SMILES IDX 7 13 8 14 9 15 12 16 11 17 10 18 4 20 20 22 17 24
REMARK H PARENT 10 19 4 21 20 23 17 25
REMARK Flexibility Score: inf
ROOT
ATOM      1  C   UNL     1      38.834  11.597  26.691  1.00  0.00     0.180 A 
ATOM      2  C   UNL     1      38.232  10.346  26.930  1.00  0.00     0.208 A 
ATOM      3  C   UNL     1      37.035  10.298  27.662  1.00  0.00     0.238 A 
ATOM      4  O   UNL     1      36.482   9.185  27.873  1.00  0.00    -0.285 OA
ATOM      5  C   UNL     1      36.473  11.492  28.159  1.00  0.00     0.111 A 
ATOM      6  C   UNL     1      35.273  11.529  28.909  1.00  0.00     0.134 A 
ATOM      7  C   UNL     1      34.783  12.758  29.376  1.00  0.00     0.093 A 
ATOM      8  C   UNL     1      35.467  13.946  29.111  1.00  0.00     0.123 A 
ATOM      9  C   UNL     1      36.654  13.915  28.370  1.00  0.00     0.094 A 
ATOM     10  C   UNL     1      37.158  12.701  27.894  1.00  0.00     0.146 A 
ATOM     11  O   UNL     1      38.283  12.701  27.189  1.00  0.00    -0.452 OA
ENDROOT
BRANCH   1  12
ATOM     12  C   UNL     1      40.085  11.732  25.912  1.00  0.00     0.021 A 
ATOM     13  C   UNL     1      40.165  12.697  24.894  1.00  0.00     0.016 A 
ATOM     14  C   UNL     1      41.328  12.827  24.130  1.00  0.00     0.047 A 
ATOM     15  C   UNL     1      42.422  11.984  24.365  1.00  0.00     0.115 A 
ATOM     16  C   UNL     1      41.180  10.875  26.128  1.00  0.00     0.016 A 
ATOM     17  C   UNL     1      42.342  11.008  25.362  1.00  0.00     0.047 A 
BRANCH  15  18
ATOM     18  O   UNL     1      43.587  12.105  23.611  1.00  0.00    -0.508 OA
ATOM     19  H   UNL     1      43.597  11.909  22.617  1.00  0.00     0.293 HD
ENDBRANCH  15  18
ENDBRANCH   1  12
BRANCH   2  20
ATOM     20  O   UNL     1      38.834   9.172  26.470  1.00  0.00    -0.502 OA
ATOM     21  H   UNL     1      39.024   9.008  25.489  1.00  0.00     0.293 HD
ENDBRANCH   2  20
BRANCH   6  22
ATOM     22  O   UNL     1      34.566  10.360  29.193  1.00  0.00    -0.507 OA
ATOM     23  H   UNL     1      34.988   9.592  29.701  1.00  0.00     0.293 HD
ENDBRANCH   6  22
BRANCH   8  24
ATOM     24  O   UNL     1      34.960  15.152  29.587  1.00  0.00    -0.508 OA
ATOM     25  H   UNL     1      33.962  15.308  29.681  1.00  0.00     0.293 HD
ENDBRANCH   8  24
TORSDOF 5
ENDMDL
MODEL 3
REMARK VINA RESULT:    -5.728      9.417     12.160
REMARK INTER + INTRA:          -6.837
REMARK INTER:                  -6.613
REMARK INTRA:                  -0.224
REMARK UNBOUND:                -0.104
REMARK SMILES O=c1c(O)c(-c2ccc(O)cc2)oc2cc(O)cc(O)c12
REMARK SMILES IDX 5 1 3 2 2 3 1 4 21 5 19 6 18 7 16 8 15 9 14 10 13 11 6 12
REMARK SMILES IDX 7 13 8 14 9 15 12 16 11 17 10 18 4 20 20 22 17 24
REMARK H PARENT 10 19 4 21 20 23 17 25
REMARK Flexibility Score: inf
ROOT
ATOM      1  C   UNL     1      45.062  14.112  22.922  1.00  0.00     0.180 A 
ATOM      2  C   UNL     1      45.155  15.238  22.081  1.00  0.00     0.208 A 
ATOM      3  C   UNL     1      45.362  16.501  22.659  1.00  0.00     0.238 A 
ATOM      4  O   UNL     1      45.458  17.514  21.916  1.00  0.00    -0.285 OA
ATOM      5  C   UNL     1      45.450  16.620  24.061  1.00  0.00     0.111 A 
ATOM      6  C   UNL     1      45.651  17.855  24.723  1.00  0.00     0.134 A 
ATOM      7  C   UNL     1      45.719  17.891  26.123  1.00  0.00     0.093 A 
ATOM      8  C   UNL     1      45.587  16.721  26.874  1.00  0.00     0.123 A 
ATOM      9  C   UNL     1      45.387  15.497  26.226  1.00  0.00     0.094 A 
ATOM     10  C   UNL     1      45.319  15.439  24.831  1.00  0.00     0.146 A 
ATOM     11  O   UNL     1      45.134  14.264  24.241  1.00  0.00    -0.452 OA
ENDROOT
BRANCH   1  12
ATOM     12  C   UNL     1      44.865  12.745  22.387  1.00  0.00     0.021 A 
ATOM     13  C   UNL     1      43.643  12.086  22.606  1.00  0.00     0.016 A 
ATOM     14  C   UNL     1      43.443  10.787  22.130  1.00  0.00     0.047 A 
ATOM     15  C   UNL     1      44.468  10.125  21.442  1.00  0.00     0.115 A 
ATOM     16  C   UNL     1      45.896  12.066  21.713  1.00  0.00     0.016 A 
ATOM     17  C   UNL     1      45.693  10.766  21.239  1.00  0.00     0.047 A 
BRANCH  15  18
ATOM     18  O   UNL     1      44.280   8.831  20.962  1.00  0.00    -0.508 OA
ATOM     19  H   UNL     1      44.207   8.640  19.970  1.00  0.00     0.293 HD
ENDBRANCH  15  18
ENDBRANCH   1  12
BRANCH   2  20
ATOM     20  O   UNL     1      45.016  15.101  20.698  1.00  0.00    -0.502 OA
ATOM     21  H   UNL     1      44.565  15.803  20.125  1.00  0.00     0.293 HD
ENDBRANCH   2  20
BRANCH   6  22
ATOM     22  O   UNL     1      45.786  19.042  24.002  1.00  0.00    -0.507 OA
ATOM     23  H   UNL     1      46.528  19.174  23.325  1.00  0.00     0.293 HD
ENDBRANCH   6  22
BRANCH   8  24
ATOM     24  O   UNL     1      45.657  16.785  28.264  1.00  0.00    -0.508 OA
ATOM     25  H   UNL     1      45.617  15.949  28.836  1.00  0.00     0.293 HD
ENDBRANCH   8  24
TORSDOF 5
ENDMDL
MODEL 4
REMARK VINA RESULT:    -5.577      6.230      7.285
REMARK INTER + INTRA:          -6.659
REMARK INTER:                  -6.426
REMARK INTRA:                  -0.233
REMARK UNBOUND:                -0.104
REMARK SMILES O=c1c(O)c(-c2ccc(O)cc2)oc2cc(O)cc(O)c12
REMARK SMILES IDX 5 1 3 2 2 3 1 4 21 5 19 6 18 7 16 8 15 9 14 10 13 11 6 12
REMARK SMILES IDX 7 13 8 14 9 15 12 16 11 17 10 18 4 20 20 22 17 24
REMARK H PARENT 10 19 4 21 20 23 17 25
REMARK Flexibility Score: inf
ROOT
ATOM      1  C   UNL     1      41.760  14.504  24.448  1.00  0.00     0.180 A 
ATOM      2  C   UNL     1      41.260  15.383  25.428  1.00  0.00     0.208 A 
ATOM      3  C   UNL     1      40.513  14.856  26.494  1.00  0.00     0.238 A 
ATOM      4  O   UNL     1      40.071  15.632  27.384  1.00  0.00    -0.285 OA
ATOM      5  C   UNL     1      40.261  13.470  26.551  1.00  0.00     0.111 A 
ATOM      6  C   UNL     1      39.514  12.861  27.588  1.00  0.00     0.134 A 
ATOM      7  C   UNL     1      39.299  11.475  27.568  1.00  0.00     0.093 A 
ATOM      8  C   UNL     1      39.813  10.688  26.535  1.00  0.00     0.123 A 
ATOM      9  C   UNL     1      40.552  11.285  25.507  1.00  0.00     0.094 A 
ATOM     10  C   UNL     1      40.779  12.664  25.510  1.00  0.00     0.146 A 
ATOM     11  O   UNL     1      41.489  13.204  24.526  1.00  0.00    -0.452 OA
ENDROOT
BRANCH   1  12
ATOM     12  C   UNL     1      42.572  14.980  23.305  1.00  0.00     0.021 A 
ATOM     13  C   UNL     1      43.967  14.811  23.330  1.00  0.00     0.016 A 
ATOM     14  C   UNL     1      44.755  15.272  22.272  1.00  0.00     0.047 A 
ATOM     15  C   UNL     1      44.161  15.922  21.182  1.00  0.00     0.115 A 
ATOM     16  C   UNL     1      41.984  15.651  22.217  1.00  0.00     0.016 A 
ATOM     17  C   UNL     1      42.776  16.111  21.160  1.00  0.00     0.047 A 
BRANCH  15  18
ATOM     18  O   UNL     1      44.936  16.385  20.122  1.00  0.00    -0.508 OA
ATOM     19  H   UNL     1      44.728  17.260  19.656  1.00  0.00     0.293 HD
ENDBRANCH  15  18
ENDBRANCH   1  12
BRANCH   2  20
ATOM     20  O   UNL     1      41.482  16.758  25.324  1.00  0.00    -0.502 OA
ATOM     21  H   UNL     1      41.974  17.285  26.034  1.00  0.00     0.293 HD
ENDBRANCH   2  20
BRANCH   6  22
ATOM     22  O   UNL     1      38.986  13.619  28.634  1.00  0.00    -0.507 OA
ATOM     23  H   UNL     1      39.573  14.201  29.219  1.00  0.00     0.293 HD
ENDBRANCH   6  22
BRANCH   8  24
ATOM     24  O   UNL     1      39.585   9.314  26.538  1.00  0.00    -0.508 OA
ATOM     25  H   UNL     1      40.051   8.697  25.883  1.00  0.00     0.293 HD
ENDBRANCH   8  24
TORSDOF 5
ENDMDL
MODEL 5
REMARK VINA RESULT:    -5.572      8.244      9.778
REMARK INTER + INTRA:          -6.654
REMARK INTER:                  -6.545
REMARK INTRA:                  -0.109
REMARK UNBOUND:                -0.104
REMARK SMILES O=c1c(O)c(-c2ccc(O)cc2)oc2cc(O)cc(O)c12
REMARK SMILES IDX 5 1 3 2 2 3 1 4 21 5 19 6 18 7 16 8 15 9 14 10 13 11 6 12
REMARK SMILES IDX 7 13 8 14 9 15 12 16 11 17 10 18 4 20 20 22 17 24
REMARK H PARENT 10 19 4 21 20 23 17 25
REMARK Flexibility Score: inf
ROOT
ATOM      1  C   UNL     1      43.764  11.831  23.264  1.00  0.00     0.180 A 
ATOM      2  C   UNL     1      44.690  11.125  22.473  1.00  0.00     0.208 A 
ATOM      3  C   UNL     1      45.187   9.898  22.940  1.00  0.00     0.238 A 
ATOM      4  O   UNL     1      46.009   9.252  22.234  1.00  0.00    -0.285 OA
ATOM      5  C   UNL     1      44.768   9.408  24.194  1.00  0.00     0.111 A 
ATOM      6  C   UNL     1      45.223   8.184  24.740  1.00  0.00     0.134 A 
ATOM      7  C   UNL     1      44.765   7.770  25.999  1.00  0.00     0.093 A 
ATOM      8  C   UNL     1      43.864   8.555  26.724  1.00  0.00     0.123 A 
ATOM      9  C   UNL     1      43.411   9.766  26.190  1.00  0.00     0.094 A 
ATOM     10  C   UNL     1      43.854  10.195  24.935  1.00  0.00     0.146 A 
ATOM     11  O   UNL     1      43.403  11.346  24.449  1.00  0.00    -0.452 OA
ENDROOT
BRANCH   1  12
ATOM     12  C   UNL     1      43.180  13.121  22.832  1.00  0.00     0.021 A 
ATOM     13  C   UNL     1      44.016  14.240  22.675  1.00  0.00     0.016 A 
ATOM     14  C   UNL     1      43.483  15.473  22.288  1.00  0.00     0.047 A 
ATOM     15  C   UNL     1      42.106  15.607  22.069  1.00  0.00     0.115 A 
ATOM     16  C   UNL     1      41.796  13.268  22.630  1.00  0.00     0.016 A 
ATOM     17  C   UNL     1      41.266  14.503  22.244  1.00  0.00     0.047 A 
BRANCH  15  18
ATOM     18  O   UNL     1      41.564  16.830  21.684  1.00  0.00    -0.508 OA
ATOM     19  H   UNL     1      40.567  16.947  21.542  1.00  0.00     0.293 HD
ENDBRANCH  15  18
ENDBRANCH   1  12
BRANCH   2  20
ATOM     20  O   UNL     1      45.128  11.655  21.256  1.00  0.00    -0.502 OA
ATOM     21  H   UNL     1      45.261  11.083  20.432  1.00  0.00     0.293 HD
ENDBRANCH   2  20
BRANCH   6  22
ATOM     22  O   UNL     1      46.124   7.378  24.042  1.00  0.00    -0.507 OA
ATOM     23  H   UNL     1      46.857   7.774  23.465  1.00  0.00     0.293 HD
ENDBRANCH   6  22
BRANCH   8  24
ATOM     24  O   UNL     1      43.426   8.122  27.972  1.00  0.00    -0.508 OA
ATOM     25  H   UNL     1      42.445   7.947  28.159  1.00  0.00     0.293 HD
ENDBRANCH   8  24
TORSDOF 5
ENDMDL
MODEL 6
REMARK VINA RESULT:    -5.555      1.774      2.164
REMARK INTER + INTRA:          -6.634
REMARK INTER:                  -6.472
REMARK INTRA:                  -0.162
REMARK UNBOUND:                -0.104
REMARK SMILES O=c1c(O)c(-c2ccc(O)cc2)oc2cc(O)cc(O)c12
REMARK SMILES IDX 5 1 3 2 2 3 1 4 21 5 19 6 18 7 16 8 15 9 14 10 13 11 6 12
REMARK SMILES IDX 7 13 8 14 9 15 12 16 11 17 10 18 4 20 20 22 17 24
REMARK H PARENT 10 19 4 21 20 23 17 25
REMARK Flexibility Score: inf
ROOT
ATOM      1  C   UNL     1      37.757  12.533  28.320  1.00  0.00     0.180 A 
ATOM      2  C   UNL     1      36.700  12.655  29.243  1.00  0.00     0.208 A 
ATOM      3  C   UNL     1      35.682  11.688  29.241  1.00  0.00     0.238 A 
ATOM      4  O   UNL     1      34.737  11.781  30.070  1.00  0.00    -0.285 OA
ATOM      5  C   UNL     1      35.726  10.631  28.308  1.00  0.00     0.111 A 
ATOM      6  C   UNL     1      34.738   9.620  28.236  1.00  0.00     0.134 A 
ATOM      7  C   UNL     1      34.849   8.607  27.272  1.00  0.00     0.093 A 
ATOM      8  C   UNL     1      35.923   8.586  26.380  1.00  0.00     0.123 A 
ATOM      9  C   UNL     1      36.902   9.583  26.445  1.00  0.00     0.094 A 
ATOM     10  C   UNL     1      36.811  10.600  27.400  1.00  0.00     0.146 A 
ATOM     11  O   UNL     1      37.757  11.532  27.444  1.00  0.00    -0.452 OA
ENDROOT
BRANCH   1  12
ATOM     12  C   UNL     1      38.877  13.500  28.274  1.00  0.00     0.021 A 
ATOM     13  C   UNL     1      40.157  13.096  28.688  1.00  0.00     0.016 A 
ATOM     14  C   UNL     1      41.224  14.000  28.673  1.00  0.00     0.047 A 
ATOM     15  C   UNL     1      41.021  15.322  28.258  1.00  0.00     0.115 A 
ATOM     16  C   UNL     1      38.676  14.835  27.877  1.00  0.00     0.016 A 
ATOM     17  C   UNL     1      39.745  15.736  27.864  1.00  0.00     0.047 A 
BRANCH  15  18
ATOM     18  O   UNL     1      42.077  16.230  28.238  1.00  0.00    -0.508 OA
ATOM     19  H   UNL     1      41.929  17.217  28.412  1.00  0.00     0.293 HD
ENDBRANCH  15  18
ENDBRANCH   1  12
BRANCH   2  20
ATOM     20  O   UNL     1      36.653  13.738  30.125  1.00  0.00    -0.502 OA
ATOM     21  H   UNL     1      36.332  14.654  29.842  1.00  0.00     0.293 HD
ENDBRANCH   2  20
BRANCH   6  22
ATOM     22  O   UNL     1      33.652   9.613  29.112  1.00  0.00    -0.507 OA
ATOM     23  H   UNL     1      32.776  10.066  28.879  1.00  0.00     0.293 HD
ENDBRANCH   6  22
BRANCH   8  24
ATOM     24  O   UNL     1      36.008   7.570  25.431  1.00  0.00    -0.508 OA
ATOM     25  H   UNL     1      35.303   6.845  25.366  1.00  0.00     0.293 HD
ENDBRANCH   8  24
TORSDOF 5
ENDMDL
MODEL 7
REMARK VINA RESULT:    -5.507      4.137      5.495
REMARK INTER + INTRA:          -6.577
REMARK INTER:                  -6.353
REMARK INTRA:                  -0.224
REMARK UNBOUND:                -0.104
REMARK SMILES O=c1c(O)c(-c2ccc(O)cc2)oc2cc(O)cc(O)c12
REMARK SMILES IDX 5 1 3 2 2 3 1 4 21 5 19 6 18 7 16 8 15 9 14 10 13 11 6 12
REMARK SMILES IDX 7 13 8 14 9 15 12 16 11 17 10 18 4 20 20 22 17 24
REMARK H PARENT 10 19 4 21 20 23 17 25
REMARK Flexibility Score: inf
ROOT
ATOM      1  C   UNL     1      39.901  12.069  26.020  1.00  0.00     0.180 A 
ATOM      2  C   UNL     1      39.629  13.062  26.981  1.00  0.00     0.208 A 
ATOM      3  C   UNL     1      38.572  12.863  27.883  1.00  0.00     0.238 A 
ATOM      4  O   UNL     1      38.327  13.741  28.753  1.00  0.00    -0.285 OA
ATOM      5  C   UNL     1      37.794  11.690  27.797  1.00  0.00     0.111 A 
ATOM      6  C   UNL     1      36.709  11.416  28.663  1.00  0.00     0.134 A 
ATOM      7  C   UNL     1      35.978  10.229  28.508  1.00  0.00     0.093 A 
ATOM      8  C   UNL     1      36.308   9.314  27.505  1.00  0.00     0.123 A 
ATOM      9  C   UNL     1      37.379   9.580  26.645  1.00  0.00     0.094 A 
ATOM     10  C   UNL     1      38.121  10.757  26.785  1.00  0.00     0.146 A 
ATOM     11  O   UNL     1      39.137  10.982  25.959  1.00  0.00    -0.452 OA
ENDROOT
BRANCH   1  12
ATOM     12  C   UNL     1      41.011  12.196  25.048  1.00  0.00     0.021 A 
ATOM     13  C   UNL     1      40.869  13.057  23.947  1.00  0.00     0.016 A 
ATOM     14  C   UNL     1      41.895  13.176  23.005  1.00  0.00     0.047 A 
ATOM     15  C   UNL     1      43.069  12.425  23.144  1.00  0.00     0.115 A 
ATOM     16  C   UNL     1      42.184  11.430  25.170  1.00  0.00     0.016 A 
ATOM     17  C   UNL     1      43.208  11.551  24.226  1.00  0.00     0.047 A 
BRANCH  15  18
ATOM     18  O   UNL     1      44.098  12.536  22.212  1.00  0.00    -0.508 OA
ATOM     19  H   UNL     1      44.666  13.373  22.148  1.00  0.00     0.293 HD
ENDBRANCH  15  18
ENDBRANCH   1  12
BRANCH   2  20
ATOM     20  O   UNL     1      40.383  14.239  27.014  1.00  0.00    -0.502 OA
ATOM     21  H   UNL     1      40.665  14.726  26.173  1.00  0.00     0.293 HD
ENDBRANCH   2  20
BRANCH   6  22
ATOM     22  O   UNL     1      36.354  12.309  29.675  1.00  0.00    -0.507 OA
ATOM     23  H   UNL     1      35.385  12.482  29.917  1.00  0.00     0.293 HD
ENDBRANCH   6  22
BRANCH   8  24
ATOM     24  O   UNL     1      35.565   8.144  27.371  1.00  0.00    -0.508 OA
ATOM     25  H   UNL     1      35.555   7.436  28.097  1.00  0.00     0.293 HD
ENDBRANCH   8  24
TORSDOF 5
ENDMDL
MODEL 8
REMARK VINA RESULT:    -5.404      8.605     11.809
REMARK INTER + INTRA:          -6.457
REMARK INTER:                  -6.165
REMARK INTRA:                  -0.291
REMARK UNBOUND:                -0.104
REMARK SMILES O=c1c(O)c(-c2ccc(O)cc2)oc2cc(O)cc(O)c12
REMARK SMILES IDX 5 1 3 2 2 3 1 4 21 5 19 6 18 7 16 8 15 9 14 10 13 11 6 12
REMARK SMILES IDX 7 13 8 14 9 15 12 16 11 17 10 18 4 20 20 22 17 24
REMARK H PARENT 10 19 4 21 20 23 17 25
REMARK Flexibility Score: inf
ROOT
ATOM      1  C   UNL     1      44.895  12.886  23.721  1.00  0.00     0.180 A 
ATOM      2  C   UNL     1      45.088  13.098  22.342  1.00  0.00     0.208 A 
ATOM      3  C   UNL     1      45.377  14.395  21.889  1.00  0.00     0.238 A 
ATOM      4  O   UNL     1      45.562  14.594  20.658  1.00  0.00    -0.285 OA
ATOM      5  C   UNL     1      45.448  15.457  22.813  1.00  0.00     0.111 A 
ATOM      6  C   UNL     1      45.729  16.793  22.438  1.00  0.00     0.134 A 
ATOM      7  C   UNL     1      45.772  17.796  23.418  1.00  0.00     0.093 A 
ATOM      8  C   UNL     1      45.540  17.492  24.761  1.00  0.00     0.123 A 
ATOM      9  C   UNL     1      45.261  16.173  25.138  1.00  0.00     0.094 A 
ATOM     10  C   UNL     1      45.215  15.159  24.177  1.00  0.00     0.146 A 
ATOM     11  O   UNL     1      44.954  13.915  24.562  1.00  0.00    -0.452 OA
ENDROOT
BRANCH   1  12
ATOM     12  C   UNL     1      44.607  11.545  24.279  1.00  0.00     0.021 A 
ATOM     13  C   UNL     1      43.280  11.192  24.580  1.00  0.00     0.016 A 
ATOM     14  C   UNL     1      42.988   9.940  25.128  1.00  0.00     0.047 A 
ATOM     15  C   UNL     1      44.019   9.031  25.396  1.00  0.00     0.115 A 
ATOM     16  C   UNL     1      45.639  10.635  24.569  1.00  0.00     0.016 A 
ATOM     17  C   UNL     1      45.343   9.383  25.118  1.00  0.00     0.047 A 
BRANCH  15  18
ATOM     18  O   UNL     1      43.739   7.780  25.940  1.00  0.00    -0.508 OA
ATOM     19  H   UNL     1      44.163   7.473  26.808  1.00  0.00     0.293 HD
ENDBRANCH  15  18
ENDBRANCH   1  12
BRANCH   2  20
ATOM     20  O   UNL     1      44.965  12.038  21.440  1.00  0.00    -0.502 OA
ATOM     21  H   UNL     1      44.558  11.149  21.700  1.00  0.00     0.293 HD
ENDBRANCH   2  20
BRANCH   6  22
ATOM     22  O   UNL     1      45.964  17.130  21.105  1.00  0.00    -0.507 OA
ATOM     23  H   UNL     1      45.262  16.991  20.388  1.00  0.00     0.293 HD
ENDBRANCH   6  22
BRANCH   8  24
ATOM     24  O   UNL     1      45.588  18.506  25.714  1.00  0.00    -0.508 OA
ATOM     25  H   UNL     1      46.323  19.205  25.708  1.00  0.00     0.293 HD
ENDBRANCH   8  24
TORSDOF 5
ENDMDL
MODEL 9
REMARK VINA RESULT:    -3.515      6.699      8.806
REMARK INTER + INTRA:          -4.236
REMARK INTER:                  -3.971
REMARK INTRA:                  -0.265
REMARK UNBOUND:                -0.104
REMARK SMILES O=c1c(O)c(-c2ccc(O)cc2)oc2cc(O)cc(O)c12
REMARK SMILES IDX 5 1 3 2 2 3 1 4 21 5 19 6 18 7 16 8 15 9 14 10 13 11 6 12
REMARK SMILES IDX 7 13 8 14 9 15 12 16 11 17 10 18 4 20 20 22 17 24
REMARK H PARENT 10 19 4 21 20 23 17 25
REMARK Flexibility Score: inf
ROOT
ATOM      1  C   UNL     1      42.605  10.636  25.356  1.00  0.00     0.180 A 
ATOM      2  C   UNL     1      43.274   9.645  26.099  1.00  0.00     0.208 A 
ATOM      3  C   UNL     1      44.214   8.828  25.450  1.00  0.00     0.238 A 
ATOM      4  O   UNL     1      44.827   7.944  26.108  1.00  0.00    -0.285 OA
ATOM      5  C   UNL     1      44.453   9.001  24.071  1.00  0.00     0.111 A 
ATOM      6  C   UNL     1      45.379   8.217  23.341  1.00  0.00     0.134 A 
ATOM      7  C   UNL     1      45.553   8.445  21.968  1.00  0.00     0.093 A 
ATOM      8  C   UNL     1      44.821   9.437  21.311  1.00  0.00     0.123 A 
ATOM      9  C   UNL     1      43.904  10.214  22.027  1.00  0.00     0.094 A 
ATOM     10  C   UNL     1      43.717  10.004  23.396  1.00  0.00     0.146 A 
ATOM     11  O   UNL     1      42.844  10.759  24.053  1.00  0.00    -0.452 OA
ENDROOT
BRANCH   1  12
ATOM     12  C   UNL     1      41.616  11.548  25.972  1.00  0.00     0.021 A 
ATOM     13  C   UNL     1      42.064  12.659  26.707  1.00  0.00     0.016 A 
ATOM     14  C   UNL     1      41.148  13.522  27.316  1.00  0.00     0.047 A 
ATOM     15  C   UNL     1      39.773  13.276  27.212  1.00  0.00     0.115 A 
ATOM     16  C   UNL     1      40.234  11.297  25.889  1.00  0.00     0.016 A 
ATOM     17  C   UNL     1      39.321  12.161  26.500  1.00  0.00     0.047 A 
BRANCH  15  18
ATOM     18  O   UNL     1      38.851  14.129  27.814  1.00  0.00    -0.508 OA
ATOM     19  H   UNL     1      39.065  15.104  27.984  1.00  0.00     0.293 HD
ENDBRANCH  15  18
ENDBRANCH   1  12
BRANCH   2  20
ATOM     20  O   UNL     1      42.985   9.460  27.453  1.00  0.00    -0.502 OA
ATOM     21  H   UNL     1      43.515   8.830  28.041  1.00  0.00     0.293 HD
ENDBRANCH   2  20
BRANCH   6  22
ATOM     22  O   UNL     1      46.125   7.218  23.967  1.00  0.00    -0.507 OA
ATOM     23  H   UNL     1      46.172   6.276  23.597  1.00  0.00     0.293 HD
ENDBRANCH   6  22
BRANCH   8  24
ATOM     24  O   UNL     1      45.012   9.641  19.947  1.00  0.00    -0.508 OA
ATOM     25  H   UNL     1      44.619   9.012  19.256  1.00  0.00     0.293 HD
ENDBRANCH   8  24
TORSDOF 5
ENDMDL
