MODEL 1
REMARK VINA RESULT:    -7.610      0.000      0.000
REMARK INTER + INTRA:          -9.216
REMARK INTER:                  -9.167
REMARK INTRA:                  -0.049
REMARK UNBOUND:                -0.049
REMARK SMILES O=c1c(O)c(-c2ccc(O)c(O)c2)oc2cc(O)cc(O)c12
REMARK SMILES IDX 5 1 3 2 2 3 1 4 22 5 20 6 19 7 17 8 16 9 15 10 14 11 6 12
REMARK SMILES IDX 7 13 8 14 9 15 13 16 11 17 10 18 12 20 4 22 21 24 18 26
REMARK H PARENT 10 19 12 21 4 23 21 25 18 27
REMARK Flexibility Score: inf
ROOT
ATOM      1  C   UNL     1     203.202 207.610 276.715  1.00  0.00     0.180 A 
ATOM      2  C   UNL     1     204.181 208.565 276.387  1.00  0.00     0.208 A 
ATOM      3  C   UNL     1     204.660 209.422 277.390  1.00  0.00     0.238 A 
ATOM      4  O   UNL     1     205.574 210.238 277.102  1.00  0.00    -0.285 OA
ATOM      5  C   UNL     1     204.145 209.324 278.705  1.00  0.00     0.111 A 
ATOM      6  C   UNL     1     204.528 210.168 279.791  1.00  0.00     0.134 A 
ATOM      7  C   UNL     1     204.051 209.896 281.080  1.00  0.00     0.093 A 
ATOM      8  C   UNL     1     203.152 208.851 281.309  1.00  0.00     0.123 A 
ATOM      9  C   UNL     1     202.725 208.060 280.245  1.00  0.00     0.094 A 
ATOM     10  C   UNL     1     203.213 208.284 278.955  1.00  0.00     0.146 A 
ATOM     11  O   UNL     1     202.788 207.499 277.972  1.00  0.00    -0.452 OA
ENDROOT
BRANCH   1  12
ATOM     12  C   UNL     1     202.631 206.689 275.707  1.00  0.00     0.025 A 
ATOM     13  C   UNL     1     203.482 205.837 274.986  1.00  0.00     0.016 A 
ATOM     14  C   UNL     1     202.961 204.946 274.046  1.00  0.00     0.051 A 
ATOM     15  C   UNL     1     201.582 204.879 273.821  1.00  0.00     0.157 A 
ATOM     16  C   UNL     1     201.243 206.607 275.495  1.00  0.00     0.062 A 
ATOM     17  C   UNL     1     200.717 205.710 274.552  1.00  0.00     0.158 A 
BRANCH  15  18
ATOM     18  O   UNL     1     201.092 203.982 272.875  1.00  0.00    -0.504 OA
ATOM     19  H   UNL     1     200.747 204.285 271.972  1.00  0.00     0.293 HD
ENDBRANCH  15  18
BRANCH  17  20
ATOM     20  O   UNL     1     199.340 205.640 274.344  1.00  0.00    -0.504 OA
ATOM     21  H   UNL     1     198.837 206.379 273.867  1.00  0.00     0.293 HD
ENDBRANCH  17  20
ENDBRANCH   1  12
BRANCH   2  22
ATOM     22  O   UNL     1     204.691 208.630 275.088  1.00  0.00    -0.502 OA
ATOM     23  H   UNL     1     204.364 209.306 274.408  1.00  0.00     0.293 HD
ENDBRANCH   2  22
BRANCH   6  24
ATOM     24  O   UNL     1     205.348 211.292 279.653  1.00  0.00    -0.507 OA
ATOM     25  H   UNL     1     205.578 211.732 278.776  1.00  0.00     0.293 HD
ENDBRANCH   6  24
BRANCH   8  26
ATOM     26  O   UNL     1     202.670 208.598 282.591  1.00  0.00    -0.508 OA
ATOM     27  H   UNL     1     202.918 209.187 283.377  1.00  0.00     0.293 HD
ENDBRANCH   8  26
TORSDOF 6
ENDMDL
MODEL 2
REMARK VINA RESULT:    -7.515      1.830      6.942
REMARK INTER + INTRA:          -9.102
REMARK INTER:                  -8.859
REMARK INTRA:                  -0.243
REMARK UNBOUND:                -0.049
REMARK SMILES O=c1c(O)c(-c2ccc(O)c(O)c2)oc2cc(O)cc(O)c12
REMARK SMILES IDX 5 1 3 2 2 3 1 4 22 5 20 6 19 7 17 8 16 9 15 10 14 11 6 12
REMARK SMILES IDX 7 13 8 14 9 15 13 16 11 17 10 18 12 20 4 22 21 24 18 26
REMARK H PARENT 10 19 12 21 4 23 21 25 18 27
REMARK Flexibility Score: inf
ROOT
ATOM      1  C   UNL     1     202.624 206.642 277.449  1.00  0.00     0.180 A 
ATOM      2  C   UNL     1     203.796 206.117 276.878  1.00  0.00     0.208 A 
ATOM      3  C   UNL     1     203.744 205.595 275.576  1.00  0.00     0.238 A 
ATOM      4  O   UNL     1     204.808 205.175 275.051  1.00  0.00    -0.285 OA
ATOM      5  C   UNL     1     202.519 205.590 274.867  1.00  0.00     0.111 A 
ATOM      6  C   UNL     1     202.342 205.049 273.558  1.00  0.00     0.134 A 
ATOM      7  C   UNL     1     201.116 205.217 272.901  1.00  0.00     0.093 A 
ATOM      8  C   UNL     1     200.041 205.847 273.532  1.00  0.00     0.123 A 
ATOM      9  C   UNL     1     200.186 206.324 274.833  1.00  0.00     0.094 A 
ATOM     10  C   UNL     1     201.408 206.206 275.500  1.00  0.00     0.146 A 
ATOM     11  O   UNL     1     201.506 206.684 276.734  1.00  0.00    -0.452 OA
ENDROOT
BRANCH   1  12
ATOM     12  C   UNL     1     202.593 207.188 278.825  1.00  0.00     0.025 A 
ATOM     13  C   UNL     1     202.012 206.434 279.856  1.00  0.00     0.016 A 
ATOM     14  C   UNL     1     201.991 206.921 281.165  1.00  0.00     0.051 A 
ATOM     15  C   UNL     1     202.562 208.160 281.468  1.00  0.00     0.157 A 
ATOM     16  C   UNL     1     203.186 208.425 279.135  1.00  0.00     0.062 A 
ATOM     17  C   UNL     1     203.168 208.916 280.450  1.00  0.00     0.158 A 
BRANCH  15  18
ATOM     18  O   UNL     1     202.525 208.621 282.782  1.00  0.00    -0.504 OA
ATOM     19  H   UNL     1     202.316 208.009 283.562  1.00  0.00     0.293 HD
ENDBRANCH  15  18
BRANCH  17  20
ATOM     20  O   UNL     1     203.752 210.146 280.747  1.00  0.00    -0.504 OA
ATOM     21  H   UNL     1     204.740 210.315 280.597  1.00  0.00     0.293 HD
ENDBRANCH  17  20
ENDBRANCH   1  12
BRANCH   2  22
ATOM     22  O   UNL     1     205.000 206.152 277.587  1.00  0.00    -0.502 OA
ATOM     23  H   UNL     1     205.097 205.754 278.513  1.00  0.00     0.293 HD
ENDBRANCH   2  22
BRANCH   6  24
ATOM     24  O   UNL     1     203.321 204.322 272.875  1.00  0.00    -0.507 OA
ATOM     25  H   UNL     1     203.951 204.709 272.190  1.00  0.00     0.293 HD
ENDBRANCH   6  24
BRANCH   8  26
ATOM     26  O   UNL     1     198.820 205.995 272.878  1.00  0.00    -0.508 OA
ATOM     27  H   UNL     1     197.940 205.843 273.356  1.00  0.00     0.293 HD
ENDBRANCH   8  26
TORSDOF 6
ENDMDL
MODEL 3
REMARK VINA RESULT:    -7.281      1.366      6.842
REMARK INTER + INTRA:          -8.820
REMARK INTER:                  -8.564
REMARK INTRA:                  -0.256
REMARK UNBOUND:                -0.049
REMARK SMILES O=c1c(O)c(-c2ccc(O)c(O)c2)oc2cc(O)cc(O)c12
REMARK SMILES IDX 5 1 3 2 2 3 1 4 22 5 20 6 19 7 17 8 16 9 15 10 14 11 6 12
REMARK SMILES IDX 7 13 8 14 9 15 13 16 11 17 10 18 12 20 4 22 21 24 18 26
REMARK H PARENT 10 19 12 21 4 23 21 25 18 27
REMARK Flexibility Score: inf
ROOT
ATOM      1  C   UNL     1     203.340 207.966 276.730  1.00  0.00     0.180 A 
ATOM      2  C   UNL     1     204.284 207.129 276.111  1.00  0.00     0.208 A 
ATOM      3  C   UNL     1     203.852 206.227 275.125  1.00  0.00     0.238 A 
ATOM      4  O   UNL     1     204.710 205.519 274.537  1.00  0.00    -0.285 OA
ATOM      5  C   UNL     1     202.480 206.163 274.782  1.00  0.00     0.111 A 
ATOM      6  C   UNL     1     201.924 205.260 273.826  1.00  0.00     0.134 A 
ATOM      7  C   UNL     1     200.575 205.374 273.470  1.00  0.00     0.093 A 
ATOM      8  C   UNL     1     199.745 206.316 274.084  1.00  0.00     0.123 A 
ATOM      9  C   UNL     1     200.264 207.162 275.062  1.00  0.00     0.094 A 
ATOM     10  C   UNL     1     201.615 207.097 275.410  1.00  0.00     0.146 A 
ATOM     11  O   UNL     1     202.071 207.929 276.339  1.00  0.00    -0.452 OA
ENDROOT
BRANCH   1  12
ATOM     12  C   UNL     1     203.714 208.925 277.795  1.00  0.00     0.025 A 
ATOM     13  C   UNL     1     204.366 210.119 277.452  1.00  0.00     0.016 A 
ATOM     14  C   UNL     1     204.709 211.047 278.439  1.00  0.00     0.051 A 
ATOM     15  C   UNL     1     204.395 210.803 279.779  1.00  0.00     0.157 A 
ATOM     16  C   UNL     1     203.381 208.690 279.141  1.00  0.00     0.062 A 
ATOM     17  C   UNL     1     203.723 209.621 280.134  1.00  0.00     0.158 A 
BRANCH  15  18
ATOM     18  O   UNL     1     204.752 211.745 280.742  1.00  0.00    -0.504 OA
ATOM     19  H   UNL     1     204.637 211.573 281.733  1.00  0.00     0.293 HD
ENDBRANCH  15  18
BRANCH  17  20
ATOM     20  O   UNL     1     203.395 209.377 281.466  1.00  0.00    -0.504 OA
ATOM     21  H   UNL     1     204.085 209.447 282.204  1.00  0.00     0.293 HD
ENDBRANCH  17  20
ENDBRANCH   1  12
BRANCH   2  22
ATOM     22  O   UNL     1     205.636 207.224 276.449  1.00  0.00    -0.502 OA
ATOM     23  H   UNL     1     206.159 206.442 276.826  1.00  0.00     0.293 HD
ENDBRANCH   2  22
BRANCH   6  24
ATOM     24  O   UNL     1     202.644 204.224 273.223  1.00  0.00    -0.507 OA
ATOM     25  H   UNL     1     202.486 203.884 272.287  1.00  0.00     0.293 HD
ENDBRANCH   6  24
BRANCH   8  26
ATOM     26  O   UNL     1     198.400 206.412 273.736  1.00  0.00    -0.508 OA
ATOM     27  H   UNL     1     197.693 206.666 274.415  1.00  0.00     0.293 HD
ENDBRANCH   8  26
TORSDOF 6
ENDMDL
MODEL 4
REMARK VINA RESULT:    -7.233      3.172      4.645
REMARK INTER + INTRA:          -8.762
REMARK INTER:                  -8.743
REMARK INTRA:                  -0.020
REMARK UNBOUND:                -0.049
REMARK SMILES O=c1c(O)c(-c2ccc(O)c(O)c2)oc2cc(O)cc(O)c12
REMARK SMILES IDX 5 1 3 2 2 3 1 4 22 5 20 6 19 7 17 8 16 9 15 10 14 11 6 12
REMARK SMILES IDX 7 13 8 14 9 15 13 16 11 17 10 18 12 20 4 22 21 24 18 26
REMARK H PARENT 10 19 12 21 4 23 21 25 18 27
REMARK Flexibility Score: inf
ROOT
ATOM      1  C   UNL     1     200.928 207.312 275.138  1.00  0.00     0.180 A 
ATOM      2  C   UNL     1     201.972 206.987 274.253  1.00  0.00     0.208 A 
ATOM      3  C   UNL     1     203.170 206.473 274.773  1.00  0.00     0.238 A 
ATOM      4  O   UNL     1     204.080 206.135 273.971  1.00  0.00    -0.285 OA
ATOM      5  C   UNL     1     203.317 206.305 276.171  1.00  0.00     0.111 A 
ATOM      6  C   UNL     1     204.503 205.831 276.810  1.00  0.00     0.134 A 
ATOM      7  C   UNL     1     204.491 205.579 278.188  1.00  0.00     0.093 A 
ATOM      8  C   UNL     1     203.358 205.848 278.959  1.00  0.00     0.123 A 
ATOM      9  C   UNL     1     202.216 206.368 278.354  1.00  0.00     0.094 A 
ATOM     10  C   UNL     1     202.185 206.594 276.976  1.00  0.00     0.146 A 
ATOM     11  O   UNL     1     201.073 207.080 276.437  1.00  0.00    -0.452 OA
ENDROOT
BRANCH   1  12
ATOM     12  C   UNL     1     199.645 207.881 274.669  1.00  0.00     0.025 A 
ATOM     13  C   UNL     1     198.898 207.195 273.699  1.00  0.00     0.016 A 
ATOM     14  C   UNL     1     197.674 207.704 273.257  1.00  0.00     0.051 A 
ATOM     15  C   UNL     1     197.170 208.896 273.787  1.00  0.00     0.157 A 
ATOM     16  C   UNL     1     199.127 209.069 275.215  1.00  0.00     0.062 A 
ATOM     17  C   UNL     1     197.898 209.581 274.775  1.00  0.00     0.158 A 
BRANCH  15  18
ATOM     18  O   UNL     1     195.948 209.380 273.326  1.00  0.00    -0.504 OA
ATOM     19  H   UNL     1     195.123 208.794 273.269  1.00  0.00     0.293 HD
ENDBRANCH  15  18
BRANCH  17  20
ATOM     20  O   UNL     1     197.396 210.763 275.318  1.00  0.00    -0.504 OA
ATOM     21  H   UNL     1     196.463 211.093 275.100  1.00  0.00     0.293 HD
ENDBRANCH  17  20
ENDBRANCH   1  12
BRANCH   2  22
ATOM     22  O   UNL     1     201.797 207.140 272.875  1.00  0.00    -0.502 OA
ATOM     23  H   UNL     1     201.472 208.005 272.461  1.00  0.00     0.293 HD
ENDBRANCH   2  22
BRANCH   6  24
ATOM     24  O   UNL     1     205.715 205.618 276.146  1.00  0.00    -0.507 OA
ATOM     25  H   UNL     1     206.625 205.788 276.544  1.00  0.00     0.293 HD
ENDBRANCH   6  24
BRANCH   8  26
ATOM     26  O   UNL     1     203.361 205.610 280.332  1.00  0.00    -0.508 OA
ATOM     27  H   UNL     1     203.936 204.886 280.743  1.00  0.00     0.293 HD
ENDBRANCH   8  26
TORSDOF 6
ENDMDL
MODEL 5
REMARK VINA RESULT:    -6.927      1.360      3.198
REMARK INTER + INTRA:          -8.394
REMARK INTER:                  -8.254
REMARK INTRA:                  -0.140
REMARK UNBOUND:                -0.049
REMARK SMILES O=c1c(O)c(-c2ccc(O)c(O)c2)oc2cc(O)cc(O)c12
REMARK SMILES IDX 5 1 3 2 2 3 1 4 22 5 20 6 19 7 17 8 16 9 15 10 14 11 6 12
REMARK SMILES IDX 7 13 8 14 9 15 13 16 11 17 10 18 12 20 4 22 21 24 18 26
REMARK H PARENT 10 19 12 21 4 23 21 25 18 27
REMARK Flexibility Score: inf
ROOT
ATOM      1  C   UNL     1     202.632 207.141 277.350  1.00  0.00     0.180 A 
ATOM      2  C   UNL     1     202.358 206.757 278.674  1.00  0.00     0.208 A 
ATOM      3  C   UNL     1     202.769 207.593 279.725  1.00  0.00     0.238 A 
ATOM      4  O   UNL     1     202.473 207.270 280.905  1.00  0.00    -0.285 OA
ATOM      5  C   UNL     1     203.461 208.794 279.439  1.00  0.00     0.111 A 
ATOM      6  C   UNL     1     203.959 209.698 280.427  1.00  0.00     0.134 A 
ATOM      7  C   UNL     1     204.512 210.921 280.028  1.00  0.00     0.093 A 
ATOM      8  C   UNL     1     204.646 211.244 278.676  1.00  0.00     0.123 A 
ATOM      9  C   UNL     1     204.219 210.342 277.704  1.00  0.00     0.094 A 
ATOM     10  C   UNL     1     203.628 209.131 278.071  1.00  0.00     0.146 A 
ATOM     11  O   UNL     1     203.224 208.306 277.112  1.00  0.00    -0.452 OA
ENDROOT
BRANCH   1  12
ATOM     12  C   UNL     1     202.254 206.301 276.191  1.00  0.00     0.025 A 
ATOM     13  C   UNL     1     200.897 206.075 275.914  1.00  0.00     0.016 A 
ATOM     14  C   UNL     1     200.517 205.303 274.813  1.00  0.00     0.051 A 
ATOM     15  C   UNL     1     201.485 204.757 273.965  1.00  0.00     0.157 A 
ATOM     16  C   UNL     1     203.226 205.768 275.325  1.00  0.00     0.062 A 
ATOM     17  C   UNL     1     202.847 204.994 274.217  1.00  0.00     0.158 A 
BRANCH  15  18
ATOM     18  O   UNL     1     201.077 203.990 272.876  1.00  0.00    -0.504 OA
ATOM     19  H   UNL     1     200.360 203.279 272.956  1.00  0.00     0.293 HD
ENDBRANCH  15  18
BRANCH  17  20
ATOM     20  O   UNL     1     203.817 204.465 273.368  1.00  0.00    -0.504 OA
ATOM     21  H   UNL     1     204.049 203.479 273.375  1.00  0.00     0.293 HD
ENDBRANCH  17  20
ENDBRANCH   1  12
BRANCH   2  22
ATOM     22  O   UNL     1     201.655 205.577 278.932  1.00  0.00    -0.502 OA
ATOM     23  H   UNL     1     201.808 204.726 278.406  1.00  0.00     0.293 HD
ENDBRANCH   2  22
BRANCH   6  24
ATOM     24  O   UNL     1     203.957 209.431 281.799  1.00  0.00    -0.507 OA
ATOM     25  H   UNL     1     204.461 208.677 282.239  1.00  0.00     0.293 HD
ENDBRANCH   6  24
BRANCH   8  26
ATOM     26  O   UNL     1     205.213 212.456 278.288  1.00  0.00    -0.508 OA
ATOM     27  H   UNL     1     206.166 212.511 277.948  1.00  0.00     0.293 HD
ENDBRANCH   8  26
TORSDOF 6
ENDMDL
MODEL 6
REMARK VINA RESULT:    -6.517     10.886     13.358
REMARK INTER + INTRA:          -7.900
REMARK INTER:                  -7.603
REMARK INTRA:                  -0.297
REMARK UNBOUND:                -0.049
REMARK SMILES O=c1c(O)c(-c2ccc(O)c(O)c2)oc2cc(O)cc(O)c12
REMARK SMILES IDX 5 1 3 2 2 3 1 4 22 5 20 6 19 7 17 8 16 9 15 10 14 11 6 12
REMARK SMILES IDX 7 13 8 14 9 15 13 16 11 17 10 18 12 20 4 22 21 24 18 26
REMARK H PARENT 10 19 12 21 4 23 21 25 18 27
REMARK Flexibility Score: inf
ROOT
ATOM      1  C   UNL     1     211.297 204.844 285.273  1.00  0.00     0.180 A 
ATOM      2  C   UNL     1     211.449 204.184 284.041  1.00  0.00     0.208 A 
ATOM      3  C   UNL     1     212.583 203.382 283.833  1.00  0.00     0.238 A 
ATOM      4  O   UNL     1     212.686 202.752 282.749  1.00  0.00    -0.285 OA
ATOM      5  C   UNL     1     213.556 203.261 284.854  1.00  0.00     0.111 A 
ATOM      6  C   UNL     1     214.763 202.507 284.738  1.00  0.00     0.134 A 
ATOM      7  C   UNL     1     215.590 202.350 285.857  1.00  0.00     0.093 A 
ATOM      8  C   UNL     1     215.288 202.975 287.070  1.00  0.00     0.123 A 
ATOM      9  C   UNL     1     214.143 203.762 287.175  1.00  0.00     0.094 A 
ATOM     10  C   UNL     1     213.279 203.907 286.087  1.00  0.00     0.146 A 
ATOM     11  O   UNL     1     212.194 204.657 286.234  1.00  0.00    -0.452 OA
ENDROOT
BRANCH   1  12
ATOM     12  C   UNL     1     210.142 205.726 285.557  1.00  0.00     0.025 A 
ATOM     13  C   UNL     1     210.134 207.037 285.057  1.00  0.00     0.016 A 
ATOM     14  C   UNL     1     209.046 207.880 285.296  1.00  0.00     0.051 A 
ATOM     15  C   UNL     1     207.943 207.422 286.025  1.00  0.00     0.157 A 
ATOM     16  C   UNL     1     209.024 205.261 286.273  1.00  0.00     0.062 A 
ATOM     17  C   UNL     1     207.929 206.104 286.513  1.00  0.00     0.158 A 
BRANCH  15  18
ATOM     18  O   UNL     1     206.873 208.285 286.250  1.00  0.00    -0.504 OA
ATOM     19  H   UNL     1     206.934 209.279 286.064  1.00  0.00     0.293 HD
ENDBRANCH  15  18
BRANCH  17  20
ATOM     20  O   UNL     1     206.828 205.636 287.228  1.00  0.00    -0.504 OA
ATOM     21  H   UNL     1     206.901 205.374 288.204  1.00  0.00     0.293 HD
ENDBRANCH  17  20
ENDBRANCH   1  12
BRANCH   2  22
ATOM     22  O   UNL     1     210.465 204.300 283.055  1.00  0.00    -0.502 OA
ATOM     23  H   UNL     1     209.698 203.645 282.973  1.00  0.00     0.293 HD
ENDBRANCH   2  22
BRANCH   6  24
ATOM     24  O   UNL     1     215.204 201.920 283.548  1.00  0.00    -0.507 OA
ATOM     25  H   UNL     1     215.598 202.424 282.770  1.00  0.00     0.293 HD
ENDBRANCH   6  24
BRANCH   8  26
ATOM     26  O   UNL     1     216.125 202.827 288.173  1.00  0.00    -0.508 OA
ATOM     27  H   UNL     1     215.789 202.975 289.117  1.00  0.00     0.293 HD
ENDBRANCH   8  26
TORSDOF 6
ENDMDL
MODEL 7
REMARK VINA RESULT:    -6.420      2.592      7.336
REMARK INTER + INTRA:          -7.783
REMARK INTER:                  -7.586
REMARK INTRA:                  -0.197
REMARK UNBOUND:                -0.049
REMARK SMILES O=c1c(O)c(-c2ccc(O)c(O)c2)oc2cc(O)cc(O)c12
REMARK SMILES IDX 5 1 3 2 2 3 1 4 22 5 20 6 19 7 17 8 16 9 15 10 14 11 6 12
REMARK SMILES IDX 7 13 8 14 9 15 13 16 11 17 10 18 12 20 4 22 21 24 18 26
REMARK H PARENT 10 19 12 21 4 23 21 25 18 27
REMARK Flexibility Score: inf
ROOT
ATOM      1  C   UNL     1     201.438 208.248 275.844  1.00  0.00     0.180 A 
ATOM      2  C   UNL     1     201.530 206.928 275.367  1.00  0.00     0.208 A 
ATOM      3  C   UNL     1     200.532 206.443 274.507  1.00  0.00     0.238 A 
ATOM      4  O   UNL     1     200.649 205.280 274.041  1.00  0.00    -0.285 OA
ATOM      5  C   UNL     1     199.447 207.278 274.146  1.00  0.00     0.111 A 
ATOM      6  C   UNL     1     198.359 206.877 273.313  1.00  0.00     0.134 A 
ATOM      7  C   UNL     1     197.408 207.826 272.915  1.00  0.00     0.093 A 
ATOM      8  C   UNL     1     197.470 209.144 273.374  1.00  0.00     0.123 A 
ATOM      9  C   UNL     1     198.494 209.529 274.236  1.00  0.00     0.094 A 
ATOM     10  C   UNL     1     199.479 208.615 274.620  1.00  0.00     0.146 A 
ATOM     11  O   UNL     1     200.444 209.026 275.434  1.00  0.00    -0.452 OA
ENDROOT
BRANCH   1  12
ATOM     12  C   UNL     1     202.437 208.822 276.773  1.00  0.00     0.025 A 
ATOM     13  C   UNL     1     202.080 209.065 278.108  1.00  0.00     0.016 A 
ATOM     14  C   UNL     1     203.014 209.588 279.007  1.00  0.00     0.051 A 
ATOM     15  C   UNL     1     204.320 209.861 278.591  1.00  0.00     0.157 A 
ATOM     16  C   UNL     1     203.757 209.078 276.361  1.00  0.00     0.062 A 
ATOM     17  C   UNL     1     204.697 209.600 277.262  1.00  0.00     0.158 A 
BRANCH  15  18
ATOM     18  O   UNL     1     205.229 210.383 279.509  1.00  0.00    -0.504 OA
ATOM     19  H   UNL     1     204.953 211.047 280.223  1.00  0.00     0.293 HD
ENDBRANCH  15  18
BRANCH  17  20
ATOM     20  O   UNL     1     206.002 209.857 276.844  1.00  0.00    -0.504 OA
ATOM     21  H   UNL     1     206.205 210.181 275.906  1.00  0.00     0.293 HD
ENDBRANCH  17  20
ENDBRANCH   1  12
BRANCH   2  22
ATOM     22  O   UNL     1     202.621 206.129 275.719  1.00  0.00    -0.502 OA
ATOM     23  H   UNL     1     202.822 205.873 276.678  1.00  0.00     0.293 HD
ENDBRANCH   2  22
BRANCH   6  24
ATOM     24  O   UNL     1     198.153 205.566 272.875  1.00  0.00    -0.507 OA
ATOM     25  H   UNL     1     198.806 205.037 272.318  1.00  0.00     0.293 HD
ENDBRANCH   6  24
BRANCH   8  26
ATOM     26  O   UNL     1     196.511 210.077 272.987  1.00  0.00    -0.508 OA
ATOM     27  H   UNL     1     196.281 210.874 273.568  1.00  0.00     0.293 HD
ENDBRANCH   8  26
TORSDOF 6
ENDMDL
MODEL 8
REMARK VINA RESULT:    -6.182      3.152      4.226
REMARK INTER + INTRA:          -7.496
REMARK INTER:                  -7.372
REMARK INTRA:                  -0.124
REMARK UNBOUND:                -0.049
REMARK SMILES O=c1c(O)c(-c2ccc(O)c(O)c2)oc2cc(O)cc(O)c12
REMARK SMILES IDX 5 1 3 2 2 3 1 4 22 5 20 6 19 7 17 8 16 9 15 10 14 11 6 12
REMARK SMILES IDX 7 13 8 14 9 15 13 16 11 17 10 18 12 20 4 22 21 24 18 26
REMARK H PARENT 10 19 12 21 4 23 21 25 18 27
REMARK Flexibility Score: inf
ROOT
ATOM      1  C   UNL     1     201.442 208.578 276.389  1.00  0.00     0.180 A 
ATOM      2  C   UNL     1     202.031 209.538 277.230  1.00  0.00     0.208 A 
ATOM      3  C   UNL     1     203.086 209.153 278.071  1.00  0.00     0.238 A 
ATOM      4  O   UNL     1     203.644 210.029 278.782  1.00  0.00    -0.285 OA
ATOM      5  C   UNL     1     203.531 207.808 278.073  1.00  0.00     0.111 A 
ATOM      6  C   UNL     1     204.566 207.298 278.913  1.00  0.00     0.134 A 
ATOM      7  C   UNL     1     205.013 205.982 278.736  1.00  0.00     0.093 A 
ATOM      8  C   UNL     1     204.417 205.139 277.795  1.00  0.00     0.123 A 
ATOM      9  C   UNL     1     203.366 205.611 277.012  1.00  0.00     0.094 A 
ATOM     10  C   UNL     1     202.923 206.929 277.139  1.00  0.00     0.146 A 
ATOM     11  O   UNL     1     201.926 207.341 276.365  1.00  0.00    -0.452 OA
ENDROOT
BRANCH   1  12
ATOM     12  C   UNL     1     200.310 208.902 275.493  1.00  0.00     0.025 A 
ATOM     13  C   UNL     1     200.421 208.647 274.118  1.00  0.00     0.016 A 
ATOM     14  C   UNL     1     199.356 208.926 273.257  1.00  0.00     0.051 A 
ATOM     15  C   UNL     1     198.160 209.450 273.758  1.00  0.00     0.157 A 
ATOM     16  C   UNL     1     199.099 209.410 275.998  1.00  0.00     0.062 A 
ATOM     17  C   UNL     1     198.028 209.689 275.136  1.00  0.00     0.158 A 
BRANCH  15  18
ATOM     18  O   UNL     1     197.116 209.720 272.876  1.00  0.00    -0.504 OA
ATOM     19  H   UNL     1     196.453 209.009 272.592  1.00  0.00     0.293 HD
ENDBRANCH  15  18
BRANCH  17  20
ATOM     20  O   UNL     1     196.834 210.198 275.645  1.00  0.00    -0.504 OA
ATOM     21  H   UNL     1     196.770 211.143 276.005  1.00  0.00     0.293 HD
ENDBRANCH  17  20
ENDBRANCH   1  12
BRANCH   2  22
ATOM     22  O   UNL     1     201.591 210.865 277.197  1.00  0.00    -0.502 OA
ATOM     23  H   UNL     1     202.205 211.635 276.964  1.00  0.00     0.293 HD
ENDBRANCH   2  22
BRANCH   6  24
ATOM     24  O   UNL     1     205.164 208.027 279.945  1.00  0.00    -0.507 OA
ATOM     25  H   UNL     1     204.678 208.672 280.549  1.00  0.00     0.293 HD
ENDBRANCH   6  24
BRANCH   8  26
ATOM     26  O   UNL     1     204.857 203.827 277.638  1.00  0.00    -0.508 OA
ATOM     27  H   UNL     1     204.250 203.038 277.823  1.00  0.00     0.293 HD
ENDBRANCH   8  26
TORSDOF 6
ENDMDL
MODEL 9
REMARK VINA RESULT:    -6.110      1.627      7.086
REMARK INTER + INTRA:          -7.410
REMARK INTER:                  -7.088
REMARK INTRA:                  -0.321
REMARK UNBOUND:                -0.049
REMARK SMILES O=c1c(O)c(-c2ccc(O)c(O)c2)oc2cc(O)cc(O)c12
REMARK SMILES IDX 5 1 3 2 2 3 1 4 22 5 20 6 19 7 17 8 16 9 15 10 14 11 6 12
REMARK SMILES IDX 7 13 8 14 9 15 13 16 11 17 10 18 12 20 4 22 21 24 18 26
REMARK H PARENT 10 19 12 21 4 23 21 25 18 27
REMARK Flexibility Score: inf
ROOT
ATOM      1  C   UNL     1     202.637 208.568 276.745  1.00  0.00     0.180 A 
ATOM      2  C   UNL     1     201.330 208.852 276.312  1.00  0.00     0.208 A 
ATOM      3  C   UNL     1     200.776 208.089 275.271  1.00  0.00     0.238 A 
ATOM      4  O   UNL     1     199.587 208.313 274.925  1.00  0.00    -0.285 OA
ATOM      5  C   UNL     1     201.541 207.063 274.666  1.00  0.00     0.111 A 
ATOM      6  C   UNL     1     201.095 206.254 273.577  1.00  0.00     0.134 A 
ATOM      7  C   UNL     1     201.885 205.181 273.145  1.00  0.00     0.093 A 
ATOM      8  C   UNL     1     203.134 204.929 273.719  1.00  0.00     0.123 A 
ATOM      9  C   UNL     1     203.604 205.750 274.741  1.00  0.00     0.094 A 
ATOM     10  C   UNL     1     202.822 206.805 275.219  1.00  0.00     0.146 A 
ATOM     11  O   UNL     1     203.303 207.555 276.203  1.00  0.00    -0.452 OA
ENDROOT
BRANCH   1  12
ATOM     12  C   UNL     1     203.298 209.344 277.819  1.00  0.00     0.025 A 
ATOM     13  C   UNL     1     204.059 210.475 277.487  1.00  0.00     0.016 A 
ATOM     14  C   UNL     1     204.674 211.233 278.486  1.00  0.00     0.051 A 
ATOM     15  C   UNL     1     204.526 210.883 279.832  1.00  0.00     0.157 A 
ATOM     16  C   UNL     1     203.133 209.005 279.174  1.00  0.00     0.062 A 
ATOM     17  C   UNL     1     203.747 209.766 280.180  1.00  0.00     0.158 A 
BRANCH  15  18
ATOM     18  O   UNL     1     205.152 211.656 280.807  1.00  0.00    -0.504 OA
ATOM     19  H   UNL     1     204.985 211.516 281.796  1.00  0.00     0.293 HD
ENDBRANCH  15  18
BRANCH  17  20
ATOM     20  O   UNL     1     203.584 209.419 281.520  1.00  0.00    -0.504 OA
ATOM     21  H   UNL     1     203.697 208.464 281.839  1.00  0.00     0.293 HD
ENDBRANCH  17  20
ENDBRANCH   1  12
BRANCH   2  22
ATOM     22  O   UNL     1     200.585 209.855 276.937  1.00  0.00    -0.502 OA
ATOM     23  H   UNL     1     200.510 210.792 276.561  1.00  0.00     0.293 HD
ENDBRANCH   2  22
BRANCH   6  24
ATOM     24  O   UNL     1     199.907 206.477 272.875  1.00  0.00    -0.507 OA
ATOM     25  H   UNL     1     199.136 205.830 272.830  1.00  0.00     0.293 HD
ENDBRANCH   6  24
BRANCH   8  26
ATOM     26  O   UNL     1     203.920 203.870 273.271  1.00  0.00    -0.508 OA
ATOM     27  H   UNL     1     204.930 203.938 273.233  1.00  0.00     0.293 HD
ENDBRANCH   8  26
TORSDOF 6
ENDMDL
