MODEL 1
REMARK VINA RESULT:    -3.813      0.000      0.000
REMARK INTER + INTRA:          -7.183
REMARK INTER:                  -6.487
REMARK INTRA:                  -0.696
REMARK UNBOUND:                -0.696
REMARK SMILES CCCCCCCCCCCCCC(=O)[O-]
REMARK SMILES IDX 8 1 9 2 10 3 11 4 12 5 13 6 14 7 15 8 16 9 7 10 6 11 5 12
REMARK SMILES IDX 4 13 3 14 2 15 1 16
REMARK H PARENT
REMARK Flexibility Score: inf
ROOT
ATOM      1  C   UNL     1     112.947  54.209 231.698  1.00  0.00     0.000 C 
ENDROOT
BRANCH   1   2
ATOM      2  C   UNL     1     112.775  53.045 232.686  1.00  0.00     0.000 C 
BRANCH   2   3
ATOM      3  C   UNL     1     111.868  53.400 233.877  1.00  0.00     0.000 C 
BRANCH   3   4
ATOM      4  C   UNL     1     110.381  53.063 233.640  1.00  0.00     0.000 C 
BRANCH   4   5
ATOM      5  C   UNL     1     110.198  51.888 232.664  1.00  0.00     0.006 C 
BRANCH   5   6
ATOM      6  C   UNL     1     108.726  51.486 232.506  1.00  0.00     0.053 C 
BRANCH   6   7
ATOM      7  C   UNL     1     108.581  50.055 232.089  1.00  0.00     0.041 C 
ATOM      8  O   UNL     1     109.430  49.199 232.453  1.00  0.00    -0.550 OA
ATOM      9  O   UNL     1     107.527  49.672 231.268  1.00  0.00    -0.550 OA
ENDBRANCH   6   7
ENDBRANCH   5   6
ENDBRANCH   4   5
ENDBRANCH   3   4
ENDBRANCH   2   3
ENDBRANCH   1   2
BRANCH   1  10
ATOM     10  C   UNL     1     112.311  53.921 230.329  1.00  0.00     0.000 C 
BRANCH  10  11
ATOM     11  C   UNL     1     113.223  54.323 229.157  1.00  0.00    -0.000 C 
BRANCH  11  12
ATOM     12  C   UNL     1     112.987  53.464 227.905  1.00  0.00    -0.000 C 
BRANCH  12  13
ATOM     13  C   UNL     1     112.482  54.292 226.710  1.00  0.00    -0.000 C 
BRANCH  13  14
ATOM     14  C   UNL     1     110.978  54.104 226.456  1.00  0.00    -0.000 C 
BRANCH  14  15
ATOM     15  C   UNL     1     110.692  53.334 225.158  1.00  0.00    -0.003 C 
ATOM     16  C   UNL     1     109.519  52.373 225.337  1.00  0.00     0.004 C 
ENDBRANCH  14  15
ENDBRANCH  13  14
ENDBRANCH  12  13
ENDBRANCH  11  12
ENDBRANCH  10  11
ENDBRANCH   1  10
TORSDOF 12
ENDMDL
MODEL 2
REMARK VINA RESULT:    -3.760      2.846      6.507
REMARK INTER + INTRA:          -7.093
REMARK INTER:                  -6.193
REMARK INTRA:                  -0.899
REMARK UNBOUND:                -0.696
REMARK SMILES CCCCCCCCCCCCCC(=O)[O-]
REMARK SMILES IDX 8 1 9 2 10 3 11 4 12 5 13 6 14 7 15 8 16 9 7 10 6 11 5 12
REMARK SMILES IDX 4 13 3 14 2 15 1 16
REMARK H PARENT
REMARK Flexibility Score: inf
ROOT
ATOM      1  C   UNL     1     113.932  55.353 229.601  1.00  0.00     0.000 C 
ENDROOT
BRANCH   1   2
ATOM      2  C   UNL     1     113.712  55.078 228.106  1.00  0.00     0.000 C 
BRANCH   2   3
ATOM      3  C   UNL     1     113.115  53.686 227.836  1.00  0.00     0.000 C 
BRANCH   3   4
ATOM      4  C   UNL     1     113.399  53.160 226.412  1.00  0.00     0.000 C 
BRANCH   4   5
ATOM      5  C   UNL     1     112.367  53.665 225.389  1.00  0.00     0.006 C 
BRANCH   5   6
ATOM      6  C   UNL     1     110.935  53.627 225.939  1.00  0.00     0.053 C 
BRANCH   6   7
ATOM      7  C   UNL     1     110.027  52.809 225.074  1.00  0.00     0.041 C 
ATOM      8  O   UNL     1     109.825  53.140 223.876  1.00  0.00    -0.550 OA
ATOM      9  O   UNL     1     109.375  51.701 225.601  1.00  0.00    -0.550 OA
ENDBRANCH   6   7
ENDBRANCH   5   6
ENDBRANCH   4   5
ENDBRANCH   3   4
ENDBRANCH   2   3
ENDBRANCH   1   2
BRANCH   1  10
ATOM     10  C   UNL     1     112.937  54.595 230.495  1.00  0.00     0.000 C 
BRANCH  10  11
ATOM     11  C   UNL     1     113.557  54.169 231.837  1.00  0.00    -0.000 C 
BRANCH  11  12
ATOM     12  C   UNL     1     112.976  52.845 232.360  1.00  0.00    -0.000 C 
BRANCH  12  13
ATOM     13  C   UNL     1     111.835  53.061 233.370  1.00  0.00    -0.000 C 
BRANCH  13  14
ATOM     14  C   UNL     1     110.479  52.567 232.842  1.00  0.00    -0.000 C 
BRANCH  14  15
ATOM     15  C   UNL     1     109.441  53.694 232.737  1.00  0.00    -0.003 C 
ATOM     16  C   UNL     1     110.069  55.050 233.049  1.00  0.00     0.004 C 
ENDBRANCH  14  15
ENDBRANCH  13  14
ENDBRANCH  12  13
ENDBRANCH  11  12
ENDBRANCH  10  11
ENDBRANCH   1  10
TORSDOF 12
ENDMDL
MODEL 3
REMARK VINA RESULT:    -3.755      2.625      6.462
REMARK INTER + INTRA:          -7.085
REMARK INTER:                  -6.104
REMARK INTRA:                  -0.981
REMARK UNBOUND:                -0.696
REMARK SMILES CCCCCCCCCCCCCC(=O)[O-]
REMARK SMILES IDX 8 1 9 2 10 3 11 4 12 5 13 6 14 7 15 8 16 9 7 10 6 11 5 12
REMARK SMILES IDX 4 13 3 14 2 15 1 16
REMARK H PARENT
REMARK Flexibility Score: inf
ROOT
ATOM      1  C   UNL     1     112.699  53.463 230.909  1.00  0.00     0.000 C 
ENDROOT
BRANCH   1   2
ATOM      2  C   UNL     1     112.439  54.519 229.824  1.00  0.00     0.000 C 
BRANCH   2   3
ATOM      3  C   UNL     1     113.438  54.436 228.656  1.00  0.00     0.000 C 
BRANCH   3   4
ATOM      4  C   UNL     1     112.952  53.545 227.493  1.00  0.00     0.000 C 
BRANCH   4   5
ATOM      5  C   UNL     1     111.764  54.169 226.739  1.00  0.00     0.006 C 
BRANCH   5   6
ATOM      6  C   UNL     1     111.419  53.398 225.459  1.00  0.00     0.053 C 
BRANCH   6   7
ATOM      7  C   UNL     1     109.956  53.086 225.374  1.00  0.00     0.041 C 
ATOM      8  O   UNL     1     109.123  54.006 225.160  1.00  0.00    -0.550 OA
ATOM      9  O   UNL     1     109.509  51.784 225.565  1.00  0.00    -0.550 OA
ENDBRANCH   6   7
ENDBRANCH   5   6
ENDBRANCH   4   5
ENDBRANCH   3   4
ENDBRANCH   2   3
ENDBRANCH   1   2
BRANCH   1  10
ATOM     10  C   UNL     1     113.551  54.005 232.068  1.00  0.00     0.000 C 
BRANCH  10  11
ATOM     11  C   UNL     1     113.563  53.062 233.283  1.00  0.00    -0.000 C 
BRANCH  11  12
ATOM     12  C   UNL     1     112.885  53.681 234.516  1.00  0.00    -0.000 C 
BRANCH  12  13
ATOM     13  C   UNL     1     111.398  53.298 234.624  1.00  0.00    -0.000 C 
BRANCH  13  14
ATOM     14  C   UNL     1     110.489  54.229 233.806  1.00  0.00    -0.000 C 
BRANCH  14  15
ATOM     15  C   UNL     1     109.414  53.462 233.021  1.00  0.00    -0.003 C 
ATOM     16  C   UNL     1     109.874  52.042 232.704  1.00  0.00     0.004 C 
ENDBRANCH  14  15
ENDBRANCH  13  14
ENDBRANCH  12  13
ENDBRANCH  11  12
ENDBRANCH  10  11
ENDBRANCH   1  10
TORSDOF 12
ENDMDL
MODEL 4
REMARK VINA RESULT:    -3.697      1.490      2.149
REMARK INTER + INTRA:          -6.986
REMARK INTER:                  -6.222
REMARK INTRA:                  -0.764
REMARK UNBOUND:                -0.696
REMARK SMILES CCCCCCCCCCCCCC(=O)[O-]
REMARK SMILES IDX 8 1 9 2 10 3 11 4 12 5 13 6 14 7 15 8 16 9 7 10 6 11 5 12
REMARK SMILES IDX 4 13 3 14 2 15 1 16
REMARK H PARENT
REMARK Flexibility Score: inf
ROOT
ATOM      1  C   UNL     1     112.720  55.020 230.269  1.00  0.00     0.000 C 
ENDROOT
BRANCH   1   2
ATOM      2  C   UNL     1     113.612  54.949 231.519  1.00  0.00     0.000 C 
BRANCH   2   3
ATOM      3  C   UNL     1     113.556  53.579 232.216  1.00  0.00     0.000 C 
BRANCH   3   4
ATOM      4  C   UNL     1     112.808  53.605 233.566  1.00  0.00     0.000 C 
BRANCH   4   5
ATOM      5  C   UNL     1     111.306  53.892 233.394  1.00  0.00     0.006 C 
BRANCH   5   6
ATOM      6  C   UNL     1     110.596  52.804 232.578  1.00  0.00     0.053 C 
BRANCH   6   7
ATOM      7  C   UNL     1     109.398  52.262 233.296  1.00  0.00     0.041 C 
ATOM      8  O   UNL     1     108.667  51.398 232.745  1.00  0.00    -0.550 OA
ATOM      9  O   UNL     1     109.070  52.737 234.559  1.00  0.00    -0.550 OA
ENDBRANCH   6   7
ENDBRANCH   5   6
ENDBRANCH   4   5
ENDBRANCH   3   4
ENDBRANCH   2   3
ENDBRANCH   1   2
BRANCH   1  10
ATOM     10  C   UNL     1     112.973  53.858 229.296  1.00  0.00     0.000 C 
BRANCH  10  11
ATOM     11  C   UNL     1     113.285  54.341 227.869  1.00  0.00    -0.000 C 
BRANCH  11  12
ATOM     12  C   UNL     1     113.311  53.191 226.850  1.00  0.00    -0.000 C 
BRANCH  12  13
ATOM     13  C   UNL     1     112.429  53.473 225.621  1.00  0.00    -0.000 C 
BRANCH  13  14
ATOM     14  C   UNL     1     110.968  53.764 225.998  1.00  0.00    -0.000 C 
BRANCH  14  15
ATOM     15  C   UNL     1     109.997  53.513 224.835  1.00  0.00    -0.003 C 
ATOM     16  C   UNL     1     109.365  52.128 224.937  1.00  0.00     0.004 C 
ENDBRANCH  14  15
ENDBRANCH  13  14
ENDBRANCH  12  13
ENDBRANCH  11  12
ENDBRANCH  10  11
ENDBRANCH   1  10
TORSDOF 12
ENDMDL
MODEL 5
REMARK VINA RESULT:    -3.671      2.140      3.960
REMARK INTER + INTRA:          -6.943
REMARK INTER:                  -6.144
REMARK INTRA:                  -0.799
REMARK UNBOUND:                -0.696
REMARK SMILES CCCCCCCCCCCCCC(=O)[O-]
REMARK SMILES IDX 8 1 9 2 10 3 11 4 12 5 13 6 14 7 15 8 16 9 7 10 6 11 5 12
REMARK SMILES IDX 4 13 3 14 2 15 1 16
REMARK H PARENT
REMARK Flexibility Score: inf
ROOT
ATOM      1  C   UNL     1     110.623  53.312 234.654  1.00  0.00     0.000 C 
ENDROOT
BRANCH   1   2
ATOM      2  C   UNL     1     109.641  53.214 233.475  1.00  0.00     0.000 C 
BRANCH   2   3
ATOM      3  C   UNL     1     109.792  51.907 232.679  1.00  0.00     0.000 C 
BRANCH   3   4
ATOM      4  C   UNL     1     108.456  51.166 232.453  1.00  0.00     0.000 C 
BRANCH   4   5
ATOM      5  C   UNL     1     108.666  49.688 232.079  1.00  0.00     0.006 C 
BRANCH   5   6
ATOM      6  C   UNL     1     107.473  49.108 231.309  1.00  0.00     0.053 C 
BRANCH   6   7
ATOM      7  C   UNL     1     106.193  49.250 232.074  1.00  0.00     0.041 C 
ATOM      8  O   UNL     1     105.257  49.956 231.617  1.00  0.00    -0.550 OA
ATOM      9  O   UNL     1     106.049  48.630 233.309  1.00  0.00    -0.550 OA
ENDBRANCH   6   7
ENDBRANCH   5   6
ENDBRANCH   4   5
ENDBRANCH   3   4
ENDBRANCH   2   3
ENDBRANCH   1   2
BRANCH   1  10
ATOM     10  C   UNL     1     111.902  54.084 234.295  1.00  0.00     0.000 C 
BRANCH  10  11
ATOM     11  C   UNL     1     113.130  53.166 234.169  1.00  0.00    -0.000 C 
BRANCH  11  12
ATOM     12  C   UNL     1     113.865  53.345 232.832  1.00  0.00    -0.000 C 
BRANCH  12  13
ATOM     13  C   UNL     1     112.929  53.192 231.620  1.00  0.00    -0.000 C 
BRANCH  13  14
ATOM     14  C   UNL     1     113.016  54.384 230.654  1.00  0.00    -0.000 C 
BRANCH  14  15
ATOM     15  C   UNL     1     112.933  53.956 229.181  1.00  0.00    -0.003 C 
ATOM     16  C   UNL     1     112.289  55.044 228.328  1.00  0.00     0.004 C 
ENDBRANCH  14  15
ENDBRANCH  13  14
ENDBRANCH  12  13
ENDBRANCH  11  12
ENDBRANCH  10  11
ENDBRANCH   1  10
TORSDOF 12
ENDMDL
MODEL 6
REMARK VINA RESULT:    -3.662      1.723      3.046
REMARK INTER + INTRA:          -6.926
REMARK INTER:                  -5.840
REMARK INTRA:                  -1.086
REMARK UNBOUND:                -0.696
REMARK SMILES CCCCCCCCCCCCCC(=O)[O-]
REMARK SMILES IDX 8 1 9 2 10 3 11 4 12 5 13 6 14 7 15 8 16 9 7 10 6 11 5 12
REMARK SMILES IDX 4 13 3 14 2 15 1 16
REMARK H PARENT
REMARK Flexibility Score: inf
ROOT
ATOM      1  C   UNL     1     113.295  54.780 228.065  1.00  0.00     0.000 C 
ENDROOT
BRANCH   1   2
ATOM      2  C   UNL     1     112.948  54.948 229.553  1.00  0.00     0.000 C 
BRANCH   2   3
ATOM      3  C   UNL     1     112.690  53.607 230.261  1.00  0.00     0.000 C 
BRANCH   3   4
ATOM      4  C   UNL     1     112.366  53.756 231.763  1.00  0.00     0.000 C 
BRANCH   4   5
ATOM      5  C   UNL     1     111.271  52.778 232.222  1.00  0.00     0.006 C 
BRANCH   5   6
ATOM      6  C   UNL     1     110.043  53.503 232.789  1.00  0.00     0.053 C 
BRANCH   6   7
ATOM      7  C   UNL     1     108.983  52.542 233.230  1.00  0.00     0.041 C 
ATOM      8  O   UNL     1     108.105  52.903 234.056  1.00  0.00    -0.550 OA
ATOM      9  O   UNL     1     108.985  51.237 232.754  1.00  0.00    -0.550 OA
ENDBRANCH   6   7
ENDBRANCH   5   6
ENDBRANCH   4   5
ENDBRANCH   3   4
ENDBRANCH   2   3
ENDBRANCH   1   2
BRANCH   1  10
ATOM     10  C   UNL     1     113.380  53.306 227.640  1.00  0.00     0.000 C 
BRANCH  10  11
ATOM     11  C   UNL     1     113.334  53.128 226.113  1.00  0.00    -0.000 C 
BRANCH  11  12
ATOM     12  C   UNL     1     112.225  53.964 225.455  1.00  0.00    -0.000 C 
BRANCH  12  13
ATOM     13  C   UNL     1     110.818  53.418 225.758  1.00  0.00    -0.000 C 
BRANCH  13  14
ATOM     14  C   UNL     1     109.721  54.475 225.563  1.00  0.00    -0.000 C 
BRANCH  14  15
ATOM     15  C   UNL     1     110.141  55.861 226.075  1.00  0.00    -0.003 C 
ATOM     16  C   UNL     1     109.841  56.011 227.564  1.00  0.00     0.004 C 
ENDBRANCH  14  15
ENDBRANCH  13  14
ENDBRANCH  12  13
ENDBRANCH  11  12
ENDBRANCH  10  11
ENDBRANCH   1  10
TORSDOF 12
ENDMDL
MODEL 7
REMARK VINA RESULT:    -3.510     18.528     20.414
REMARK INTER + INTRA:          -6.667
REMARK INTER:                  -4.867
REMARK INTRA:                  -1.801
REMARK UNBOUND:                -0.696
REMARK SMILES CCCCCCCCCCCCCC(=O)[O-]
REMARK SMILES IDX 8 1 9 2 10 3 11 4 12 5 13 6 14 7 15 8 16 9 7 10 6 11 5 12
REMARK SMILES IDX 4 13 3 14 2 15 1 16
REMARK H PARENT
REMARK Flexibility Score: inf
ROOT
ATOM      1  C   UNL     1      94.314  65.934 224.885  1.00  0.00     0.000 C 
ENDROOT
BRANCH   1   2
ATOM      2  C   UNL     1      94.738  65.656 223.434  1.00  0.00     0.000 C 
BRANCH   2   3
ATOM      3  C   UNL     1      96.180  65.134 223.322  1.00  0.00     0.000 C 
BRANCH   3   4
ATOM      4  C   UNL     1      96.553  64.114 224.419  1.00  0.00     0.000 C 
BRANCH   4   5
ATOM      5  C   UNL     1      98.075  64.000 224.615  1.00  0.00     0.006 C 
BRANCH   5   6
ATOM      6  C   UNL     1      98.789  65.343 224.418  1.00  0.00     0.053 C 
BRANCH   6   7
ATOM      7  C   UNL     1     100.159  65.166 223.838  1.00  0.00     0.041 C 
ATOM      8  O   UNL     1     100.439  64.131 223.179  1.00  0.00    -0.550 OA
ATOM      9  O   UNL     1     101.136  66.130 224.054  1.00  0.00    -0.550 OA
ENDBRANCH   6   7
ENDBRANCH   5   6
ENDBRANCH   4   5
ENDBRANCH   3   4
ENDBRANCH   2   3
ENDBRANCH   1   2
BRANCH   1  10
ATOM     10  C   UNL     1      94.230  67.436 225.198  1.00  0.00     0.000 C 
BRANCH  10  11
ATOM     11  C   UNL     1      94.964  67.810 226.497  1.00  0.00    -0.000 C 
BRANCH  11  12
ATOM     12  C   UNL     1      96.307  67.077 226.646  1.00  0.00    -0.000 C 
BRANCH  12  13
ATOM     13  C   UNL     1      96.450  66.383 228.012  1.00  0.00    -0.000 C 
BRANCH  13  14
ATOM     14  C   UNL     1      96.090  64.890 227.956  1.00  0.00    -0.000 C 
BRANCH  14  15
ATOM     15  C   UNL     1      97.285  63.982 228.284  1.00  0.00    -0.003 C 
ATOM     16  C   UNL     1      97.029  62.550 227.823  1.00  0.00     0.004 C 
ENDBRANCH  14  15
ENDBRANCH  13  14
ENDBRANCH  12  13
ENDBRANCH  11  12
ENDBRANCH  10  11
ENDBRANCH   1  10
TORSDOF 12
ENDMDL
MODEL 8
REMARK VINA RESULT:    -3.425     16.966     18.784
REMARK INTER + INTRA:          -6.523
REMARK INTER:                  -4.670
REMARK INTRA:                  -1.852
REMARK UNBOUND:                -0.696
REMARK SMILES CCCCCCCCCCCCCC(=O)[O-]
REMARK SMILES IDX 8 1 9 2 10 3 11 4 12 5 13 6 14 7 15 8 16 9 7 10 6 11 5 12
REMARK SMILES IDX 4 13 3 14 2 15 1 16
REMARK H PARENT
REMARK Flexibility Score: inf
ROOT
ATOM      1  C   UNL     1      95.310  66.379 225.880  1.00  0.00     0.000 C 
ENDROOT
BRANCH   1   2
ATOM      2  C   UNL     1      95.161  64.994 225.231  1.00  0.00     0.000 C 
BRANCH   2   3
ATOM      3  C   UNL     1      96.177  64.750 224.103  1.00  0.00     0.000 C 
BRANCH   3   4
ATOM      4  C   UNL     1      97.317  63.787 224.498  1.00  0.00     0.000 C 
BRANCH   4   5
ATOM      5  C   UNL     1      98.622  64.533 224.827  1.00  0.00     0.006 C 
BRANCH   5   6
ATOM      6  C   UNL     1      99.815  63.580 224.976  1.00  0.00     0.053 C 
BRANCH   6   7
ATOM      7  C   UNL     1     100.921  63.920 224.025  1.00  0.00     0.041 C 
ATOM      8  O   UNL     1     102.041  63.354 224.127  1.00  0.00    -0.550 OA
ATOM      9  O   UNL     1     100.725  64.886 223.046  1.00  0.00    -0.550 OA
ENDBRANCH   6   7
ENDBRANCH   5   6
ENDBRANCH   4   5
ENDBRANCH   3   4
ENDBRANCH   2   3
ENDBRANCH   1   2
BRANCH   1  10
ATOM     10  C   UNL     1      96.138  66.338 227.174  1.00  0.00     0.000 C 
BRANCH  10  11
ATOM     11  C   UNL     1      96.110  64.956 227.850  1.00  0.00    -0.000 C 
BRANCH  11  12
ATOM     12  C   UNL     1      97.507  64.482 228.280  1.00  0.00    -0.000 C 
BRANCH  12  13
ATOM     13  C   UNL     1      97.526  62.999 228.690  1.00  0.00    -0.000 C 
BRANCH  13  14
ATOM     14  C   UNL     1      96.844  62.093 227.653  1.00  0.00    -0.000 C 
BRANCH  14  15
ATOM     15  C   UNL     1      97.839  61.173 226.929  1.00  0.00    -0.003 C 
ATOM     16  C   UNL     1      99.011  60.809 227.836  1.00  0.00     0.004 C 
ENDBRANCH  14  15
ENDBRANCH  13  14
ENDBRANCH  12  13
ENDBRANCH  11  12
ENDBRANCH  10  11
ENDBRANCH   1  10
TORSDOF 12
ENDMDL
MODEL 9
REMARK VINA RESULT:    -3.419      2.416      2.854
REMARK INTER + INTRA:          -6.513
REMARK INTER:                  -5.524
REMARK INTRA:                  -0.989
REMARK UNBOUND:                -0.696
REMARK SMILES CCCCCCCCCCCCCC(=O)[O-]
REMARK SMILES IDX 8 1 9 2 10 3 11 4 12 5 13 6 14 7 15 8 16 9 7 10 6 11 5 12
REMARK SMILES IDX 4 13 3 14 2 15 1 16
REMARK H PARENT
REMARK Flexibility Score: inf
ROOT
ATOM      1  C   UNL     1     112.707  53.847 230.236  1.00  0.00     0.000 C 
ENDROOT
BRANCH   1   2
ATOM      2  C   UNL     1     113.332  53.969 231.635  1.00  0.00     0.000 C 
BRANCH   2   3
ATOM      3  C   UNL     1     112.990  52.780 232.549  1.00  0.00     0.000 C 
BRANCH   3   4
ATOM      4  C   UNL     1     111.735  53.012 233.417  1.00  0.00     0.000 C 
BRANCH   4   5
ATOM      5  C   UNL     1     110.463  52.440 232.767  1.00  0.00     0.006 C 
BRANCH   5   6
ATOM      6  C   UNL     1     109.231  53.315 233.031  1.00  0.00     0.053 C 
BRANCH   6   7
ATOM      7  C   UNL     1     109.500  54.759 232.739  1.00  0.00     0.041 C 
ATOM      8  O   UNL     1     109.720  55.137 231.559  1.00  0.00    -0.550 OA
ATOM      9  O   UNL     1     109.541  55.683 233.776  1.00  0.00    -0.550 OA
ENDBRANCH   6   7
ENDBRANCH   5   6
ENDBRANCH   4   5
ENDBRANCH   3   4
ENDBRANCH   2   3
ENDBRANCH   1   2
BRANCH   1  10
ATOM     10  C   UNL     1     112.940  55.098 229.374  1.00  0.00     0.000 C 
BRANCH  10  11
ATOM     11  C   UNL     1     113.531  54.761 227.994  1.00  0.00    -0.000 C 
BRANCH  11  12
ATOM     12  C   UNL     1     113.097  53.376 227.489  1.00  0.00    -0.000 C 
BRANCH  12  13
ATOM     13  C   UNL     1     112.979  53.318 225.956  1.00  0.00    -0.000 C 
BRANCH  13  14
ATOM     14  C   UNL     1     112.023  54.384 225.398  1.00  0.00    -0.000 C 
BRANCH  14  15
ATOM     15  C   UNL     1     110.567  54.153 225.829  1.00  0.00    -0.003 C 
ATOM     16  C   UNL     1     110.041  52.823 225.297  1.00  0.00     0.004 C 
ENDBRANCH  14  15
ENDBRANCH  13  14
ENDBRANCH  12  13
ENDBRANCH  11  12
ENDBRANCH  10  11
ENDBRANCH   1  10
TORSDOF 12
ENDMDL
