MODEL 1
REMARK VINA RESULT:     0.000      0.000      0.000
REMARK INTER + INTRA:          -0.318
REMARK INTER:                   0.000
REMARK INTRA:                  -0.318
REMARK UNBOUND:                -0.318
REMARK SMILES O=c1cc(-c2ccc(O)c(O)c2)oc2cc(O)cc(O)c12
REMARK SMILES IDX 4 1 3 2 2 3 1 4 21 5 19 6 18 7 16 8 15 9 14 10 13 11 5 12
REMARK SMILES IDX 6 13 7 14 8 15 12 16 10 17 9 18 11 20 20 22 17 24
REMARK H PARENT 9 19 11 21 20 23 17 25
REMARK Flexibility Score: inf
ROOT
ATOM      1  C   UNL     1    -102.937  68.675  13.891  1.00  0.00     0.138 A 
ATOM      2  C   UNL     1    -102.322  67.826  12.961  1.00  0.00     0.100 A 
ATOM      3  C   UNL     1    -103.066  66.814  12.353  1.00  0.00     0.197 A 
ATOM      4  O   UNL     1    -102.503  66.108  11.477  1.00  0.00    -0.289 OA
ATOM      5  C   UNL     1    -104.425  66.634  12.702  1.00  0.00     0.107 A 
ATOM      6  C   UNL     1    -105.270  65.610  12.177  1.00  0.00     0.134 A 
ATOM      7  C   UNL     1    -106.630  65.601  12.509  1.00  0.00     0.093 A 
ATOM      8  C   UNL     1    -107.164  66.539  13.392  1.00  0.00     0.123 A 
ATOM      9  C   UNL     1    -106.335  67.512  13.954  1.00  0.00     0.094 A 
ATOM     10  C   UNL     1    -104.981  67.568  13.616  1.00  0.00     0.146 A 
ATOM     11  O   UNL     1    -104.229  68.520  14.160  1.00  0.00    -0.456 OA
ENDROOT
BRANCH   1  12
ATOM     12  C   UNL     1    -102.192  69.766  14.568  1.00  0.00     0.021 A 
ATOM     13  C   UNL     1    -100.820  69.983  14.334  1.00  0.00     0.016 A 
ATOM     14  C   UNL     1    -100.142  71.011  14.994  1.00  0.00     0.051 A 
ATOM     15  C   UNL     1    -100.818  71.836  15.903  1.00  0.00     0.157 A 
ATOM     16  C   UNL     1    -102.859  70.591  15.493  1.00  0.00     0.062 A 
ATOM     17  C   UNL     1    -102.183  71.622  16.154  1.00  0.00     0.158 A 
BRANCH  15  18
ATOM     18  O   UNL     1    -100.138  72.862  16.557  1.00  0.00    -0.504 OA
ATOM     19  H   UNL     1     -99.149  73.021  16.410  1.00  0.00     0.293 HD
ENDBRANCH  15  18
BRANCH  17  20
ATOM     20  O   UNL     1    -102.884  72.423  17.055  1.00  0.00    -0.504 OA
ATOM     21  H   UNL     1    -103.517  73.150  16.748  1.00  0.00     0.293 HD
ENDBRANCH  17  20
ENDBRANCH   1  12
BRANCH   6  22
ATOM     22  O   UNL     1    -104.822  64.573  11.353  1.00  0.00    -0.507 OA
ATOM     23  H   UNL     1    -104.606  64.669  10.372  1.00  0.00     0.293 HD
ENDBRANCH   6  22
BRANCH   8  24
ATOM     24  O   UNL     1    -108.519  66.490  13.711  1.00  0.00    -0.508 OA
ATOM     25  H   UNL     1    -108.834  66.280  14.650  1.00  0.00     0.293 HD
ENDBRANCH   8  24
TORSDOF 5
ENDMDL
MODEL 2
REMARK VINA RESULT:     0.000      3.689      7.589
REMARK INTER + INTRA:          -0.318
REMARK INTER:                   0.000
REMARK INTRA:                  -0.318
REMARK UNBOUND:                -0.318
REMARK SMILES O=c1cc(-c2ccc(O)c(O)c2)oc2cc(O)cc(O)c12
REMARK SMILES IDX 4 1 3 2 2 3 1 4 21 5 19 6 18 7 16 8 15 9 14 10 13 11 5 12
REMARK SMILES IDX 6 13 7 14 8 15 12 16 10 17 9 18 11 20 20 22 17 24
REMARK H PARENT 9 19 11 21 20 23 17 25
REMARK Flexibility Score: inf
ROOT
ATOM      1  C   UNL     1    -101.074  67.135  14.957  1.00  0.00     0.138 A 
ATOM      2  C   UNL     1    -100.806  67.705  13.705  1.00  0.00     0.100 A 
ATOM      3  C   UNL     1     -99.690  68.527  13.546  1.00  0.00     0.197 A 
ATOM      4  O   UNL     1     -99.440  68.974  12.396  1.00  0.00    -0.289 OA
ATOM      5  C   UNL     1     -98.856  68.804  14.656  1.00  0.00     0.107 A 
ATOM      6  C   UNL     1     -97.715  69.660  14.621  1.00  0.00     0.134 A 
ATOM      7  C   UNL     1     -96.898  69.767  15.753  1.00  0.00     0.093 A 
ATOM      8  C   UNL     1     -97.213  69.097  16.935  1.00  0.00     0.123 A 
ATOM      9  C   UNL     1     -98.357  68.300  16.997  1.00  0.00     0.094 A 
ATOM     10  C   UNL     1     -99.173  68.146  15.874  1.00  0.00     0.146 A 
ATOM     11  O   UNL     1    -100.245  67.366  15.969  1.00  0.00    -0.456 OA
ENDROOT
BRANCH   1  12
ATOM     12  C   UNL     1    -102.248  66.254  15.181  1.00  0.00     0.021 A 
ATOM     13  C   UNL     1    -103.170  65.973  14.155  1.00  0.00     0.016 A 
ATOM     14  C   UNL     1    -104.272  65.149  14.398  1.00  0.00     0.051 A 
ATOM     15  C   UNL     1    -104.478  64.597  15.669  1.00  0.00     0.157 A 
ATOM     16  C   UNL     1    -102.470  65.707  16.459  1.00  0.00     0.062 A 
ATOM     17  C   UNL     1    -103.572  64.880  16.704  1.00  0.00     0.158 A 
BRANCH  15  18
ATOM     18  O   UNL     1    -105.577  63.774  15.907  1.00  0.00    -0.504 OA
ATOM     19  H   UNL     1    -105.505  62.948  16.488  1.00  0.00     0.293 HD
ENDBRANCH  15  18
BRANCH  17  20
ATOM     20  O   UNL     1    -103.749  64.350  17.982  1.00  0.00    -0.504 OA
ATOM     21  H   UNL     1    -104.315  64.813  18.682  1.00  0.00     0.293 HD
ENDBRANCH  17  20
ENDBRANCH   1  12
BRANCH   6  22
ATOM     22  O   UNL     1     -97.356  70.440  13.518  1.00  0.00    -0.507 OA
ATOM     23  H   UNL     1     -98.003  70.804  12.834  1.00  0.00     0.293 HD
ENDBRANCH   6  22
BRANCH   8  24
ATOM     24  O   UNL     1     -96.385  69.239  18.047  1.00  0.00    -0.508 OA
ATOM     25  H   UNL     1     -96.738  69.118  18.989  1.00  0.00     0.293 HD
ENDBRANCH   8  24
TORSDOF 5
ENDMDL
MODEL 3
REMARK VINA RESULT:     0.000      4.355      7.915
REMARK INTER + INTRA:          -0.318
REMARK INTER:                   0.000
REMARK INTRA:                  -0.318
REMARK UNBOUND:                -0.318
REMARK SMILES O=c1cc(-c2ccc(O)c(O)c2)oc2cc(O)cc(O)c12
REMARK SMILES IDX 4 1 3 2 2 3 1 4 21 5 19 6 18 7 16 8 15 9 14 10 13 11 5 12
REMARK SMILES IDX 6 13 7 14 8 15 12 16 10 17 9 18 11 20 20 22 17 24
REMARK H PARENT 9 19 11 21 20 23 17 25
REMARK Flexibility Score: inf
ROOT
ATOM      1  C   UNL     1    -101.548  65.605  11.234  1.00  0.00     0.138 A 
ATOM      2  C   UNL     1    -100.322  65.051  11.627  1.00  0.00     0.100 A 
ATOM      3  C   UNL     1     -99.175  65.845  11.627  1.00  0.00     0.197 A 
ATOM      4  O   UNL     1     -98.101  65.338  12.044  1.00  0.00    -0.289 OA
ATOM      5  C   UNL     1     -99.252  67.193  11.200  1.00  0.00     0.107 A 
ATOM      6  C   UNL     1     -98.140  68.084  11.120  1.00  0.00     0.134 A 
ATOM      7  C   UNL     1     -98.356  69.429  10.795  1.00  0.00     0.093 A 
ATOM      8  C   UNL     1     -99.633  69.900  10.489  1.00  0.00     0.123 A 
ATOM      9  C   UNL     1    -100.719  69.025  10.511  1.00  0.00     0.094 A 
ATOM     10  C   UNL     1    -100.541  67.686  10.866  1.00  0.00     0.146 A 
ATOM     11  O   UNL     1    -101.604  66.887  10.891  1.00  0.00    -0.456 OA
ENDROOT
BRANCH   1  12
ATOM     12  C   UNL     1    -102.799  64.805  11.214  1.00  0.00     0.021 A 
ATOM     13  C   UNL     1    -102.810  63.440  11.559  1.00  0.00     0.016 A 
ATOM     14  C   UNL     1    -104.001  62.709  11.521  1.00  0.00     0.051 A 
ATOM     15  C   UNL     1    -105.197  63.324  11.132  1.00  0.00     0.157 A 
ATOM     16  C   UNL     1    -104.003  65.411  10.812  1.00  0.00     0.062 A 
ATOM     17  C   UNL     1    -105.196  64.682  10.774  1.00  0.00     0.158 A 
BRANCH  15  18
ATOM     18  O   UNL     1    -106.383  62.592  11.098  1.00  0.00    -0.504 OA
ATOM     19  H   UNL     1    -106.453  61.676  11.524  1.00  0.00     0.293 HD
ENDBRANCH  15  18
BRANCH  17  20
ATOM     20  O   UNL     1    -106.370  65.323  10.379  1.00  0.00    -0.504 OA
ATOM     21  H   UNL     1    -107.059  64.870   9.792  1.00  0.00     0.293 HD
ENDBRANCH  17  20
ENDBRANCH   1  12
BRANCH   6  22
ATOM     22  O   UNL     1     -96.812  67.698  11.324  1.00  0.00    -0.507 OA
ATOM     23  H   UNL     1     -96.016  68.102  10.853  1.00  0.00     0.293 HD
ENDBRANCH   6  22
BRANCH   8  24
ATOM     24  O   UNL     1     -99.808  71.242  10.155  1.00  0.00    -0.508 OA
ATOM     25  H   UNL     1    -100.696  71.591   9.816  1.00  0.00     0.293 HD
ENDBRANCH   8  24
TORSDOF 5
ENDMDL
MODEL 4
REMARK VINA RESULT:     0.000      7.791     10.471
REMARK INTER + INTRA:          -0.318
REMARK INTER:                   0.000
REMARK INTRA:                  -0.318
REMARK UNBOUND:                -0.318
REMARK SMILES O=c1cc(-c2ccc(O)c(O)c2)oc2cc(O)cc(O)c12
REMARK SMILES IDX 4 1 3 2 2 3 1 4 21 5 19 6 18 7 16 8 15 9 14 10 13 11 5 12
REMARK SMILES IDX 6 13 7 14 8 15 12 16 10 17 9 18 11 20 20 22 17 24
REMARK H PARENT 9 19 11 21 20 23 17 25
REMARK Flexibility Score: inf
ROOT
ATOM      1  C   UNL     1     -95.461  66.751   9.600  1.00  0.00     0.138 A 
ATOM      2  C   UNL     1     -94.719  67.638   8.810  1.00  0.00     0.100 A 
ATOM      3  C   UNL     1     -95.149  68.957   8.662  1.00  0.00     0.197 A 
ATOM      4  O   UNL     1     -94.428  69.746   7.997  1.00  0.00    -0.289 OA
ATOM      5  C   UNL     1     -96.347  69.380   9.285  1.00  0.00     0.107 A 
ATOM      6  C   UNL     1     -96.904  70.689   9.170  1.00  0.00     0.134 A 
ATOM      7  C   UNL     1     -98.034  71.027   9.926  1.00  0.00     0.093 A 
ATOM      8  C   UNL     1     -98.661  70.087  10.744  1.00  0.00     0.123 A 
ATOM      9  C   UNL     1     -98.157  68.788  10.821  1.00  0.00     0.094 A 
ATOM     10  C   UNL     1     -97.011  68.431  10.106  1.00  0.00     0.146 A 
ATOM     11  O   UNL     1     -96.553  67.188  10.219  1.00  0.00    -0.456 OA
ENDROOT
BRANCH   1  12
ATOM     12  C   UNL     1     -95.050  65.337   9.790  1.00  0.00     0.021 A 
ATOM     13  C   UNL     1     -93.908  64.807   9.159  1.00  0.00     0.016 A 
ATOM     14  C   UNL     1     -93.550  63.470   9.348  1.00  0.00     0.051 A 
ATOM     15  C   UNL     1     -94.328  62.637  10.162  1.00  0.00     0.157 A 
ATOM     16  C   UNL     1     -95.832  64.490  10.596  1.00  0.00     0.062 A 
ATOM     17  C   UNL     1     -95.476  63.150  10.787  1.00  0.00     0.158 A 
BRANCH  15  18
ATOM     18  O   UNL     1     -93.966  61.304  10.349  1.00  0.00    -0.504 OA
ATOM     19  H   UNL     1     -93.724  60.705   9.568  1.00  0.00     0.293 HD
ENDBRANCH  15  18
BRANCH  17  20
ATOM     20  O   UNL     1     -96.273  62.346  11.601  1.00  0.00    -0.504 OA
ATOM     21  H   UNL     1     -97.259  62.531  11.739  1.00  0.00     0.293 HD
ENDBRANCH  17  20
ENDBRANCH   1  12
BRANCH   6  22
ATOM     22  O   UNL     1     -96.406  71.679   8.318  1.00  0.00    -0.507 OA
ATOM     23  H   UNL     1     -95.444  71.754   8.022  1.00  0.00     0.293 HD
ENDBRANCH   6  22
BRANCH   8  24
ATOM     24  O   UNL     1     -99.792  70.454  11.470  1.00  0.00    -0.508 OA
ATOM     25  H   UNL     1    -100.716  70.441  11.054  1.00  0.00     0.293 HD
ENDBRANCH   8  24
TORSDOF 5
ENDMDL
MODEL 5
REMARK VINA RESULT:     0.000      6.131      8.536
REMARK INTER + INTRA:          -0.318
REMARK INTER:                   0.000
REMARK INTRA:                  -0.318
REMARK UNBOUND:                -0.318
REMARK SMILES O=c1cc(-c2ccc(O)c(O)c2)oc2cc(O)cc(O)c12
REMARK SMILES IDX 4 1 3 2 2 3 1 4 21 5 19 6 18 7 16 8 15 9 14 10 13 11 5 12
REMARK SMILES IDX 6 13 7 14 8 15 12 16 10 17 9 18 11 20 20 22 17 24
REMARK H PARENT 9 19 11 21 20 23 17 25
REMARK Flexibility Score: inf
ROOT
ATOM      1  C   UNL     1     -99.801  66.536  18.684  1.00  0.00     0.138 A 
ATOM      2  C   UNL     1    -101.183  66.365  18.840  1.00  0.00     0.100 A 
ATOM      3  C   UNL     1    -102.032  67.467  18.725  1.00  0.00     0.197 A 
ATOM      4  O   UNL     1    -103.273  67.271  18.807  1.00  0.00    -0.289 OA
ATOM      5  C   UNL     1    -101.489  68.751  18.484  1.00  0.00     0.107 A 
ATOM      6  C   UNL     1    -102.255  69.952  18.389  1.00  0.00     0.134 A 
ATOM      7  C   UNL     1    -101.620  71.148  18.032  1.00  0.00     0.093 A 
ATOM      8  C   UNL     1    -100.242  71.199  17.826  1.00  0.00     0.123 A 
ATOM      9  C   UNL     1     -99.476  70.042  17.970  1.00  0.00     0.094 A 
ATOM     10  C   UNL     1    -100.084  68.826  18.291  1.00  0.00     0.146 A 
ATOM     11  O   UNL     1     -99.322  67.743  18.404  1.00  0.00    -0.456 OA
ENDROOT
BRANCH   1  12
ATOM     12  C   UNL     1     -98.853  65.399  18.797  1.00  0.00     0.021 A 
ATOM     13  C   UNL     1     -99.293  64.096  19.099  1.00  0.00     0.016 A 
ATOM     14  C   UNL     1     -98.376  63.047  19.210  1.00  0.00     0.051 A 
ATOM     15  C   UNL     1     -97.007  63.280  19.030  1.00  0.00     0.157 A 
ATOM     16  C   UNL     1     -97.475  65.627  18.631  1.00  0.00     0.062 A 
ATOM     17  C   UNL     1     -96.555  64.578  18.741  1.00  0.00     0.158 A 
BRANCH  15  18
ATOM     18  O   UNL     1     -96.097  62.230  19.139  1.00  0.00    -0.504 OA
ATOM     19  H   UNL     1     -95.105  62.371  18.992  1.00  0.00     0.293 HD
ENDBRANCH  15  18
BRANCH  17  20
ATOM     20  O   UNL     1     -95.198  64.845  18.559  1.00  0.00    -0.504 OA
ATOM     21  H   UNL     1     -94.794  65.747  18.775  1.00  0.00     0.293 HD
ENDBRANCH  17  20
ENDBRANCH   1  12
BRANCH   6  22
ATOM     22  O   UNL     1    -103.625  70.029  18.656  1.00  0.00    -0.507 OA
ATOM     23  H   UNL     1    -104.035  70.554  19.415  1.00  0.00     0.293 HD
ENDBRANCH   6  22
BRANCH   8  24
ATOM     24  O   UNL     1     -99.642  72.410  17.487  1.00  0.00    -0.508 OA
ATOM     25  H   UNL     1     -99.854  72.881  16.615  1.00  0.00     0.293 HD
ENDBRANCH   8  24
TORSDOF 5
ENDMDL
MODEL 6
REMARK VINA RESULT:     0.000      6.438      8.397
REMARK INTER + INTRA:          -0.318
REMARK INTER:                   0.000
REMARK INTRA:                  -0.318
REMARK UNBOUND:                -0.318
REMARK SMILES O=c1cc(-c2ccc(O)c(O)c2)oc2cc(O)cc(O)c12
REMARK SMILES IDX 4 1 3 2 2 3 1 4 21 5 19 6 18 7 16 8 15 9 14 10 13 11 5 12
REMARK SMILES IDX 6 13 7 14 8 15 12 16 10 17 9 18 11 20 20 22 17 24
REMARK H PARENT 9 19 11 21 20 23 17 25
REMARK Flexibility Score: inf
ROOT
ATOM      1  C   UNL     1     -97.792  67.996  11.306  1.00  0.00     0.138 A 
ATOM      2  C   UNL     1     -97.018  69.163  11.352  1.00  0.00     0.100 A 
ATOM      3  C   UNL     1     -96.863  69.935  10.199  1.00  0.00     0.197 A 
ATOM      4  O   UNL     1     -96.215  71.010  10.287  1.00  0.00    -0.289 OA
ATOM      5  C   UNL     1     -97.463  69.516   8.987  1.00  0.00     0.107 A 
ATOM      6  C   UNL     1     -97.339  70.201   7.741  1.00  0.00     0.134 A 
ATOM      7  C   UNL     1     -98.072  69.757   6.634  1.00  0.00     0.093 A 
ATOM      8  C   UNL     1     -98.875  68.619   6.711  1.00  0.00     0.123 A 
ATOM      9  C   UNL     1     -98.961  67.910   7.910  1.00  0.00     0.094 A 
ATOM     10  C   UNL     1     -98.269  68.348   9.042  1.00  0.00     0.146 A 
ATOM     11  O   UNL     1     -98.389  67.654  10.169  1.00  0.00    -0.456 OA
ENDROOT
BRANCH   1  12
ATOM     12  C   UNL     1     -97.987  67.138  12.502  1.00  0.00     0.021 A 
ATOM     13  C   UNL     1     -97.378  67.437  13.736  1.00  0.00     0.016 A 
ATOM     14  C   UNL     1     -97.572  66.606  14.842  1.00  0.00     0.051 A 
ATOM     15  C   UNL     1     -98.369  65.459  14.735  1.00  0.00     0.157 A 
ATOM     16  C   UNL     1     -98.775  65.977  12.400  1.00  0.00     0.062 A 
ATOM     17  C   UNL     1     -98.971  65.143  13.507  1.00  0.00     0.158 A 
BRANCH  15  18
ATOM     18  O   UNL     1     -98.561  64.633  15.842  1.00  0.00    -0.504 OA
ATOM     19  H   UNL     1     -97.832  64.491  16.530  1.00  0.00     0.293 HD
ENDBRANCH  15  18
BRANCH  17  20
ATOM     20  O   UNL     1     -99.768  64.007  13.366  1.00  0.00    -0.504 OA
ATOM     21  H   UNL     1    -100.222  63.567  14.157  1.00  0.00     0.293 HD
ENDBRANCH  17  20
ENDBRANCH   1  12
BRANCH   6  22
ATOM     22  O   UNL     1     -96.499  71.299   7.532  1.00  0.00    -0.507 OA
ATOM     23  H   UNL     1     -95.638  71.274   7.006  1.00  0.00     0.293 HD
ENDBRANCH   6  22
BRANCH   8  24
ATOM     24  O   UNL     1     -99.579  68.197   5.585  1.00  0.00    -0.508 OA
ATOM     25  H   UNL     1    -100.522  68.515   5.400  1.00  0.00     0.293 HD
ENDBRANCH   8  24
TORSDOF 5
ENDMDL
MODEL 7
REMARK VINA RESULT:     0.000      6.564      9.134
REMARK INTER + INTRA:          -0.318
REMARK INTER:                   0.000
REMARK INTRA:                  -0.318
REMARK UNBOUND:                -0.318
REMARK SMILES O=c1cc(-c2ccc(O)c(O)c2)oc2cc(O)cc(O)c12
REMARK SMILES IDX 4 1 3 2 2 3 1 4 21 5 19 6 18 7 16 8 15 9 14 10 13 11 5 12
REMARK SMILES IDX 6 13 7 14 8 15 12 16 10 17 9 18 11 20 20 22 17 24
REMARK H PARENT 9 19 11 21 20 23 17 25
REMARK Flexibility Score: inf
ROOT
ATOM      1  C   UNL     1    -103.758  72.281  19.027  1.00  0.00     0.138 A 
ATOM      2  C   UNL     1    -105.018  72.855  19.237  1.00  0.00     0.100 A 
ATOM      3  C   UNL     1    -105.241  74.184  18.871  1.00  0.00     0.197 A 
ATOM      4  O   UNL     1    -106.401  74.652  19.013  1.00  0.00    -0.289 OA
ATOM      5  C   UNL     1    -104.185  74.949  18.322  1.00  0.00     0.107 A 
ATOM      6  C   UNL     1    -104.285  76.323  17.951  1.00  0.00     0.134 A 
ATOM      7  C   UNL     1    -103.206  76.944  17.309  1.00  0.00     0.093 A 
ATOM      8  C   UNL     1    -102.012  76.261  17.080  1.00  0.00     0.123 A 
ATOM      9  C   UNL     1    -101.884  74.933  17.489  1.00  0.00     0.094 A 
ATOM     10  C   UNL     1    -102.954  74.274  18.100  1.00  0.00     0.146 A 
ATOM     11  O   UNL     1    -102.798  73.004  18.460  1.00  0.00    -0.456 OA
ENDROOT
BRANCH   1  12
ATOM     12  C   UNL     1    -103.466  70.873  19.399  1.00  0.00     0.021 A 
ATOM     13  C   UNL     1    -104.434  70.053  20.010  1.00  0.00     0.016 A 
ATOM     14  C   UNL     1    -104.129  68.735  20.358  1.00  0.00     0.051 A 
ATOM     15  C   UNL     1    -102.852  68.215  20.111  1.00  0.00     0.157 A 
ATOM     16  C   UNL     1    -102.183  70.347  19.166  1.00  0.00     0.062 A 
ATOM     17  C   UNL     1    -101.874  69.027  19.513  1.00  0.00     0.158 A 
BRANCH  15  18
ATOM     18  O   UNL     1    -102.552  66.898  20.458  1.00  0.00    -0.504 OA
ATOM     19  H   UNL     1    -101.780  66.675  21.074  1.00  0.00     0.293 HD
ENDBRANCH  15  18
BRANCH  17  20
ATOM     20  O   UNL     1    -100.593  68.540  19.256  1.00  0.00    -0.504 OA
ATOM     21  H   UNL     1     -99.761  69.022  19.574  1.00  0.00     0.293 HD
ENDBRANCH  17  20
ENDBRANCH   1  12
BRANCH   6  22
ATOM     22  O   UNL     1    -105.401  77.123  18.209  1.00  0.00    -0.507 OA
ATOM     23  H   UNL     1    -105.448  77.834  18.924  1.00  0.00     0.293 HD
ENDBRANCH   6  22
BRANCH   8  24
ATOM     24  O   UNL     1    -100.954  76.916  16.453  1.00  0.00    -0.508 OA
ATOM     25  H   UNL     1    -100.917  77.926  16.396  1.00  0.00     0.293 HD
ENDBRANCH   8  24
TORSDOF 5
ENDMDL
MODEL 8
REMARK VINA RESULT:     0.000      8.447     10.877
REMARK INTER + INTRA:          -0.318
REMARK INTER:                   0.000
REMARK INTRA:                  -0.318
REMARK UNBOUND:                -0.318
REMARK SMILES O=c1cc(-c2ccc(O)c(O)c2)oc2cc(O)cc(O)c12
REMARK SMILES IDX 4 1 3 2 2 3 1 4 21 5 19 6 18 7 16 8 15 9 14 10 13 11 5 12
REMARK SMILES IDX 6 13 7 14 8 15 12 16 10 17 9 18 11 20 20 22 17 24
REMARK H PARENT 9 19 11 21 20 23 17 25
REMARK Flexibility Score: inf
ROOT
ATOM      1  C   UNL     1     -96.763  65.777  18.383  1.00  0.00     0.138 A 
ATOM      2  C   UNL     1     -96.996  65.758  17.001  1.00  0.00     0.100 A 
ATOM      3  C   UNL     1     -96.189  66.518  16.154  1.00  0.00     0.197 A 
ATOM      4  O   UNL     1     -96.382  66.431  14.914  1.00  0.00    -0.289 OA
ATOM      5  C   UNL     1     -95.162  67.326  16.699  1.00  0.00     0.107 A 
ATOM      6  C   UNL     1     -94.304  68.173  15.936  1.00  0.00     0.134 A 
ATOM      7  C   UNL     1     -93.248  68.838  16.572  1.00  0.00     0.093 A 
ATOM      8  C   UNL     1     -93.056  68.734  17.950  1.00  0.00     0.123 A 
ATOM      9  C   UNL     1     -93.923  67.951  18.714  1.00  0.00     0.094 A 
ATOM     10  C   UNL     1     -94.964  67.248  18.104  1.00  0.00     0.146 A 
ATOM     11  O   UNL     1     -95.758  66.501  18.864  1.00  0.00    -0.456 OA
ENDROOT
BRANCH   1  12
ATOM     12  C   UNL     1     -97.593  64.989  19.328  1.00  0.00     0.021 A 
ATOM     13  C   UNL     1     -98.678  64.206  18.887  1.00  0.00     0.016 A 
ATOM     14  C   UNL     1     -99.448  63.482  19.801  1.00  0.00     0.051 A 
ATOM     15  C   UNL     1     -99.155  63.533  21.170  1.00  0.00     0.157 A 
ATOM     16  C   UNL     1     -97.315  65.044  20.707  1.00  0.00     0.062 A 
ATOM     17  C   UNL     1     -98.084  64.319  21.624  1.00  0.00     0.158 A 
BRANCH  15  18
ATOM     18  O   UNL     1     -99.925  62.807  22.078  1.00  0.00    -0.504 OA
ATOM     19  H   UNL     1    -100.742  62.286  21.784  1.00  0.00     0.293 HD
ENDBRANCH  15  18
BRANCH  17  20
ATOM     20  O   UNL     1     -97.769  64.394  22.980  1.00  0.00    -0.504 OA
ATOM     21  H   UNL     1     -97.893  65.244  23.515  1.00  0.00     0.293 HD
ENDBRANCH  17  20
ENDBRANCH   1  12
BRANCH   6  22
ATOM     22  O   UNL     1     -94.458  68.414  14.568  1.00  0.00    -0.507 OA
ATOM     23  H   UNL     1     -95.079  67.903  13.959  1.00  0.00     0.293 HD
ENDBRANCH   6  22
BRANCH   8  24
ATOM     24  O   UNL     1     -92.004  69.422  18.551  1.00  0.00    -0.508 OA
ATOM     25  H   UNL     1     -91.047  69.304  18.239  1.00  0.00     0.293 HD
ENDBRANCH   8  24
TORSDOF 5
ENDMDL
MODEL 9
REMARK VINA RESULT:     0.000      7.427      8.911
REMARK INTER + INTRA:          -0.318
REMARK INTER:                   0.000
REMARK INTRA:                  -0.318
REMARK UNBOUND:                -0.318
REMARK SMILES O=c1cc(-c2ccc(O)c(O)c2)oc2cc(O)cc(O)c12
REMARK SMILES IDX 4 1 3 2 2 3 1 4 21 5 19 6 18 7 16 8 15 9 14 10 13 11 5 12
REMARK SMILES IDX 6 13 7 14 8 15 12 16 10 17 9 18 11 20 20 22 17 24
REMARK H PARENT 9 19 11 21 20 23 17 25
REMARK Flexibility Score: inf
ROOT
ATOM      1  C   UNL     1    -103.742  73.152  20.246  1.00  0.00     0.138 A 
ATOM      2  C   UNL     1    -104.483  73.132  21.435  1.00  0.00     0.100 A 
ATOM      3  C   UNL     1    -104.444  72.003  22.254  1.00  0.00     0.197 A 
ATOM      4  O   UNL     1    -105.069  72.039  23.346  1.00  0.00    -0.289 OA
ATOM      5  C   UNL     1    -103.682  70.876  21.862  1.00  0.00     0.107 A 
ATOM      6  C   UNL     1    -103.601  69.656  22.597  1.00  0.00     0.134 A 
ATOM      7  C   UNL     1    -102.723  68.651  22.170  1.00  0.00     0.093 A 
ATOM      8  C   UNL     1    -101.971  68.798  21.005  1.00  0.00     0.123 A 
ATOM      9  C   UNL     1    -102.084  69.965  20.249  1.00  0.00     0.094 A 
ATOM     10  C   UNL     1    -102.924  71.000  20.667  1.00  0.00     0.146 A 
ATOM     11  O   UNL     1    -102.992  72.103  19.928  1.00  0.00    -0.456 OA
ENDROOT
BRANCH   1  12
ATOM     12  C   UNL     1    -103.750  74.327  19.337  1.00  0.00     0.021 A 
ATOM     13  C   UNL     1    -104.527  75.469  19.610  1.00  0.00     0.016 A 
ATOM     14  C   UNL     1    -104.522  76.556  18.732  1.00  0.00     0.051 A 
ATOM     15  C   UNL     1    -103.749  76.520  17.564  1.00  0.00     0.157 A 
ATOM     16  C   UNL     1    -102.987  74.294  18.156  1.00  0.00     0.062 A 
ATOM     17  C   UNL     1    -102.979  75.381  17.275  1.00  0.00     0.158 A 
BRANCH  15  18
ATOM     18  O   UNL     1    -103.746  77.607  16.692  1.00  0.00    -0.504 OA
ATOM     19  H   UNL     1    -103.851  78.556  17.028  1.00  0.00     0.293 HD
ENDBRANCH  15  18
BRANCH  17  20
ATOM     20  O   UNL     1    -102.201  75.312  16.120  1.00  0.00    -0.504 OA
ATOM     21  H   UNL     1    -102.270  74.538  15.471  1.00  0.00     0.293 HD
ENDBRANCH  17  20
ENDBRANCH   1  12
BRANCH   6  22
ATOM     22  O   UNL     1    -104.371  69.371  23.728  1.00  0.00    -0.507 OA
ATOM     23  H   UNL     1    -103.999  69.086  24.622  1.00  0.00     0.293 HD
ENDBRANCH   6  22
BRANCH   8  24
ATOM     24  O   UNL     1    -101.119  67.771  20.603  1.00  0.00    -0.508 OA
ATOM     25  H   UNL     1    -101.474  66.933  20.158  1.00  0.00     0.293 HD
ENDBRANCH   8  24
TORSDOF 5
ENDMDL
