MODEL 1
REMARK VINA RESULT:    -5.336      0.000      0.000
REMARK INTER + INTRA:         -18.296
REMARK INTER:                 -13.448
REMARK INTRA:                  -4.848
REMARK UNBOUND:                -4.848
REMARK SMILES CCCCCCCCCCCCCCCCCCCCCCCCCCCC(=O)[O-]
REMARK SMILES IDX 15 1 16 2 17 3 18 4 19 5 20 6 21 7 22 8 23 9 24 10 25 11
REMARK SMILES IDX 26 12 27 13 28 14 29 15 30 16 14 17 13 18 12 19 11 20 10 21
REMARK SMILES IDX 9 22 8 23 7 24 6 25 5 26 4 27 3 28 2 29 1 30
REMARK H PARENT
REMARK Flexibility Score: inf
ROOT
ATOM      1  C   UNL     1     124.028 177.373 122.197  1.00  0.00     0.000 C 
ENDROOT
BRANCH   1   2
ATOM      2  C   UNL     1     123.698 177.925 120.800  1.00  0.00     0.000 C 
BRANCH   2   3
ATOM      3  C   UNL     1     124.311 177.084 119.662  1.00  0.00     0.000 C 
BRANCH   3   4
ATOM      4  C   UNL     1     125.592 176.332 120.079  1.00  0.00     0.000 C 
BRANCH   4   5
ATOM      5  C   UNL     1     126.882 176.837 119.402  1.00  0.00     0.000 C 
BRANCH   5   6
ATOM      6  C   UNL     1     127.484 178.124 119.991  1.00  0.00     0.000 C 
BRANCH   6   7
ATOM      7  C   UNL     1     128.305 177.874 121.267  1.00  0.00     0.000 C 
BRANCH   7   8
ATOM      8  C   UNL     1     127.545 178.343 122.516  1.00  0.00     0.000 C 
BRANCH   8   9
ATOM      9  C   UNL     1     128.348 178.104 123.813  1.00  0.00     0.000 C 
BRANCH   9  10
ATOM     10  C   UNL     1     128.238 176.667 124.351  1.00  0.00     0.000 C 
BRANCH  10  11
ATOM     11  C   UNL     1     126.826 176.079 124.208  1.00  0.00     0.000 C 
BRANCH  11  12
ATOM     12  C   UNL     1     126.772 174.858 123.274  1.00  0.00     0.006 C 
BRANCH  12  13
ATOM     13  C   UNL     1     128.151 174.403 122.764  1.00  0.00     0.053 C 
BRANCH  13  14
ATOM     14  C   UNL     1     128.094 173.845 121.372  1.00  0.00     0.041 C 
ATOM     15  O   UNL     1     127.168 173.059 121.041  1.00  0.00    -0.550 OA
ATOM     16  O   UNL     1     129.041 174.222 120.429  1.00  0.00    -0.550 OA
ENDBRANCH  13  14
ENDBRANCH  12  13
ENDBRANCH  11  12
ENDBRANCH  10  11
ENDBRANCH   9  10
ENDBRANCH   8   9
ENDBRANCH   7   8
ENDBRANCH   6   7
ENDBRANCH   5   6
ENDBRANCH   4   5
ENDBRANCH   3   4
ENDBRANCH   2   3
ENDBRANCH   1   2
BRANCH   1  17
ATOM     17  C   UNL     1     122.873 177.438 123.211  1.00  0.00     0.000 C 
BRANCH  17  18
ATOM     18  C   UNL     1     123.341 177.313 124.667  1.00  0.00     0.000 C 
BRANCH  18  19
ATOM     19  C   UNL     1     122.815 176.011 125.287  1.00  0.00     0.000 C 
BRANCH  19  20
ATOM     20  C   UNL     1     121.494 175.571 124.644  1.00  0.00     0.000 C 
BRANCH  20  21
ATOM     21  C   UNL     1     120.832 174.464 125.479  1.00  0.00     0.000 C 
BRANCH  21  22
ATOM     22  C   UNL     1     119.992 175.007 126.648  1.00  0.00    -0.000 C 
BRANCH  22  23
ATOM     23  C   UNL     1     120.578 174.746 128.049  1.00  0.00    -0.000 C 
BRANCH  23  24
ATOM     24  C   UNL     1     120.601 175.965 128.991  1.00  0.00    -0.000 C 
BRANCH  24  25
ATOM     25  C   UNL     1     121.703 176.997 128.691  1.00  0.00    -0.000 C 
BRANCH  25  26
ATOM     26  C   UNL     1     121.197 178.455 128.640  1.00  0.00    -0.000 C 
BRANCH  26  27
ATOM     27  C   UNL     1     121.273 179.060 127.227  1.00  0.00    -0.000 C 
BRANCH  27  28
ATOM     28  C   UNL     1     120.062 178.664 126.356  1.00  0.00    -0.000 C 
BRANCH  28  29
ATOM     29  C   UNL     1     120.124 179.224 124.922  1.00  0.00    -0.003 C 
ATOM     30  C   UNL     1     119.306 178.407 123.924  1.00  0.00     0.004 C 
ENDBRANCH  28  29
ENDBRANCH  27  28
ENDBRANCH  26  27
ENDBRANCH  25  26
ENDBRANCH  24  25
ENDBRANCH  23  24
ENDBRANCH  22  23
ENDBRANCH  21  22
ENDBRANCH  20  21
ENDBRANCH  19  20
ENDBRANCH  18  19
ENDBRANCH  17  18
ENDBRANCH   1  17
TORSDOF 26
ENDMDL
MODEL 2
REMARK VINA RESULT:    -5.294      2.174      3.838
REMARK INTER + INTRA:         -18.188
REMARK INTER:                 -13.442
REMARK INTRA:                  -4.746
REMARK UNBOUND:                -4.848
REMARK SMILES CCCCCCCCCCCCCCCCCCCCCCCCCCCC(=O)[O-]
REMARK SMILES IDX 15 1 16 2 17 3 18 4 19 5 20 6 21 7 22 8 23 9 24 10 25 11
REMARK SMILES IDX 26 12 27 13 28 14 29 15 30 16 14 17 13 18 12 19 11 20 10 21
REMARK SMILES IDX 9 22 8 23 7 24 6 25 5 26 4 27 3 28 2 29 1 30
REMARK H PARENT
REMARK Flexibility Score: inf
ROOT
ATOM      1  C   UNL     1     121.874 178.125 124.100  1.00  0.00     0.000 C 
ENDROOT
BRANCH   1   2
ATOM      2  C   UNL     1     122.117 176.607 124.127  1.00  0.00     0.000 C 
BRANCH   2   3
ATOM      3  C   UNL     1     123.614 176.239 124.146  1.00  0.00     0.000 C 
BRANCH   3   4
ATOM      4  C   UNL     1     124.520 177.326 123.532  1.00  0.00     0.000 C 
BRANCH   4   5
ATOM      5  C   UNL     1     125.738 177.710 124.396  1.00  0.00     0.000 C 
BRANCH   5   6
ATOM      6  C   UNL     1     127.003 178.117 123.622  1.00  0.00     0.000 C 
BRANCH   6   7
ATOM      7  C   UNL     1     128.229 177.263 123.983  1.00  0.00     0.000 C 
BRANCH   7   8
ATOM      8  C   UNL     1     127.810 175.948 124.656  1.00  0.00     0.000 C 
BRANCH   8   9
ATOM      9  C   UNL     1     128.067 174.722 123.754  1.00  0.00     0.000 C 
BRANCH   9  10
ATOM     10  C   UNL     1     126.794 174.160 123.098  1.00  0.00     0.000 C 
BRANCH  10  11
ATOM     11  C   UNL     1     126.827 174.230 121.565  1.00  0.00     0.000 C 
BRANCH  11  12
ATOM     12  C   UNL     1     126.315 175.571 121.011  1.00  0.00     0.006 C 
BRANCH  12  13
ATOM     13  C   UNL     1     127.354 176.333 120.168  1.00  0.00     0.053 C 
BRANCH  13  14
ATOM     14  C   UNL     1     126.910 177.727 119.831  1.00  0.00     0.041 C 
ATOM     15  O   UNL     1     127.671 178.498 119.189  1.00  0.00    -0.550 OA
ATOM     16  O   UNL     1     125.641 178.163 120.192  1.00  0.00    -0.550 OA
ENDBRANCH  13  14
ENDBRANCH  12  13
ENDBRANCH  11  12
ENDBRANCH  10  11
ENDBRANCH   9  10
ENDBRANCH   8   9
ENDBRANCH   7   8
ENDBRANCH   6   7
ENDBRANCH   5   6
ENDBRANCH   4   5
ENDBRANCH   3   4
ENDBRANCH   2   3
ENDBRANCH   1   2
BRANCH   1  17
ATOM     17  C   UNL     1     120.416 178.554 124.341  1.00  0.00     0.000 C 
BRANCH  17  18
ATOM     18  C   UNL     1     120.265 179.552 125.497  1.00  0.00     0.000 C 
BRANCH  18  19
ATOM     19  C   UNL     1     121.427 179.401 126.489  1.00  0.00     0.000 C 
BRANCH  19  20
ATOM     20  C   UNL     1     121.060 178.472 127.653  1.00  0.00     0.000 C 
BRANCH  20  21
ATOM     21  C   UNL     1     122.081 177.329 127.772  1.00  0.00     0.000 C 
BRANCH  21  22
ATOM     22  C   UNL     1     121.434 175.934 127.743  1.00  0.00    -0.000 C 
BRANCH  22  23
ATOM     23  C   UNL     1     119.897 175.928 127.626  1.00  0.00    -0.000 C 
BRANCH  23  24
ATOM     24  C   UNL     1     119.344 175.603 126.225  1.00  0.00    -0.000 C 
BRANCH  24  25
ATOM     25  C   UNL     1     118.083 176.389 125.826  1.00  0.00    -0.000 C 
BRANCH  25  26
ATOM     26  C   UNL     1     117.531 177.297 126.947  1.00  0.00    -0.000 C 
BRANCH  26  27
ATOM     27  C   UNL     1     116.226 178.008 126.547  1.00  0.00    -0.000 C 
BRANCH  27  28
ATOM     28  C   UNL     1     116.468 179.145 125.532  1.00  0.00    -0.000 C 
BRANCH  28  29
ATOM     29  C   UNL     1     115.678 178.980 124.221  1.00  0.00    -0.003 C 
ATOM     30  C   UNL     1     116.568 178.674 123.018  1.00  0.00     0.004 C 
ENDBRANCH  28  29
ENDBRANCH  27  28
ENDBRANCH  26  27
ENDBRANCH  25  26
ENDBRANCH  24  25
ENDBRANCH  23  24
ENDBRANCH  22  23
ENDBRANCH  21  22
ENDBRANCH  20  21
ENDBRANCH  19  20
ENDBRANCH  18  19
ENDBRANCH  17  18
ENDBRANCH   1  17
TORSDOF 26
ENDMDL
MODEL 3
REMARK VINA RESULT:    -5.284      2.697      8.481
REMARK INTER + INTRA:         -18.164
REMARK INTER:                 -13.511
REMARK INTRA:                  -4.653
REMARK UNBOUND:                -4.848
REMARK SMILES CCCCCCCCCCCCCCCCCCCCCCCCCCCC(=O)[O-]
REMARK SMILES IDX 15 1 16 2 17 3 18 4 19 5 20 6 21 7 22 8 23 9 24 10 25 11
REMARK SMILES IDX 26 12 27 13 28 14 29 15 30 16 14 17 13 18 12 19 11 20 10 21
REMARK SMILES IDX 9 22 8 23 7 24 6 25 5 26 4 27 3 28 2 29 1 30
REMARK H PARENT
REMARK Flexibility Score: inf
ROOT
ATOM      1  C   UNL     1     123.019 177.953 126.751  1.00  0.00     0.000 C 
ENDROOT
BRANCH   1   2
ATOM      2  C   UNL     1     122.320 179.318 126.874  1.00  0.00     0.000 C 
BRANCH   2   3
ATOM      3  C   UNL     1     120.784 179.206 126.900  1.00  0.00     0.000 C 
BRANCH   3   4
ATOM      4  C   UNL     1     120.092 180.009 125.779  1.00  0.00     0.000 C 
BRANCH   4   5
ATOM      5  C   UNL     1     120.046 179.297 124.412  1.00  0.00     0.000 C 
BRANCH   5   6
ATOM      6  C   UNL     1     118.959 178.219 124.258  1.00  0.00     0.000 C 
BRANCH   6   7
ATOM      7  C   UNL     1     117.561 178.714 124.662  1.00  0.00     0.000 C 
BRANCH   7   8
ATOM      8  C   UNL     1     117.011 177.914 125.851  1.00  0.00     0.000 C 
BRANCH   8   9
ATOM      9  C   UNL     1     117.858 176.659 126.153  1.00  0.00     0.000 C 
BRANCH   9  10
ATOM     10  C   UNL     1     118.452 176.643 127.573  1.00  0.00     0.000 C 
BRANCH  10  11
ATOM     11  C   UNL     1     119.719 175.782 127.684  1.00  0.00     0.000 C 
BRANCH  11  12
ATOM     12  C   UNL     1     120.306 175.394 126.316  1.00  0.00     0.006 C 
BRANCH  12  13
ATOM     13  C   UNL     1     121.030 174.035 126.313  1.00  0.00     0.053 C 
BRANCH  13  14
ATOM     14  C   UNL     1     120.155 172.919 125.821  1.00  0.00     0.041 C 
ATOM     15  O   UNL     1     118.910 173.083 125.727  1.00  0.00    -0.550 OA
ATOM     16  O   UNL     1     120.718 171.711 125.429  1.00  0.00    -0.550 OA
ENDBRANCH  13  14
ENDBRANCH  12  13
ENDBRANCH  11  12
ENDBRANCH  10  11
ENDBRANCH   9  10
ENDBRANCH   8   9
ENDBRANCH   7   8
ENDBRANCH   6   7
ENDBRANCH   5   6
ENDBRANCH   4   5
ENDBRANCH   3   4
ENDBRANCH   2   3
ENDBRANCH   1   2
BRANCH   1  17
ATOM     17  C   UNL     1     123.815 177.745 125.452  1.00  0.00     0.000 C 
BRANCH  17  18
ATOM     18  C   UNL     1     123.423 176.463 124.704  1.00  0.00     0.000 C 
BRANCH  18  19
ATOM     19  C   UNL     1     122.378 176.773 123.624  1.00  0.00     0.000 C 
BRANCH  19  20
ATOM     20  C   UNL     1     122.901 177.794 122.606  1.00  0.00     0.000 C 
BRANCH  20  21
ATOM     21  C   UNL     1     123.971 177.158 121.706  1.00  0.00     0.000 C 
BRANCH  21  22
ATOM     22  C   UNL     1     124.177 177.914 120.383  1.00  0.00    -0.000 C 
BRANCH  22  23
ATOM     23  C   UNL     1     124.620 177.040 119.193  1.00  0.00    -0.000 C 
BRANCH  23  24
ATOM     24  C   UNL     1     125.936 177.468 118.515  1.00  0.00    -0.000 C 
BRANCH  24  25
ATOM     25  C   UNL     1     126.950 178.161 119.443  1.00  0.00    -0.000 C 
BRANCH  25  26
ATOM     26  C   UNL     1     127.841 177.181 120.237  1.00  0.00    -0.000 C 
BRANCH  26  27
ATOM     27  C   UNL     1     128.363 177.785 121.553  1.00  0.00    -0.000 C 
BRANCH  27  28
ATOM     28  C   UNL     1     127.245 178.481 122.359  1.00  0.00    -0.000 C 
BRANCH  28  29
ATOM     29  C   UNL     1     127.101 177.951 123.798  1.00  0.00    -0.003 C 
ATOM     30  C   UNL     1     126.978 176.430 123.868  1.00  0.00     0.004 C 
ENDBRANCH  28  29
ENDBRANCH  27  28
ENDBRANCH  26  27
ENDBRANCH  25  26
ENDBRANCH  24  25
ENDBRANCH  23  24
ENDBRANCH  22  23
ENDBRANCH  21  22
ENDBRANCH  20  21
ENDBRANCH  19  20
ENDBRANCH  18  19
ENDBRANCH  17  18
ENDBRANCH   1  17
TORSDOF 26
ENDMDL
MODEL 4
REMARK VINA RESULT:    -5.244      3.110      8.468
REMARK INTER + INTRA:         -18.063
REMARK INTER:                 -13.604
REMARK INTRA:                  -4.458
REMARK UNBOUND:                -4.848
REMARK SMILES CCCCCCCCCCCCCCCCCCCCCCCCCCCC(=O)[O-]
REMARK SMILES IDX 15 1 16 2 17 3 18 4 19 5 20 6 21 7 22 8 23 9 24 10 25 11
REMARK SMILES IDX 26 12 27 13 28 14 29 15 30 16 14 17 13 18 12 19 11 20 10 21
REMARK SMILES IDX 9 22 8 23 7 24 6 25 5 26 4 27 3 28 2 29 1 30
REMARK H PARENT
REMARK Flexibility Score: inf
ROOT
ATOM      1  C   UNL     1     123.734 177.043 122.403  1.00  0.00     0.000 C 
ENDROOT
BRANCH   1   2
ATOM      2  C   UNL     1     122.998 177.428 123.698  1.00  0.00     0.000 C 
BRANCH   2   3
ATOM      3  C   UNL     1     121.771 176.539 123.978  1.00  0.00     0.000 C 
BRANCH   3   4
ATOM      4  C   UNL     1     121.929 175.655 125.233  1.00  0.00     0.000 C 
BRANCH   4   5
ATOM      5  C   UNL     1     120.601 175.156 125.838  1.00  0.00     0.000 C 
BRANCH   5   6
ATOM      6  C   UNL     1     120.460 175.321 127.361  1.00  0.00     0.000 C 
BRANCH   6   7
ATOM      7  C   UNL     1     121.731 174.923 128.128  1.00  0.00     0.000 C 
BRANCH   7   8
ATOM      8  C   UNL     1     122.145 176.018 129.122  1.00  0.00     0.000 C 
BRANCH   8   9
ATOM      9  C   UNL     1     121.513 177.385 128.782  1.00  0.00     0.000 C 
BRANCH   9  10
ATOM     10  C   UNL     1     122.522 178.415 128.246  1.00  0.00     0.000 C 
BRANCH  10  11
ATOM     11  C   UNL     1     122.068 179.072 126.934  1.00  0.00     0.000 C 
BRANCH  11  12
ATOM     12  C   UNL     1     120.538 179.153 126.797  1.00  0.00     0.006 C 
BRANCH  12  13
ATOM     13  C   UNL     1     120.054 179.409 125.358  1.00  0.00     0.053 C 
BRANCH  13  14
ATOM     14  C   UNL     1     118.646 178.943 125.133  1.00  0.00     0.041 C 
ATOM     15  O   UNL     1     118.415 177.744 124.825  1.00  0.00    -0.550 OA
ATOM     16  O   UNL     1     117.583 179.822 125.302  1.00  0.00    -0.550 OA
ENDBRANCH  13  14
ENDBRANCH  12  13
ENDBRANCH  11  12
ENDBRANCH  10  11
ENDBRANCH   9  10
ENDBRANCH   8   9
ENDBRANCH   7   8
ENDBRANCH   6   7
ENDBRANCH   5   6
ENDBRANCH   4   5
ENDBRANCH   3   4
ENDBRANCH   2   3
ENDBRANCH   1   2
BRANCH   1  17
ATOM     17  C   UNL     1     123.561 178.033 121.239  1.00  0.00     0.000 C 
BRANCH  17  18
ATOM     18  C   UNL     1     123.761 177.385 119.862  1.00  0.00     0.000 C 
BRANCH  18  19
ATOM     19  C   UNL     1     125.022 177.942 119.188  1.00  0.00     0.000 C 
BRANCH  19  20
ATOM     20  C   UNL     1     126.241 177.045 119.438  1.00  0.00     0.000 C 
BRANCH  20  21
ATOM     21  C   UNL     1     127.468 177.895 119.805  1.00  0.00     0.000 C 
BRANCH  21  22
ATOM     22  C   UNL     1     127.916 177.714 121.265  1.00  0.00    -0.000 C 
BRANCH  22  23
ATOM     23  C   UNL     1     127.084 178.492 122.304  1.00  0.00    -0.000 C 
BRANCH  23  24
ATOM     24  C   UNL     1     127.241 178.018 123.761  1.00  0.00    -0.000 C 
BRANCH  24  25
ATOM     25  C   UNL     1     128.175 176.810 123.955  1.00  0.00    -0.000 C 
BRANCH  25  26
ATOM     26  C   UNL     1     127.471 175.562 124.529  1.00  0.00    -0.000 C 
BRANCH  26  27
ATOM     27  C   UNL     1     126.415 174.982 123.572  1.00  0.00    -0.000 C 
BRANCH  27  28
ATOM     28  C   UNL     1     126.936 173.747 122.807  1.00  0.00    -0.000 C 
BRANCH  28  29
ATOM     29  C   UNL     1     126.975 173.938 121.279  1.00  0.00    -0.003 C 
ATOM     30  C   UNL     1     128.385 174.167 120.738  1.00  0.00     0.004 C 
ENDBRANCH  28  29
ENDBRANCH  27  28
ENDBRANCH  26  27
ENDBRANCH  25  26
ENDBRANCH  24  25
ENDBRANCH  23  24
ENDBRANCH  22  23
ENDBRANCH  21  22
ENDBRANCH  20  21
ENDBRANCH  19  20
ENDBRANCH  18  19
ENDBRANCH  17  18
ENDBRANCH   1  17
TORSDOF 26
ENDMDL
MODEL 5
REMARK VINA RESULT:    -5.208      4.122      9.162
REMARK INTER + INTRA:         -17.972
REMARK INTER:                 -13.742
REMARK INTRA:                  -4.230
REMARK UNBOUND:                -4.848
REMARK SMILES CCCCCCCCCCCCCCCCCCCCCCCCCCCC(=O)[O-]
REMARK SMILES IDX 15 1 16 2 17 3 18 4 19 5 20 6 21 7 22 8 23 9 24 10 25 11
REMARK SMILES IDX 26 12 27 13 28 14 29 15 30 16 14 17 13 18 12 19 11 20 10 21
REMARK SMILES IDX 9 22 8 23 7 24 6 25 5 26 4 27 3 28 2 29 1 30
REMARK H PARENT
REMARK Flexibility Score: inf
ROOT
ATOM      1  C   UNL     1     121.009 178.821 126.605  1.00  0.00     0.000 C 
ENDROOT
BRANCH   1   2
ATOM      2  C   UNL     1     122.387 179.290 127.104  1.00  0.00     0.000 C 
BRANCH   2   3
ATOM      3  C   UNL     1     122.919 178.446 128.279  1.00  0.00     0.000 C 
BRANCH   3   4
ATOM      4  C   UNL     1     121.858 177.506 128.888  1.00  0.00     0.000 C 
BRANCH   4   5
ATOM      5  C   UNL     1     122.315 176.043 129.052  1.00  0.00     0.000 C 
BRANCH   5   6
ATOM      6  C   UNL     1     121.307 174.974 128.595  1.00  0.00     0.000 C 
BRANCH   6   7
ATOM      7  C   UNL     1     121.122 174.936 127.070  1.00  0.00     0.000 C 
BRANCH   7   8
ATOM      8  C   UNL     1     119.638 175.028 126.688  1.00  0.00     0.000 C 
BRANCH   8   9
ATOM      9  C   UNL     1     118.748 175.409 127.891  1.00  0.00     0.000 C 
BRANCH   9  10
ATOM     10  C   UNL     1     118.327 176.890 127.902  1.00  0.00     0.000 C 
BRANCH  10  11
ATOM     11  C   UNL     1     117.081 177.166 127.048  1.00  0.00     0.000 C 
BRANCH  11  12
ATOM     12  C   UNL     1     117.417 177.716 125.651  1.00  0.00     0.006 C 
BRANCH  12  13
ATOM     13  C   UNL     1     116.179 178.043 124.797  1.00  0.00     0.053 C 
BRANCH  13  14
ATOM     14  C   UNL     1     115.660 179.429 125.044  1.00  0.00     0.041 C 
ATOM     15  O   UNL     1     115.613 180.266 124.104  1.00  0.00    -0.550 OA
ATOM     16  O   UNL     1     115.193 179.788 126.302  1.00  0.00    -0.550 OA
ENDBRANCH  13  14
ENDBRANCH  12  13
ENDBRANCH  11  12
ENDBRANCH  10  11
ENDBRANCH   9  10
ENDBRANCH   8   9
ENDBRANCH   7   8
ENDBRANCH   6   7
ENDBRANCH   5   6
ENDBRANCH   4   5
ENDBRANCH   3   4
ENDBRANCH   2   3
ENDBRANCH   1   2
BRANCH   1  17
ATOM     17  C   UNL     1     120.433 179.633 125.432  1.00  0.00     0.000 C 
BRANCH  17  18
ATOM     18  C   UNL     1     120.648 178.959 124.070  1.00  0.00     0.000 C 
BRANCH  18  19
ATOM     19  C   UNL     1     120.928 177.462 124.254  1.00  0.00     0.000 C 
BRANCH  19  20
ATOM     20  C   UNL     1     122.202 177.029 123.517  1.00  0.00     0.000 C 
BRANCH  20  21
ATOM     21  C   UNL     1     123.216 176.427 124.502  1.00  0.00     0.000 C 
BRANCH  21  22
ATOM     22  C   UNL     1     124.312 177.419 124.925  1.00  0.00    -0.000 C 
BRANCH  22  23
ATOM     23  C   UNL     1     125.674 177.223 124.229  1.00  0.00    -0.000 C 
BRANCH  23  24
ATOM     24  C   UNL     1     125.752 176.030 123.258  1.00  0.00    -0.000 C 
BRANCH  24  25
ATOM     25  C   UNL     1     125.780 176.407 121.766  1.00  0.00    -0.000 C 
BRANCH  25  26
ATOM     26  C   UNL     1     125.323 177.854 121.479  1.00  0.00    -0.000 C 
BRANCH  26  27
ATOM     27  C   UNL     1     124.227 177.927 120.401  1.00  0.00    -0.000 C 
BRANCH  27  28
ATOM     28  C   UNL     1     124.439 176.886 119.281  1.00  0.00    -0.000 C 
BRANCH  28  29
ATOM     29  C   UNL     1     125.142 177.456 118.034  1.00  0.00    -0.003 C 
ATOM     30  C   UNL     1     126.662 177.508 118.173  1.00  0.00     0.004 C 
ENDBRANCH  28  29
ENDBRANCH  27  28
ENDBRANCH  26  27
ENDBRANCH  25  26
ENDBRANCH  24  25
ENDBRANCH  23  24
ENDBRANCH  22  23
ENDBRANCH  21  22
ENDBRANCH  20  21
ENDBRANCH  19  20
ENDBRANCH  18  19
ENDBRANCH  17  18
ENDBRANCH   1  17
TORSDOF 26
ENDMDL
MODEL 6
REMARK VINA RESULT:    -5.205      3.683      8.961
REMARK INTER + INTRA:         -17.964
REMARK INTER:                 -13.422
REMARK INTRA:                  -4.542
REMARK UNBOUND:                -4.848
REMARK SMILES CCCCCCCCCCCCCCCCCCCCCCCCCCCC(=O)[O-]
REMARK SMILES IDX 15 1 16 2 17 3 18 4 19 5 20 6 21 7 22 8 23 9 24 10 25 11
REMARK SMILES IDX 26 12 27 13 28 14 29 15 30 16 14 17 13 18 12 19 11 20 10 21
REMARK SMILES IDX 9 22 8 23 7 24 6 25 5 26 4 27 3 28 2 29 1 30
REMARK H PARENT
REMARK Flexibility Score: inf
ROOT
ATOM      1  C   UNL     1     120.914 177.133 129.109  1.00  0.00     0.000 C 
ENDROOT
BRANCH   1   2
ATOM      2  C   UNL     1     122.038 176.084 129.124  1.00  0.00     0.000 C 
BRANCH   2   3
ATOM      3  C   UNL     1     121.844 174.980 128.065  1.00  0.00     0.000 C 
BRANCH   3   4
ATOM      4  C   UNL     1     120.492 174.246 128.187  1.00  0.00     0.000 C 
BRANCH   4   5
ATOM      5  C   UNL     1     119.524 174.482 127.010  1.00  0.00     0.000 C 
BRANCH   5   6
ATOM      6  C   UNL     1     120.129 175.177 125.779  1.00  0.00     0.000 C 
BRANCH   6   7
ATOM      7  C   UNL     1     119.719 176.654 125.662  1.00  0.00     0.000 C 
BRANCH   7   8
ATOM      8  C   UNL     1     119.986 177.194 124.250  1.00  0.00     0.000 C 
BRANCH   8   9
ATOM      9  C   UNL     1     119.858 178.731 124.178  1.00  0.00     0.000 C 
BRANCH   9  10
ATOM     10  C   UNL     1     119.342 179.369 125.480  1.00  0.00     0.000 C 
BRANCH  10  11
ATOM     11  C   UNL     1     117.890 179.857 125.375  1.00  0.00     0.000 C 
BRANCH  11  12
ATOM     12  C   UNL     1     116.867 178.817 125.865  1.00  0.00     0.006 C 
BRANCH  12  13
ATOM     13  C   UNL     1     116.082 178.134 124.731  1.00  0.00     0.053 C 
BRANCH  13  14
ATOM     14  C   UNL     1     116.076 178.942 123.467  1.00  0.00     0.041 C 
ATOM     15  O   UNL     1     116.752 178.570 122.472  1.00  0.00    -0.550 OA
ATOM     16  O   UNL     1     115.294 180.086 123.373  1.00  0.00    -0.550 OA
ENDBRANCH  13  14
ENDBRANCH  12  13
ENDBRANCH  11  12
ENDBRANCH  10  11
ENDBRANCH   9  10
ENDBRANCH   8   9
ENDBRANCH   7   8
ENDBRANCH   6   7
ENDBRANCH   5   6
ENDBRANCH   4   5
ENDBRANCH   3   4
ENDBRANCH   2   3
ENDBRANCH   1   2
BRANCH   1  17
ATOM     17  C   UNL     1     121.308 178.500 128.524  1.00  0.00     0.000 C 
BRANCH  17  18
ATOM     18  C   UNL     1     122.809 178.795 128.643  1.00  0.00     0.000 C 
BRANCH  18  19
ATOM     19  C   UNL     1     123.371 179.259 127.292  1.00  0.00     0.000 C 
BRANCH  19  20
ATOM     20  C   UNL     1     122.914 178.348 126.146  1.00  0.00     0.000 C 
BRANCH  20  21
ATOM     21  C   UNL     1     124.125 177.698 125.459  1.00  0.00     0.000 C 
BRANCH  21  22
ATOM     22  C   UNL     1     123.733 176.685 124.371  1.00  0.00    -0.000 C 
BRANCH  22  23
ATOM     23  C   UNL     1     123.446 177.294 122.984  1.00  0.00    -0.000 C 
BRANCH  23  24
ATOM     24  C   UNL     1     124.447 176.912 121.877  1.00  0.00    -0.000 C 
BRANCH  24  25
ATOM     25  C   UNL     1     125.293 178.077 121.335  1.00  0.00    -0.000 C 
BRANCH  25  26
ATOM     26  C   UNL     1     126.810 177.911 121.573  1.00  0.00    -0.000 C 
BRANCH  26  27
ATOM     27  C   UNL     1     127.246 178.371 122.976  1.00  0.00    -0.000 C 
BRANCH  27  28
ATOM     28  C   UNL     1     128.234 177.384 123.632  1.00  0.00    -0.000 C 
BRANCH  28  29
ATOM     29  C   UNL     1     127.566 176.398 124.608  1.00  0.00    -0.003 C 
ATOM     30  C   UNL     1     127.074 175.122 123.929  1.00  0.00     0.004 C 
ENDBRANCH  28  29
ENDBRANCH  27  28
ENDBRANCH  26  27
ENDBRANCH  25  26
ENDBRANCH  24  25
ENDBRANCH  23  24
ENDBRANCH  22  23
ENDBRANCH  21  22
ENDBRANCH  20  21
ENDBRANCH  19  20
ENDBRANCH  18  19
ENDBRANCH  17  18
ENDBRANCH   1  17
TORSDOF 26
ENDMDL
MODEL 7
REMARK VINA RESULT:    -5.172      1.344      2.268
REMARK INTER + INTRA:         -17.882
REMARK INTER:                 -12.851
REMARK INTRA:                  -5.030
REMARK UNBOUND:                -4.848
REMARK SMILES CCCCCCCCCCCCCCCCCCCCCCCCCCCC(=O)[O-]
REMARK SMILES IDX 15 1 16 2 17 3 18 4 19 5 20 6 21 7 22 8 23 9 24 10 25 11
REMARK SMILES IDX 26 12 27 13 28 14 29 15 30 16 14 17 13 18 12 19 11 20 10 21
REMARK SMILES IDX 9 22 8 23 7 24 6 25 5 26 4 27 3 28 2 29 1 30
REMARK H PARENT
REMARK Flexibility Score: inf
ROOT
ATOM      1  C   UNL     1     123.656 177.322 121.288  1.00  0.00     0.000 C 
ENDROOT
BRANCH   1   2
ATOM      2  C   UNL     1     124.842 178.128 120.733  1.00  0.00     0.000 C 
BRANCH   2   3
ATOM      3  C   UNL     1     124.819 178.250 119.196  1.00  0.00     0.000 C 
BRANCH   3   4
ATOM      4  C   UNL     1     125.850 177.344 118.494  1.00  0.00     0.000 C 
BRANCH   4   5
ATOM      5  C   UNL     1     127.293 177.483 119.021  1.00  0.00     0.000 C 
BRANCH   5   6
ATOM      6  C   UNL     1     127.853 176.259 119.764  1.00  0.00     0.000 C 
BRANCH   6   7
ATOM      7  C   UNL     1     128.770 176.637 120.938  1.00  0.00     0.000 C 
BRANCH   7   8
ATOM      8  C   UNL     1     128.442 178.041 121.468  1.00  0.00     0.000 C 
BRANCH   8   9
ATOM      9  C   UNL     1     128.370 178.081 123.010  1.00  0.00     0.000 C 
BRANCH   9  10
ATOM     10  C   UNL     1     126.934 178.046 123.561  1.00  0.00     0.000 C 
BRANCH  10  11
ATOM     11  C   UNL     1     126.592 176.724 124.263  1.00  0.00     0.000 C 
BRANCH  11  12
ATOM     12  C   UNL     1     126.250 175.590 123.282  1.00  0.00     0.006 C 
BRANCH  12  13
ATOM     13  C   UNL     1     126.326 174.184 123.904  1.00  0.00     0.053 C 
BRANCH  13  14
ATOM     14  C   UNL     1     126.845 173.157 122.941  1.00  0.00     0.041 C 
ATOM     15  O   UNL     1     127.357 172.088 123.368  1.00  0.00    -0.550 OA
ATOM     16  O   UNL     1     126.729 173.360 121.572  1.00  0.00    -0.550 OA
ENDBRANCH  13  14
ENDBRANCH  12  13
ENDBRANCH  11  12
ENDBRANCH  10  11
ENDBRANCH   9  10
ENDBRANCH   8   9
ENDBRANCH   7   8
ENDBRANCH   6   7
ENDBRANCH   5   6
ENDBRANCH   4   5
ENDBRANCH   3   4
ENDBRANCH   2   3
ENDBRANCH   1   2
BRANCH   1  17
ATOM     17  C   UNL     1     123.175 177.752 122.685  1.00  0.00     0.000 C 
BRANCH  17  18
ATOM     18  C   UNL     1     122.574 176.597 123.497  1.00  0.00     0.000 C 
BRANCH  18  19
ATOM     19  C   UNL     1     123.070 176.649 124.948  1.00  0.00     0.000 C 
BRANCH  19  20
ATOM     20  C   UNL     1     123.091 178.084 125.488  1.00  0.00     0.000 C 
BRANCH  20  21
ATOM     21  C   UNL     1     123.564 178.102 126.950  1.00  0.00     0.000 C 
BRANCH  21  22
ATOM     22  C   UNL     1     122.708 179.006 127.853  1.00  0.00    -0.000 C 
BRANCH  22  23
ATOM     23  C   UNL     1     121.456 178.334 128.451  1.00  0.00    -0.000 C 
BRANCH  23  24
ATOM     24  C   UNL     1     121.585 176.823 128.722  1.00  0.00    -0.000 C 
BRANCH  24  25
ATOM     25  C   UNL     1     120.733 175.924 127.808  1.00  0.00    -0.000 C 
BRANCH  25  26
ATOM     26  C   UNL     1     119.480 176.623 127.236  1.00  0.00    -0.000 C 
BRANCH  26  27
ATOM     27  C   UNL     1     119.433 176.592 125.698  1.00  0.00    -0.000 C 
BRANCH  27  28
ATOM     28  C   UNL     1     118.782 177.861 125.108  1.00  0.00    -0.000 C 
BRANCH  28  29
ATOM     29  C   UNL     1     119.799 178.866 124.535  1.00  0.00    -0.003 C 
ATOM     30  C   UNL     1     120.017 180.080 125.436  1.00  0.00     0.004 C 
ENDBRANCH  28  29
ENDBRANCH  27  28
ENDBRANCH  26  27
ENDBRANCH  25  26
ENDBRANCH  24  25
ENDBRANCH  23  24
ENDBRANCH  22  23
ENDBRANCH  21  22
ENDBRANCH  20  21
ENDBRANCH  19  20
ENDBRANCH  18  19
ENDBRANCH  17  18
ENDBRANCH   1  17
TORSDOF 26
ENDMDL
MODEL 8
REMARK VINA RESULT:    -5.170      3.501      8.858
REMARK INTER + INTRA:         -17.876
REMARK INTER:                 -13.231
REMARK INTRA:                  -4.645
REMARK UNBOUND:                -4.848
REMARK SMILES CCCCCCCCCCCCCCCCCCCCCCCCCCCC(=O)[O-]
REMARK SMILES IDX 15 1 16 2 17 3 18 4 19 5 20 6 21 7 22 8 23 9 24 10 25 11
REMARK SMILES IDX 26 12 27 13 28 14 29 15 30 16 14 17 13 18 12 19 11 20 10 21
REMARK SMILES IDX 9 22 8 23 7 24 6 25 5 26 4 27 3 28 2 29 1 30
REMARK H PARENT
REMARK Flexibility Score: inf
ROOT
ATOM      1  C   UNL     1     122.212 176.745 123.774  1.00  0.00     0.000 C 
ENDROOT
BRANCH   1   2
ATOM      2  C   UNL     1     122.430 175.746 124.923  1.00  0.00     0.000 C 
BRANCH   2   3
ATOM      3  C   UNL     1     121.255 174.765 125.097  1.00  0.00     0.000 C 
BRANCH   3   4
ATOM      4  C   UNL     1     120.658 174.770 126.519  1.00  0.00     0.000 C 
BRANCH   4   5
ATOM      5  C   UNL     1     121.691 174.592 127.650  1.00  0.00     0.000 C 
BRANCH   5   6
ATOM      6  C   UNL     1     121.708 175.700 128.717  1.00  0.00     0.000 C 
BRANCH   6   7
ATOM      7  C   UNL     1     120.435 176.561 128.709  1.00  0.00     0.000 C 
BRANCH   7   8
ATOM      8  C   UNL     1     120.771 178.046 128.509  1.00  0.00     0.000 C 
BRANCH   8   9
ATOM      9  C   UNL     1     122.041 178.247 127.653  1.00  0.00     0.000 C 
BRANCH   9  10
ATOM     10  C   UNL     1     121.840 179.205 126.466  1.00  0.00     0.000 C 
BRANCH  10  11
ATOM     11  C   UNL     1     120.371 179.607 126.262  1.00  0.00     0.000 C 
BRANCH  11  12
ATOM     12  C   UNL     1     119.779 179.077 124.944  1.00  0.00     0.006 C 
BRANCH  12  13
ATOM     13  C   UNL     1     118.922 177.810 125.113  1.00  0.00     0.053 C 
BRANCH  13  14
ATOM     14  C   UNL     1     117.451 178.100 125.070  1.00  0.00     0.041 C 
ATOM     15  O   UNL     1     116.758 178.027 126.120  1.00  0.00    -0.550 OA
ATOM     16  O   UNL     1     116.849 178.490 123.880  1.00  0.00    -0.550 OA
ENDBRANCH  13  14
ENDBRANCH  12  13
ENDBRANCH  11  12
ENDBRANCH  10  11
ENDBRANCH   9  10
ENDBRANCH   8   9
ENDBRANCH   7   8
ENDBRANCH   6   7
ENDBRANCH   5   6
ENDBRANCH   4   5
ENDBRANCH   3   4
ENDBRANCH   2   3
ENDBRANCH   1   2
BRANCH   1  17
ATOM     17  C   UNL     1     123.491 177.175 123.035  1.00  0.00     0.000 C 
BRANCH  17  18
ATOM     18  C   UNL     1     124.750 176.459 123.543  1.00  0.00     0.000 C 
BRANCH  18  19
ATOM     19  C   UNL     1     125.669 177.449 124.271  1.00  0.00     0.000 C 
BRANCH  19  20
ATOM     20  C   UNL     1     127.042 176.833 124.568  1.00  0.00     0.000 C 
BRANCH  20  21
ATOM     21  C   UNL     1     128.130 177.507 123.717  1.00  0.00     0.000 C 
BRANCH  21  22
ATOM     22  C   UNL     1     127.563 178.481 122.670  1.00  0.00    -0.000 C 
BRANCH  22  23
ATOM     23  C   UNL     1     127.597 177.971 121.216  1.00  0.00    -0.000 C 
BRANCH  23  24
ATOM     24  C   UNL     1     128.067 176.514 121.040  1.00  0.00    -0.000 C 
BRANCH  24  25
ATOM     25  C   UNL     1     126.963 175.520 120.638  1.00  0.00    -0.000 C 
BRANCH  25  26
ATOM     26  C   UNL     1     126.880 174.276 121.550  1.00  0.00    -0.000 C 
BRANCH  26  27
ATOM     27  C   UNL     1     128.164 174.052 122.368  1.00  0.00    -0.000 C 
BRANCH  27  28
ATOM     28  C   UNL     1     127.896 173.277 123.676  1.00  0.00    -0.000 C 
BRANCH  28  29
ATOM     29  C   UNL     1     126.409 173.238 124.075  1.00  0.00    -0.003 C 
ATOM     30  C   UNL     1     126.062 172.055 124.978  1.00  0.00     0.004 C 
ENDBRANCH  28  29
ENDBRANCH  27  28
ENDBRANCH  26  27
ENDBRANCH  25  26
ENDBRANCH  24  25
ENDBRANCH  23  24
ENDBRANCH  22  23
ENDBRANCH  21  22
ENDBRANCH  20  21
ENDBRANCH  19  20
ENDBRANCH  18  19
ENDBRANCH  17  18
ENDBRANCH   1  17
TORSDOF 26
ENDMDL
MODEL 9
REMARK VINA RESULT:    -5.165      3.501      8.966
REMARK INTER + INTRA:         -17.864
REMARK INTER:                 -13.728
REMARK INTRA:                  -4.137
REMARK UNBOUND:                -4.848
REMARK SMILES CCCCCCCCCCCCCCCCCCCCCCCCCCCC(=O)[O-]
REMARK SMILES IDX 15 1 16 2 17 3 18 4 19 5 20 6 21 7 22 8 23 9 24 10 25 11
REMARK SMILES IDX 26 12 27 13 28 14 29 15 30 16 14 17 13 18 12 19 11 20 10 21
REMARK SMILES IDX 9 22 8 23 7 24 6 25 5 26 4 27 3 28 2 29 1 30
REMARK H PARENT
REMARK Flexibility Score: inf
ROOT
ATOM      1  C   UNL     1     122.983 178.108 121.841  1.00  0.00     0.000 C 
ENDROOT
BRANCH   1   2
ATOM      2  C   UNL     1     123.149 177.512 123.249  1.00  0.00     0.000 C 
BRANCH   2   3
ATOM      3  C   UNL     1     121.958 176.628 123.670  1.00  0.00     0.000 C 
BRANCH   3   4
ATOM      4  C   UNL     1     122.297 175.647 124.812  1.00  0.00     0.000 C 
BRANCH   4   5
ATOM      5  C   UNL     1     121.084 174.896 125.396  1.00  0.00     0.000 C 
BRANCH   5   6
ATOM      6  C   UNL     1     120.941 174.948 126.926  1.00  0.00     0.000 C 
BRANCH   6   7
ATOM      7  C   UNL     1     120.273 176.240 127.424  1.00  0.00     0.000 C 
BRANCH   7   8
ATOM      8  C   UNL     1     121.322 177.287 127.825  1.00  0.00     0.000 C 
BRANCH   8   9
ATOM      9  C   UNL     1     120.835 178.730 127.568  1.00  0.00     0.000 C 
BRANCH   9  10
ATOM     10  C   UNL     1     121.200 179.265 126.172  1.00  0.00     0.000 C 
BRANCH  10  11
ATOM     11  C   UNL     1     119.987 179.804 125.401  1.00  0.00     0.000 C 
BRANCH  11  12
ATOM     12  C   UNL     1     119.228 178.711 124.629  1.00  0.00     0.006 C 
BRANCH  12  13
ATOM     13  C   UNL     1     117.954 178.219 125.339  1.00  0.00     0.053 C 
BRANCH  13  14
ATOM     14  C   UNL     1     116.719 178.424 124.512  1.00  0.00     0.041 C 
ATOM     15  O   UNL     1     115.588 178.481 125.063  1.00  0.00    -0.550 OA
ATOM     16  O   UNL     1     116.818 178.590 123.136  1.00  0.00    -0.550 OA
ENDBRANCH  13  14
ENDBRANCH  12  13
ENDBRANCH  11  12
ENDBRANCH  10  11
ENDBRANCH   9  10
ENDBRANCH   8   9
ENDBRANCH   7   8
ENDBRANCH   6   7
ENDBRANCH   5   6
ENDBRANCH   4   5
ENDBRANCH   3   4
ENDBRANCH   2   3
ENDBRANCH   1   2
BRANCH   1  17
ATOM     17  C   UNL     1     124.238 178.036 120.954  1.00  0.00     0.000 C 
BRANCH  17  18
ATOM     18  C   UNL     1     124.042 177.170 119.702  1.00  0.00     0.000 C 
BRANCH  18  19
ATOM     19  C   UNL     1     125.172 177.423 118.696  1.00  0.00     0.000 C 
BRANCH  19  20
ATOM     20  C   UNL     1     126.132 178.515 119.184  1.00  0.00     0.000 C 
BRANCH  20  21
ATOM     21  C   UNL     1     127.553 178.257 118.660  1.00  0.00     0.000 C 
BRANCH  21  22
ATOM     22  C   UNL     1     127.872 176.763 118.484  1.00  0.00    -0.000 C 
BRANCH  22  23
ATOM     23  C   UNL     1     129.055 176.244 119.325  1.00  0.00    -0.000 C 
BRANCH  23  24
ATOM     24  C   UNL     1     128.670 175.524 120.632  1.00  0.00    -0.000 C 
BRANCH  24  25
ATOM     25  C   UNL     1     127.159 175.316 120.837  1.00  0.00    -0.000 C 
BRANCH  25  26
ATOM     26  C   UNL     1     126.792 174.704 122.207  1.00  0.00    -0.000 C 
BRANCH  26  27
ATOM     27  C   UNL     1     126.217 175.741 123.187  1.00  0.00    -0.000 C 
BRANCH  27  28
ATOM     28  C   UNL     1     127.250 176.175 124.249  1.00  0.00    -0.000 C 
BRANCH  28  29
ATOM     29  C   UNL     1     128.057 177.425 123.850  1.00  0.00    -0.003 C 
ATOM     30  C   UNL     1     127.262 178.403 122.988  1.00  0.00     0.004 C 
ENDBRANCH  28  29
ENDBRANCH  27  28
ENDBRANCH  26  27
ENDBRANCH  25  26
ENDBRANCH  24  25
ENDBRANCH  23  24
ENDBRANCH  22  23
ENDBRANCH  21  22
ENDBRANCH  20  21
ENDBRANCH  19  20
ENDBRANCH  18  19
ENDBRANCH  17  18
ENDBRANCH   1  17
TORSDOF 26
ENDMDL
