MODEL 1
REMARK VINA RESULT:    -6.011      0.000      0.000
REMARK INTER + INTRA:          -7.224
REMARK INTER:                  -7.241
REMARK INTRA:                   0.017
REMARK UNBOUND:                 0.017
REMARK SMILES O=c1c(O)c(-c2ccc(O)c(O)c2)oc2cc(O)cc(O)c12
REMARK SMILES IDX 5 1 3 2 2 3 1 4 22 5 20 6 19 7 17 8 16 9 15 10 14 11 6 12
REMARK SMILES IDX 7 13 8 14 9 15 13 16 11 17 10 18 12 20 4 22 21 24 18 26
REMARK H PARENT 10 19 12 21 4 23 21 25 18 27
REMARK Flexibility Score: inf
ROOT
ATOM      1  C   UNL     1      24.917  29.586   7.041  1.00  0.00     0.180 A 
ATOM      2  C   UNL     1      26.217  29.800   7.530  1.00  0.00     0.208 A 
ATOM      3  C   UNL     1      27.174  28.782   7.387  1.00  0.00     0.238 A 
ATOM      4  O   UNL     1      28.315  28.952   7.893  1.00  0.00    -0.285 OA
ATOM      5  C   UNL     1      26.837  27.587   6.707  1.00  0.00     0.111 A 
ATOM      6  C   UNL     1      27.740  26.507   6.465  1.00  0.00     0.134 A 
ATOM      7  C   UNL     1      27.265  25.329   5.876  1.00  0.00     0.093 A 
ATOM      8  C   UNL     1      25.938  25.214   5.462  1.00  0.00     0.123 A 
ATOM      9  C   UNL     1      25.060  26.283   5.644  1.00  0.00     0.094 A 
ATOM     10  C   UNL     1      25.495  27.457   6.263  1.00  0.00     0.146 A 
ATOM     11  O   UNL     1      24.622  28.442   6.437  1.00  0.00    -0.452 OA
ENDROOT
BRANCH   1  12
ATOM     12  C   UNL     1      23.850  30.605   7.167  1.00  0.00     0.025 A 
ATOM     13  C   UNL     1      23.603  31.260   8.386  1.00  0.00     0.016 A 
ATOM     14  C   UNL     1      22.575  32.200   8.487  1.00  0.00     0.051 A 
ATOM     15  C   UNL     1      21.769  32.490   7.381  1.00  0.00     0.157 A 
ATOM     16  C   UNL     1      23.026  30.883   6.063  1.00  0.00     0.062 A 
ATOM     17  C   UNL     1      21.994  31.827   6.163  1.00  0.00     0.158 A 
BRANCH  15  18
ATOM     18  O   UNL     1      20.752  33.434   7.511  1.00  0.00    -0.504 OA
ATOM     19  H   UNL     1      20.596  34.156   6.818  1.00  0.00     0.293 HD
ENDBRANCH  15  18
BRANCH  17  20
ATOM     20  O   UNL     1      21.191  32.105   5.058  1.00  0.00    -0.504 OA
ATOM     21  H   UNL     1      21.462  32.792   4.363  1.00  0.00     0.293 HD
ENDBRANCH  17  20
ENDBRANCH   1  12
BRANCH   2  22
ATOM     22  O   UNL     1      26.553  31.017   8.130  1.00  0.00    -0.502 OA
ATOM     23  H   UNL     1      26.048  31.389   8.924  1.00  0.00     0.293 HD
ENDBRANCH   2  22
BRANCH   6  24
ATOM     24  O   UNL     1      29.106  26.549   6.757  1.00  0.00    -0.507 OA
ATOM     25  H   UNL     1      29.543  27.201   7.389  1.00  0.00     0.293 HD
ENDBRANCH   6  24
BRANCH   8  26
ATOM     26  O   UNL     1      25.505  24.033   4.863  1.00  0.00    -0.508 OA
ATOM     27  H   UNL     1      26.161  23.358   4.487  1.00  0.00     0.293 HD
ENDBRANCH   8  26
TORSDOF 6
ENDMDL
MODEL 2
REMARK VINA RESULT:    -5.947      1.633      7.093
REMARK INTER + INTRA:          -7.148
REMARK INTER:                  -7.117
REMARK INTRA:                  -0.031
REMARK UNBOUND:                 0.017
REMARK SMILES O=c1c(O)c(-c2ccc(O)c(O)c2)oc2cc(O)cc(O)c12
REMARK SMILES IDX 5 1 3 2 2 3 1 4 22 5 20 6 19 7 17 8 16 9 15 10 14 11 6 12
REMARK SMILES IDX 7 13 8 14 9 15 13 16 11 17 10 18 12 20 4 22 21 24 18 26
REMARK H PARENT 10 19 12 21 4 23 21 25 18 27
REMARK Flexibility Score: inf
ROOT
ATOM      1  C   UNL     1      25.004  29.454   6.087  1.00  0.00     0.180 A 
ATOM      2  C   UNL     1      24.688  29.569   4.723  1.00  0.00     0.208 A 
ATOM      3  C   UNL     1      23.640  30.420   4.336  1.00  0.00     0.238 A 
ATOM      4  O   UNL     1      23.314  30.462   3.121  1.00  0.00    -0.285 OA
ATOM      5  C   UNL     1      22.959  31.189   5.312  1.00  0.00     0.111 A 
ATOM      6  C   UNL     1      21.912  32.117   5.029  1.00  0.00     0.134 A 
ATOM      7  C   UNL     1      21.238  32.741   6.086  1.00  0.00     0.093 A 
ATOM      8  C   UNL     1      21.615  32.522   7.410  1.00  0.00     0.123 A 
ATOM      9  C   UNL     1      22.673  31.659   7.696  1.00  0.00     0.094 A 
ATOM     10  C   UNL     1      23.339  30.991   6.665  1.00  0.00     0.146 A 
ATOM     11  O   UNL     1      24.327  30.162   6.982  1.00  0.00    -0.452 OA
ENDROOT
BRANCH   1  12
ATOM     12  C   UNL     1      26.086  28.567   6.573  1.00  0.00     0.025 A 
ATOM     13  C   UNL     1      26.151  27.215   6.192  1.00  0.00     0.016 A 
ATOM     14  C   UNL     1      27.167  26.391   6.684  1.00  0.00     0.051 A 
ATOM     15  C   UNL     1      28.122  26.897   7.571  1.00  0.00     0.157 A 
ATOM     16  C   UNL     1      27.034  29.067   7.481  1.00  0.00     0.062 A 
ATOM     17  C   UNL     1      28.054  28.241   7.974  1.00  0.00     0.158 A 
BRANCH  15  18
ATOM     18  O   UNL     1      29.125  26.051   8.043  1.00  0.00    -0.504 OA
ATOM     19  H   UNL     1      28.917  25.204   8.557  1.00  0.00     0.293 HD
ENDBRANCH  15  18
BRANCH  17  20
ATOM     20  O   UNL     1      28.999  28.751   8.864  1.00  0.00    -0.504 OA
ATOM     21  H   UNL     1      29.290  28.233   9.686  1.00  0.00     0.293 HD
ENDBRANCH  17  20
ENDBRANCH   1  12
BRANCH   2  22
ATOM     22  O   UNL     1      25.422  28.861   3.767  1.00  0.00    -0.502 OA
ATOM     23  H   UNL     1      25.457  27.850   3.748  1.00  0.00     0.293 HD
ENDBRANCH   2  22
BRANCH   6  24
ATOM     24  O   UNL     1      21.513  32.479   3.739  1.00  0.00    -0.507 OA
ATOM     25  H   UNL     1      20.831  31.984   3.184  1.00  0.00     0.293 HD
ENDBRANCH   6  24
BRANCH   8  26
ATOM     26  O   UNL     1      20.934  33.174   8.436  1.00  0.00    -0.508 OA
ATOM     27  H   UNL     1      21.284  33.178   9.387  1.00  0.00     0.293 HD
ENDBRANCH   8  26
TORSDOF 6
ENDMDL
MODEL 3
REMARK VINA RESULT:    -5.773      1.536      3.486
REMARK INTER + INTRA:          -6.937
REMARK INTER:                  -6.933
REMARK INTRA:                  -0.005
REMARK UNBOUND:                 0.017
REMARK SMILES O=c1c(O)c(-c2ccc(O)c(O)c2)oc2cc(O)cc(O)c12
REMARK SMILES IDX 5 1 3 2 2 3 1 4 22 5 20 6 19 7 17 8 16 9 15 10 14 11 6 12
REMARK SMILES IDX 7 13 8 14 9 15 13 16 11 17 10 18 12 20 4 22 21 24 18 26
REMARK H PARENT 10 19 12 21 4 23 21 25 18 27
REMARK Flexibility Score: inf
ROOT
ATOM      1  C   UNL     1      24.075  29.595   5.777  1.00  0.00     0.180 A 
ATOM      2  C   UNL     1      23.981  28.325   5.181  1.00  0.00     0.208 A 
ATOM      3  C   UNL     1      24.970  27.368   5.459  1.00  0.00     0.238 A 
ATOM      4  O   UNL     1      24.920  26.260   4.865  1.00  0.00    -0.285 OA
ATOM      5  C   UNL     1      26.008  27.672   6.373  1.00  0.00     0.111 A 
ATOM      6  C   UNL     1      27.039  26.764   6.763  1.00  0.00     0.134 A 
ATOM      7  C   UNL     1      28.075  27.209   7.592  1.00  0.00     0.093 A 
ATOM      8  C   UNL     1      28.086  28.509   8.097  1.00  0.00     0.123 A 
ATOM      9  C   UNL     1      27.055  29.390   7.766  1.00  0.00     0.094 A 
ATOM     10  C   UNL     1      26.028  28.986   6.910  1.00  0.00     0.146 A 
ATOM     11  O   UNL     1      25.078  29.861   6.603  1.00  0.00    -0.452 OA
ENDROOT
BRANCH   1  12
ATOM     12  C   UNL     1      23.079  30.661   5.521  1.00  0.00     0.025 A 
ATOM     13  C   UNL     1      22.691  31.001   4.213  1.00  0.00     0.016 A 
ATOM     14  C   UNL     1      21.767  32.028   3.996  1.00  0.00     0.051 A 
ATOM     15  C   UNL     1      21.231  32.738   5.075  1.00  0.00     0.157 A 
ATOM     16  C   UNL     1      22.555  31.390   6.601  1.00  0.00     0.062 A 
ATOM     17  C   UNL     1      21.628  32.420   6.384  1.00  0.00     0.158 A 
BRANCH  15  18
ATOM     18  O   UNL     1      20.310  33.755   4.827  1.00  0.00    -0.504 OA
ATOM     19  H   UNL     1      19.499  33.902   5.416  1.00  0.00     0.293 HD
ENDBRANCH  15  18
BRANCH  17  20
ATOM     20  O   UNL     1      21.102  33.127   7.465  1.00  0.00    -0.504 OA
ATOM     21  H   UNL     1      21.063  32.726   8.394  1.00  0.00     0.293 HD
ENDBRANCH  17  20
ENDBRANCH   1  12
BRANCH   2  22
ATOM     22  O   UNL     1      22.906  28.019   4.342  1.00  0.00    -0.502 OA
ATOM     23  H   UNL     1      22.745  28.500   3.466  1.00  0.00     0.293 HD
ENDBRANCH   2  22
BRANCH   6  24
ATOM     24  O   UNL     1      27.078  25.417   6.390  1.00  0.00    -0.507 OA
ATOM     25  H   UNL     1      26.731  25.048   5.518  1.00  0.00     0.293 HD
ENDBRANCH   6  24
BRANCH   8  26
ATOM     26  O   UNL     1      29.124  28.913   8.934  1.00  0.00    -0.508 OA
ATOM     27  H   UNL     1      29.271  29.889   9.163  1.00  0.00     0.293 HD
ENDBRANCH   8  26
TORSDOF 6
ENDMDL
MODEL 4
REMARK VINA RESULT:    -5.689      1.121      1.766
REMARK INTER + INTRA:          -6.837
REMARK INTER:                  -6.642
REMARK INTRA:                  -0.195
REMARK UNBOUND:                 0.017
REMARK SMILES O=c1c(O)c(-c2ccc(O)c(O)c2)oc2cc(O)cc(O)c12
REMARK SMILES IDX 5 1 3 2 2 3 1 4 22 5 20 6 19 7 17 8 16 9 15 10 14 11 6 12
REMARK SMILES IDX 7 13 8 14 9 15 13 16 11 17 10 18 12 20 4 22 21 24 18 26
REMARK H PARENT 10 19 12 21 4 23 21 25 18 27
REMARK Flexibility Score: inf
ROOT
ATOM      1  C   UNL     1      24.296  29.183   6.289  1.00  0.00     0.180 A 
ATOM      2  C   UNL     1      25.627  29.351   6.708  1.00  0.00     0.208 A 
ATOM      3  C   UNL     1      26.457  28.223   6.806  1.00  0.00     0.238 A 
ATOM      4  O   UNL     1      27.625  28.370   7.252  1.00  0.00    -0.285 OA
ATOM      5  C   UNL     1      25.964  26.949   6.431  1.00  0.00     0.111 A 
ATOM      6  C   UNL     1      26.730  25.744   6.448  1.00  0.00     0.134 A 
ATOM      7  C   UNL     1      26.105  24.525   6.158  1.00  0.00     0.093 A 
ATOM      8  C   UNL     1      24.762  24.473   5.789  1.00  0.00     0.123 A 
ATOM      9  C   UNL     1      24.017  25.651   5.716  1.00  0.00     0.094 A 
ATOM     10  C   UNL     1      24.602  26.878   6.037  1.00  0.00     0.146 A 
ATOM     11  O   UNL     1      23.852  27.972   5.976  1.00  0.00    -0.452 OA
ENDROOT
BRANCH   1  12
ATOM     12  C   UNL     1      23.356  30.322   6.175  1.00  0.00     0.025 A 
ATOM     13  C   UNL     1      22.916  30.785   4.922  1.00  0.00     0.016 A 
ATOM     14  C   UNL     1      22.049  31.877   4.839  1.00  0.00     0.051 A 
ATOM     15  C   UNL     1      21.619  32.531   5.998  1.00  0.00     0.157 A 
ATOM     16  C   UNL     1      22.939  30.993   7.336  1.00  0.00     0.062 A 
ATOM     17  C   UNL     1      22.067  32.088   7.253  1.00  0.00     0.158 A 
BRANCH  15  18
ATOM     18  O   UNL     1      20.751  33.616   5.883  1.00  0.00    -0.504 OA
ATOM     19  H   UNL     1      20.097  33.703   5.114  1.00  0.00     0.293 HD
ENDBRANCH  15  18
BRANCH  17  20
ATOM     20  O   UNL     1      21.649  32.739   8.414  1.00  0.00    -0.504 OA
ATOM     21  H   UNL     1      20.693  32.673   8.744  1.00  0.00     0.293 HD
ENDBRANCH  17  20
ENDBRANCH   1  12
BRANCH   2  22
ATOM     22  O   UNL     1      26.117  30.627   7.000  1.00  0.00    -0.502 OA
ATOM     23  H   UNL     1      25.681  31.470   6.652  1.00  0.00     0.293 HD
ENDBRANCH   2  22
BRANCH   6  24
ATOM     24  O   UNL     1      28.101  25.691   6.716  1.00  0.00    -0.507 OA
ATOM     25  H   UNL     1      28.748  25.045   6.290  1.00  0.00     0.293 HD
ENDBRANCH   6  24
BRANCH   8  26
ATOM     26  O   UNL     1      24.178  23.244   5.489  1.00  0.00    -0.508 OA
ATOM     27  H   UNL     1      23.862  22.615   6.218  1.00  0.00     0.293 HD
ENDBRANCH   8  26
TORSDOF 6
ENDMDL
MODEL 5
REMARK VINA RESULT:    -5.681      1.992      7.358
REMARK INTER + INTRA:          -6.826
REMARK INTER:                  -6.503
REMARK INTRA:                  -0.323
REMARK UNBOUND:                 0.017
REMARK SMILES O=c1c(O)c(-c2ccc(O)c(O)c2)oc2cc(O)cc(O)c12
REMARK SMILES IDX 5 1 3 2 2 3 1 4 22 5 20 6 19 7 17 8 16 9 15 10 14 11 6 12
REMARK SMILES IDX 7 13 8 14 9 15 13 16 11 17 10 18 12 20 4 22 21 24 18 26
REMARK H PARENT 10 19 12 21 4 23 21 25 18 27
REMARK Flexibility Score: inf
ROOT
ATOM      1  C   UNL     1      23.731  29.071   5.473  1.00  0.00     0.180 A 
ATOM      2  C   UNL     1      23.227  29.342   4.190  1.00  0.00     0.208 A 
ATOM      3  C   UNL     1      22.381  30.449   4.011  1.00  0.00     0.238 A 
ATOM      4  O   UNL     1      21.874  30.643   2.875  1.00  0.00    -0.285 OA
ATOM      5  C   UNL     1      22.096  31.303   5.105  1.00  0.00     0.111 A 
ATOM      6  C   UNL     1      21.288  32.477   5.029  1.00  0.00     0.134 A 
ATOM      7  C   UNL     1      20.986  33.185   6.199  1.00  0.00     0.093 A 
ATOM      8  C   UNL     1      21.515  32.800   7.430  1.00  0.00     0.123 A 
ATOM      9  C   UNL     1      22.350  31.685   7.508  1.00  0.00     0.094 A 
ATOM     10  C   UNL     1      22.638  30.936   6.364  1.00  0.00     0.146 A 
ATOM     11  O   UNL     1      23.419  29.870   6.485  1.00  0.00    -0.452 OA
ENDROOT
BRANCH   1  12
ATOM     12  C   UNL     1      24.616  27.914   5.744  1.00  0.00     0.025 A 
ATOM     13  C   UNL     1      26.012  28.013   5.607  1.00  0.00     0.016 A 
ATOM     14  C   UNL     1      26.825  26.902   5.844  1.00  0.00     0.051 A 
ATOM     15  C   UNL     1      26.259  25.675   6.205  1.00  0.00     0.157 A 
ATOM     16  C   UNL     1      24.049  26.676   6.086  1.00  0.00     0.062 A 
ATOM     17  C   UNL     1      24.864  25.560   6.325  1.00  0.00     0.158 A 
BRANCH  15  18
ATOM     18  O   UNL     1      27.095  24.584   6.438  1.00  0.00    -0.504 OA
ATOM     19  H   UNL     1      26.734  23.648   6.578  1.00  0.00     0.293 HD
ENDBRANCH  15  18
BRANCH  17  20
ATOM     20  O   UNL     1      24.292  24.338   6.678  1.00  0.00    -0.504 OA
ATOM     21  H   UNL     1      24.143  23.604   5.996  1.00  0.00     0.293 HD
ENDBRANCH  17  20
ENDBRANCH   1  12
BRANCH   2  22
ATOM     22  O   UNL     1      23.581  28.532   3.107  1.00  0.00    -0.502 OA
ATOM     23  H   UNL     1      23.243  27.584   3.004  1.00  0.00     0.293 HD
ENDBRANCH   2  22
BRANCH   6  24
ATOM     24  O   UNL     1      20.780  33.004   3.837  1.00  0.00    -0.507 OA
ATOM     25  H   UNL     1      20.221  33.840   3.766  1.00  0.00     0.293 HD
ENDBRANCH   6  24
BRANCH   8  26
ATOM     26  O   UNL     1      21.208  33.538   8.571  1.00  0.00    -0.508 OA
ATOM     27  H   UNL     1      21.925  34.029   9.094  1.00  0.00     0.293 HD
ENDBRANCH   8  26
TORSDOF 6
ENDMDL
MODEL 6
REMARK VINA RESULT:    -5.415      2.262      6.974
REMARK INTER + INTRA:          -6.506
REMARK INTER:                  -6.186
REMARK INTRA:                  -0.320
REMARK UNBOUND:                 0.017
REMARK SMILES O=c1c(O)c(-c2ccc(O)c(O)c2)oc2cc(O)cc(O)c12
REMARK SMILES IDX 5 1 3 2 2 3 1 4 22 5 20 6 19 7 17 8 16 9 15 10 14 11 6 12
REMARK SMILES IDX 7 13 8 14 9 15 13 16 11 17 10 18 12 20 4 22 21 24 18 26
REMARK H PARENT 10 19 12 21 4 23 21 25 18 27
REMARK Flexibility Score: inf
ROOT
ATOM      1  C   UNL     1      24.577  30.034   5.658  1.00  0.00     0.180 A 
ATOM      2  C   UNL     1      24.655  30.330   7.029  1.00  0.00     0.208 A 
ATOM      3  C   UNL     1      23.703  31.193   7.594  1.00  0.00     0.238 A 
ATOM      4  O   UNL     1      23.823  31.512   8.806  1.00  0.00    -0.285 OA
ATOM      5  C   UNL     1      22.652  31.704   6.795  1.00  0.00     0.111 A 
ATOM      6  C   UNL     1      21.606  32.551   7.272  1.00  0.00     0.134 A 
ATOM      7  C   UNL     1      20.680  33.083   6.367  1.00  0.00     0.093 A 
ATOM      8  C   UNL     1      20.722  32.748   5.014  1.00  0.00     0.123 A 
ATOM      9  C   UNL     1      21.706  31.877   4.545  1.00  0.00     0.094 A 
ATOM     10  C   UNL     1      22.667  31.361   5.418  1.00  0.00     0.146 A 
ATOM     11  O   UNL     1      23.599  30.554   4.927  1.00  0.00    -0.452 OA
ENDROOT
BRANCH   1  12
ATOM     12  C   UNL     1      25.553  29.144   4.987  1.00  0.00     0.025 A 
ATOM     13  C   UNL     1      25.385  27.748   4.977  1.00  0.00     0.016 A 
ATOM     14  C   UNL     1      26.332  26.927   4.359  1.00  0.00     0.051 A 
ATOM     15  C   UNL     1      27.464  27.483   3.755  1.00  0.00     0.157 A 
ATOM     16  C   UNL     1      26.701  29.698   4.397  1.00  0.00     0.062 A 
ATOM     17  C   UNL     1      27.652  28.875   3.776  1.00  0.00     0.158 A 
BRANCH  15  18
ATOM     18  O   UNL     1      28.390  26.639   3.143  1.00  0.00    -0.504 OA
ATOM     19  H   UNL     1      29.033  26.970   2.434  1.00  0.00     0.293 HD
ENDBRANCH  15  18
BRANCH  17  20
ATOM     20  O   UNL     1      28.781  29.436   3.182  1.00  0.00    -0.504 OA
ATOM     21  H   UNL     1      28.710  30.052   2.379  1.00  0.00     0.293 HD
ENDBRANCH  17  20
ENDBRANCH   1  12
BRANCH   2  22
ATOM     22  O   UNL     1      25.656  29.754   7.818  1.00  0.00    -0.502 OA
ATOM     23  H   UNL     1      26.019  30.204   8.648  1.00  0.00     0.293 HD
ENDBRANCH   2  22
BRANCH   6  24
ATOM     24  O   UNL     1      21.417  32.880   8.618  1.00  0.00    -0.507 OA
ATOM     25  H   UNL     1      22.036  33.460   9.165  1.00  0.00     0.293 HD
ENDBRANCH   6  24
BRANCH   8  26
ATOM     26  O   UNL     1      19.773  33.281   4.144  1.00  0.00    -0.508 OA
ATOM     27  H   UNL     1      20.040  33.715   3.268  1.00  0.00     0.293 HD
ENDBRANCH   8  26
TORSDOF 6
ENDMDL
MODEL 7
REMARK VINA RESULT:    -5.095      2.187      2.206
REMARK INTER + INTRA:          -6.121
REMARK INTER:                  -5.815
REMARK INTRA:                  -0.305
REMARK UNBOUND:                 0.017
REMARK SMILES O=c1c(O)c(-c2ccc(O)c(O)c2)oc2cc(O)cc(O)c12
REMARK SMILES IDX 5 1 3 2 2 3 1 4 22 5 20 6 19 7 17 8 16 9 15 10 14 11 6 12
REMARK SMILES IDX 7 13 8 14 9 15 13 16 11 17 10 18 12 20 4 22 21 24 18 26
REMARK H PARENT 10 19 12 21 4 23 21 25 18 27
REMARK Flexibility Score: inf
ROOT
ATOM      1  C   UNL     1      24.185  29.476   5.837  1.00  0.00     0.180 A 
ATOM      2  C   UNL     1      25.216  29.741   4.919  1.00  0.00     0.208 A 
ATOM      3  C   UNL     1      25.889  28.663   4.323  1.00  0.00     0.238 A 
ATOM      4  O   UNL     1      26.860  28.907   3.559  1.00  0.00    -0.285 OA
ATOM      5  C   UNL     1      25.487  27.336   4.607  1.00  0.00     0.111 A 
ATOM      6  C   UNL     1      26.069  26.169   4.026  1.00  0.00     0.134 A 
ATOM      7  C   UNL     1      25.662  24.903   4.463  1.00  0.00     0.093 A 
ATOM      8  C   UNL     1      24.650  24.759   5.413  1.00  0.00     0.123 A 
ATOM      9  C   UNL     1      24.036  25.892   5.948  1.00  0.00     0.094 A 
ATOM     10  C   UNL     1      24.448  27.169   5.559  1.00  0.00     0.146 A 
ATOM     11  O   UNL     1      23.852  28.221   6.109  1.00  0.00    -0.452 OA
ENDROOT
BRANCH   1  12
ATOM     12  C   UNL     1      23.438  30.559   6.518  1.00  0.00     0.025 A 
ATOM     13  C   UNL     1      23.740  30.939   7.837  1.00  0.00     0.016 A 
ATOM     14  C   UNL     1      23.006  31.947   8.467  1.00  0.00     0.051 A 
ATOM     15  C   UNL     1      21.953  32.580   7.799  1.00  0.00     0.157 A 
ATOM     16  C   UNL     1      22.367  31.181   5.856  1.00  0.00     0.062 A 
ATOM     17  C   UNL     1      21.629  32.194   6.487  1.00  0.00     0.158 A 
BRANCH  15  18
ATOM     18  O   UNL     1      21.239  33.583   8.452  1.00  0.00    -0.504 OA
ATOM     19  H   UNL     1      21.359  34.563   8.226  1.00  0.00     0.293 HD
ENDBRANCH  15  18
BRANCH  17  20
ATOM     20  O   UNL     1      20.576  32.814   5.816  1.00  0.00    -0.504 OA
ATOM     21  H   UNL     1      19.928  32.288   5.242  1.00  0.00     0.293 HD
ENDBRANCH  17  20
ENDBRANCH   1  12
BRANCH   2  22
ATOM     22  O   UNL     1      25.547  31.060   4.593  1.00  0.00    -0.502 OA
ATOM     23  H   UNL     1      25.046  31.855   4.968  1.00  0.00     0.293 HD
ENDBRANCH   2  22
BRANCH   6  24
ATOM     24  O   UNL     1      27.024  26.195   3.005  1.00  0.00    -0.507 OA
ATOM     25  H   UNL     1      26.871  26.562   2.079  1.00  0.00     0.293 HD
ENDBRANCH   6  24
BRANCH   8  26
ATOM     26  O   UNL     1      24.258  23.484   5.812  1.00  0.00    -0.508 OA
ATOM     27  H   UNL     1      24.145  22.730   5.144  1.00  0.00     0.293 HD
ENDBRANCH   8  26
TORSDOF 6
ENDMDL
MODEL 8
REMARK VINA RESULT:    -4.701      3.949      6.825
REMARK INTER + INTRA:          -5.647
REMARK INTER:                  -5.483
REMARK INTRA:                  -0.163
REMARK UNBOUND:                 0.017
REMARK SMILES O=c1c(O)c(-c2ccc(O)c(O)c2)oc2cc(O)cc(O)c12
REMARK SMILES IDX 5 1 3 2 2 3 1 4 22 5 20 6 19 7 17 8 16 9 15 10 14 11 6 12
REMARK SMILES IDX 7 13 8 14 9 15 13 16 11 17 10 18 12 20 4 22 21 24 18 26
REMARK H PARENT 10 19 12 21 4 23 21 25 18 27
REMARK Flexibility Score: inf
ROOT
ATOM      1  C   UNL     1      28.017  24.567   7.343  1.00  0.00     0.180 A 
ATOM      2  C   UNL     1      28.395  23.769   6.251  1.00  0.00     0.208 A 
ATOM      3  C   UNL     1      28.706  22.417   6.471  1.00  0.00     0.238 A 
ATOM      4  O   UNL     1      29.116  21.727   5.501  1.00  0.00    -0.285 OA
ATOM      5  C   UNL     1      28.580  21.867   7.770  1.00  0.00     0.111 A 
ATOM      6  C   UNL     1      28.825  20.500   8.100  1.00  0.00     0.134 A 
ATOM      7  C   UNL     1      28.772  20.092   9.439  1.00  0.00     0.093 A 
ATOM      8  C   UNL     1      28.420  20.985  10.450  1.00  0.00     0.123 A 
ATOM      9  C   UNL     1      28.125  22.311  10.132  1.00  0.00     0.094 A 
ATOM     10  C   UNL     1      28.207  22.757   8.811  1.00  0.00     0.146 A 
ATOM     11  O   UNL     1      27.939  24.031   8.555  1.00  0.00    -0.452 OA
ENDROOT
BRANCH   1  12
ATOM     12  C   UNL     1      27.688  26.004   7.193  1.00  0.00     0.025 A 
ATOM     13  C   UNL     1      26.583  26.427   6.434  1.00  0.00     0.016 A 
ATOM     14  C   UNL     1      26.307  27.789   6.287  1.00  0.00     0.051 A 
ATOM     15  C   UNL     1      27.135  28.747   6.880  1.00  0.00     0.157 A 
ATOM     16  C   UNL     1      28.530  26.969   7.770  1.00  0.00     0.062 A 
ATOM     17  C   UNL     1      28.254  28.336   7.623  1.00  0.00     0.158 A 
BRANCH  15  18
ATOM     18  O   UNL     1      26.834  30.098   6.717  1.00  0.00    -0.504 OA
ATOM     19  H   UNL     1      27.467  30.739   6.253  1.00  0.00     0.293 HD
ENDBRANCH  15  18
BRANCH  17  20
ATOM     20  O   UNL     1      29.089  29.285   8.212  1.00  0.00    -0.504 OA
ATOM     21  H   UNL     1      28.919  30.279   8.110  1.00  0.00     0.293 HD
ENDBRANCH  17  20
ENDBRANCH   1  12
BRANCH   2  22
ATOM     22  O   UNL     1      28.441  24.311   4.963  1.00  0.00    -0.502 OA
ATOM     23  H   UNL     1      27.783  25.012   4.645  1.00  0.00     0.293 HD
ENDBRANCH   2  22
BRANCH   6  24
ATOM     24  O   UNL     1      29.098  19.503   7.159  1.00  0.00    -0.507 OA
ATOM     25  H   UNL     1      28.568  18.652   7.048  1.00  0.00     0.293 HD
ENDBRANCH   6  24
BRANCH   8  26
ATOM     26  O   UNL     1      28.359  20.541  11.769  1.00  0.00    -0.508 OA
ATOM     27  H   UNL     1      28.112  21.164  12.529  1.00  0.00     0.293 HD
ENDBRANCH   8  26
TORSDOF 6
ENDMDL
