MODEL 1
REMARK VINA RESULT:    -4.256      0.000      0.000
REMARK INTER + INTRA:          -9.090
REMARK INTER:                  -7.241
REMARK INTRA:                  -1.849
REMARK UNBOUND:                -1.849
REMARK SMILES CCCCCCCCCCCCCC(=O)[O-]
REMARK SMILES IDX 8 1 9 2 10 3 11 4 12 5 13 6 14 7 15 8 16 9 7 10 6 11 5 12
REMARK SMILES IDX 4 13 3 14 2 15 1 16
REMARK H PARENT
REMARK Flexibility Score: inf
ROOT
ATOM      1  C   UNL     1      13.511 -30.329  24.008  1.00  0.00     0.000 C 
ENDROOT
BRANCH   1   2
ATOM      2  C   UNL     1      13.488 -31.507  23.018  1.00  0.00     0.000 C 
BRANCH   2   3
ATOM      3  C   UNL     1      12.931 -31.114  21.641  1.00  0.00     0.000 C 
BRANCH   3   4
ATOM      4  C   UNL     1      13.486 -31.995  20.508  1.00  0.00     0.000 C 
BRANCH   4   5
ATOM      5  C   UNL     1      14.614 -32.925  20.984  1.00  0.00     0.006 C 
BRANCH   5   6
ATOM      6  C   UNL     1      14.911 -34.055  19.990  1.00  0.00     0.053 C 
BRANCH   6   7
ATOM      7  C   UNL     1      16.387 -34.259  19.858  1.00  0.00     0.041 C 
ATOM      8  O   UNL     1      16.840 -35.360  19.449  1.00  0.00    -0.550 OA
ATOM      9  O   UNL     1      17.265 -33.249  20.233  1.00  0.00    -0.550 OA
ENDBRANCH   6   7
ENDBRANCH   5   6
ENDBRANCH   4   5
ENDBRANCH   3   4
ENDBRANCH   2   3
ENDBRANCH   1   2
BRANCH   1  10
ATOM     10  C   UNL     1      13.590 -28.967  23.300  1.00  0.00     0.000 C 
BRANCH  10  11
ATOM     11  C   UNL     1      15.029 -28.429  23.214  1.00  0.00    -0.000 C 
BRANCH  11  12
ATOM     12  C   UNL     1      15.660 -28.627  21.824  1.00  0.00    -0.000 C 
BRANCH  12  13
ATOM     13  C   UNL     1      16.655 -29.798  21.725  1.00  0.00    -0.000 C 
BRANCH  13  14
ATOM     14  C   UNL     1      17.388 -30.075  23.046  1.00  0.00    -0.000 C 
BRANCH  14  15
ATOM     15  C   UNL     1      17.149 -31.513  23.516  1.00  0.00    -0.003 C 
ATOM     16  C   UNL     1      17.861 -31.789  24.837  1.00  0.00     0.004 C 
ENDBRANCH  14  15
ENDBRANCH  13  14
ENDBRANCH  12  13
ENDBRANCH  11  12
ENDBRANCH  10  11
ENDBRANCH   1  10
TORSDOF 12
ENDMDL
MODEL 2
REMARK VINA RESULT:    -4.173      2.001      4.275
REMARK INTER + INTRA:          -8.949
REMARK INTER:                  -7.145
REMARK INTRA:                  -1.804
REMARK UNBOUND:                -1.849
REMARK SMILES CCCCCCCCCCCCCC(=O)[O-]
REMARK SMILES IDX 8 1 9 2 10 3 11 4 12 5 13 6 14 7 15 8 16 9 7 10 6 11 5 12
REMARK SMILES IDX 4 13 3 14 2 15 1 16
REMARK H PARENT
REMARK Flexibility Score: inf
ROOT
ATOM      1  C   UNL     1      15.329 -34.150  22.047  1.00  0.00     0.000 C 
ENDROOT
BRANCH   1   2
ATOM      2  C   UNL     1      15.768 -33.255  20.874  1.00  0.00     0.000 C 
BRANCH   2   3
ATOM      3  C   UNL     1      17.073 -32.495  21.163  1.00  0.00     0.000 C 
BRANCH   3   4
ATOM      4  C   UNL     1      18.193 -32.851  20.169  1.00  0.00     0.000 C 
BRANCH   4   5
ATOM      5  C   UNL     1      17.967 -34.212  19.490  1.00  0.00     0.006 C 
BRANCH   5   6
ATOM      6  C   UNL     1      18.547 -35.381  20.297  1.00  0.00     0.053 C 
BRANCH   6   7
ATOM      7  C   UNL     1      17.604 -36.542  20.284  1.00  0.00     0.041 C 
ATOM      8  O   UNL     1      17.901 -37.607  20.889  1.00  0.00    -0.550 OA
ATOM      9  O   UNL     1      16.418 -36.467  19.565  1.00  0.00    -0.550 OA
ENDBRANCH   6   7
ENDBRANCH   5   6
ENDBRANCH   4   5
ENDBRANCH   3   4
ENDBRANCH   2   3
ENDBRANCH   1   2
BRANCH   1  10
ATOM     10  C   UNL     1      16.292 -34.067  23.242  1.00  0.00     0.000 C 
BRANCH  10  11
ATOM     11  C   UNL     1      15.756 -33.168  24.371  1.00  0.00    -0.000 C 
BRANCH  11  12
ATOM     12  C   UNL     1      14.222 -33.044  24.358  1.00  0.00    -0.000 C 
BRANCH  12  13
ATOM     13  C   UNL     1      13.689 -31.615  24.151  1.00  0.00    -0.000 C 
BRANCH  13  14
ATOM     14  C   UNL     1      14.705 -30.690  23.465  1.00  0.00    -0.000 C 
BRANCH  14  15
ATOM     15  C   UNL     1      14.180 -30.205  22.109  1.00  0.00    -0.003 C 
ATOM     16  C   UNL     1      12.930 -30.975  21.694  1.00  0.00     0.004 C 
ENDBRANCH  14  15
ENDBRANCH  13  14
ENDBRANCH  12  13
ENDBRANCH  11  12
ENDBRANCH  10  11
ENDBRANCH   1  10
TORSDOF 12
ENDMDL
MODEL 3
REMARK VINA RESULT:    -4.152      4.932      7.350
REMARK INTER + INTRA:          -8.914
REMARK INTER:                  -8.124
REMARK INTRA:                  -0.790
REMARK UNBOUND:                -1.849
REMARK SMILES CCCCCCCCCCCCCC(=O)[O-]
REMARK SMILES IDX 8 1 9 2 10 3 11 4 12 5 13 6 14 7 15 8 16 9 7 10 6 11 5 12
REMARK SMILES IDX 4 13 3 14 2 15 1 16
REMARK H PARENT
REMARK Flexibility Score: inf
ROOT
ATOM      1  C   UNL     1      17.245 -28.009  22.379  1.00  0.00     0.000 C 
ENDROOT
BRANCH   1   2
ATOM      2  C   UNL     1      18.345 -28.792  21.640  1.00  0.00     0.000 C 
BRANCH   2   3
ATOM      3  C   UNL     1      19.016 -27.968  20.529  1.00  0.00     0.000 C 
BRANCH   3   4
ATOM      4  C   UNL     1      20.310 -27.286  21.003  1.00  0.00     0.000 C 
BRANCH   4   5
ATOM      5  C   UNL     1      20.639 -26.020  20.195  1.00  0.00     0.006 C 
BRANCH   5   6
ATOM      6  C   UNL     1      21.889 -25.295  20.709  1.00  0.00     0.053 C 
BRANCH   6   7
ATOM      7  C   UNL     1      23.043 -25.525  19.785  1.00  0.00     0.041 C 
ATOM      8  O   UNL     1      23.607 -24.551  19.221  1.00  0.00    -0.550 OA
ATOM      9  O   UNL     1      23.465 -26.820  19.509  1.00  0.00    -0.550 OA
ENDBRANCH   6   7
ENDBRANCH   5   6
ENDBRANCH   4   5
ENDBRANCH   3   4
ENDBRANCH   2   3
ENDBRANCH   1   2
BRANCH   1  10
ATOM     10  C   UNL     1      15.832 -28.496  22.017  1.00  0.00     0.000 C 
BRANCH  10  11
ATOM     11  C   UNL     1      15.729 -30.030  21.978  1.00  0.00    -0.000 C 
BRANCH  11  12
ATOM     12  C   UNL     1      15.557 -30.654  23.375  1.00  0.00    -0.000 C 
BRANCH  12  13
ATOM     13  C   UNL     1      14.101 -30.750  23.866  1.00  0.00    -0.000 C 
BRANCH  13  14
ATOM     14  C   UNL     1      13.080 -30.754  22.719  1.00  0.00    -0.000 C 
BRANCH  14  15
ATOM     15  C   UNL     1      12.073 -29.610  22.875  1.00  0.00    -0.003 C 
ATOM     16  C   UNL     1      12.471 -28.675  24.014  1.00  0.00     0.004 C 
ENDBRANCH  14  15
ENDBRANCH  13  14
ENDBRANCH  12  13
ENDBRANCH  11  12
ENDBRANCH  10  11
ENDBRANCH   1  10
TORSDOF 12
ENDMDL
MODEL 4
REMARK VINA RESULT:    -4.142      1.779      3.950
REMARK INTER + INTRA:          -8.897
REMARK INTER:                  -7.573
REMARK INTRA:                  -1.324
REMARK UNBOUND:                -1.849
REMARK SMILES CCCCCCCCCCCCCC(=O)[O-]
REMARK SMILES IDX 8 1 9 2 10 3 11 4 12 5 13 6 14 7 15 8 16 9 7 10 6 11 5 12
REMARK SMILES IDX 4 13 3 14 2 15 1 16
REMARK H PARENT
REMARK Flexibility Score: inf
ROOT
ATOM      1  C   UNL     1      15.383 -33.670  23.064  1.00  0.00     0.000 C 
ENDROOT
BRANCH   1   2
ATOM      2  C   UNL     1      16.918 -33.564  23.000  1.00  0.00     0.000 C 
BRANCH   2   3
ATOM      3  C   UNL     1      17.397 -32.206  22.465  1.00  0.00     0.000 C 
BRANCH   3   4
ATOM      4  C   UNL     1      17.562 -32.200  20.935  1.00  0.00     0.000 C 
BRANCH   4   5
ATOM      5  C   UNL     1      18.214 -33.489  20.409  1.00  0.00     0.006 C 
BRANCH   5   6
ATOM      6  C   UNL     1      17.499 -34.054  19.174  1.00  0.00     0.053 C 
BRANCH   6   7
ATOM      7  C   UNL     1      16.268 -34.801  19.579  1.00  0.00     0.041 C 
ATOM      8  O   UNL     1      16.329 -36.034  19.829  1.00  0.00    -0.550 OA
ATOM      9  O   UNL     1      15.044 -34.147  19.634  1.00  0.00    -0.550 OA
ENDBRANCH   6   7
ENDBRANCH   5   6
ENDBRANCH   4   5
ENDBRANCH   3   4
ENDBRANCH   2   3
ENDBRANCH   1   2
BRANCH   1  10
ATOM     10  C   UNL     1      14.799 -32.990  24.313  1.00  0.00     0.000 C 
BRANCH  10  11
ATOM     11  C   UNL     1      13.619 -32.060  23.980  1.00  0.00    -0.000 C 
BRANCH  11  12
ATOM     12  C   UNL     1      13.623 -31.589  22.515  1.00  0.00    -0.000 C 
BRANCH  12  13
ATOM     13  C   UNL     1      13.595 -30.061  22.326  1.00  0.00    -0.000 C 
BRANCH  13  14
ATOM     14  C   UNL     1      13.974 -29.292  23.599  1.00  0.00    -0.000 C 
BRANCH  14  15
ATOM     15  C   UNL     1      12.821 -28.396  24.064  1.00  0.00    -0.003 C 
ATOM     16  C   UNL     1      11.559 -28.649  23.244  1.00  0.00     0.004 C 
ENDBRANCH  14  15
ENDBRANCH  13  14
ENDBRANCH  12  13
ENDBRANCH  11  12
ENDBRANCH  10  11
ENDBRANCH   1  10
TORSDOF 12
ENDMDL
MODEL 5
REMARK VINA RESULT:    -4.128      3.463      5.615
REMARK INTER + INTRA:          -8.873
REMARK INTER:                  -7.548
REMARK INTRA:                  -1.325
REMARK UNBOUND:                -1.849
REMARK SMILES CCCCCCCCCCCCCC(=O)[O-]
REMARK SMILES IDX 8 1 9 2 10 3 11 4 12 5 13 6 14 7 15 8 16 9 7 10 6 11 5 12
REMARK SMILES IDX 4 13 3 14 2 15 1 16
REMARK H PARENT
REMARK Flexibility Score: inf
ROOT
ATOM      1  C   UNL     1      15.244 -34.403  19.995  1.00  0.00     0.000 C 
ENDROOT
BRANCH   1   2
ATOM      2  C   UNL     1      14.782 -33.506  21.158  1.00  0.00     0.000 C 
BRANCH   2   3
ATOM      3  C   UNL     1      13.795 -32.416  20.712  1.00  0.00     0.000 C 
BRANCH   3   4
ATOM      4  C   UNL     1      14.000 -31.091  21.467  1.00  0.00     0.000 C 
BRANCH   4   5
ATOM      5  C   UNL     1      12.766 -30.683  22.287  1.00  0.00     0.006 C 
BRANCH   5   6
ATOM      6  C   UNL     1      13.132 -30.071  23.645  1.00  0.00     0.053 C 
BRANCH   6   7
ATOM      7  C   UNL     1      12.474 -28.737  23.811  1.00  0.00     0.041 C 
ATOM      8  O   UNL     1      11.235 -28.614  23.623  1.00  0.00    -0.550 OA
ATOM      9  O   UNL     1      13.238 -27.620  24.128  1.00  0.00    -0.550 OA
ENDBRANCH   6   7
ENDBRANCH   5   6
ENDBRANCH   4   5
ENDBRANCH   3   4
ENDBRANCH   2   3
ENDBRANCH   1   2
BRANCH   1  10
ATOM     10  C   UNL     1      16.270 -35.458  20.438  1.00  0.00     0.000 C 
BRANCH  10  11
ATOM     11  C   UNL     1      17.621 -35.306  19.718  1.00  0.00    -0.000 C 
BRANCH  11  12
ATOM     12  C   UNL     1      17.951 -33.844  19.368  1.00  0.00    -0.000 C 
BRANCH  12  13
ATOM     13  C   UNL     1      18.655 -33.053  20.486  1.00  0.00    -0.000 C 
BRANCH  13  14
ATOM     14  C   UNL     1      18.075 -31.645  20.680  1.00  0.00    -0.000 C 
BRANCH  14  15
ATOM     15  C   UNL     1      17.580 -31.447  22.117  1.00  0.00    -0.003 C 
ATOM     16  C   UNL     1      18.142 -32.519  23.047  1.00  0.00     0.004 C 
ENDBRANCH  14  15
ENDBRANCH  13  14
ENDBRANCH  12  13
ENDBRANCH  11  12
ENDBRANCH  10  11
ENDBRANCH   1  10
TORSDOF 12
ENDMDL
MODEL 6
REMARK VINA RESULT:    -4.111      2.932      5.204
REMARK INTER + INTRA:          -8.845
REMARK INTER:                  -7.213
REMARK INTRA:                  -1.631
REMARK UNBOUND:                -1.849
REMARK SMILES CCCCCCCCCCCCCC(=O)[O-]
REMARK SMILES IDX 8 1 9 2 10 3 11 4 12 5 13 6 14 7 15 8 16 9 7 10 6 11 5 12
REMARK SMILES IDX 4 13 3 14 2 15 1 16
REMARK H PARENT
REMARK Flexibility Score: inf
ROOT
ATOM      1  C   UNL     1      15.545 -34.641  20.812  1.00  0.00     0.000 C 
ENDROOT
BRANCH   1   2
ATOM      2  C   UNL     1      14.569 -33.585  20.262  1.00  0.00     0.000 C 
BRANCH   2   3
ATOM      3  C   UNL     1      14.204 -32.515  21.304  1.00  0.00     0.000 C 
BRANCH   3   4
ATOM      4  C   UNL     1      14.621 -32.916  22.730  1.00  0.00     0.000 C 
BRANCH   4   5
ATOM      5  C   UNL     1      13.899 -32.091  23.808  1.00  0.00     0.006 C 
BRANCH   5   6
ATOM      6  C   UNL     1      14.220 -30.593  23.722  1.00  0.00     0.053 C 
BRANCH   6   7
ATOM      7  C   UNL     1      12.958 -29.796  23.616  1.00  0.00     0.041 C 
ATOM      8  O   UNL     1      12.679 -28.931  24.487  1.00  0.00    -0.550 OA
ATOM      9  O   UNL     1      12.066 -30.041  22.579  1.00  0.00    -0.550 OA
ENDBRANCH   6   7
ENDBRANCH   5   6
ENDBRANCH   4   5
ENDBRANCH   3   4
ENDBRANCH   2   3
ENDBRANCH   1   2
BRANCH   1  10
ATOM     10  C   UNL     1      16.442 -35.240  19.715  1.00  0.00     0.000 C 
BRANCH  10  11
ATOM     11  C   UNL     1      17.632 -34.330  19.365  1.00  0.00    -0.000 C 
BRANCH  11  12
ATOM     12  C   UNL     1      18.315 -33.733  20.608  1.00  0.00    -0.000 C 
BRANCH  12  13
ATOM     13  C   UNL     1      18.459 -32.201  20.595  1.00  0.00    -0.000 C 
BRANCH  13  14
ATOM     14  C   UNL     1      17.747 -31.521  21.774  1.00  0.00    -0.000 C 
BRANCH  14  15
ATOM     15  C   UNL     1      18.485 -31.788  23.090  1.00  0.00    -0.003 C 
ATOM     16  C   UNL     1      17.787 -31.106  24.263  1.00  0.00     0.004 C 
ENDBRANCH  14  15
ENDBRANCH  13  14
ENDBRANCH  12  13
ENDBRANCH  11  12
ENDBRANCH  10  11
ENDBRANCH   1  10
TORSDOF 12
ENDMDL
MODEL 7
REMARK VINA RESULT:    -4.088      1.760      2.658
REMARK INTER + INTRA:          -8.805
REMARK INTER:                  -7.081
REMARK INTRA:                  -1.724
REMARK UNBOUND:                -1.849
REMARK SMILES CCCCCCCCCCCCCC(=O)[O-]
REMARK SMILES IDX 8 1 9 2 10 3 11 4 12 5 13 6 14 7 15 8 16 9 7 10 6 11 5 12
REMARK SMILES IDX 4 13 3 14 2 15 1 16
REMARK H PARENT
REMARK Flexibility Score: inf
ROOT
ATOM      1  C   UNL     1      13.858 -32.056  24.261  1.00  0.00     0.000 C 
ENDROOT
BRANCH   1   2
ATOM      2  C   UNL     1      14.678 -33.225  23.685  1.00  0.00     0.000 C 
BRANCH   2   3
ATOM      3  C   UNL     1      15.778 -33.707  24.644  1.00  0.00     0.000 C 
BRANCH   3   4
ATOM      4  C   UNL     1      16.794 -34.635  23.955  1.00  0.00     0.000 C 
BRANCH   4   5
ATOM      5  C   UNL     1      17.024 -34.264  22.481  1.00  0.00     0.006 C 
BRANCH   5   6
ATOM      6  C   UNL     1      17.266 -35.491  21.592  1.00  0.00     0.053 C 
BRANCH   6   7
ATOM      7  C   UNL     1      16.360 -35.459  20.401  1.00  0.00     0.041 C 
ATOM      8  O   UNL     1      16.728 -35.970  19.310  1.00  0.00    -0.550 OA
ATOM      9  O   UNL     1      15.128 -34.821  20.482  1.00  0.00    -0.550 OA
ENDBRANCH   6   7
ENDBRANCH   5   6
ENDBRANCH   4   5
ENDBRANCH   3   4
ENDBRANCH   2   3
ENDBRANCH   1   2
BRANCH   1  10
ATOM     10  C   UNL     1      13.104 -31.274  23.173  1.00  0.00     0.000 C 
BRANCH  10  11
ATOM     11  C   UNL     1      13.182 -29.751  23.381  1.00  0.00    -0.000 C 
BRANCH  11  12
ATOM     12  C   UNL     1      14.479 -29.137  22.826  1.00  0.00    -0.000 C 
BRANCH  12  13
ATOM     13  C   UNL     1      15.100 -29.898  21.640  1.00  0.00    -0.000 C 
BRANCH  13  14
ATOM     14  C   UNL     1      16.516 -30.415  21.935  1.00  0.00    -0.000 C 
BRANCH  14  15
ATOM     15  C   UNL     1      17.014 -29.910  23.294  1.00  0.00    -0.003 C 
ATOM     16  C   UNL     1      17.946 -30.923  23.952  1.00  0.00     0.004 C 
ENDBRANCH  14  15
ENDBRANCH  13  14
ENDBRANCH  12  13
ENDBRANCH  11  12
ENDBRANCH  10  11
ENDBRANCH   1  10
TORSDOF 12
ENDMDL
MODEL 8
REMARK VINA RESULT:    -4.080      3.217      5.394
REMARK INTER + INTRA:          -8.791
REMARK INTER:                  -7.216
REMARK INTRA:                  -1.575
REMARK UNBOUND:                -1.849
REMARK SMILES CCCCCCCCCCCCCC(=O)[O-]
REMARK SMILES IDX 8 1 9 2 10 3 11 4 12 5 13 6 14 7 15 8 16 9 7 10 6 11 5 12
REMARK SMILES IDX 4 13 3 14 2 15 1 16
REMARK H PARENT
REMARK Flexibility Score: inf
ROOT
ATOM      1  C   UNL     1      14.883 -34.192  20.257  1.00  0.00     0.000 C 
ENDROOT
BRANCH   1   2
ATOM      2  C   UNL     1      14.979 -33.737  21.724  1.00  0.00     0.000 C 
BRANCH   2   3
ATOM      3  C   UNL     1      14.745 -32.228  21.894  1.00  0.00     0.000 C 
BRANCH   3   4
ATOM      4  C   UNL     1      13.542 -31.723  21.079  1.00  0.00     0.000 C 
BRANCH   4   5
ATOM      5  C   UNL     1      12.589 -30.852  21.915  1.00  0.00     0.006 C 
BRANCH   5   6
ATOM      6  C   UNL     1      13.038 -30.714  23.375  1.00  0.00     0.053 C 
BRANCH   6   7
ATOM      7  C   UNL     1      13.166 -29.270  23.747  1.00  0.00     0.041 C 
ATOM      8  O   UNL     1      12.269 -28.709  24.429  1.00  0.00    -0.550 OA
ATOM      9  O   UNL     1      14.254 -28.531  23.298  1.00  0.00    -0.550 OA
ENDBRANCH   6   7
ENDBRANCH   5   6
ENDBRANCH   4   5
ENDBRANCH   3   4
ENDBRANCH   2   3
ENDBRANCH   1   2
BRANCH   1  10
ATOM     10  C   UNL     1      16.058 -35.092  19.842  1.00  0.00     0.000 C 
BRANCH  10  11
ATOM     11  C   UNL     1      17.112 -34.340  19.010  1.00  0.00    -0.000 C 
BRANCH  11  12
ATOM     12  C   UNL     1      18.400 -34.048  19.800  1.00  0.00    -0.000 C 
BRANCH  12  13
ATOM     13  C   UNL     1      18.357 -32.775  20.664  1.00  0.00    -0.000 C 
BRANCH  13  14
ATOM     14  C   UNL     1      18.668 -33.044  22.144  1.00  0.00    -0.000 C 
BRANCH  14  15
ATOM     15  C   UNL     1      18.914 -34.536  22.391  1.00  0.00    -0.003 C 
ATOM     16  C   UNL     1      17.912 -35.102  23.394  1.00  0.00     0.004 C 
ENDBRANCH  14  15
ENDBRANCH  13  14
ENDBRANCH  12  13
ENDBRANCH  11  12
ENDBRANCH  10  11
ENDBRANCH   1  10
TORSDOF 12
ENDMDL
MODEL 9
REMARK VINA RESULT:    -4.027      2.819      5.051
REMARK INTER + INTRA:          -8.702
REMARK INTER:                  -6.927
REMARK INTRA:                  -1.774
REMARK UNBOUND:                -1.849
REMARK SMILES CCCCCCCCCCCCCC(=O)[O-]
REMARK SMILES IDX 8 1 9 2 10 3 11 4 12 5 13 6 14 7 15 8 16 9 7 10 6 11 5 12
REMARK SMILES IDX 4 13 3 14 2 15 1 16
REMARK H PARENT
REMARK Flexibility Score: inf
ROOT
ATOM      1  C   UNL     1      16.468 -33.742  23.248  1.00  0.00     0.000 C 
ENDROOT
BRANCH   1   2
ATOM      2  C   UNL     1      17.074 -32.591  24.071  1.00  0.00     0.000 C 
BRANCH   2   3
ATOM      3  C   UNL     1      18.125 -31.790  23.287  1.00  0.00     0.000 C 
BRANCH   3   4
ATOM      4  C   UNL     1      18.092 -32.093  21.778  1.00  0.00     0.000 C 
BRANCH   4   5
ATOM      5  C   UNL     1      18.150 -30.819  20.920  1.00  0.00     0.006 C 
BRANCH   5   6
ATOM      6  C   UNL     1      19.307 -29.891  21.314  1.00  0.00     0.053 C 
BRANCH   6   7
ATOM      7  C   UNL     1      18.871 -28.461  21.256  1.00  0.00     0.041 C 
ATOM      8  O   UNL     1      19.483 -27.641  20.522  1.00  0.00    -0.550 OA
ATOM      9  O   UNL     1      17.819 -28.022  22.051  1.00  0.00    -0.550 OA
ENDBRANCH   6   7
ENDBRANCH   5   6
ENDBRANCH   4   5
ENDBRANCH   3   4
ENDBRANCH   2   3
ENDBRANCH   1   2
BRANCH   1  10
ATOM     10  C   UNL     1      14.958 -33.569  23.018  1.00  0.00     0.000 C 
BRANCH  10  11
ATOM     11  C   UNL     1      14.632 -33.064  21.601  1.00  0.00    -0.000 C 
BRANCH  11  12
ATOM     12  C   UNL     1      13.784 -31.780  21.605  1.00  0.00    -0.000 C 
BRANCH  12  13
ATOM     13  C   UNL     1      14.592 -30.470  21.659  1.00  0.00    -0.000 C 
BRANCH  13  14
ATOM     14  C   UNL     1      14.749 -29.922  23.085  1.00  0.00    -0.000 C 
BRANCH  14  15
ATOM     15  C   UNL     1      13.502 -30.211  23.926  1.00  0.00    -0.003 C 
ATOM     16  C   UNL     1      12.656 -28.955  24.111  1.00  0.00     0.004 C 
ENDBRANCH  14  15
ENDBRANCH  13  14
ENDBRANCH  12  13
ENDBRANCH  11  12
ENDBRANCH  10  11
ENDBRANCH   1  10
TORSDOF 12
ENDMDL
