MODEL 1
REMARK VINA RESULT:    66.372      0.000      0.000
REMARK INTER + INTRA:          87.322
REMARK INTER:                  87.712
REMARK INTRA:                  -0.390
REMARK UNBOUND:                -0.390
REMARK SMILES CC[C@H](C=C[C@H](C)[C@@H]1CC[C@H]2C3=CC[C@@H]4C[C@H](O)CC[C@]4(C)[C@@H]3CC[C@@]21C)C(C)C
REMARK SMILES IDX 6 1 7 2 5 3 4 4 3 5 2 6 1 7 28 8 29 9 30 10 8 11 9 12 26 13
REMARK SMILES IDX 10 14 11 15 25 16 27 17 12 18 24 19 23 20 13 21 21 22 14 23
REMARK SMILES IDX 15 24 20 25 22 26 16 27 19 28 17 29 18 30
REMARK H PARENT 18 31
REMARK Flexibility Score: inf
ROOT
ATOM      1  C   UNL     1     -29.385  31.635  -2.134  1.00  0.00     0.012 C 
ATOM      2  C   UNL     1     -29.577  31.686  -0.596  1.00  0.00     0.012 C 
ENDROOT
BRANCH   1   3
ATOM      3  C   UNL     1     -30.731  31.596  -2.821  1.00  0.00    -0.028 C 
ATOM      4  C   UNL     1     -31.569  30.564  -2.629  1.00  0.00    -0.027 C 
BRANCH   4   5
ATOM      5  C   UNL     1     -33.074  30.642  -2.867  1.00  0.00     0.014 C 
BRANCH   5   6
ATOM      6  C   UNL     1     -33.456  30.133  -4.299  1.00  0.00     0.004 C 
ATOM      7  C   UNL     1     -34.911  30.431  -4.674  1.00  0.00     0.004 C 
ENDBRANCH   5   6
BRANCH   5   8
ATOM      8  C   UNL     1     -33.922  30.042  -1.691  1.00  0.00    -0.011 C 
ATOM      9  C   UNL     1     -33.950  28.501  -1.612  1.00  0.00     0.008 C 
ATOM     10  C   UNL     1     -35.351  30.606  -1.691  1.00  0.00     0.008 C 
ENDBRANCH   5   8
ENDBRANCH   4   5
ENDBRANCH   1   3
BRANCH   1  11
ATOM     11  C   UNL     1     -28.390  32.671  -2.803  1.00  0.00     0.002 C 
ATOM     12  C   UNL     1     -29.167  33.769  -3.582  1.00  0.00     0.005 C 
ATOM     13  C   UNL     1     -27.309  32.211  -3.849  1.00  0.00    -0.023 C 
ATOM     14  C   UNL     1     -28.977  33.494  -5.088  1.00  0.00     0.009 C 
ATOM     15  C   UNL     1     -28.146  32.208  -5.144  1.00  0.00     0.021 C 
ATOM     16  C   UNL     1     -26.646  30.813  -3.686  1.00  0.00     0.008 C 
ATOM     17  C   UNL     1     -26.144  33.282  -3.876  1.00  0.00     0.012 C 
ATOM     18  C   UNL     1     -27.398  31.844  -6.413  1.00  0.00    -0.067 C 
ATOM     19  C   UNL     1     -26.017  30.260  -5.017  1.00  0.00     0.009 C 
ATOM     20  C   UNL     1     -26.008  31.234  -6.247  1.00  0.00     0.021 C 
ATOM     21  C   UNL     1     -28.144  31.651  -7.528  1.00  0.00    -0.027 C 
ATOM     22  C   UNL     1     -25.377  30.717  -7.617  1.00  0.00    -0.023 C 
ATOM     23  C   UNL     1     -27.661  30.971  -8.781  1.00  0.00     0.031 C 
ATOM     24  C   UNL     1     -26.436  30.068  -8.567  1.00  0.00     0.002 C 
ATOM     25  C   UNL     1     -24.174  29.737  -7.417  1.00  0.00     0.010 C 
ATOM     26  C   UNL     1     -24.794  31.975  -8.350  1.00  0.00     0.012 C 
ATOM     27  C   UNL     1     -26.841  28.645  -8.154  1.00  0.00     0.036 C 
ATOM     28  C   UNL     1     -24.550  28.270  -7.135  1.00  0.00     0.032 C 
ATOM     29  C   UNL     1     -25.619  27.720  -8.090  1.00  0.00     0.114 C 
BRANCH  29  30
ATOM     30  O   UNL     1     -26.033  26.455  -7.642  1.00  0.00    -0.393 OA
ATOM     31  H   UNL     1     -26.997  26.366  -7.841  1.00  0.00     0.210 HD
ENDBRANCH  29  30
ENDBRANCH   1  11
TORSDOF 6
ENDMDL
