MODEL 1
REMARK VINA RESULT:     1.477      0.000      0.000
REMARK INTER + INTRA:           1.658
REMARK INTER:                   1.606
REMARK INTRA:                   0.052
REMARK UNBOUND:                 0.052
REMARK SMILES C[C@H]1[C@H]2C3=CC[C@H]4[C@]5(C)CC[C@@H](O)C(C)(C)[C@@H]5CC[C@@]4(C)[C@@]3(C)CC[C@@]2(C(=O)[O-])CC[C@@H]1C
REMARK SMILES IDX 26 1 30 2 25 3 3 4 31 5 24 6 4 7 2 8 32 9 22 10 5 11 1 12
REMARK SMILES IDX 33 13 23 14 20 15 6 16 7 17 19 18 21 19 8 20 18 21 17 22
REMARK SMILES IDX 10 23 9 24 14 25 11 26 12 27 15 28 16 29 27 30 28 31 29 32
REMARK SMILES IDX 13 33
REMARK H PARENT 13 34
REMARK Flexibility Score: inf
ROOT
ATOM      1  C   UNL     1      99.871 113.308 108.596  1.00  0.00     0.017 C 
ATOM      2  C   UNL     1     100.124 113.574 110.108  1.00  0.00     0.014 C 
ATOM      3  C   UNL     1      99.098 114.511 107.974  1.00  0.00     0.014 C 
ATOM      4  C   UNL     1      99.126 111.882 108.419  1.00  0.00     0.030 C 
ATOM      5  C   UNL     1     101.056 112.508 110.753  1.00  0.00     0.004 C 
ATOM      6  C   UNL     1      97.594 114.377 108.091  1.00  0.00     0.013 C 
ATOM      7  C   UNL     1      97.648 111.905 107.982  1.00  0.00    -0.063 C 
ATOM      8  C   UNL     1      99.345 110.898 109.658  1.00  0.00    -0.003 C 
ATOM      9  C   UNL     1     100.756 111.052 110.310  1.00  0.00    -0.011 C 
ATOM     10  C   UNL     1      97.049 113.127 107.329  1.00  0.00    -0.006 C 
ATOM     11  C   UNL     1      97.052 110.704 107.794  1.00  0.00    -0.027 C 
ATOM     12  C   UNL     1      98.219 110.999 110.725  1.00  0.00     0.008 C 
ATOM     13  C   UNL     1     101.851 110.444 109.404  1.00  0.00     0.008 C 
ATOM     14  C   UNL     1      97.634 113.107 105.875  1.00  0.00     0.017 C 
ATOM     15  C   UNL     1      95.421 113.155 107.296  1.00  0.00    -0.020 C 
ATOM     16  C   UNL     1      95.849 110.542 106.951  1.00  0.00     0.032 C 
ATOM     17  C   UNL     1      94.802 111.673 107.198  1.00  0.00     0.006 C 
ATOM     18  C   UNL     1      94.786 113.902 108.537  1.00  0.00     0.008 C 
ATOM     19  C   UNL     1      94.988 114.009 106.042  1.00  0.00     0.012 C 
ATOM     20  C   UNL     1      93.684 111.285 108.269  1.00  0.00    -0.025 C 
ATOM     21  C   UNL     1      93.226 113.832 108.617  1.00  0.00     0.005 C 
ATOM     22  C   UNL     1      92.582 112.415 108.340  1.00  0.00     0.003 C 
ATOM     23  C   UNL     1      92.981 109.935 107.924  1.00  0.00     0.010 C 
ATOM     24  C   UNL     1      94.258 111.081 109.739  1.00  0.00     0.012 C 
ATOM     25  C   UNL     1      91.383 112.372 107.262  1.00  0.00    -0.006 C 
ATOM     26  C   UNL     1      92.171 110.005 106.614  1.00  0.00     0.033 C 
ATOM     27  C   UNL     1      90.960 110.908 106.821  1.00  0.00     0.120 C 
ATOM     28  C   UNL     1      90.121 113.064 107.895  1.00  0.00     0.014 C 
ATOM     29  C   UNL     1      91.680 113.179 105.965  1.00  0.00     0.014 C 
ENDROOT
BRANCH   1  30
ATOM     30  C   UNL     1     101.241 113.339 107.864  1.00  0.00     0.048 C 
ATOM     31  O   UNL     1     102.254 113.876 108.387  1.00  0.00    -0.550 OA
ATOM     32  O   UNL     1     101.436 112.499 106.743  1.00  0.00    -0.550 OA
ENDBRANCH   1  30
BRANCH  27  33
ATOM     33  O   UNL     1      90.003 110.318 107.697  1.00  0.00    -0.393 OA
ATOM     34  H   UNL     1      89.310 111.003 107.932  1.00  0.00     0.210 HD
ENDBRANCH  27  33
TORSDOF 2
ENDMDL
MODEL 2
REMARK VINA RESULT:     1.823      1.562      3.560
REMARK INTER + INTRA:           2.034
REMARK INTER:                   2.140
REMARK INTRA:                  -0.106
REMARK UNBOUND:                 0.052
REMARK SMILES C[C@H]1[C@H]2C3=CC[C@H]4[C@]5(C)CC[C@@H](O)C(C)(C)[C@@H]5CC[C@@]4(C)[C@@]3(C)CC[C@@]2(C(=O)[O-])CC[C@@H]1C
REMARK SMILES IDX 26 1 30 2 25 3 3 4 31 5 24 6 4 7 2 8 32 9 22 10 5 11 1 12
REMARK SMILES IDX 33 13 23 14 20 15 6 16 7 17 19 18 21 19 8 20 18 21 17 22
REMARK SMILES IDX 10 23 9 24 14 25 11 26 12 27 15 28 16 29 27 30 28 31 29 32
REMARK SMILES IDX 13 33
REMARK H PARENT 13 34
REMARK Flexibility Score: inf
ROOT
ATOM      1  C   UNL     1      99.257 111.529 108.664  1.00  0.00     0.017 C 
ATOM      2  C   UNL     1     100.041 111.578 107.321  1.00  0.00     0.014 C 
ATOM      3  C   UNL     1      98.574 110.136 108.821  1.00  0.00     0.014 C 
ATOM      4  C   UNL     1      98.232 112.779 108.735  1.00  0.00     0.030 C 
ATOM      5  C   UNL     1     100.905 112.864 107.182  1.00  0.00     0.004 C 
ATOM      6  C   UNL     1      97.196 110.074 108.194  1.00  0.00     0.013 C 
ATOM      7  C   UNL     1      96.727 112.468 108.611  1.00  0.00    -0.063 C 
ATOM      8  C   UNL     1      98.650 113.991 107.782  1.00  0.00    -0.003 C 
ATOM      9  C   UNL     1     100.198 114.159 107.662  1.00  0.00    -0.011 C 
ATOM     10  C   UNL     1      96.198 111.076 108.857  1.00  0.00    -0.006 C 
ATOM     11  C   UNL     1      95.879 113.519 108.717  1.00  0.00    -0.027 C 
ATOM     12  C   UNL     1      97.981 113.926 106.381  1.00  0.00     0.008 C 
ATOM     13  C   UNL     1     100.792 114.742 108.964  1.00  0.00     0.008 C 
ATOM     14  C   UNL     1      96.256 110.916 110.415  1.00  0.00     0.017 C 
ATOM     15  C   UNL     1      94.689 110.812 108.305  1.00  0.00    -0.020 C 
ATOM     16  C   UNL     1      94.460 113.354 109.090  1.00  0.00     0.032 C 
ATOM     17  C   UNL     1      93.794 112.149 108.353  1.00  0.00     0.006 C 
ATOM     18  C   UNL     1      94.656 110.219 106.839  1.00  0.00     0.008 C 
ATOM     19  C   UNL     1      94.043 109.693 109.210  1.00  0.00     0.012 C 
ATOM     20  C   UNL     1      93.038 112.561 107.009  1.00  0.00    -0.025 C 
ATOM     21  C   UNL     1      93.228 110.080 106.218  1.00  0.00     0.005 C 
ATOM     22  C   UNL     1      92.265 111.319 106.416  1.00  0.00     0.003 C 
ATOM     23  C   UNL     1      92.011 113.714 107.241  1.00  0.00     0.010 C 
ATOM     24  C   UNL     1      94.013 113.106 105.875  1.00  0.00     0.012 C 
ATOM     25  C   UNL     1      90.794 110.996 106.993  1.00  0.00    -0.006 C 
ATOM     26  C   UNL     1      90.846 113.294 108.159  1.00  0.00     0.033 C 
ATOM     27  C   UNL     1      89.971 112.281 107.428  1.00  0.00     0.120 C 
ATOM     28  C   UNL     1      89.972 110.258 105.875  1.00  0.00     0.014 C 
ATOM     29  C   UNL     1      90.800 110.018 108.205  1.00  0.00     0.014 C 
ENDROOT
BRANCH   1  30
ATOM     30  C   UNL     1     100.288 111.560 109.827  1.00  0.00     0.048 C 
ATOM     31  O   UNL     1      99.938 111.828 111.007  1.00  0.00    -0.550 OA
ATOM     32  O   UNL     1     101.565 110.990 109.622  1.00  0.00    -0.550 OA
ENDBRANCH   1  30
BRANCH  27  33
ATOM     33  O   UNL     1      89.260 112.878 106.347  1.00  0.00    -0.393 OA
ATOM     34  H   UNL     1      88.610 112.211 105.976  1.00  0.00     0.210 HD
ENDBRANCH  27  33
TORSDOF 2
ENDMDL
MODEL 3
REMARK VINA RESULT:     3.229      1.409      7.951
REMARK INTER + INTRA:           3.564
REMARK INTER:                   1.845
REMARK INTRA:                   1.719
REMARK UNBOUND:                 0.052
REMARK SMILES C[C@H]1[C@H]2C3=CC[C@H]4[C@]5(C)CC[C@@H](O)C(C)(C)[C@@H]5CC[C@@]4(C)[C@@]3(C)CC[C@@]2(C(=O)[O-])CC[C@@H]1C
REMARK SMILES IDX 26 1 30 2 25 3 3 4 31 5 24 6 4 7 2 8 32 9 22 10 5 11 1 12
REMARK SMILES IDX 33 13 23 14 20 15 6 16 7 17 19 18 21 19 8 20 18 21 17 22
REMARK SMILES IDX 10 23 9 24 14 25 11 26 12 27 15 28 16 29 27 30 28 31 29 32
REMARK SMILES IDX 13 33
REMARK H PARENT 13 34
REMARK Flexibility Score: inf
ROOT
ATOM      1  C   UNL     1      90.969 112.455 107.346  1.00  0.00     0.017 C 
ATOM      2  C   UNL     1      90.600 112.012 105.901  1.00  0.00     0.014 C 
ATOM      3  C   UNL     1      91.647 113.859 107.306  1.00  0.00     0.014 C 
ATOM      4  C   UNL     1      91.869 111.308 108.047  1.00  0.00     0.030 C 
ATOM      5  C   UNL     1      89.749 110.709 105.875  1.00  0.00     0.004 C 
ATOM      6  C   UNL     1      93.147 113.791 107.110  1.00  0.00     0.013 C 
ATOM      7  C   UNL     1      93.360 111.621 108.281  1.00  0.00    -0.063 C 
ATOM      8  C   UNL     1      91.682 109.866 107.383  1.00  0.00    -0.003 C 
ATOM      9  C   UNL     1      90.226 109.621 106.872  1.00  0.00    -0.011 C 
ATOM     10  C   UNL     1      93.864 113.044 108.279  1.00  0.00    -0.006 C 
ATOM     11  C   UNL     1      94.089 110.669 108.910  1.00  0.00    -0.027 C 
ATOM     12  C   UNL     1      92.725 109.565 106.271  1.00  0.00     0.008 C 
ATOM     13  C   UNL     1      89.257 109.400 108.056  1.00  0.00     0.008 C 
ATOM     14  C   UNL     1      93.372 113.624 109.649  1.00  0.00     0.017 C 
ATOM     15  C   UNL     1      95.479 113.195 108.135  1.00  0.00    -0.020 C 
ATOM     16  C   UNL     1      95.350 110.977 109.616  1.00  0.00     0.032 C 
ATOM     17  C   UNL     1      96.256 111.953 108.802  1.00  0.00     0.006 C 
ATOM     18  C   UNL     1      95.958 113.363 106.637  1.00  0.00     0.008 C 
ATOM     19  C   UNL     1      95.893 114.541 108.847  1.00  0.00     0.012 C 
ATOM     20  C   UNL     1      97.343 111.212 107.898  1.00  0.00    -0.025 C 
ATOM     21  C   UNL     1      97.509 113.372 106.440  1.00  0.00     0.005 C 
ATOM     22  C   UNL     1      98.314 112.268 107.237  1.00  0.00     0.003 C 
ATOM     23  C   UNL     1      98.203 110.203 108.722  1.00  0.00     0.010 C 
ATOM     24  C   UNL     1      96.708 110.344 106.726  1.00  0.00     0.012 C 
ATOM     25  C   UNL     1      99.572 112.786 108.103  1.00  0.00    -0.006 C 
ATOM     26  C   UNL     1      99.077 110.897 109.785  1.00  0.00     0.033 C 
ATOM     27  C   UNL     1     100.173 111.698 109.090  1.00  0.00     0.120 C 
ATOM     28  C   UNL     1     100.715 113.214 107.112  1.00  0.00     0.014 C 
ATOM     29  C   UNL     1      99.269 114.059 108.946  1.00  0.00     0.014 C 
ENDROOT
BRANCH   1  30
ATOM     30  C   UNL     1      89.649 112.711 108.125  1.00  0.00     0.048 C 
ATOM     31  O   UNL     1      88.712 111.868 108.124  1.00  0.00    -0.550 OA
ATOM     32  O   UNL     1      89.613 113.748 109.084  1.00  0.00    -0.550 OA
ENDBRANCH   1  30
BRANCH  27  33
ATOM     33  O   UNL     1     101.133 110.850 108.464  1.00  0.00    -0.393 OA
ATOM     34  H   UNL     1     102.051 111.207 108.647  1.00  0.00     0.210 HD
ENDBRANCH  27  33
TORSDOF 2
ENDMDL
MODEL 4
REMARK VINA RESULT:     3.502      1.159      7.979
REMARK INTER + INTRA:           3.860
REMARK INTER:                   3.735
REMARK INTRA:                   0.125
REMARK UNBOUND:                 0.052
REMARK SMILES C[C@H]1[C@H]2C3=CC[C@H]4[C@]5(C)CC[C@@H](O)C(C)(C)[C@@H]5CC[C@@]4(C)[C@@]3(C)CC[C@@]2(C(=O)[O-])CC[C@@H]1C
REMARK SMILES IDX 26 1 30 2 25 3 3 4 31 5 24 6 4 7 2 8 32 9 22 10 5 11 1 12
REMARK SMILES IDX 33 13 23 14 20 15 6 16 7 17 19 18 21 19 8 20 18 21 17 22
REMARK SMILES IDX 10 23 9 24 14 25 11 26 12 27 15 28 16 29 27 30 28 31 29 32
REMARK SMILES IDX 13 33
REMARK H PARENT 13 34
REMARK Flexibility Score: inf
ROOT
ATOM      1  C   UNL     1      92.396 111.030 108.112  1.00  0.00     0.017 C 
ATOM      2  C   UNL     1      91.674 111.949 109.139  1.00  0.00     0.014 C 
ATOM      3  C   UNL     1      93.182 109.915 108.868  1.00  0.00     0.014 C 
ATOM      4  C   UNL     1      93.312 111.934 107.132  1.00  0.00     0.030 C 
ATOM      5  C   UNL     1      90.716 112.967 108.457  1.00  0.00     0.004 C 
ATOM      6  C   UNL     1      94.587 110.332 109.249  1.00  0.00     0.013 C 
ATOM      7  C   UNL     1      94.842 111.832 107.297  1.00  0.00    -0.063 C 
ATOM      8  C   UNL     1      92.843 113.460 107.059  1.00  0.00    -0.003 C 
ATOM      9  C   UNL     1      91.293 113.620 107.173  1.00  0.00    -0.011 C 
ATOM     10  C   UNL     1      95.470 110.653 108.001  1.00  0.00    -0.006 C 
ATOM     11  C   UNL     1      95.595 112.560 106.440  1.00  0.00    -0.027 C 
ATOM     12  C   UNL     1      93.579 114.375 108.077  1.00  0.00     0.008 C 
ATOM     13  C   UNL     1      90.594 113.156 105.875  1.00  0.00     0.008 C 
ATOM     14  C   UNL     1      95.353 109.484 106.964  1.00  0.00     0.017 C 
ATOM     15  C   UNL     1      97.019 110.874 108.451  1.00  0.00    -0.020 C 
ATOM     16  C   UNL     1      97.005 112.227 106.149  1.00  0.00     0.032 C 
ATOM     17  C   UNL     1      97.799 111.854 107.441  1.00  0.00     0.006 C 
ATOM     18  C   UNL     1      97.168 111.425 109.926  1.00  0.00     0.008 C 
ATOM     19  C   UNL     1      97.711 109.456 108.475  1.00  0.00     0.012 C 
ATOM     20  C   UNL     1      98.581 113.086 108.088  1.00  0.00    -0.025 C 
ATOM     21  C   UNL     1      98.630 111.782 110.350  1.00  0.00     0.005 C 
ATOM     22  C   UNL     1      99.479 112.590 109.289  1.00  0.00     0.003 C 
ATOM     23  C   UNL     1      99.500 113.809 107.054  1.00  0.00     0.010 C 
ATOM     24  C   UNL     1      97.619 114.224 108.646  1.00  0.00     0.012 C 
ATOM     25  C   UNL     1     100.943 112.005 108.949  1.00  0.00    -0.006 C 
ATOM     26  C   UNL     1     100.651 112.914 106.555  1.00  0.00     0.033 C 
ATOM     27  C   UNL     1     101.638 112.684 107.694  1.00  0.00     0.120 C 
ATOM     28  C   UNL     1     101.873 112.237 110.194  1.00  0.00     0.014 C 
ATOM     29  C   UNL     1     100.960 110.467 108.711  1.00  0.00     0.014 C 
ENDROOT
BRANCH   1  30
ATOM     30  C   UNL     1      91.313 110.240 107.325  1.00  0.00     0.048 C 
ATOM     31  O   UNL     1      90.108 110.233 107.694  1.00  0.00    -0.550 OA
ATOM     32  O   UNL     1      91.616 109.778 106.024  1.00  0.00    -0.550 OA
ENDBRANCH   1  30
BRANCH  27  33
ATOM     33  O   UNL     1     102.348 113.874 108.029  1.00  0.00    -0.393 OA
ATOM     34  H   UNL     1     101.688 114.604 108.220  1.00  0.00     0.210 HD
ENDBRANCH  27  33
TORSDOF 2
ENDMDL
