MODEL 1
REMARK VINA RESULT:    -4.524      0.000      0.000
REMARK INTER + INTRA:          -4.972
REMARK INTER:                  -4.921
REMARK INTRA:                  -0.051
REMARK UNBOUND:                -0.051
REMARK SMILES COc1cc2ccc(=O)oc2cc1O
REMARK SMILES IDX 3 1 13 2 12 3 11 4 5 5 4 6 6 7 7 8 8 9 9 10 10 11 2 12 1 13
REMARK SMILES IDX 14 14
REMARK H PARENT 14 15
REMARK Flexibility Score: inf
ROOT
ATOM      1  C   UNL     1       1.139  17.161  16.201  1.00  0.00     0.161 A 
ATOM      2  C   UNL     1       1.895  17.051  17.385  1.00  0.00     0.161 A 
ATOM      3  C   UNL     1       1.805  15.900  18.176  1.00  0.00     0.098 A 
ATOM      4  C   UNL     1       0.966  14.849  17.800  1.00  0.00     0.142 A 
ATOM      5  C   UNL     1       0.205  14.948  16.618  1.00  0.00     0.022 A 
ATOM      6  C   UNL     1       0.292  16.099  15.822  1.00  0.00     0.062 A 
ATOM      7  C   UNL     1      -0.626  13.879  16.267  1.00  0.00     0.019 A 
ATOM      8  C   UNL     1      -0.679  12.755  17.091  1.00  0.00     0.094 A 
ATOM      9  C   UNL     1       0.105  12.725  18.249  1.00  0.00     0.336 A 
ATOM     10  O   UNL     1       0.072  11.720  19.005  1.00  0.00    -0.246 OA
ATOM     11  O   UNL     1       0.887  13.757  18.558  1.00  0.00    -0.423 OA
ENDROOT
BRANCH   1  12
ATOM     12  O   UNL     1       1.253  18.330  15.432  1.00  0.00    -0.493 OA
ATOM     13  C   UNL     1       1.457  18.353  14.023  1.00  0.00     0.278 C 
ENDBRANCH   1  12
BRANCH   2  14
ATOM     14  O   UNL     1       2.744  18.079  17.793  1.00  0.00    -0.504 OA
ATOM     15  H   UNL     1       2.645  19.029  17.454  1.00  0.00     0.293 HD
ENDBRANCH   2  14
TORSDOF 2
ENDMDL
MODEL 2
REMARK VINA RESULT:    -4.316      2.360      5.029
REMARK INTER + INTRA:          -4.746
REMARK INTER:                  -4.689
REMARK INTRA:                  -0.057
REMARK UNBOUND:                -0.051
REMARK SMILES COc1cc2ccc(=O)oc2cc1O
REMARK SMILES IDX 3 1 13 2 12 3 11 4 5 5 4 6 6 7 7 8 8 9 9 10 10 11 2 12 1 13
REMARK SMILES IDX 14 14
REMARK H PARENT 14 15
REMARK Flexibility Score: inf
ROOT
ATOM      1  C   UNL     1       0.905  14.065  17.627  1.00  0.00     0.161 A 
ATOM      2  C   UNL     1       0.190  15.255  17.387  1.00  0.00     0.161 A 
ATOM      3  C   UNL     1       0.407  15.983  16.211  1.00  0.00     0.098 A 
ATOM      4  C   UNL     1       1.331  15.538  15.264  1.00  0.00     0.142 A 
ATOM      5  C   UNL     1       2.052  14.348  15.494  1.00  0.00     0.022 A 
ATOM      6  C   UNL     1       1.838  13.615  16.671  1.00  0.00     0.062 A 
ATOM      7  C   UNL     1       2.971  13.926  14.528  1.00  0.00     0.019 A 
ATOM      8  C   UNL     1       3.148  14.689  13.374  1.00  0.00     0.094 A 
ATOM      9  C   UNL     1       2.398  15.859  13.212  1.00  0.00     0.336 A 
ATOM     10  O   UNL     1       2.544  16.561  12.178  1.00  0.00    -0.246 OA
ATOM     11  O   UNL     1       1.531  16.236  14.148  1.00  0.00    -0.423 OA
ENDROOT
BRANCH   1  12
ATOM     12  O   UNL     1       0.663  13.360  18.817  1.00  0.00    -0.493 OA
ATOM     13  C   UNL     1      -0.294  12.314  18.956  1.00  0.00     0.278 C 
ENDBRANCH   1  12
BRANCH   2  14
ATOM     14  O   UNL     1      -0.741  15.733  18.308  1.00  0.00    -0.504 OA
ATOM     15  H   UNL     1      -1.175  16.644  18.216  1.00  0.00     0.293 HD
ENDBRANCH   2  14
TORSDOF 2
ENDMDL
MODEL 3
REMARK VINA RESULT:    -4.195      1.822      2.267
REMARK INTER + INTRA:          -4.614
REMARK INTER:                  -4.554
REMARK INTRA:                  -0.059
REMARK UNBOUND:                -0.051
REMARK SMILES COc1cc2ccc(=O)oc2cc1O
REMARK SMILES IDX 3 1 13 2 12 3 11 4 5 5 4 6 6 7 7 8 8 9 9 10 10 11 2 12 1 13
REMARK SMILES IDX 14 14
REMARK H PARENT 14 15
REMARK Flexibility Score: inf
ROOT
ATOM      1  C   UNL     1       0.890  16.965  15.205  1.00  0.00     0.161 A 
ATOM      2  C   UNL     1      -0.417  17.273  15.633  1.00  0.00     0.161 A 
ATOM      3  C   UNL     1      -1.029  16.509  16.634  1.00  0.00     0.098 A 
ATOM      4  C   UNL     1      -0.353  15.436  17.218  1.00  0.00     0.142 A 
ATOM      5  C   UNL     1       0.955  15.120  16.797  1.00  0.00     0.022 A 
ATOM      6  C   UNL     1       1.573  15.882  15.795  1.00  0.00     0.062 A 
ATOM      7  C   UNL     1       1.607  14.040  17.400  1.00  0.00     0.019 A 
ATOM      8  C   UNL     1       0.951  13.311  18.392  1.00  0.00     0.094 A 
ATOM      9  C   UNL     1      -0.347  13.683  18.760  1.00  0.00     0.336 A 
ATOM     10  O   UNL     1      -0.956  13.039  19.653  1.00  0.00    -0.246 OA
ATOM     11  O   UNL     1      -0.943  14.715  18.169  1.00  0.00    -0.423 OA
ENDROOT
BRANCH   1  12
ATOM     12  O   UNL     1       1.474  17.752  14.200  1.00  0.00    -0.493 OA
ATOM     13  C   UNL     1       1.849  17.272  12.913  1.00  0.00     0.278 C 
ENDBRANCH   1  12
BRANCH   2  14
ATOM     14  O   UNL     1      -1.125  18.337  15.074  1.00  0.00    -0.504 OA
ATOM     15  H   UNL     1      -0.712  19.253  14.947  1.00  0.00     0.293 HD
ENDBRANCH   2  14
TORSDOF 2
ENDMDL
MODEL 4
REMARK VINA RESULT:    -4.149      1.984      2.325
REMARK INTER + INTRA:          -4.564
REMARK INTER:                  -4.519
REMARK INTRA:                  -0.045
REMARK UNBOUND:                -0.051
REMARK SMILES COc1cc2ccc(=O)oc2cc1O
REMARK SMILES IDX 3 1 13 2 12 3 11 4 5 5 4 6 6 7 7 8 8 9 9 10 10 11 2 12 1 13
REMARK SMILES IDX 14 14
REMARK H PARENT 14 15
REMARK Flexibility Score: inf
ROOT
ATOM      1  C   UNL     1       1.467  15.719  14.755  1.00  0.00     0.161 A 
ATOM      2  C   UNL     1       2.249  14.558  14.909  1.00  0.00     0.161 A 
ATOM      3  C   UNL     1       1.979  13.658  15.946  1.00  0.00     0.098 A 
ATOM      4  C   UNL     1       0.933  13.900  16.838  1.00  0.00     0.142 A 
ATOM      5  C   UNL     1       0.143  15.059  16.693  1.00  0.00     0.022 A 
ATOM      6  C   UNL     1       0.409  15.964  15.656  1.00  0.00     0.062 A 
ATOM      7  C   UNL     1      -0.899  15.275  17.601  1.00  0.00     0.019 A 
ATOM      8  C   UNL     1      -1.125  14.347  18.617  1.00  0.00     0.094 A 
ATOM      9  C   UNL     1      -0.301  13.219  18.700  1.00  0.00     0.336 A 
ATOM     10  O   UNL     1      -0.489  12.369  19.609  1.00  0.00    -0.246 OA
ATOM     11  O   UNL     1       0.683  13.039  17.822  1.00  0.00    -0.423 OA
ENDROOT
BRANCH   1  12
ATOM     12  O   UNL     1       1.765  16.600  13.703  1.00  0.00    -0.493 OA
ATOM     13  C   UNL     1       1.503  18.000  13.722  1.00  0.00     0.278 C 
ENDBRANCH   1  12
BRANCH   2  14
ATOM     14  O   UNL     1       3.303  14.281  14.039  1.00  0.00    -0.504 OA
ATOM     15  H   UNL     1       4.135  14.858  13.996  1.00  0.00     0.293 HD
ENDBRANCH   2  14
TORSDOF 2
ENDMDL
MODEL 5
REMARK VINA RESULT:    -4.141      3.354      4.697
REMARK INTER + INTRA:          -4.555
REMARK INTER:                  -4.509
REMARK INTRA:                  -0.046
REMARK UNBOUND:                -0.051
REMARK SMILES COc1cc2ccc(=O)oc2cc1O
REMARK SMILES IDX 3 1 13 2 12 3 11 4 5 5 4 6 6 7 7 8 8 9 9 10 10 11 2 12 1 13
REMARK SMILES IDX 14 14
REMARK H PARENT 14 15
REMARK Flexibility Score: inf
ROOT
ATOM      1  C   UNL     1       0.555  13.790  17.391  1.00  0.00     0.161 A 
ATOM      2  C   UNL     1       1.542  14.741  17.063  1.00  0.00     0.161 A 
ATOM      3  C   UNL     1       2.246  14.639  15.858  1.00  0.00     0.098 A 
ATOM      4  C   UNL     1       1.979  13.596  14.969  1.00  0.00     0.142 A 
ATOM      5  C   UNL     1       0.993  12.640  15.287  1.00  0.00     0.022 A 
ATOM      6  C   UNL     1       0.285  12.737  16.493  1.00  0.00     0.062 A 
ATOM      7  C   UNL     1       0.747  11.607  14.376  1.00  0.00     0.019 A 
ATOM      8  C   UNL     1       1.477  11.552  13.190  1.00  0.00     0.094 A 
ATOM      9  C   UNL     1       2.440  12.536  12.940  1.00  0.00     0.336 A 
ATOM     10  O   UNL     1       3.109  12.505  11.875  1.00  0.00    -0.246 OA
ATOM     11  O   UNL     1       2.653  13.508  13.824  1.00  0.00    -0.423 OA
ENDROOT
BRANCH   1  12
ATOM     12  O   UNL     1      -0.132  13.922  18.609  1.00  0.00    -0.493 OA
ATOM     13  C   UNL     1      -0.626  12.832  19.380  1.00  0.00     0.278 C 
ENDBRANCH   1  12
BRANCH   2  14
ATOM     14  O   UNL     1       1.838  15.796  17.925  1.00  0.00    -0.504 OA
ATOM     15  H   UNL     1       2.399  15.672  18.760  1.00  0.00     0.293 HD
ENDBRANCH   2  14
TORSDOF 2
ENDMDL
MODEL 6
REMARK VINA RESULT:    -4.055      3.544      4.362
REMARK INTER + INTRA:          -4.462
REMARK INTER:                  -4.418
REMARK INTRA:                  -0.044
REMARK UNBOUND:                -0.051
REMARK SMILES COc1cc2ccc(=O)oc2cc1O
REMARK SMILES IDX 3 1 13 2 12 3 11 4 5 5 4 6 6 7 7 8 8 9 9 10 10 11 2 12 1 13
REMARK SMILES IDX 14 14
REMARK H PARENT 14 15
REMARK Flexibility Score: inf
ROOT
ATOM      1  C   UNL     1       2.736  13.469  13.533  1.00  0.00     0.161 A 
ATOM      2  C   UNL     1       1.831  12.399  13.384  1.00  0.00     0.161 A 
ATOM      3  C   UNL     1       1.021  12.006  14.456  1.00  0.00     0.098 A 
ATOM      4  C   UNL     1       1.101  12.669  15.682  1.00  0.00     0.142 A 
ATOM      5  C   UNL     1       2.003  13.741  15.842  1.00  0.00     0.022 A 
ATOM      6  C   UNL     1       2.816  14.138  14.771  1.00  0.00     0.062 A 
ATOM      7  C   UNL     1       2.061  14.386  17.082  1.00  0.00     0.019 A 
ATOM      8  C   UNL     1       1.232  13.954  18.117  1.00  0.00     0.094 A 
ATOM      9  C   UNL     1       0.361  12.883  17.886  1.00  0.00     0.336 A 
ATOM     10  O   UNL     1      -0.395  12.479  18.807  1.00  0.00    -0.246 OA
ATOM     11  O   UNL     1       0.327  12.288  16.697  1.00  0.00    -0.423 OA
ENDROOT
BRANCH   1  12
ATOM     12  O   UNL     1       3.533  13.837  12.437  1.00  0.00    -0.493 OA
ATOM     13  C   UNL     1       4.197  15.089  12.305  1.00  0.00     0.278 C 
ENDBRANCH   1  12
BRANCH   2  14
ATOM     14  O   UNL     1       1.722  11.712  12.175  1.00  0.00    -0.504 OA
ATOM     15  H   UNL     1       2.509  11.236  11.751  1.00  0.00     0.293 HD
ENDBRANCH   2  14
TORSDOF 2
ENDMDL
MODEL 7
REMARK VINA RESULT:    -3.996      3.197      3.947
REMARK INTER + INTRA:          -4.398
REMARK INTER:                  -4.343
REMARK INTRA:                  -0.055
REMARK UNBOUND:                -0.051
REMARK SMILES COc1cc2ccc(=O)oc2cc1O
REMARK SMILES IDX 3 1 13 2 12 3 11 4 5 5 4 6 6 7 7 8 8 9 9 10 10 11 2 12 1 13
REMARK SMILES IDX 14 14
REMARK H PARENT 14 15
REMARK Flexibility Score: inf
ROOT
ATOM      1  C   UNL     1       3.006  14.609  13.748  1.00  0.00     0.161 A 
ATOM      2  C   UNL     1       2.242  15.754  13.448  1.00  0.00     0.161 A 
ATOM      3  C   UNL     1       1.249  16.192  14.332  1.00  0.00     0.098 A 
ATOM      4  C   UNL     1       1.004  15.498  15.519  1.00  0.00     0.142 A 
ATOM      5  C   UNL     1       1.763  14.351  15.830  1.00  0.00     0.022 A 
ATOM      6  C   UNL     1       2.759  13.909  14.947  1.00  0.00     0.062 A 
ATOM      7  C   UNL     1       1.496  13.678  17.026  1.00  0.00     0.019 A 
ATOM      8  C   UNL     1       0.495  14.156  17.871  1.00  0.00     0.094 A 
ATOM      9  C   UNL     1      -0.218  15.301  17.499  1.00  0.00     0.336 A 
ATOM     10  O   UNL     1      -1.125  15.749  18.247  1.00  0.00    -0.246 OA
ATOM     11  O   UNL     1       0.058  15.922  16.354  1.00  0.00    -0.423 OA
ENDROOT
BRANCH   1  12
ATOM     12  O   UNL     1       3.994  14.199  12.839  1.00  0.00    -0.493 OA
ATOM     13  C   UNL     1       4.066  12.902  12.253  1.00  0.00     0.278 C 
ENDBRANCH   1  12
BRANCH   2  14
ATOM     14  O   UNL     1       2.456  16.473  12.272  1.00  0.00    -0.504 OA
ATOM     15  H   UNL     1       1.694  16.783  11.681  1.00  0.00     0.293 HD
ENDBRANCH   2  14
TORSDOF 2
ENDMDL
MODEL 8
REMARK VINA RESULT:    -3.921      3.480      4.419
REMARK INTER + INTRA:          -4.316
REMARK INTER:                  -4.271
REMARK INTRA:                  -0.045
REMARK UNBOUND:                -0.051
REMARK SMILES COc1cc2ccc(=O)oc2cc1O
REMARK SMILES IDX 3 1 13 2 12 3 11 4 5 5 4 6 6 7 7 8 8 9 9 10 10 11 2 12 1 13
REMARK SMILES IDX 14 14
REMARK H PARENT 14 15
REMARK Flexibility Score: inf
ROOT
ATOM      1  C   UNL     1       1.527  14.808  16.923  1.00  0.00     0.161 A 
ATOM      2  C   UNL     1       0.656  13.722  17.141  1.00  0.00     0.161 A 
ATOM      3  C   UNL     1       0.544  12.704  16.188  1.00  0.00     0.098 A 
ATOM      4  C   UNL     1       1.295  12.753  15.011  1.00  0.00     0.142 A 
ATOM      5  C   UNL     1       2.171  13.834  14.783  1.00  0.00     0.022 A 
ATOM      6  C   UNL     1       2.285  14.856  15.735  1.00  0.00     0.062 A 
ATOM      7  C   UNL     1       2.910  13.855  13.595  1.00  0.00     0.019 A 
ATOM      8  C   UNL     1       2.761  12.815  12.678  1.00  0.00     0.094 A 
ATOM      9  C   UNL     1       1.874  11.774  12.972  1.00  0.00     0.336 A 
ATOM     10  O   UNL     1       1.725  10.826  12.158  1.00  0.00    -0.246 OA
ATOM     11  O   UNL     1       1.183  11.779  14.110  1.00  0.00    -0.423 OA
ENDROOT
BRANCH   1  12
ATOM     12  O   UNL     1       1.614  15.811  17.901  1.00  0.00    -0.493 OA
ATOM     13  C   UNL     1       1.973  17.165  17.641  1.00  0.00     0.278 C 
ENDBRANCH   1  12
BRANCH   2  14
ATOM     14  O   UNL     1      -0.111  13.638  18.304  1.00  0.00    -0.504 OA
ATOM     15  H   UNL     1       0.266  13.861  19.217  1.00  0.00     0.293 HD
ENDBRANCH   2  14
TORSDOF 2
ENDMDL
MODEL 9
REMARK VINA RESULT:    -3.916      1.728      4.775
REMARK INTER + INTRA:          -4.310
REMARK INTER:                  -4.257
REMARK INTRA:                  -0.053
REMARK UNBOUND:                -0.051
REMARK SMILES COc1cc2ccc(=O)oc2cc1O
REMARK SMILES IDX 3 1 13 2 12 3 11 4 5 5 4 6 6 7 7 8 8 9 9 10 10 11 2 12 1 13
REMARK SMILES IDX 14 14
REMARK H PARENT 14 15
REMARK Flexibility Score: inf
ROOT
ATOM      1  C   UNL     1       0.458  13.548  15.908  1.00  0.00     0.161 A 
ATOM      2  C   UNL     1       0.887  13.612  17.248  1.00  0.00     0.161 A 
ATOM      3  C   UNL     1       1.343  14.821  17.786  1.00  0.00     0.098 A 
ATOM      4  C   UNL     1       1.378  15.975  17.001  1.00  0.00     0.142 A 
ATOM      5  C   UNL     1       0.951  15.922  15.658  1.00  0.00     0.022 A 
ATOM      6  C   UNL     1       0.493  14.714  15.115  1.00  0.00     0.062 A 
ATOM      7  C   UNL     1       0.997  17.094  14.897  1.00  0.00     0.019 A 
ATOM      8  C   UNL     1       1.461  18.272  15.482  1.00  0.00     0.094 A 
ATOM      9  C   UNL     1       1.869  18.250  16.820  1.00  0.00     0.336 A 
ATOM     10  O   UNL     1       2.290  19.303  17.366  1.00  0.00    -0.246 OA
ATOM     11  O   UNL     1       1.814  17.121  17.521  1.00  0.00    -0.423 OA
ENDROOT
BRANCH   1  12
ATOM     12  O   UNL     1       0.006  12.319  15.401  1.00  0.00    -0.493 OA
ATOM     13  C   UNL     1       0.491  11.708  14.210  1.00  0.00     0.278 C 
ENDBRANCH   1  12
BRANCH   2  14
ATOM     14  O   UNL     1       0.867  12.481  18.064  1.00  0.00    -0.504 OA
ATOM     15  H   UNL     1       1.602  12.284  18.733  1.00  0.00     0.293 HD
ENDBRANCH   2  14
TORSDOF 2
ENDMDL
