MODEL 1
REMARK VINA RESULT:    -6.272      0.000      0.000
REMARK INTER + INTRA:          -7.616
REMARK INTER:                  -7.372
REMARK INTRA:                  -0.245
REMARK UNBOUND:                -0.245
REMARK SMILES O=c1c(O)c(-c2ccc(O)cc2)oc2cc(O)cc(O)c12
REMARK SMILES IDX 5 1 3 2 2 3 1 4 21 5 19 6 18 7 16 8 15 9 14 10 13 11 6 12
REMARK SMILES IDX 7 13 8 14 9 15 12 16 11 17 10 18 4 20 20 22 17 24
REMARK H PARENT 10 19 4 21 20 23 17 25
REMARK Flexibility Score: inf
ROOT
ATOM      1  C   UNL     1      32.062 -35.328  35.838  1.00  0.00     0.180 A 
ATOM      2  C   UNL     1      32.957 -35.356  34.755  1.00  0.00     0.208 A 
ATOM      3  C   UNL     1      33.007 -36.500  33.943  1.00  0.00     0.238 A 
ATOM      4  O   UNL     1      33.771 -36.498  32.943  1.00  0.00    -0.285 OA
ATOM      5  C   UNL     1      32.175 -37.608  34.233  1.00  0.00     0.111 A 
ATOM      6  C   UNL     1      32.172 -38.833  33.501  1.00  0.00     0.134 A 
ATOM      7  C   UNL     1      31.213 -39.812  33.796  1.00  0.00     0.093 A 
ATOM      8  C   UNL     1      30.301 -39.635  34.840  1.00  0.00     0.123 A 
ATOM      9  C   UNL     1      30.335 -38.467  35.597  1.00  0.00     0.094 A 
ATOM     10  C   UNL     1      31.255 -37.458  35.304  1.00  0.00     0.146 A 
ATOM     11  O   UNL     1      31.246 -36.356  36.045  1.00  0.00    -0.452 OA
ENDROOT
BRANCH   1  12
ATOM     12  C   UNL     1      31.968 -34.168  36.754  1.00  0.00     0.021 A 
ATOM     13  C   UNL     1      31.293 -32.992  36.379  1.00  0.00     0.016 A 
ATOM     14  C   UNL     1      31.239 -31.900  37.251  1.00  0.00     0.047 A 
ATOM     15  C   UNL     1      31.870 -31.964  38.502  1.00  0.00     0.115 A 
ATOM     16  C   UNL     1      32.616 -34.216  38.000  1.00  0.00     0.016 A 
ATOM     17  C   UNL     1      32.559 -33.123  38.870  1.00  0.00     0.047 A 
BRANCH  15  18
ATOM     18  O   UNL     1      31.821 -30.883  39.378  1.00  0.00    -0.508 OA
ATOM     19  H   UNL     1      32.340 -30.882  40.247  1.00  0.00     0.293 HD
ENDBRANCH  15  18
ENDBRANCH   1  12
BRANCH   2  20
ATOM     20  O   UNL     1      33.754 -34.243  34.474  1.00  0.00    -0.502 OA
ATOM     21  H   UNL     1      34.669 -34.325  34.048  1.00  0.00     0.293 HD
ENDBRANCH   2  20
BRANCH   6  22
ATOM     22  O   UNL     1      33.097 -39.148  32.503  1.00  0.00    -0.507 OA
ATOM     23  H   UNL     1      33.283 -40.081  32.165  1.00  0.00     0.293 HD
ENDBRANCH   6  22
BRANCH   8  24
ATOM     24  O   UNL     1      29.362 -40.620  35.136  1.00  0.00    -0.508 OA
ATOM     25  H   UNL     1      29.521 -41.593  34.899  1.00  0.00     0.293 HD
ENDBRANCH   8  24
TORSDOF 5
ENDMDL
MODEL 2
REMARK VINA RESULT:    -6.235      1.950      2.761
REMARK INTER + INTRA:          -7.574
REMARK INTER:                  -7.285
REMARK INTRA:                  -0.289
REMARK UNBOUND:                -0.245
REMARK SMILES O=c1c(O)c(-c2ccc(O)cc2)oc2cc(O)cc(O)c12
REMARK SMILES IDX 5 1 3 2 2 3 1 4 21 5 19 6 18 7 16 8 15 9 14 10 13 11 6 12
REMARK SMILES IDX 7 13 8 14 9 15 12 16 11 17 10 18 4 20 20 22 17 24
REMARK H PARENT 10 19 4 21 20 23 17 25
REMARK Flexibility Score: inf
ROOT
ATOM      1  C   UNL     1      32.604 -35.364  35.261  1.00  0.00     0.180 A 
ATOM      2  C   UNL     1      31.568 -35.683  34.366  1.00  0.00     0.208 A 
ATOM      3  C   UNL     1      31.706 -36.810  33.539  1.00  0.00     0.238 A 
ATOM      4  O   UNL     1      30.753 -37.121  32.778  1.00  0.00    -0.285 OA
ATOM      5  C   UNL     1      32.883 -37.594  33.607  1.00  0.00     0.111 A 
ATOM      6  C   UNL     1      33.145 -38.733  32.788  1.00  0.00     0.134 A 
ATOM      7  C   UNL     1      34.284 -39.512  33.032  1.00  0.00     0.093 A 
ATOM      8  C   UNL     1      35.204 -39.152  34.021  1.00  0.00     0.123 A 
ATOM      9  C   UNL     1      34.986 -38.010  34.786  1.00  0.00     0.094 A 
ATOM     10  C   UNL     1      33.840 -37.234  34.591  1.00  0.00     0.146 A 
ATOM     11  O   UNL     1      33.666 -36.157  35.348  1.00  0.00    -0.452 OA
ENDROOT
BRANCH   1  12
ATOM     12  C   UNL     1      32.543 -34.179  36.147  1.00  0.00     0.021 A 
ATOM     13  C   UNL     1      32.915 -32.902  35.688  1.00  0.00     0.016 A 
ATOM     14  C   UNL     1      32.873 -31.802  36.549  1.00  0.00     0.047 A 
ATOM     15  C   UNL     1      32.472 -31.965  37.882  1.00  0.00     0.115 A 
ATOM     16  C   UNL     1      32.164 -34.337  37.490  1.00  0.00     0.016 A 
ATOM     17  C   UNL     1      32.122 -33.235  38.349  1.00  0.00     0.047 A 
BRANCH  15  18
ATOM     18  O   UNL     1      32.426 -30.875  38.749  1.00  0.00    -0.508 OA
ATOM     19  H   UNL     1      32.330 -29.928  38.403  1.00  0.00     0.293 HD
ENDBRANCH  15  18
ENDBRANCH   1  12
BRANCH   2  20
ATOM     20  O   UNL     1      30.407 -34.908  34.331  1.00  0.00    -0.502 OA
ATOM     21  H   UNL     1      30.012 -34.559  33.466  1.00  0.00     0.293 HD
ENDBRANCH   2  20
BRANCH   6  22
ATOM     22  O   UNL     1      32.341 -39.125  31.714  1.00  0.00    -0.507 OA
ATOM     23  H   UNL     1      32.081 -40.078  31.509  1.00  0.00     0.293 HD
ENDBRANCH   6  22
BRANCH   8  24
ATOM     24  O   UNL     1      36.342 -39.923  34.246  1.00  0.00    -0.508 OA
ATOM     25  H   UNL     1      37.013 -40.105  33.509  1.00  0.00     0.293 HD
ENDBRANCH   8  24
TORSDOF 5
ENDMDL
MODEL 3
REMARK VINA RESULT:    -6.202      4.086      6.186
REMARK INTER + INTRA:          -7.535
REMARK INTER:                  -7.291
REMARK INTRA:                  -0.243
REMARK UNBOUND:                -0.245
REMARK SMILES O=c1c(O)c(-c2ccc(O)cc2)oc2cc(O)cc(O)c12
REMARK SMILES IDX 5 1 3 2 2 3 1 4 21 5 19 6 18 7 16 8 15 9 14 10 13 11 6 12
REMARK SMILES IDX 7 13 8 14 9 15 12 16 11 17 10 18 4 20 20 22 17 24
REMARK H PARENT 10 19 4 21 20 23 17 25
REMARK Flexibility Score: inf
ROOT
ATOM      1  C   UNL     1      32.082 -38.530  33.619  1.00  0.00     0.180 A 
ATOM      2  C   UNL     1      32.907 -38.137  34.688  1.00  0.00     0.208 A 
ATOM      3  C   UNL     1      34.292 -38.040  34.479  1.00  0.00     0.238 A 
ATOM      4  O   UNL     1      35.019 -37.635  35.423  1.00  0.00    -0.285 OA
ATOM      5  C   UNL     1      34.837 -38.354  33.210  1.00  0.00     0.111 A 
ATOM      6  C   UNL     1      36.230 -38.329  32.898  1.00  0.00     0.134 A 
ATOM      7  C   UNL     1      36.644 -38.530  31.575  1.00  0.00     0.093 A 
ATOM      8  C   UNL     1      35.721 -38.820  30.567  1.00  0.00     0.123 A 
ATOM      9  C   UNL     1      34.366 -38.905  30.873  1.00  0.00     0.094 A 
ATOM     10  C   UNL     1      33.918 -38.673  32.176  1.00  0.00     0.146 A 
ATOM     11  O   UNL     1      32.616 -38.753  32.424  1.00  0.00    -0.452 OA
ENDROOT
BRANCH   1  12
ATOM     12  C   UNL     1      30.616 -38.679  33.769  1.00  0.00     0.021 A 
ATOM     13  C   UNL     1      29.729 -37.688  33.309  1.00  0.00     0.016 A 
ATOM     14  C   UNL     1      28.350 -37.839  33.483  1.00  0.00     0.047 A 
ATOM     15  C   UNL     1      27.841 -38.974  34.129  1.00  0.00     0.115 A 
ATOM     16  C   UNL     1      30.099 -39.802  34.435  1.00  0.00     0.016 A 
ATOM     17  C   UNL     1      28.720 -39.951  34.606  1.00  0.00     0.047 A 
BRANCH  15  18
ATOM     18  O   UNL     1      26.469 -39.134  34.307  1.00  0.00    -0.508 OA
ATOM     19  H   UNL     1      26.078 -40.004  34.648  1.00  0.00     0.293 HD
ENDBRANCH  15  18
ENDBRANCH   1  12
BRANCH   2  20
ATOM     20  O   UNL     1      32.346 -37.811  35.925  1.00  0.00    -0.502 OA
ATOM     21  H   UNL     1      31.350 -37.672  36.050  1.00  0.00     0.293 HD
ENDBRANCH   2  20
BRANCH   6  22
ATOM     22  O   UNL     1      37.239 -38.140  33.845  1.00  0.00    -0.507 OA
ATOM     23  H   UNL     1      38.184 -38.483  33.755  1.00  0.00     0.293 HD
ENDBRANCH   6  22
BRANCH   8  24
ATOM     24  O   UNL     1      36.145 -39.034  29.257  1.00  0.00    -0.508 OA
ATOM     25  H   UNL     1      35.524 -38.894  28.469  1.00  0.00     0.293 HD
ENDBRANCH   8  24
TORSDOF 5
ENDMDL
MODEL 4
REMARK VINA RESULT:    -6.181      0.281      1.079
REMARK INTER + INTRA:          -7.510
REMARK INTER:                  -7.210
REMARK INTRA:                  -0.300
REMARK UNBOUND:                -0.245
REMARK SMILES O=c1c(O)c(-c2ccc(O)cc2)oc2cc(O)cc(O)c12
REMARK SMILES IDX 5 1 3 2 2 3 1 4 21 5 19 6 18 7 16 8 15 9 14 10 13 11 6 12
REMARK SMILES IDX 7 13 8 14 9 15 12 16 11 17 10 18 4 20 20 22 17 24
REMARK H PARENT 10 19 4 21 20 23 17 25
REMARK Flexibility Score: inf
ROOT
ATOM      1  C   UNL     1      31.988 -35.384  35.864  1.00  0.00     0.180 A 
ATOM      2  C   UNL     1      32.950 -35.421  34.839  1.00  0.00     0.208 A 
ATOM      3  C   UNL     1      33.066 -36.581  34.057  1.00  0.00     0.238 A 
ATOM      4  O   UNL     1      33.891 -36.589  33.106  1.00  0.00    -0.285 OA
ATOM      5  C   UNL     1      32.231 -37.695  34.319  1.00  0.00     0.111 A 
ATOM      6  C   UNL     1      32.290 -38.935  33.614  1.00  0.00     0.134 A 
ATOM      7  C   UNL     1      31.328 -39.921  33.870  1.00  0.00     0.093 A 
ATOM      8  C   UNL     1      30.350 -39.736  34.851  1.00  0.00     0.123 A 
ATOM      9  C   UNL     1      30.321 -38.553  35.584  1.00  0.00     0.094 A 
ATOM     10  C   UNL     1      31.245 -37.536  35.327  1.00  0.00     0.146 A 
ATOM     11  O   UNL     1      31.175 -36.419  36.042  1.00  0.00    -0.452 OA
ENDROOT
BRANCH   1  12
ATOM     12  C   UNL     1      31.822 -34.207  36.747  1.00  0.00     0.021 A 
ATOM     13  C   UNL     1      32.576 -34.064  37.927  1.00  0.00     0.016 A 
ATOM     14  C   UNL     1      32.384 -32.956  38.758  1.00  0.00     0.047 A 
ATOM     15  C   UNL     1      31.430 -31.984  38.427  1.00  0.00     0.115 A 
ATOM     16  C   UNL     1      30.852 -33.239  36.436  1.00  0.00     0.016 A 
ATOM     17  C   UNL     1      30.664 -32.132  37.267  1.00  0.00     0.047 A 
BRANCH  15  18
ATOM     18  O   UNL     1      31.232 -30.875  39.248  1.00  0.00    -0.508 OA
ATOM     19  H   UNL     1      30.316 -30.457  39.360  1.00  0.00     0.293 HD
ENDBRANCH  15  18
ENDBRANCH   1  12
BRANCH   2  20
ATOM     20  O   UNL     1      33.748 -34.303  34.584  1.00  0.00    -0.502 OA
ATOM     21  H   UNL     1      33.436 -33.536  34.001  1.00  0.00     0.293 HD
ENDBRANCH   2  20
BRANCH   6  22
ATOM     22  O   UNL     1      33.280 -39.257  32.683  1.00  0.00    -0.507 OA
ATOM     23  H   UNL     1      34.253 -38.999  32.765  1.00  0.00     0.293 HD
ENDBRANCH   6  22
BRANCH   8  24
ATOM     24  O   UNL     1      29.408 -40.728  35.109  1.00  0.00    -0.508 OA
ATOM     25  H   UNL     1      29.139 -41.402  34.402  1.00  0.00     0.293 HD
ENDBRANCH   8  24
TORSDOF 5
ENDMDL
MODEL 5
REMARK VINA RESULT:    -6.129      4.158      5.544
REMARK INTER + INTRA:          -7.449
REMARK INTER:                  -7.149
REMARK INTRA:                  -0.300
REMARK UNBOUND:                -0.245
REMARK SMILES O=c1c(O)c(-c2ccc(O)cc2)oc2cc(O)cc(O)c12
REMARK SMILES IDX 5 1 3 2 2 3 1 4 21 5 19 6 18 7 16 8 15 9 14 10 13 11 6 12
REMARK SMILES IDX 7 13 8 14 9 15 12 16 11 17 10 18 4 20 20 22 17 24
REMARK H PARENT 10 19 4 21 20 23 17 25
REMARK Flexibility Score: inf
ROOT
ATOM      1  C   UNL     1      32.335 -37.545  32.831  1.00  0.00     0.180 A 
ATOM      2  C   UNL     1      32.519 -38.869  33.267  1.00  0.00     0.208 A 
ATOM      3  C   UNL     1      31.419 -39.576  33.779  1.00  0.00     0.238 A 
ATOM      4  O   UNL     1      31.577 -40.778  34.117  1.00  0.00    -0.285 OA
ATOM      5  C   UNL     1      30.154 -38.945  33.865  1.00  0.00     0.111 A 
ATOM      6  C   UNL     1      28.981 -39.554  34.404  1.00  0.00     0.134 A 
ATOM      7  C   UNL     1      27.753 -38.884  34.318  1.00  0.00     0.093 A 
ATOM      8  C   UNL     1      27.671 -37.600  33.772  1.00  0.00     0.123 A 
ATOM      9  C   UNL     1      28.820 -36.975  33.296  1.00  0.00     0.094 A 
ATOM     10  C   UNL     1      30.052 -37.632  33.335  1.00  0.00     0.146 A 
ATOM     11  O   UNL     1      31.122 -37.004  32.862  1.00  0.00    -0.452 OA
ENDROOT
BRANCH   1  12
ATOM     12  C   UNL     1      33.451 -36.727  32.301  1.00  0.00     0.021 A 
ATOM     13  C   UNL     1      34.257 -35.950  33.153  1.00  0.00     0.016 A 
ATOM     14  C   UNL     1      35.289 -35.166  32.627  1.00  0.00     0.047 A 
ATOM     15  C   UNL     1      35.520 -35.140  31.245  1.00  0.00     0.115 A 
ATOM     16  C   UNL     1      33.676 -36.678  30.916  1.00  0.00     0.016 A 
ATOM     17  C   UNL     1      34.708 -35.895  30.393  1.00  0.00     0.047 A 
BRANCH  15  18
ATOM     18  O   UNL     1      36.546 -34.363  30.711  1.00  0.00    -0.508 OA
ATOM     19  H   UNL     1      37.181 -33.845  31.306  1.00  0.00     0.293 HD
ENDBRANCH  15  18
ENDBRANCH   1  12
BRANCH   2  20
ATOM     20  O   UNL     1      33.771 -39.478  33.153  1.00  0.00    -0.502 OA
ATOM     21  H   UNL     1      34.637 -38.962  33.253  1.00  0.00     0.293 HD
ENDBRANCH   2  20
BRANCH   6  22
ATOM     22  O   UNL     1      28.971 -40.791  35.054  1.00  0.00    -0.507 OA
ATOM     23  H   UNL     1      28.557 -41.633  34.681  1.00  0.00     0.293 HD
ENDBRANCH   6  22
BRANCH   8  24
ATOM     24  O   UNL     1      26.448 -36.935  33.705  1.00  0.00    -0.508 OA
ATOM     25  H   UNL     1      26.371 -35.945  33.907  1.00  0.00     0.293 HD
ENDBRANCH   8  24
TORSDOF 5
ENDMDL
MODEL 6
REMARK VINA RESULT:    -5.846      2.872      4.242
REMARK INTER + INTRA:          -7.116
REMARK INTER:                  -6.912
REMARK INTRA:                  -0.204
REMARK UNBOUND:                -0.245
REMARK SMILES O=c1c(O)c(-c2ccc(O)cc2)oc2cc(O)cc(O)c12
REMARK SMILES IDX 5 1 3 2 2 3 1 4 21 5 19 6 18 7 16 8 15 9 14 10 13 11 6 12
REMARK SMILES IDX 7 13 8 14 9 15 12 16 11 17 10 18 4 20 20 22 17 24
REMARK H PARENT 10 19 4 21 20 23 17 25
REMARK Flexibility Score: inf
ROOT
ATOM      1  C   UNL     1      33.379 -35.710  33.748  1.00  0.00     0.180 A 
ATOM      2  C   UNL     1      33.716 -36.792  34.581  1.00  0.00     0.208 A 
ATOM      3  C   UNL     1      34.227 -37.964  34.001  1.00  0.00     0.238 A 
ATOM      4  O   UNL     1      34.577 -38.908  34.756  1.00  0.00    -0.285 OA
ATOM      5  C   UNL     1      34.380 -38.047  32.596  1.00  0.00     0.111 A 
ATOM      6  C   UNL     1      34.851 -39.200  31.899  1.00  0.00     0.134 A 
ATOM      7  C   UNL     1      35.087 -39.125  30.520  1.00  0.00     0.093 A 
ATOM      8  C   UNL     1      34.806 -37.958  29.804  1.00  0.00     0.123 A 
ATOM      9  C   UNL     1      34.291 -36.847  30.466  1.00  0.00     0.094 A 
ATOM     10  C   UNL     1      34.079 -36.880  31.846  1.00  0.00     0.146 A 
ATOM     11  O   UNL     1      33.597 -35.794  32.440  1.00  0.00    -0.452 OA
ENDROOT
BRANCH   1  12
ATOM     12  C   UNL     1      32.812 -34.451  34.282  1.00  0.00     0.021 A 
ATOM     13  C   UNL     1      33.604 -33.539  35.003  1.00  0.00     0.016 A 
ATOM     14  C   UNL     1      33.041 -32.368  35.519  1.00  0.00     0.047 A 
ATOM     15  C   UNL     1      31.677 -32.100  35.332  1.00  0.00     0.115 A 
ATOM     16  C   UNL     1      31.442 -34.185  34.118  1.00  0.00     0.016 A 
ATOM     17  C   UNL     1      30.882 -33.013  34.634  1.00  0.00     0.047 A 
BRANCH  15  18
ATOM     18  O   UNL     1      31.106 -30.936  35.841  1.00  0.00    -0.508 OA
ATOM     19  H   UNL     1      31.193 -30.687  36.819  1.00  0.00     0.293 HD
ENDBRANCH  15  18
ENDBRANCH   1  12
BRANCH   2  20
ATOM     20  O   UNL     1      33.577 -36.680  35.966  1.00  0.00    -0.502 OA
ATOM     21  H   UNL     1      34.037 -37.312  36.611  1.00  0.00     0.293 HD
ENDBRANCH   2  20
BRANCH   6  22
ATOM     22  O   UNL     1      35.074 -40.440  32.502  1.00  0.00    -0.507 OA
ATOM     23  H   UNL     1      34.596 -41.294  32.255  1.00  0.00     0.293 HD
ENDBRANCH   6  22
BRANCH   8  24
ATOM     24  O   UNL     1      35.029 -37.898  28.430  1.00  0.00    -0.508 OA
ATOM     25  H   UNL     1      35.341 -38.708  27.907  1.00  0.00     0.293 HD
ENDBRANCH   8  24
TORSDOF 5
ENDMDL
MODEL 7
REMARK VINA RESULT:    -5.781      5.223      7.985
REMARK INTER + INTRA:          -7.040
REMARK INTER:                  -6.745
REMARK INTRA:                  -0.295
REMARK UNBOUND:                -0.245
REMARK SMILES O=c1c(O)c(-c2ccc(O)cc2)oc2cc(O)cc(O)c12
REMARK SMILES IDX 5 1 3 2 2 3 1 4 21 5 19 6 18 7 16 8 15 9 14 10 13 11 6 12
REMARK SMILES IDX 7 13 8 14 9 15 12 16 11 17 10 18 4 20 20 22 17 24
REMARK H PARENT 10 19 4 21 20 23 17 25
REMARK Flexibility Score: inf
ROOT
ATOM      1  C   UNL     1      30.094 -34.167  42.490  1.00  0.00     0.180 A 
ATOM      2  C   UNL     1      29.084 -34.932  41.881  1.00  0.00     0.208 A 
ATOM      3  C   UNL     1      28.980 -34.931  40.481  1.00  0.00     0.238 A 
ATOM      4  O   UNL     1      28.109 -35.660  39.938  1.00  0.00    -0.285 OA
ATOM      5  C   UNL     1      29.876 -34.153  39.708  1.00  0.00     0.111 A 
ATOM      6  C   UNL     1      29.837 -34.047  38.285  1.00  0.00     0.134 A 
ATOM      7  C   UNL     1      30.855 -33.353  37.616  1.00  0.00     0.093 A 
ATOM      8  C   UNL     1      31.872 -32.707  38.324  1.00  0.00     0.123 A 
ATOM      9  C   UNL     1      31.885 -32.756  39.715  1.00  0.00     0.094 A 
ATOM     10  C   UNL     1      30.905 -33.470  40.409  1.00  0.00     0.146 A 
ATOM     11  O   UNL     1      30.960 -33.501  41.735  1.00  0.00    -0.452 OA
ENDROOT
BRANCH   1  12
ATOM     12  C   UNL     1      30.251 -34.097  43.961  1.00  0.00     0.021 A 
ATOM     13  C   UNL     1      29.513 -33.183  44.734  1.00  0.00     0.016 A 
ATOM     14  C   UNL     1      29.696 -33.118  46.119  1.00  0.00     0.047 A 
ATOM     15  C   UNL     1      30.628 -33.957  46.746  1.00  0.00     0.115 A 
ATOM     16  C   UNL     1      31.198 -34.918  44.595  1.00  0.00     0.016 A 
ATOM     17  C   UNL     1      31.379 -34.853  45.979  1.00  0.00     0.047 A 
BRANCH  15  18
ATOM     18  O   UNL     1      30.818 -33.902  48.125  1.00  0.00    -0.508 OA
ATOM     19  H   UNL     1      30.041 -33.981  48.770  1.00  0.00     0.293 HD
ENDBRANCH  15  18
ENDBRANCH   1  12
BRANCH   2  20
ATOM     20  O   UNL     1      28.224 -35.709  42.661  1.00  0.00    -0.502 OA
ATOM     21  H   UNL     1      27.242 -35.488  42.772  1.00  0.00     0.293 HD
ENDBRANCH   2  20
BRANCH   6  22
ATOM     22  O   UNL     1      28.817 -34.575  37.491  1.00  0.00    -0.507 OA
ATOM     23  H   UNL     1      27.860 -34.254  37.496  1.00  0.00     0.293 HD
ENDBRANCH   6  22
BRANCH   8  24
ATOM     24  O   UNL     1      32.870 -32.007  37.651  1.00  0.00    -0.508 OA
ATOM     25  H   UNL     1      33.513 -31.396  38.142  1.00  0.00     0.293 HD
ENDBRANCH   8  24
TORSDOF 5
ENDMDL
MODEL 8
REMARK VINA RESULT:    -5.719      1.947      6.669
REMARK INTER + INTRA:          -6.966
REMARK INTER:                  -6.666
REMARK INTRA:                  -0.301
REMARK UNBOUND:                -0.245
REMARK SMILES O=c1c(O)c(-c2ccc(O)cc2)oc2cc(O)cc(O)c12
REMARK SMILES IDX 5 1 3 2 2 3 1 4 21 5 19 6 18 7 16 8 15 9 14 10 13 11 6 12
REMARK SMILES IDX 7 13 8 14 9 15 12 16 11 17 10 18 4 20 20 22 17 24
REMARK H PARENT 10 19 4 21 20 23 17 25
REMARK Flexibility Score: inf
ROOT
ATOM      1  C   UNL     1      32.455 -35.513  34.953  1.00  0.00     0.180 A 
ATOM      2  C   UNL     1      31.717 -34.596  34.185  1.00  0.00     0.208 A 
ATOM      3  C   UNL     1      31.204 -33.446  34.805  1.00  0.00     0.238 A 
ATOM      4  O   UNL     1      30.591 -32.601  34.101  1.00  0.00    -0.285 OA
ATOM      5  C   UNL     1      31.422 -33.234  36.188  1.00  0.00     0.111 A 
ATOM      6  C   UNL     1      30.914 -32.124  36.927  1.00  0.00     0.134 A 
ATOM      7  C   UNL     1      31.302 -31.948  38.262  1.00  0.00     0.093 A 
ATOM      8  C   UNL     1      32.125 -32.879  38.902  1.00  0.00     0.123 A 
ATOM      9  C   UNL     1      32.578 -33.996  38.205  1.00  0.00     0.094 A 
ATOM     10  C   UNL     1      32.238 -34.180  36.863  1.00  0.00     0.146 A 
ATOM     11  O   UNL     1      32.699 -35.254  36.233  1.00  0.00    -0.452 OA
ENDROOT
BRANCH   1  12
ATOM     12  C   UNL     1      33.007 -36.761  34.376  1.00  0.00     0.021 A 
ATOM     13  C   UNL     1      32.256 -37.951  34.352  1.00  0.00     0.016 A 
ATOM     14  C   UNL     1      32.807 -39.123  33.825  1.00  0.00     0.047 A 
ATOM     15  C   UNL     1      34.117 -39.124  33.327  1.00  0.00     0.115 A 
ATOM     16  C   UNL     1      34.327 -36.777  33.895  1.00  0.00     0.016 A 
ATOM     17  C   UNL     1      34.874 -37.949  33.368  1.00  0.00     0.047 A 
BRANCH  15  18
ATOM     18  O   UNL     1      34.675 -40.286  32.799  1.00  0.00    -0.508 OA
ATOM     19  H   UNL     1      35.198 -40.275  31.931  1.00  0.00     0.293 HD
ENDBRANCH  15  18
ENDBRANCH   1  12
BRANCH   2  20
ATOM     20  O   UNL     1      31.533 -34.814  32.817  1.00  0.00    -0.502 OA
ATOM     21  H   UNL     1      31.983 -35.575  32.323  1.00  0.00     0.293 HD
ENDBRANCH   2  20
BRANCH   6  22
ATOM     22  O   UNL     1      30.013 -31.189  36.412  1.00  0.00    -0.507 OA
ATOM     23  H   UNL     1      29.009 -31.274  36.456  1.00  0.00     0.293 HD
ENDBRANCH   6  22
BRANCH   8  24
ATOM     24  O   UNL     1      32.493 -32.703  40.234  1.00  0.00    -0.508 OA
ATOM     25  H   UNL     1      33.192 -33.290  40.673  1.00  0.00     0.293 HD
ENDBRANCH   8  24
TORSDOF 5
ENDMDL
MODEL 9
REMARK VINA RESULT:    -5.710      5.476      7.477
REMARK INTER + INTRA:          -6.956
REMARK INTER:                  -6.690
REMARK INTRA:                  -0.266
REMARK UNBOUND:                -0.245
REMARK SMILES O=c1c(O)c(-c2ccc(O)cc2)oc2cc(O)cc(O)c12
REMARK SMILES IDX 5 1 3 2 2 3 1 4 21 5 19 6 18 7 16 8 15 9 14 10 13 11 6 12
REMARK SMILES IDX 7 13 8 14 9 15 12 16 11 17 10 18 4 20 20 22 17 24
REMARK H PARENT 10 19 4 21 20 23 17 25
REMARK Flexibility Score: inf
ROOT
ATOM      1  C   UNL     1      29.940 -34.212  42.561  1.00  0.00     0.180 A 
ATOM      2  C   UNL     1      30.331 -33.242  41.622  1.00  0.00     0.208 A 
ATOM      3  C   UNL     1      30.022 -33.442  40.267  1.00  0.00     0.238 A 
ATOM      4  O   UNL     1      30.326 -32.545  39.438  1.00  0.00    -0.285 OA
ATOM      5  C   UNL     1      29.342 -34.618  39.866  1.00  0.00     0.111 A 
ATOM      6  C   UNL     1      29.013 -34.943  38.515  1.00  0.00     0.134 A 
ATOM      7  C   UNL     1      28.223 -36.069  38.248  1.00  0.00     0.093 A 
ATOM      8  C   UNL     1      27.806 -36.916  39.278  1.00  0.00     0.123 A 
ATOM      9  C   UNL     1      28.171 -36.639  40.593  1.00  0.00     0.094 A 
ATOM     10  C   UNL     1      28.928 -35.504  40.894  1.00  0.00     0.146 A 
ATOM     11  O   UNL     1      29.245 -35.272  42.162  1.00  0.00    -0.452 OA
ENDROOT
BRANCH   1  12
ATOM     12  C   UNL     1      30.252 -34.084  44.003  1.00  0.00     0.021 A 
ATOM     13  C   UNL     1      31.334 -34.771  44.583  1.00  0.00     0.016 A 
ATOM     14  C   UNL     1      31.593 -34.653  45.952  1.00  0.00     0.047 A 
ATOM     15  C   UNL     1      30.768 -33.859  46.760  1.00  0.00     0.115 A 
ATOM     16  C   UNL     1      29.417 -33.308  44.825  1.00  0.00     0.016 A 
ATOM     17  C   UNL     1      29.679 -33.191  46.192  1.00  0.00     0.047 A 
BRANCH  15  18
ATOM     18  O   UNL     1      31.018 -33.735  48.125  1.00  0.00    -0.508 OA
ATOM     19  H   UNL     1      31.195 -32.833  48.550  1.00  0.00     0.293 HD
ENDBRANCH  15  18
ENDBRANCH   1  12
BRANCH   2  20
ATOM     20  O   UNL     1      30.982 -32.079  42.043  1.00  0.00    -0.502 OA
ATOM     21  H   UNL     1      31.132 -31.866  43.021  1.00  0.00     0.293 HD
ENDBRANCH   2  20
BRANCH   6  22
ATOM     22  O   UNL     1      29.457 -34.216  37.408  1.00  0.00    -0.507 OA
ATOM     23  H   UNL     1      29.803 -34.625  36.553  1.00  0.00     0.293 HD
ENDBRANCH   6  22
BRANCH   8  24
ATOM     24  O   UNL     1      27.034 -38.042  39.001  1.00  0.00    -0.508 OA
ATOM     25  H   UNL     1      27.451 -38.902  38.664  1.00  0.00     0.293 HD
ENDBRANCH   8  24
TORSDOF 5
ENDMDL
