MODEL 1
REMARK VINA RESULT:    -7.312      0.000      0.000
REMARK INTER + INTRA:          -8.830
REMARK INTER:                  -8.808
REMARK INTRA:                  -0.022
REMARK UNBOUND:                -0.022
REMARK SMILES O=c1c(O)c(-c2ccc(O)c(O)c2)oc2cc(O)cc(O)c12
REMARK SMILES IDX 5 1 3 2 2 3 1 4 22 5 20 6 19 7 17 8 16 9 15 10 14 11 6 12
REMARK SMILES IDX 7 13 8 14 9 15 13 16 11 17 10 18 12 20 4 22 21 24 18 26
REMARK H PARENT 10 19 12 21 4 23 21 25 18 27
REMARK Flexibility Score: inf
ROOT
ATOM      1  C   UNL     1      29.301  23.285  48.778  1.00  0.00     0.180 A 
ATOM      2  C   UNL     1      30.574  22.703  48.901  1.00  0.00     0.208 A 
ATOM      3  C   UNL     1      30.994  22.243  50.159  1.00  0.00     0.238 A 
ATOM      4  O   UNL     1      32.113  21.674  50.253  1.00  0.00    -0.285 OA
ATOM      5  C   UNL     1      30.143  22.385  51.281  1.00  0.00     0.111 A 
ATOM      6  C   UNL     1      30.481  21.993  52.611  1.00  0.00     0.134 A 
ATOM      7  C   UNL     1      29.512  22.060  53.619  1.00  0.00     0.093 A 
ATOM      8  C   UNL     1      28.237  22.569  53.360  1.00  0.00     0.123 A 
ATOM      9  C   UNL     1      27.916  23.011  52.079  1.00  0.00     0.094 A 
ATOM     10  C   UNL     1      28.850  22.922  51.044  1.00  0.00     0.146 A 
ATOM     11  O   UNL     1      28.500  23.345  49.835  1.00  0.00    -0.452 OA
ENDROOT
BRANCH   1  12
ATOM     12  C   UNL     1      28.798  23.815  47.490  1.00  0.00     0.025 A 
ATOM     13  C   UNL     1      29.568  24.698  46.712  1.00  0.00     0.016 A 
ATOM     14  C   UNL     1      29.063  25.205  45.512  1.00  0.00     0.051 A 
ATOM     15  C   UNL     1      27.779  24.849  45.078  1.00  0.00     0.157 A 
ATOM     16  C   UNL     1      27.504  23.478  47.061  1.00  0.00     0.062 A 
ATOM     17  C   UNL     1      26.996  23.983  45.859  1.00  0.00     0.158 A 
BRANCH  15  18
ATOM     18  O   UNL     1      27.279  25.354  43.878  1.00  0.00    -0.504 OA
ATOM     19  H   UNL     1      26.320  25.670  43.793  1.00  0.00     0.293 HD
ENDBRANCH  15  18
BRANCH  17  20
ATOM     20  O   UNL     1      25.711  23.615  45.460  1.00  0.00    -0.504 OA
ATOM     21  H   UNL     1      25.052  23.184  46.097  1.00  0.00     0.293 HD
ENDBRANCH  17  20
ENDBRANCH   1  12
BRANCH   2  22
ATOM     22  O   UNL     1      31.390  22.553  47.776  1.00  0.00    -0.502 OA
ATOM     23  H   UNL     1      31.045  22.179  46.900  1.00  0.00     0.293 HD
ENDBRANCH   2  22
BRANCH   6  24
ATOM     24  O   UNL     1      31.753  21.557  52.996  1.00  0.00    -0.507 OA
ATOM     25  H   UNL     1      32.474  22.153  53.376  1.00  0.00     0.293 HD
ENDBRANCH   6  24
BRANCH   8  26
ATOM     26  O   UNL     1      27.284  22.647  54.373  1.00  0.00    -0.508 OA
ATOM     27  H   UNL     1      27.253  23.431  55.013  1.00  0.00     0.293 HD
ENDBRANCH   8  26
TORSDOF 6
ENDMDL
MODEL 2
REMARK VINA RESULT:    -7.246     12.570     13.971
REMARK INTER + INTRA:          -8.751
REMARK INTER:                  -8.495
REMARK INTRA:                  -0.256
REMARK UNBOUND:                -0.022
REMARK SMILES O=c1c(O)c(-c2ccc(O)c(O)c2)oc2cc(O)cc(O)c12
REMARK SMILES IDX 5 1 3 2 2 3 1 4 22 5 20 6 19 7 17 8 16 9 15 10 14 11 6 12
REMARK SMILES IDX 7 13 8 14 9 15 13 16 11 17 10 18 12 20 4 22 21 24 18 26
REMARK H PARENT 10 19 12 21 4 23 21 25 18 27
REMARK Flexibility Score: inf
ROOT
ATOM      1  C   UNL     1      18.032  24.739  41.466  1.00  0.00     0.180 A 
ATOM      2  C   UNL     1      16.783  24.340  41.970  1.00  0.00     0.208 A 
ATOM      3  C   UNL     1      16.295  24.947  43.138  1.00  0.00     0.238 A 
ATOM      4  O   UNL     1      15.152  24.625  43.555  1.00  0.00    -0.285 OA
ATOM      5  C   UNL     1      17.068  25.935  43.795  1.00  0.00     0.111 A 
ATOM      6  C   UNL     1      16.690  26.588  45.006  1.00  0.00     0.134 A 
ATOM      7  C   UNL     1      17.471  27.641  45.496  1.00  0.00     0.093 A 
ATOM      8  C   UNL     1      18.651  28.022  44.853  1.00  0.00     0.123 A 
ATOM      9  C   UNL     1      19.061  27.351  43.703  1.00  0.00     0.094 A 
ATOM     10  C   UNL     1      18.283  26.320  43.171  1.00  0.00     0.146 A 
ATOM     11  O   UNL     1      18.704  25.714  42.067  1.00  0.00    -0.452 OA
ENDROOT
BRANCH   1  12
ATOM     12  C   UNL     1      18.624  24.127  40.254  1.00  0.00     0.025 A 
ATOM     13  C   UNL     1      18.136  24.426  38.970  1.00  0.00     0.016 A 
ATOM     14  C   UNL     1      18.694  23.818  37.843  1.00  0.00     0.051 A 
ATOM     15  C   UNL     1      19.738  22.894  37.981  1.00  0.00     0.157 A 
ATOM     16  C   UNL     1      19.657  23.185  40.389  1.00  0.00     0.062 A 
ATOM     17  C   UNL     1      20.219  22.574  39.262  1.00  0.00     0.158 A 
BRANCH  15  18
ATOM     18  O   UNL     1      20.295  22.291  36.854  1.00  0.00    -0.504 OA
ATOM     19  H   UNL     1      20.254  22.731  35.942  1.00  0.00     0.293 HD
ENDBRANCH  15  18
BRANCH  17  20
ATOM     20  O   UNL     1      21.252  21.653  39.435  1.00  0.00    -0.504 OA
ATOM     21  H   UNL     1      21.552  21.035  38.690  1.00  0.00     0.293 HD
ENDBRANCH  17  20
ENDBRANCH   1  12
BRANCH   2  22
ATOM     22  O   UNL     1      16.027  23.378  41.294  1.00  0.00    -0.502 OA
ATOM     23  H   UNL     1      16.103  23.230  40.295  1.00  0.00     0.293 HD
ENDBRANCH   2  22
BRANCH   6  24
ATOM     24  O   UNL     1      15.580  26.224  45.775  1.00  0.00    -0.507 OA
ATOM     25  H   UNL     1      14.825  26.845  46.024  1.00  0.00     0.293 HD
ENDBRANCH   6  24
BRANCH   8  26
ATOM     26  O   UNL     1      19.431  29.062  45.356  1.00  0.00    -0.508 OA
ATOM     27  H   UNL     1      19.127  30.027  45.303  1.00  0.00     0.293 HD
ENDBRANCH   8  26
TORSDOF 6
ENDMDL
MODEL 3
REMARK VINA RESULT:    -6.960     12.558     13.579
REMARK INTER + INTRA:          -8.405
REMARK INTER:                  -8.078
REMARK INTRA:                  -0.328
REMARK UNBOUND:                -0.022
REMARK SMILES O=c1c(O)c(-c2ccc(O)c(O)c2)oc2cc(O)cc(O)c12
REMARK SMILES IDX 5 1 3 2 2 3 1 4 22 5 20 6 19 7 17 8 16 9 15 10 14 11 6 12
REMARK SMILES IDX 7 13 8 14 9 15 13 16 11 17 10 18 12 20 4 22 21 24 18 26
REMARK H PARENT 10 19 12 21 4 23 21 25 18 27
REMARK Flexibility Score: inf
ROOT
ATOM      1  C   UNL     1      18.998  25.394  40.985  1.00  0.00     0.180 A 
ATOM      2  C   UNL     1      19.895  26.413  41.344  1.00  0.00     0.208 A 
ATOM      3  C   UNL     1      19.676  27.126  42.533  1.00  0.00     0.238 A 
ATOM      4  O   UNL     1      20.512  28.002  42.877  1.00  0.00    -0.285 OA
ATOM      5  C   UNL     1      18.554  26.821  43.341  1.00  0.00     0.111 A 
ATOM      6  C   UNL     1      18.211  27.505  44.545  1.00  0.00     0.134 A 
ATOM      7  C   UNL     1      17.153  27.034  45.331  1.00  0.00     0.093 A 
ATOM      8  C   UNL     1      16.384  25.941  44.923  1.00  0.00     0.123 A 
ATOM      9  C   UNL     1      16.672  25.304  43.719  1.00  0.00     0.094 A 
ATOM     10  C   UNL     1      17.745  25.729  42.931  1.00  0.00     0.146 A 
ATOM     11  O   UNL     1      17.992  25.086  41.795  1.00  0.00    -0.452 OA
ENDROOT
BRANCH   1  12
ATOM     12  C   UNL     1      19.149  24.615  39.734  1.00  0.00     0.025 A 
ATOM     13  C   UNL     1      18.508  25.007  38.546  1.00  0.00     0.016 A 
ATOM     14  C   UNL     1      18.645  24.244  37.384  1.00  0.00     0.051 A 
ATOM     15  C   UNL     1      19.413  23.072  37.394  1.00  0.00     0.157 A 
ATOM     16  C   UNL     1      19.900  23.428  39.745  1.00  0.00     0.062 A 
ATOM     17  C   UNL     1      20.040  22.662  38.582  1.00  0.00     0.158 A 
BRANCH  15  18
ATOM     18  O   UNL     1      19.550  22.314  36.232  1.00  0.00    -0.504 OA
ATOM     19  H   UNL     1      19.055  22.552  35.381  1.00  0.00     0.293 HD
ENDBRANCH  15  18
BRANCH  17  20
ATOM     20  O   UNL     1      20.805  21.496  38.628  1.00  0.00    -0.504 OA
ATOM     21  H   UNL     1      21.165  21.122  39.498  1.00  0.00     0.293 HD
ENDBRANCH  17  20
ENDBRANCH   1  12
BRANCH   2  22
ATOM     22  O   UNL     1      21.008  26.684  40.543  1.00  0.00    -0.502 OA
ATOM     23  H   UNL     1      21.332  27.627  40.361  1.00  0.00     0.293 HD
ENDBRANCH   2  22
BRANCH   6  24
ATOM     24  O   UNL     1      18.857  28.660  44.997  1.00  0.00    -0.507 OA
ATOM     25  H   UNL     1      18.731  29.069  45.911  1.00  0.00     0.293 HD
ENDBRANCH   6  24
BRANCH   8  26
ATOM     26  O   UNL     1      15.323  25.488  45.704  1.00  0.00    -0.508 OA
ATOM     27  H   UNL     1      14.361  25.585  45.400  1.00  0.00     0.293 HD
ENDBRANCH   8  26
TORSDOF 6
ENDMDL
MODEL 4
REMARK VINA RESULT:    -6.819     12.881     14.746
REMARK INTER + INTRA:          -8.236
REMARK INTER:                  -7.921
REMARK INTRA:                  -0.315
REMARK UNBOUND:                -0.022
REMARK SMILES O=c1c(O)c(-c2ccc(O)c(O)c2)oc2cc(O)cc(O)c12
REMARK SMILES IDX 5 1 3 2 2 3 1 4 22 5 20 6 19 7 17 8 16 9 15 10 14 11 6 12
REMARK SMILES IDX 7 13 8 14 9 15 13 16 11 17 10 18 12 20 4 22 21 24 18 26
REMARK H PARENT 10 19 12 21 4 23 21 25 18 27
REMARK Flexibility Score: inf
ROOT
ATOM      1  C   UNL     1      17.038  24.309  41.916  1.00  0.00     0.180 A 
ATOM      2  C   UNL     1      15.649  24.511  41.869  1.00  0.00     0.208 A 
ATOM      3  C   UNL     1      14.797  23.487  42.315  1.00  0.00     0.238 A 
ATOM      4  O   UNL     1      13.556  23.693  42.321  1.00  0.00    -0.285 OA
ATOM      5  C   UNL     1      15.345  22.270  42.787  1.00  0.00     0.111 A 
ATOM      6  C   UNL     1      14.577  21.151  43.224  1.00  0.00     0.134 A 
ATOM      7  C   UNL     1      15.224  20.048  43.793  1.00  0.00     0.093 A 
ATOM      8  C   UNL     1      16.618  19.997  43.880  1.00  0.00     0.123 A 
ATOM      9  C   UNL     1      17.380  21.059  43.400  1.00  0.00     0.094 A 
ATOM     10  C   UNL     1      16.760  22.188  42.860  1.00  0.00     0.146 A 
ATOM     11  O   UNL     1      17.524  23.184  42.424  1.00  0.00    -0.452 OA
ENDROOT
BRANCH   1  12
ATOM     12  C   UNL     1      17.999  25.332  41.440  1.00  0.00     0.025 A 
ATOM     13  C   UNL     1      18.296  25.478  40.074  1.00  0.00     0.016 A 
ATOM     14  C   UNL     1      19.224  26.433  39.651  1.00  0.00     0.051 A 
ATOM     15  C   UNL     1      19.878  27.247  40.586  1.00  0.00     0.157 A 
ATOM     16  C   UNL     1      18.672  26.135  42.375  1.00  0.00     0.062 A 
ATOM     17  C   UNL     1      19.602  27.094  41.954  1.00  0.00     0.158 A 
BRANCH  15  18
ATOM     18  O   UNL     1      20.801  28.201  40.160  1.00  0.00    -0.504 OA
ATOM     19  H   UNL     1      21.785  27.982  40.064  1.00  0.00     0.293 HD
ENDBRANCH  15  18
BRANCH  17  20
ATOM     20  O   UNL     1      20.241  27.883  42.911  1.00  0.00    -0.504 OA
ATOM     21  H   UNL     1      20.170  28.893  42.910  1.00  0.00     0.293 HD
ENDBRANCH  17  20
ENDBRANCH   1  12
BRANCH   2  22
ATOM     22  O   UNL     1      15.129  25.728  41.419  1.00  0.00    -0.502 OA
ATOM     23  H   UNL     1      15.601  26.611  41.574  1.00  0.00     0.293 HD
ENDBRANCH   2  22
BRANCH   6  24
ATOM     24  O   UNL     1      13.187  21.062  43.099  1.00  0.00    -0.507 OA
ATOM     25  H   UNL     1      12.607  20.397  43.589  1.00  0.00     0.293 HD
ENDBRANCH   6  24
BRANCH   8  26
ATOM     26  O   UNL     1      17.256  18.888  44.433  1.00  0.00    -0.508 OA
ATOM     27  H   UNL     1      16.799  17.985  44.486  1.00  0.00     0.293 HD
ENDBRANCH   8  26
TORSDOF 6
ENDMDL
MODEL 5
REMARK VINA RESULT:    -6.800      1.645      2.720
REMARK INTER + INTRA:          -8.213
REMARK INTER:                  -8.738
REMARK INTRA:                   0.524
REMARK UNBOUND:                -0.022
REMARK SMILES O=c1c(O)c(-c2ccc(O)c(O)c2)oc2cc(O)cc(O)c12
REMARK SMILES IDX 5 1 3 2 2 3 1 4 22 5 20 6 19 7 17 8 16 9 15 10 14 11 6 12
REMARK SMILES IDX 7 13 8 14 9 15 13 16 11 17 10 18 12 20 4 22 21 24 18 26
REMARK H PARENT 10 19 12 21 4 23 21 25 18 27
REMARK Flexibility Score: inf
ROOT
ATOM      1  C   UNL     1      28.099  23.416  49.263  1.00  0.00     0.180 A 
ATOM      2  C   UNL     1      27.045  22.633  49.763  1.00  0.00     0.208 A 
ATOM      3  C   UNL     1      27.095  22.194  51.095  1.00  0.00     0.238 A 
ATOM      4  O   UNL     1      26.123  21.539  51.553  1.00  0.00    -0.285 OA
ATOM      5  C   UNL     1      28.206  22.530  51.906  1.00  0.00     0.111 A 
ATOM      6  C   UNL     1      28.381  22.106  53.257  1.00  0.00     0.134 A 
ATOM      7  C   UNL     1      29.454  22.606  54.005  1.00  0.00     0.093 A 
ATOM      8  C   UNL     1      30.395  23.463  53.430  1.00  0.00     0.123 A 
ATOM      9  C   UNL     1      30.266  23.836  52.094  1.00  0.00     0.094 A 
ATOM     10  C   UNL     1      29.186  23.382  51.333  1.00  0.00     0.146 A 
ATOM     11  O   UNL     1      29.095  23.770  50.066  1.00  0.00    -0.452 OA
ENDROOT
BRANCH   1  12
ATOM     12  C   UNL     1      28.129  23.895  47.862  1.00  0.00     0.025 A 
ATOM     13  C   UNL     1      29.267  24.526  47.329  1.00  0.00     0.016 A 
ATOM     14  C   UNL     1      29.263  24.992  46.011  1.00  0.00     0.051 A 
ATOM     15  C   UNL     1      28.121  24.847  45.212  1.00  0.00     0.157 A 
ATOM     16  C   UNL     1      26.980  23.772  47.064  1.00  0.00     0.062 A 
ATOM     17  C   UNL     1      26.974  24.236  45.744  1.00  0.00     0.158 A 
BRANCH  15  18
ATOM     18  O   UNL     1      28.123  25.311  43.897  1.00  0.00    -0.504 OA
ATOM     19  H   UNL     1      28.048  24.676  43.111  1.00  0.00     0.293 HD
ENDBRANCH  15  18
BRANCH  17  20
ATOM     20  O   UNL     1      25.818  24.084  44.978  1.00  0.00    -0.504 OA
ATOM     21  H   UNL     1      25.588  24.714  44.218  1.00  0.00     0.293 HD
ENDBRANCH  17  20
ENDBRANCH   1  12
BRANCH   2  22
ATOM     22  O   UNL     1      25.948  22.331  48.951  1.00  0.00    -0.502 OA
ATOM     23  H   UNL     1      25.932  21.526  48.335  1.00  0.00     0.293 HD
ENDBRANCH   2  22
BRANCH   6  24
ATOM     24  O   UNL     1      27.551  21.181  53.899  1.00  0.00    -0.507 OA
ATOM     25  H   UNL     1      26.903  21.407  54.639  1.00  0.00     0.293 HD
ENDBRANCH   6  24
BRANCH   8  26
ATOM     26  O   UNL     1      31.469  23.944  54.177  1.00  0.00    -0.508 OA
ATOM     27  H   UNL     1      31.454  23.940  55.190  1.00  0.00     0.293 HD
ENDBRANCH   8  26
TORSDOF 6
ENDMDL
MODEL 6
REMARK VINA RESULT:    -6.749      1.701      7.197
REMARK INTER + INTRA:          -8.152
REMARK INTER:                  -7.824
REMARK INTRA:                  -0.328
REMARK UNBOUND:                -0.022
REMARK SMILES O=c1c(O)c(-c2ccc(O)c(O)c2)oc2cc(O)cc(O)c12
REMARK SMILES IDX 5 1 3 2 2 3 1 4 22 5 20 6 19 7 17 8 16 9 15 10 14 11 6 12
REMARK SMILES IDX 7 13 8 14 9 15 13 16 11 17 10 18 12 20 4 22 21 24 18 26
REMARK H PARENT 10 19 12 21 4 23 21 25 18 27
REMARK Flexibility Score: inf
ROOT
ATOM      1  C   UNL     1      29.172  22.937  50.211  1.00  0.00     0.180 A 
ATOM      2  C   UNL     1      27.849  22.564  49.919  1.00  0.00     0.208 A 
ATOM      3  C   UNL     1      27.294  22.937  48.684  1.00  0.00     0.238 A 
ATOM      4  O   UNL     1      26.127  22.554  48.406  1.00  0.00    -0.285 OA
ATOM      5  C   UNL     1      28.062  23.690  47.765  1.00  0.00     0.111 A 
ATOM      6  C   UNL     1      27.588  24.157  46.502  1.00  0.00     0.134 A 
ATOM      7  C   UNL     1      28.476  24.781  45.618  1.00  0.00     0.093 A 
ATOM      8  C   UNL     1      29.806  25.014  45.978  1.00  0.00     0.123 A 
ATOM      9  C   UNL     1      30.264  24.616  47.232  1.00  0.00     0.094 A 
ATOM     10  C   UNL     1      29.410  23.959  48.121  1.00  0.00     0.146 A 
ATOM     11  O   UNL     1      29.889  23.586  49.303  1.00  0.00    -0.452 OA
ENDROOT
BRANCH   1  12
ATOM     12  C   UNL     1      29.817  22.602  51.502  1.00  0.00     0.025 A 
ATOM     13  C   UNL     1      29.649  23.415  52.636  1.00  0.00     0.016 A 
ATOM     14  C   UNL     1      30.288  23.092  53.836  1.00  0.00     0.051 A 
ATOM     15  C   UNL     1      31.114  21.963  53.918  1.00  0.00     0.157 A 
ATOM     16  C   UNL     1      30.662  21.484  51.582  1.00  0.00     0.062 A 
ATOM     17  C   UNL     1      31.303  21.157  52.783  1.00  0.00     0.158 A 
BRANCH  15  18
ATOM     18  O   UNL     1      31.747  21.643  55.118  1.00  0.00    -0.504 OA
ATOM     19  H   UNL     1      31.582  22.176  55.964  1.00  0.00     0.293 HD
ENDBRANCH  15  18
BRANCH  17  20
ATOM     20  O   UNL     1      32.124  20.031  52.828  1.00  0.00    -0.504 OA
ATOM     21  H   UNL     1      31.748  19.091  52.881  1.00  0.00     0.293 HD
ENDBRANCH  17  20
ENDBRANCH   1  12
BRANCH   2  22
ATOM     22  O   UNL     1      27.115  21.802  50.832  1.00  0.00    -0.502 OA
ATOM     23  H   UNL     1      27.150  20.789  50.847  1.00  0.00     0.293 HD
ENDBRANCH   2  22
BRANCH   6  24
ATOM     24  O   UNL     1      26.258  24.057  46.083  1.00  0.00    -0.507 OA
ATOM     25  H   UNL     1      25.676  24.840  45.826  1.00  0.00     0.293 HD
ENDBRANCH   6  24
BRANCH   8  26
ATOM     26  O   UNL     1      30.680  25.649  45.098  1.00  0.00    -0.508 OA
ATOM     27  H   UNL     1      31.441  26.229  45.432  1.00  0.00     0.293 HD
ENDBRANCH   8  26
TORSDOF 6
ENDMDL
MODEL 7
REMARK VINA RESULT:    -6.644     13.500     15.227
REMARK INTER + INTRA:          -8.026
REMARK INTER:                  -7.755
REMARK INTRA:                  -0.271
REMARK UNBOUND:                -0.022
REMARK SMILES O=c1c(O)c(-c2ccc(O)c(O)c2)oc2cc(O)cc(O)c12
REMARK SMILES IDX 5 1 3 2 2 3 1 4 22 5 20 6 19 7 17 8 16 9 15 10 14 11 6 12
REMARK SMILES IDX 7 13 8 14 9 15 13 16 11 17 10 18 12 20 4 22 21 24 18 26
REMARK H PARENT 10 19 12 21 4 23 21 25 18 27
REMARK Flexibility Score: inf
ROOT
ATOM      1  C   UNL     1      17.142  23.476  42.230  1.00  0.00     0.180 A 
ATOM      2  C   UNL     1      17.249  24.680  42.947  1.00  0.00     0.208 A 
ATOM      3  C   UNL     1      17.897  25.773  42.350  1.00  0.00     0.238 A 
ATOM      4  O   UNL     1      17.943  26.864  42.976  1.00  0.00    -0.285 OA
ATOM      5  C   UNL     1      18.443  25.644  41.050  1.00  0.00     0.111 A 
ATOM      6  C   UNL     1      19.155  26.673  40.365  1.00  0.00     0.134 A 
ATOM      7  C   UNL     1      19.537  26.479  39.032  1.00  0.00     0.093 A 
ATOM      8  C   UNL     1      19.289  25.267  38.381  1.00  0.00     0.123 A 
ATOM      9  C   UNL     1      18.648  24.235  39.061  1.00  0.00     0.094 A 
ATOM     10  C   UNL     1      18.223  24.412  40.380  1.00  0.00     0.146 A 
ATOM     11  O   UNL     1      17.605  23.406  40.988  1.00  0.00    -0.452 OA
ENDROOT
BRANCH   1  12
ATOM     12  C   UNL     1      16.495  22.273  42.802  1.00  0.00     0.025 A 
ATOM     13  C   UNL     1      15.096  22.172  42.901  1.00  0.00     0.016 A 
ATOM     14  C   UNL     1      14.509  21.037  43.467  1.00  0.00     0.051 A 
ATOM     15  C   UNL     1      15.308  19.994  43.954  1.00  0.00     0.157 A 
ATOM     16  C   UNL     1      17.292  21.235  43.310  1.00  0.00     0.062 A 
ATOM     17  C   UNL     1      16.707  20.097  43.877  1.00  0.00     0.158 A 
BRANCH  15  18
ATOM     18  O   UNL     1      14.719  18.862  44.515  1.00  0.00    -0.504 OA
ATOM     19  H   UNL     1      14.043  18.933  45.267  1.00  0.00     0.293 HD
ENDBRANCH  15  18
BRANCH  17  20
ATOM     20  O   UNL     1      17.532  19.080  44.359  1.00  0.00    -0.504 OA
ATOM     21  H   UNL     1      17.427  18.116  44.063  1.00  0.00     0.293 HD
ENDBRANCH  17  20
ENDBRANCH   1  12
BRANCH   2  22
ATOM     22  O   UNL     1      16.684  24.792  44.221  1.00  0.00    -0.502 OA
ATOM     23  H   UNL     1      17.201  25.150  45.015  1.00  0.00     0.293 HD
ENDBRANCH   2  22
BRANCH   6  24
ATOM     24  O   UNL     1      19.533  27.884  40.951  1.00  0.00    -0.507 OA
ATOM     25  H   UNL     1      20.383  28.385  40.739  1.00  0.00     0.293 HD
ENDBRANCH   6  24
BRANCH   8  26
ATOM     26  O   UNL     1      19.687  25.077  37.059  1.00  0.00    -0.508 OA
ATOM     27  H   UNL     1      20.020  24.179  36.729  1.00  0.00     0.293 HD
ENDBRANCH   8  26
TORSDOF 6
ENDMDL
MODEL 8
REMARK VINA RESULT:    -6.581     12.264     15.185
REMARK INTER + INTRA:          -7.950
REMARK INTER:                  -7.618
REMARK INTRA:                  -0.331
REMARK UNBOUND:                -0.022
REMARK SMILES O=c1c(O)c(-c2ccc(O)c(O)c2)oc2cc(O)cc(O)c12
REMARK SMILES IDX 5 1 3 2 2 3 1 4 22 5 20 6 19 7 17 8 16 9 15 10 14 11 6 12
REMARK SMILES IDX 7 13 8 14 9 15 13 16 11 17 10 18 12 20 4 22 21 24 18 26
REMARK H PARENT 10 19 12 21 4 23 21 25 18 27
REMARK Flexibility Score: inf
ROOT
ATOM      1  C   UNL     1      16.445  25.096  43.274  1.00  0.00     0.180 A 
ATOM      2  C   UNL     1      15.592  25.258  42.169  1.00  0.00     0.208 A 
ATOM      3  C   UNL     1      14.713  24.217  41.829  1.00  0.00     0.238 A 
ATOM      4  O   UNL     1      13.914  24.389  40.873  1.00  0.00    -0.285 OA
ATOM      5  C   UNL     1      14.709  23.022  42.588  1.00  0.00     0.111 A 
ATOM      6  C   UNL     1      13.890  21.887  42.309  1.00  0.00     0.134 A 
ATOM      7  C   UNL     1      13.875  20.810  43.203  1.00  0.00     0.093 A 
ATOM      8  C   UNL     1      14.699  20.798  44.332  1.00  0.00     0.123 A 
ATOM      9  C   UNL     1      15.547  21.875  44.580  1.00  0.00     0.094 A 
ATOM     10  C   UNL     1      15.558  22.980  43.726  1.00  0.00     0.146 A 
ATOM     11  O   UNL     1      16.373  23.990  44.005  1.00  0.00    -0.452 OA
ENDROOT
BRANCH   1  12
ATOM     12  C   UNL     1      17.417  26.138  43.679  1.00  0.00     0.025 A 
ATOM     13  C   UNL     1      18.698  26.206  43.105  1.00  0.00     0.016 A 
ATOM     14  C   UNL     1      19.607  27.183  43.520  1.00  0.00     0.051 A 
ATOM     15  C   UNL     1      19.254  28.097  44.522  1.00  0.00     0.157 A 
ATOM     16  C   UNL     1      17.076  27.043  44.697  1.00  0.00     0.062 A 
ATOM     17  C   UNL     1      17.983  28.023  45.115  1.00  0.00     0.158 A 
BRANCH  15  18
ATOM     18  O   UNL     1      20.162  29.073  44.932  1.00  0.00    -0.504 OA
ATOM     19  H   UNL     1      21.023  28.831  45.409  1.00  0.00     0.293 HD
ENDBRANCH  15  18
BRANCH  17  20
ATOM     20  O   UNL     1      17.603  28.913  46.120  1.00  0.00    -0.504 OA
ATOM     21  H   UNL     1      16.697  28.861  46.571  1.00  0.00     0.293 HD
ENDBRANCH  17  20
ENDBRANCH   1  12
BRANCH   2  22
ATOM     22  O   UNL     1      15.597  26.455  41.447  1.00  0.00    -0.502 OA
ATOM     23  H   UNL     1      16.448  26.968  41.250  1.00  0.00     0.293 HD
ENDBRANCH   2  22
BRANCH   6  24
ATOM     24  O   UNL     1      13.100  21.758  41.164  1.00  0.00    -0.507 OA
ATOM     25  H   UNL     1      12.168  21.370  41.149  1.00  0.00     0.293 HD
ENDBRANCH   6  24
BRANCH   8  26
ATOM     26  O   UNL     1      14.689  19.715  45.208  1.00  0.00    -0.508 OA
ATOM     27  H   UNL     1      15.504  19.469  45.757  1.00  0.00     0.293 HD
ENDBRANCH   8  26
TORSDOF 6
ENDMDL
MODEL 9
REMARK VINA RESULT:    -6.578     12.571     13.862
REMARK INTER + INTRA:          -7.945
REMARK INTER:                  -7.679
REMARK INTRA:                  -0.266
REMARK UNBOUND:                -0.022
REMARK SMILES O=c1c(O)c(-c2ccc(O)c(O)c2)oc2cc(O)cc(O)c12
REMARK SMILES IDX 5 1 3 2 2 3 1 4 22 5 20 6 19 7 17 8 16 9 15 10 14 11 6 12
REMARK SMILES IDX 7 13 8 14 9 15 13 16 11 17 10 18 12 20 4 22 21 24 18 26
REMARK H PARENT 10 19 12 21 4 23 21 25 18 27
REMARK Flexibility Score: inf
ROOT
ATOM      1  C   UNL     1      18.742  25.448  40.935  1.00  0.00     0.180 A 
ATOM      2  C   UNL     1      19.720  26.400  41.271  1.00  0.00     0.208 A 
ATOM      3  C   UNL     1      19.606  27.093  42.486  1.00  0.00     0.238 A 
ATOM      4  O   UNL     1      20.513  27.905  42.806  1.00  0.00    -0.285 OA
ATOM      5  C   UNL     1      18.509  26.838  43.343  1.00  0.00     0.111 A 
ATOM      6  C   UNL     1      18.271  27.510  44.579  1.00  0.00     0.134 A 
ATOM      7  C   UNL     1      17.226  27.085  45.407  1.00  0.00     0.093 A 
ATOM      8  C   UNL     1      16.368  26.054  45.013  1.00  0.00     0.123 A 
ATOM      9  C   UNL     1      16.555  25.432  43.782  1.00  0.00     0.094 A 
ATOM     10  C   UNL     1      17.612  25.810  42.950  1.00  0.00     0.146 A 
ATOM     11  O   UNL     1      17.760  25.183  41.788  1.00  0.00    -0.452 OA
ENDROOT
BRANCH   1  12
ATOM     12  C   UNL     1      18.781  24.695  39.660  1.00  0.00     0.025 A 
ATOM     13  C   UNL     1      19.686  23.638  39.462  1.00  0.00     0.016 A 
ATOM     14  C   UNL     1      19.721  22.958  38.242  1.00  0.00     0.051 A 
ATOM     15  C   UNL     1      18.863  23.331  37.199  1.00  0.00     0.157 A 
ATOM     16  C   UNL     1      17.938  25.079  38.605  1.00  0.00     0.062 A 
ATOM     17  C   UNL     1      17.970  24.399  37.382  1.00  0.00     0.158 A 
BRANCH  15  18
ATOM     18  O   UNL     1      18.899  22.648  35.983  1.00  0.00    -0.504 OA
ATOM     19  H   UNL     1      19.772  22.339  35.574  1.00  0.00     0.293 HD
ENDBRANCH  15  18
BRANCH  17  20
ATOM     20  O   UNL     1      17.108  24.801  36.361  1.00  0.00    -0.504 OA
ATOM     21  H   UNL     1      17.298  24.599  35.386  1.00  0.00     0.293 HD
ENDBRANCH  17  20
ENDBRANCH   1  12
BRANCH   2  22
ATOM     22  O   UNL     1      20.807  26.621  40.420  1.00  0.00    -0.502 OA
ATOM     23  H   UNL     1      20.992  27.523  39.997  1.00  0.00     0.293 HD
ENDBRANCH   2  22
BRANCH   6  24
ATOM     24  O   UNL     1      19.011  28.610  45.023  1.00  0.00    -0.507 OA
ATOM     25  H   UNL     1      19.376  29.337  44.426  1.00  0.00     0.293 HD
ENDBRANCH   6  24
BRANCH   8  26
ATOM     26  O   UNL     1      15.320  25.648  45.837  1.00  0.00    -0.508 OA
ATOM     27  H   UNL     1      15.297  24.723  46.248  1.00  0.00     0.293 HD
ENDBRANCH   8  26
TORSDOF 6
ENDMDL
