MODEL 1
REMARK VINA RESULT:    -6.121      0.000      0.000
REMARK INTER + INTRA:          -7.674
REMARK INTER:                  -7.374
REMARK INTRA:                  -0.301
REMARK UNBOUND:                -0.301
REMARK SMILES O=c1c(O)c(-c2ccc(O)c(O)c2)oc2cc(O)cc(O)c12
REMARK SMILES IDX 5 1 3 2 2 3 1 4 22 5 20 6 19 7 17 8 16 9 15 10 14 11 6 12
REMARK SMILES IDX 7 13 8 14 9 15 13 16 11 17 10 18 12 20 4 22 21 24 18 26
REMARK H PARENT 10 19 12 21 4 23 21 25 18 27
REMARK Flexibility Score: inf
ROOT
ATOM      1  C   UNL     1      70.504  54.591  17.356  1.00  0.00     0.180 A 
ATOM      2  C   UNL     1      71.426  54.449  18.407  1.00  0.00     0.208 A 
ATOM      3  C   UNL     1      71.129  53.569  19.460  1.00  0.00     0.238 A 
ATOM      4  O   UNL     1      71.934  53.487  20.424  1.00  0.00    -0.285 OA
ATOM      5  C   UNL     1      69.921  52.831  19.441  1.00  0.00     0.111 A 
ATOM      6  C   UNL     1      69.536  51.882  20.435  1.00  0.00     0.134 A 
ATOM      7  C   UNL     1      68.261  51.307  20.384  1.00  0.00     0.093 A 
ATOM      8  C   UNL     1      67.381  51.598  19.338  1.00  0.00     0.123 A 
ATOM      9  C   UNL     1      67.771  52.477  18.331  1.00  0.00     0.094 A 
ATOM     10  C   UNL     1      69.023  53.094  18.374  1.00  0.00     0.146 A 
ATOM     11  O   UNL     1      69.350  53.934  17.400  1.00  0.00    -0.452 OA
ENDROOT
BRANCH   1  12
ATOM     12  C   UNL     1      70.759  55.479  16.199  1.00  0.00     0.025 A 
ATOM     13  C   UNL     1      70.471  56.849  16.303  1.00  0.00     0.016 A 
ATOM     14  C   UNL     1      70.685  57.702  15.218  1.00  0.00     0.051 A 
ATOM     15  C   UNL     1      71.172  57.199  14.008  1.00  0.00     0.157 A 
ATOM     16  C   UNL     1      71.229  54.971  14.975  1.00  0.00     0.062 A 
ATOM     17  C   UNL     1      71.442  55.826  13.883  1.00  0.00     0.158 A 
BRANCH  15  18
ATOM     18  O   UNL     1      71.377  58.075  12.942  1.00  0.00    -0.504 OA
ATOM     19  H   UNL     1      70.610  58.550  12.482  1.00  0.00     0.293 HD
ENDBRANCH  15  18
BRANCH  17  20
ATOM     20  O   UNL     1      71.915  55.315  12.676  1.00  0.00    -0.504 OA
ATOM     21  H   UNL     1      72.420  55.894  12.015  1.00  0.00     0.293 HD
ENDBRANCH  17  20
ENDBRANCH   1  12
BRANCH   2  22
ATOM     22  O   UNL     1      72.604  55.203  18.416  1.00  0.00    -0.502 OA
ATOM     23  H   UNL     1      73.087  55.446  19.272  1.00  0.00     0.293 HD
ENDBRANCH   2  22
BRANCH   6  24
ATOM     24  O   UNL     1      70.373  51.452  21.470  1.00  0.00    -0.507 OA
ATOM     25  H   UNL     1      70.148  51.510  22.452  1.00  0.00     0.293 HD
ENDBRANCH   6  24
BRANCH   8  26
ATOM     26  O   UNL     1      66.119  51.009  19.286  1.00  0.00    -0.508 OA
ATOM     27  H   UNL     1      65.419  51.192  19.996  1.00  0.00     0.293 HD
ENDBRANCH   8  26
TORSDOF 6
ENDMDL
MODEL 2
REMARK VINA RESULT:    -5.502      1.517      6.925
REMARK INTER + INTRA:          -6.929
REMARK INTER:                  -6.622
REMARK INTRA:                  -0.307
REMARK UNBOUND:                -0.301
REMARK SMILES O=c1c(O)c(-c2ccc(O)c(O)c2)oc2cc(O)cc(O)c12
REMARK SMILES IDX 5 1 3 2 2 3 1 4 22 5 20 6 19 7 17 8 16 9 15 10 14 11 6 12
REMARK SMILES IDX 7 13 8 14 9 15 13 16 11 17 10 18 12 20 4 22 21 24 18 26
REMARK H PARENT 10 19 12 21 4 23 21 25 18 27
REMARK Flexibility Score: inf
ROOT
ATOM      1  C   UNL     1      69.863  54.677  18.040  1.00  0.00     0.180 A 
ATOM      2  C   UNL     1      69.789  56.014  18.467  1.00  0.00     0.208 A 
ATOM      3  C   UNL     1      70.142  57.036  17.573  1.00  0.00     0.238 A 
ATOM      4  O   UNL     1      70.127  58.227  17.979  1.00  0.00    -0.285 OA
ATOM      5  C   UNL     1      70.549  56.711  16.256  1.00  0.00     0.111 A 
ATOM      6  C   UNL     1      70.891  57.667  15.253  1.00  0.00     0.134 A 
ATOM      7  C   UNL     1      71.404  57.230  14.027  1.00  0.00     0.093 A 
ATOM      8  C   UNL     1      71.527  55.867  13.743  1.00  0.00     0.123 A 
ATOM      9  C   UNL     1      71.140  54.925  14.693  1.00  0.00     0.094 A 
ATOM     10  C   UNL     1      70.658  55.332  15.939  1.00  0.00     0.146 A 
ATOM     11  O   UNL     1      70.310  54.401  16.819  1.00  0.00    -0.452 OA
ENDROOT
BRANCH   1  12
ATOM     12  C   UNL     1      69.482  53.547  18.917  1.00  0.00     0.025 A 
ATOM     13  C   UNL     1      70.422  53.028  19.822  1.00  0.00     0.016 A 
ATOM     14  C   UNL     1      70.092  51.949  20.645  1.00  0.00     0.051 A 
ATOM     15  C   UNL     1      68.825  51.361  20.566  1.00  0.00     0.157 A 
ATOM     16  C   UNL     1      68.217  52.941  18.824  1.00  0.00     0.062 A 
ATOM     17  C   UNL     1      67.884  51.856  19.649  1.00  0.00     0.158 A 
BRANCH  15  18
ATOM     18  O   UNL     1      68.524  50.286  21.402  1.00  0.00    -0.504 OA
ATOM     19  H   UNL     1      67.694  50.275  21.984  1.00  0.00     0.293 HD
ENDBRANCH  15  18
BRANCH  17  20
ATOM     20  O   UNL     1      66.624  51.266  19.555  1.00  0.00    -0.504 OA
ATOM     21  H   UNL     1      66.343  50.514  20.173  1.00  0.00     0.293 HD
ENDBRANCH  17  20
ENDBRANCH   1  12
BRANCH   2  22
ATOM     22  O   UNL     1      69.406  56.312  19.779  1.00  0.00    -0.502 OA
ATOM     23  H   UNL     1      69.210  57.257  20.086  1.00  0.00     0.293 HD
ENDBRANCH   2  22
BRANCH   6  24
ATOM     24  O   UNL     1      70.720  59.047  15.401  1.00  0.00    -0.507 OA
ATOM     25  H   UNL     1      70.384  59.498  16.239  1.00  0.00     0.293 HD
ENDBRANCH   6  24
BRANCH   8  26
ATOM     26  O   UNL     1      72.025  55.438  12.514  1.00  0.00    -0.508 OA
ATOM     27  H   UNL     1      71.518  54.774  11.940  1.00  0.00     0.293 HD
ENDBRANCH   8  26
TORSDOF 6
ENDMDL
MODEL 3
REMARK VINA RESULT:    -5.340      2.192      7.257
REMARK INTER + INTRA:          -6.734
REMARK INTER:                  -6.511
REMARK INTRA:                  -0.223
REMARK UNBOUND:                -0.301
REMARK SMILES O=c1c(O)c(-c2ccc(O)c(O)c2)oc2cc(O)cc(O)c12
REMARK SMILES IDX 5 1 3 2 2 3 1 4 22 5 20 6 19 7 17 8 16 9 15 10 14 11 6 12
REMARK SMILES IDX 7 13 8 14 9 15 13 16 11 17 10 18 12 20 4 22 21 24 18 26
REMARK H PARENT 10 19 12 21 4 23 21 25 18 27
REMARK Flexibility Score: inf
ROOT
ATOM      1  C   UNL     1      69.887  53.496  19.936  1.00  0.00     0.180 A 
ATOM      2  C   UNL     1      69.537  54.787  20.366  1.00  0.00     0.208 A 
ATOM      3  C   UNL     1      69.644  55.858  19.465  1.00  0.00     0.238 A 
ATOM      4  O   UNL     1      69.381  57.020  19.872  1.00  0.00    -0.285 OA
ATOM      5  C   UNL     1      70.085  55.622  18.141  1.00  0.00     0.111 A 
ATOM      6  C   UNL     1      70.194  56.626  17.131  1.00  0.00     0.134 A 
ATOM      7  C   UNL     1      70.766  56.304  15.895  1.00  0.00     0.093 A 
ATOM      8  C   UNL     1      71.173  54.999  15.608  1.00  0.00     0.123 A 
ATOM      9  C   UNL     1      71.016  53.999  16.565  1.00  0.00     0.094 A 
ATOM     10  C   UNL     1      70.482  54.298  17.821  1.00  0.00     0.146 A 
ATOM     11  O   UNL     1      70.360  53.318  18.707  1.00  0.00    -0.452 OA
ENDROOT
BRANCH   1  12
ATOM     12  C   UNL     1      69.776  52.313  20.821  1.00  0.00     0.025 A 
ATOM     13  C   UNL     1      68.742  51.388  20.609  1.00  0.00     0.016 A 
ATOM     14  C   UNL     1      68.606  50.276  21.444  1.00  0.00     0.051 A 
ATOM     15  C   UNL     1      69.489  50.079  22.510  1.00  0.00     0.157 A 
ATOM     16  C   UNL     1      70.650  52.126  21.906  1.00  0.00     0.062 A 
ATOM     17  C   UNL     1      70.515  51.010  22.746  1.00  0.00     0.158 A 
BRANCH  15  18
ATOM     18  O   UNL     1      69.330  48.958  23.325  1.00  0.00    -0.504 OA
ATOM     19  H   UNL     1      68.513  48.363  23.265  1.00  0.00     0.293 HD
ENDBRANCH  15  18
BRANCH  17  20
ATOM     20  O   UNL     1      71.390  50.828  23.815  1.00  0.00    -0.504 OA
ATOM     21  H   UNL     1      72.360  51.115  23.762  1.00  0.00     0.293 HD
ENDBRANCH  17  20
ENDBRANCH   1  12
BRANCH   2  22
ATOM     22  O   UNL     1      69.124  55.001  21.685  1.00  0.00    -0.502 OA
ATOM     23  H   UNL     1      69.655  55.566  22.336  1.00  0.00     0.293 HD
ENDBRANCH   2  22
BRANCH   6  24
ATOM     24  O   UNL     1      69.733  57.938  17.283  1.00  0.00    -0.507 OA
ATOM     25  H   UNL     1      68.928  58.322  16.810  1.00  0.00     0.293 HD
ENDBRANCH   6  24
BRANCH   8  26
ATOM     26  O   UNL     1      71.727  54.682  14.369  1.00  0.00    -0.508 OA
ATOM     27  H   UNL     1      71.392  53.895  13.825  1.00  0.00     0.293 HD
ENDBRANCH   8  26
TORSDOF 6
ENDMDL
MODEL 4
REMARK VINA RESULT:    -5.322      4.146      7.362
REMARK INTER + INTRA:          -6.711
REMARK INTER:                  -6.389
REMARK INTRA:                  -0.323
REMARK UNBOUND:                -0.301
REMARK SMILES O=c1c(O)c(-c2ccc(O)c(O)c2)oc2cc(O)cc(O)c12
REMARK SMILES IDX 5 1 3 2 2 3 1 4 22 5 20 6 19 7 17 8 16 9 15 10 14 11 6 12
REMARK SMILES IDX 7 13 8 14 9 15 13 16 11 17 10 18 12 20 4 22 21 24 18 26
REMARK H PARENT 10 19 12 21 4 23 21 25 18 27
REMARK Flexibility Score: inf
ROOT
ATOM      1  C   UNL     1      68.601  54.507  22.068  1.00  0.00     0.180 A 
ATOM      2  C   UNL     1      69.820  54.765  21.419  1.00  0.00     0.208 A 
ATOM      3  C   UNL     1      70.031  54.247  20.131  1.00  0.00     0.238 A 
ATOM      4  O   UNL     1      71.145  54.437  19.578  1.00  0.00    -0.285 OA
ATOM      5  C   UNL     1      69.013  53.491  19.501  1.00  0.00     0.111 A 
ATOM      6  C   UNL     1      69.102  52.952  18.183  1.00  0.00     0.134 A 
ATOM      7  C   UNL     1      68.088  52.110  17.710  1.00  0.00     0.093 A 
ATOM      8  C   UNL     1      66.957  51.840  18.485  1.00  0.00     0.123 A 
ATOM      9  C   UNL     1      66.833  52.410  19.750  1.00  0.00     0.094 A 
ATOM     10  C   UNL     1      67.845  53.225  20.262  1.00  0.00     0.146 A 
ATOM     11  O   UNL     1      67.692  53.739  21.476  1.00  0.00    -0.452 OA
ENDROOT
BRANCH   1  12
ATOM     12  C   UNL     1      68.296  55.040  23.415  1.00  0.00     0.025 A 
ATOM     13  C   UNL     1      67.705  56.307  23.538  1.00  0.00     0.016 A 
ATOM     14  C   UNL     1      67.427  56.839  24.800  1.00  0.00     0.051 A 
ATOM     15  C   UNL     1      67.749  56.121  25.956  1.00  0.00     0.157 A 
ATOM     16  C   UNL     1      68.638  54.329  24.578  1.00  0.00     0.062 A 
ATOM     17  C   UNL     1      68.361  54.861  25.846  1.00  0.00     0.158 A 
BRANCH  15  18
ATOM     18  O   UNL     1      67.457  56.676  27.202  1.00  0.00    -0.504 OA
ATOM     19  H   UNL     1      67.651  56.186  28.067  1.00  0.00     0.293 HD
ENDBRANCH  15  18
BRANCH  17  20
ATOM     20  O   UNL     1      68.697  54.147  26.995  1.00  0.00    -0.504 OA
ATOM     21  H   UNL     1      68.302  54.378  27.899  1.00  0.00     0.293 HD
ENDBRANCH  17  20
ENDBRANCH   1  12
BRANCH   2  22
ATOM     22  O   UNL     1      70.821  55.496  22.068  1.00  0.00    -0.502 OA
ATOM     23  H   UNL     1      70.617  56.157  22.807  1.00  0.00     0.293 HD
ENDBRANCH   2  22
BRANCH   6  24
ATOM     24  O   UNL     1      70.144  53.233  17.293  1.00  0.00    -0.507 OA
ATOM     25  H   UNL     1      71.019  53.663  17.551  1.00  0.00     0.293 HD
ENDBRANCH   6  24
BRANCH   8  26
ATOM     26  O   UNL     1      65.945  51.013  18.002  1.00  0.00    -0.508 OA
ATOM     27  H   UNL     1      66.016  50.562  17.097  1.00  0.00     0.293 HD
ENDBRANCH   8  26
TORSDOF 6
ENDMDL
MODEL 5
REMARK VINA RESULT:    -5.298      3.003      6.507
REMARK INTER + INTRA:          -6.683
REMARK INTER:                  -6.361
REMARK INTRA:                  -0.322
REMARK UNBOUND:                -0.301
REMARK SMILES O=c1c(O)c(-c2ccc(O)c(O)c2)oc2cc(O)cc(O)c12
REMARK SMILES IDX 5 1 3 2 2 3 1 4 22 5 20 6 19 7 17 8 16 9 15 10 14 11 6 12
REMARK SMILES IDX 7 13 8 14 9 15 13 16 11 17 10 18 12 20 4 22 21 24 18 26
REMARK H PARENT 10 19 12 21 4 23 21 25 18 27
REMARK Flexibility Score: inf
ROOT
ATOM      1  C   UNL     1      70.578  53.449  19.968  1.00  0.00     0.180 A 
ATOM      2  C   UNL     1      71.254  53.041  21.130  1.00  0.00     0.208 A 
ATOM      3  C   UNL     1      72.602  53.394  21.294  1.00  0.00     0.238 A 
ATOM      4  O   UNL     1      73.217  52.979  22.311  1.00  0.00    -0.285 OA
ATOM      5  C   UNL     1      73.254  54.166  20.302  1.00  0.00     0.111 A 
ATOM      6  C   UNL     1      74.607  54.615  20.383  1.00  0.00     0.134 A 
ATOM      7  C   UNL     1      75.188  55.260  19.285  1.00  0.00     0.093 A 
ATOM      8  C   UNL     1      74.445  55.530  18.133  1.00  0.00     0.123 A 
ATOM      9  C   UNL     1      73.106  55.149  18.068  1.00  0.00     0.094 A 
ATOM     10  C   UNL     1      72.510  54.472  19.133  1.00  0.00     0.146 A 
ATOM     11  O   UNL     1      71.235  54.116  19.025  1.00  0.00    -0.452 OA
ENDROOT
BRANCH   1  12
ATOM     12  C   UNL     1      69.149  53.137  19.735  1.00  0.00     0.025 A 
ATOM     13  C   UNL     1      68.804  52.065  18.897  1.00  0.00     0.016 A 
ATOM     14  C   UNL     1      67.463  51.765  18.648  1.00  0.00     0.051 A 
ATOM     15  C   UNL     1      66.447  52.539  19.218  1.00  0.00     0.157 A 
ATOM     16  C   UNL     1      68.128  53.927  20.291  1.00  0.00     0.062 A 
ATOM     17  C   UNL     1      66.780  53.628  20.040  1.00  0.00     0.158 A 
BRANCH  15  18
ATOM     18  O   UNL     1      65.117  52.214  18.952  1.00  0.00    -0.504 OA
ATOM     19  H   UNL     1      64.681  52.420  18.061  1.00  0.00     0.293 HD
ENDBRANCH  15  18
BRANCH  17  20
ATOM     20  O   UNL     1      65.773  54.413  20.600  1.00  0.00    -0.504 OA
ATOM     21  H   UNL     1      64.804  54.311  20.322  1.00  0.00     0.293 HD
ENDBRANCH  17  20
ENDBRANCH   1  12
BRANCH   2  22
ATOM     22  O   UNL     1      70.597  52.261  22.087  1.00  0.00    -0.502 OA
ATOM     23  H   UNL     1      70.235  52.650  22.949  1.00  0.00     0.293 HD
ENDBRANCH   2  22
BRANCH   6  24
ATOM     24  O   UNL     1      75.408  54.478  21.521  1.00  0.00    -0.507 OA
ATOM     25  H   UNL     1      75.447  55.142  22.279  1.00  0.00     0.293 HD
ENDBRANCH   6  24
BRANCH   8  26
ATOM     26  O   UNL     1      75.025  56.187  17.049  1.00  0.00    -0.508 OA
ATOM     27  H   UNL     1      75.969  56.555  17.097  1.00  0.00     0.293 HD
ENDBRANCH   8  26
TORSDOF 6
ENDMDL
MODEL 6
REMARK VINA RESULT:    -5.252      4.320      7.846
REMARK INTER + INTRA:          -6.628
REMARK INTER:                  -6.444
REMARK INTRA:                  -0.184
REMARK UNBOUND:                -0.301
REMARK SMILES O=c1c(O)c(-c2ccc(O)c(O)c2)oc2cc(O)cc(O)c12
REMARK SMILES IDX 5 1 3 2 2 3 1 4 22 5 20 6 19 7 17 8 16 9 15 10 14 11 6 12
REMARK SMILES IDX 7 13 8 14 9 15 13 16 11 17 10 18 12 20 4 22 21 24 18 26
REMARK H PARENT 10 19 12 21 4 23 21 25 18 27
REMARK Flexibility Score: inf
ROOT
ATOM      1  C   UNL     1      68.885  52.934  21.716  1.00  0.00     0.180 A 
ATOM      2  C   UNL     1      68.935  53.122  20.324  1.00  0.00     0.208 A 
ATOM      3  C   UNL     1      68.323  54.256  19.767  1.00  0.00     0.238 A 
ATOM      4  O   UNL     1      68.325  54.390  18.515  1.00  0.00    -0.285 OA
ATOM      5  C   UNL     1      67.684  55.197  20.609  1.00  0.00     0.111 A 
ATOM      6  C   UNL     1      67.066  56.402  20.157  1.00  0.00     0.134 A 
ATOM      7  C   UNL     1      66.350  57.193  21.062  1.00  0.00     0.093 A 
ATOM      8  C   UNL     1      66.284  56.857  22.417  1.00  0.00     0.123 A 
ATOM      9  C   UNL     1      66.933  55.715  22.879  1.00  0.00     0.094 A 
ATOM     10  C   UNL     1      67.625  54.886  21.993  1.00  0.00     0.146 A 
ATOM     11  O   UNL     1      68.221  53.801  22.473  1.00  0.00    -0.452 OA
ENDROOT
BRANCH   1  12
ATOM     12  C   UNL     1      69.528  51.777  22.379  1.00  0.00     0.025 A 
ATOM     13  C   UNL     1      70.660  51.984  23.184  1.00  0.00     0.016 A 
ATOM     14  C   UNL     1      71.295  50.904  23.803  1.00  0.00     0.051 A 
ATOM     15  C   UNL     1      70.820  49.602  23.616  1.00  0.00     0.157 A 
ATOM     16  C   UNL     1      69.065  50.466  22.176  1.00  0.00     0.062 A 
ATOM     17  C   UNL     1      69.702  49.380  22.795  1.00  0.00     0.158 A 
BRANCH  15  18
ATOM     18  O   UNL     1      71.473  48.545  24.249  1.00  0.00    -0.504 OA
ATOM     19  H   UNL     1      71.142  48.156  25.124  1.00  0.00     0.293 HD
ENDBRANCH  15  18
BRANCH  17  20
ATOM     20  O   UNL     1      69.232  48.084  22.593  1.00  0.00    -0.504 OA
ATOM     21  H   UNL     1      69.854  47.284  22.614  1.00  0.00     0.293 HD
ENDBRANCH  17  20
ENDBRANCH   1  12
BRANCH   2  22
ATOM     22  O   UNL     1      69.553  52.169  19.508  1.00  0.00    -0.502 OA
ATOM     23  H   UNL     1      69.396  52.124  18.509  1.00  0.00     0.293 HD
ENDBRANCH   2  22
BRANCH   6  24
ATOM     24  O   UNL     1      67.151  56.876  18.844  1.00  0.00    -0.507 OA
ATOM     25  H   UNL     1      67.670  57.694  18.561  1.00  0.00     0.293 HD
ENDBRANCH   6  24
BRANCH   8  26
ATOM     26  O   UNL     1      65.582  57.658  23.315  1.00  0.00    -0.508 OA
ATOM     27  H   UNL     1      64.614  57.913  23.153  1.00  0.00     0.293 HD
ENDBRANCH   8  26
TORSDOF 6
ENDMDL
MODEL 7
REMARK VINA RESULT:    -5.252      2.354      3.815
REMARK INTER + INTRA:          -6.627
REMARK INTER:                  -6.487
REMARK INTRA:                  -0.140
REMARK UNBOUND:                -0.301
REMARK SMILES O=c1c(O)c(-c2ccc(O)c(O)c2)oc2cc(O)cc(O)c12
REMARK SMILES IDX 5 1 3 2 2 3 1 4 22 5 20 6 19 7 17 8 16 9 15 10 14 11 6 12
REMARK SMILES IDX 7 13 8 14 9 15 13 16 11 17 10 18 12 20 4 22 21 24 18 26
REMARK H PARENT 10 19 12 21 4 23 21 25 18 27
REMARK Flexibility Score: inf
ROOT
ATOM      1  C   UNL     1      71.483  53.912  18.328  1.00  0.00     0.180 A 
ATOM      2  C   UNL     1      70.414  53.708  17.439  1.00  0.00     0.208 A 
ATOM      3  C   UNL     1      69.310  52.952  17.863  1.00  0.00     0.238 A 
ATOM      4  O   UNL     1      68.380  52.728  17.044  1.00  0.00    -0.285 OA
ATOM      5  C   UNL     1      69.280  52.424  19.176  1.00  0.00     0.111 A 
ATOM      6  C   UNL     1      68.195  51.677  19.725  1.00  0.00     0.134 A 
ATOM      7  C   UNL     1      68.328  51.092  20.990  1.00  0.00     0.093 A 
ATOM      8  C   UNL     1      69.484  51.280  21.752  1.00  0.00     0.123 A 
ATOM      9  C   UNL     1      70.525  52.057  21.249  1.00  0.00     0.094 A 
ATOM     10  C   UNL     1      70.435  52.624  19.976  1.00  0.00     0.146 A 
ATOM     11  O   UNL     1      71.455  53.348  19.530  1.00  0.00    -0.452 OA
ENDROOT
BRANCH   1  12
ATOM     12  C   UNL     1      72.670  54.718  17.962  1.00  0.00     0.025 A 
ATOM     13  C   UNL     1      73.947  54.139  18.031  1.00  0.00     0.016 A 
ATOM     14  C   UNL     1      75.082  54.887  17.710  1.00  0.00     0.051 A 
ATOM     15  C   UNL     1      74.962  56.228  17.331  1.00  0.00     0.157 A 
ATOM     16  C   UNL     1      72.552  56.072  17.600  1.00  0.00     0.062 A 
ATOM     17  C   UNL     1      73.691  56.825  17.279  1.00  0.00     0.158 A 
BRANCH  15  18
ATOM     18  O   UNL     1      76.113  56.949  17.014  1.00  0.00    -0.504 OA
ATOM     19  H   UNL     1      76.248  57.371  16.103  1.00  0.00     0.293 HD
ENDBRANCH  15  18
BRANCH  17  20
ATOM     20  O   UNL     1      73.565  58.165  16.915  1.00  0.00    -0.504 OA
ATOM     21  H   UNL     1      73.325  58.879  17.593  1.00  0.00     0.293 HD
ENDBRANCH  17  20
ENDBRANCH   1  12
BRANCH   2  22
ATOM     22  O   UNL     1      70.473  54.221  16.139  1.00  0.00    -0.502 OA
ATOM     23  H   UNL     1      69.879  53.880  15.393  1.00  0.00     0.293 HD
ENDBRANCH   2  22
BRANCH   6  24
ATOM     24  O   UNL     1      66.963  51.506  19.086  1.00  0.00    -0.507 OA
ATOM     25  H   UNL     1      66.455  50.636  19.040  1.00  0.00     0.293 HD
ENDBRANCH   6  24
BRANCH   8  26
ATOM     26  O   UNL     1      69.604  50.707  23.016  1.00  0.00    -0.508 OA
ATOM     27  H   UNL     1      69.784  51.271  23.839  1.00  0.00     0.293 HD
ENDBRANCH   8  26
TORSDOF 6
ENDMDL
MODEL 8
REMARK VINA RESULT:    -5.242      5.688      7.722
REMARK INTER + INTRA:          -6.616
REMARK INTER:                  -6.674
REMARK INTRA:                   0.058
REMARK UNBOUND:                -0.301
REMARK SMILES O=c1c(O)c(-c2ccc(O)c(O)c2)oc2cc(O)cc(O)c12
REMARK SMILES IDX 5 1 3 2 2 3 1 4 22 5 20 6 19 7 17 8 16 9 15 10 14 11 6 12
REMARK SMILES IDX 7 13 8 14 9 15 13 16 11 17 10 18 12 20 4 22 21 24 18 26
REMARK H PARENT 10 19 12 21 4 23 21 25 18 27
REMARK Flexibility Score: inf
ROOT
ATOM      1  C   UNL     1      68.394  54.591  23.224  1.00  0.00     0.180 A 
ATOM      2  C   UNL     1      68.781  54.452  24.568  1.00  0.00     0.208 A 
ATOM      3  C   UNL     1      68.182  55.272  25.538  1.00  0.00     0.238 A 
ATOM      4  O   UNL     1      68.572  55.181  26.731  1.00  0.00    -0.285 OA
ATOM      5  C   UNL     1      67.193  56.209  25.155  1.00  0.00     0.111 A 
ATOM      6  C   UNL     1      66.492  57.064  26.058  1.00  0.00     0.134 A 
ATOM      7  C   UNL     1      65.628  58.043  25.554  1.00  0.00     0.093 A 
ATOM      8  C   UNL     1      65.391  58.156  24.181  1.00  0.00     0.123 A 
ATOM      9  C   UNL     1      66.025  57.288  23.296  1.00  0.00     0.094 A 
ATOM     10  C   UNL     1      66.919  56.324  23.767  1.00  0.00     0.146 A 
ATOM     11  O   UNL     1      67.510  55.524  22.887  1.00  0.00    -0.452 OA
ENDROOT
BRANCH   1  12
ATOM     12  C   UNL     1      68.961  53.745  22.149  1.00  0.00     0.025 A 
ATOM     13  C   UNL     1      69.298  54.328  20.917  1.00  0.00     0.016 A 
ATOM     14  C   UNL     1      69.815  53.545  19.882  1.00  0.00     0.051 A 
ATOM     15  C   UNL     1      69.989  52.168  20.055  1.00  0.00     0.157 A 
ATOM     16  C   UNL     1      69.117  52.358  22.315  1.00  0.00     0.062 A 
ATOM     17  C   UNL     1      69.635  51.570  21.276  1.00  0.00     0.158 A 
BRANCH  15  18
ATOM     18  O   UNL     1      70.510  51.413  19.005  1.00  0.00    -0.504 OA
ATOM     19  H   UNL     1      70.180  50.477  18.801  1.00  0.00     0.293 HD
ENDBRANCH  15  18
BRANCH  17  20
ATOM     20  O   UNL     1      69.792  50.196  21.451  1.00  0.00    -0.504 OA
ATOM     21  H   UNL     1      70.709  49.775  21.548  1.00  0.00     0.293 HD
ENDBRANCH  17  20
ENDBRANCH   1  12
BRANCH   2  22
ATOM     22  O   UNL     1      69.775  53.535  24.922  1.00  0.00    -0.502 OA
ATOM     23  H   UNL     1      69.591  52.735  25.515  1.00  0.00     0.293 HD
ENDBRANCH   2  22
BRANCH   6  24
ATOM     24  O   UNL     1      66.586  56.973  27.450  1.00  0.00    -0.507 OA
ATOM     25  H   UNL     1      67.345  57.347  28.000  1.00  0.00     0.293 HD
ENDBRANCH   6  24
BRANCH   8  26
ATOM     26  O   UNL     1      64.518  59.124  23.688  1.00  0.00    -0.508 OA
ATOM     27  H   UNL     1      64.307  59.191  22.698  1.00  0.00     0.293 HD
ENDBRANCH   8  26
TORSDOF 6
ENDMDL
MODEL 9
REMARK VINA RESULT:    -5.183      1.839      3.475
REMARK INTER + INTRA:          -6.544
REMARK INTER:                  -6.271
REMARK INTRA:                  -0.274
REMARK UNBOUND:                -0.301
REMARK SMILES O=c1c(O)c(-c2ccc(O)c(O)c2)oc2cc(O)cc(O)c12
REMARK SMILES IDX 5 1 3 2 2 3 1 4 22 5 20 6 19 7 17 8 16 9 15 10 14 11 6 12
REMARK SMILES IDX 7 13 8 14 9 15 13 16 11 17 10 18 12 20 4 22 21 24 18 26
REMARK H PARENT 10 19 12 21 4 23 21 25 18 27
REMARK Flexibility Score: inf
ROOT
ATOM      1  C   UNL     1      70.470  54.004  18.658  1.00  0.00     0.180 A 
ATOM      2  C   UNL     1      69.361  53.160  18.834  1.00  0.00     0.208 A 
ATOM      3  C   UNL     1      69.251  52.417  20.020  1.00  0.00     0.238 A 
ATOM      4  O   UNL     1      68.284  51.622  20.149  1.00  0.00    -0.285 OA
ATOM      5  C   UNL     1      70.243  52.541  21.023  1.00  0.00     0.111 A 
ATOM      6  C   UNL     1      70.213  51.867  22.281  1.00  0.00     0.134 A 
ATOM      7  C   UNL     1      71.312  51.961  23.142  1.00  0.00     0.093 A 
ATOM      8  C   UNL     1      72.413  52.758  22.819  1.00  0.00     0.123 A 
ATOM      9  C   UNL     1      72.426  53.468  21.621  1.00  0.00     0.094 A 
ATOM     10  C   UNL     1      71.360  53.364  20.725  1.00  0.00     0.146 A 
ATOM     11  O   UNL     1      71.417  54.049  19.589  1.00  0.00    -0.452 OA
ENDROOT
BRANCH   1  12
ATOM     12  C   UNL     1      70.642  54.837  17.446  1.00  0.00     0.025 A 
ATOM     13  C   UNL     1      70.314  56.202  17.494  1.00  0.00     0.016 A 
ATOM     14  C   UNL     1      70.449  57.002  16.357  1.00  0.00     0.051 A 
ATOM     15  C   UNL     1      70.898  56.451  15.153  1.00  0.00     0.157 A 
ATOM     16  C   UNL     1      71.073  54.281  16.230  1.00  0.00     0.062 A 
ATOM     17  C   UNL     1      71.208  55.082  15.086  1.00  0.00     0.158 A 
BRANCH  15  18
ATOM     18  O   UNL     1      71.025  57.275  14.035  1.00  0.00    -0.504 OA
ATOM     19  H   UNL     1      70.685  56.998  13.122  1.00  0.00     0.293 HD
ENDBRANCH  15  18
BRANCH  17  20
ATOM     20  O   UNL     1      71.643  54.523  13.886  1.00  0.00    -0.504 OA
ATOM     21  H   UNL     1      71.050  54.501  13.065  1.00  0.00     0.293 HD
ENDBRANCH  17  20
ENDBRANCH   1  12
BRANCH   2  22
ATOM     22  O   UNL     1      68.404  53.036  17.822  1.00  0.00    -0.502 OA
ATOM     23  H   UNL     1      67.454  52.737  18.006  1.00  0.00     0.293 HD
ENDBRANCH   2  22
BRANCH   6  24
ATOM     24  O   UNL     1      69.123  51.120  22.740  1.00  0.00    -0.507 OA
ATOM     25  H   UNL     1      68.670  51.253  23.632  1.00  0.00     0.293 HD
ENDBRANCH   6  24
BRANCH   8  26
ATOM     26  O   UNL     1      73.497  52.860  23.689  1.00  0.00    -0.508 OA
ATOM     27  H   UNL     1      74.142  52.089  23.824  1.00  0.00     0.293 HD
ENDBRANCH   8  26
TORSDOF 6
ENDMDL
