MODEL 1
REMARK VINA RESULT:    -3.129      0.000      0.000
REMARK INTER + INTRA:          -6.394
REMARK INTER:                  -4.959
REMARK INTRA:                  -1.435
REMARK UNBOUND:                -1.435
REMARK SMILES CCCCCCCCCCCC(=O)[O-]
REMARK SMILES IDX 7 1 8 2 9 3 10 4 11 5 12 6 13 7 14 8 6 9 5 10 4 11 3 12 2 13
REMARK SMILES IDX 1 14
REMARK H PARENT
REMARK Flexibility Score: inf
ROOT
ATOM      1  C   UNL     1      22.697   9.029  36.377  1.00  0.00     0.000 C 
ENDROOT
BRANCH   1   2
ATOM      2  C   UNL     1      21.667   8.908  35.239  1.00  0.00     0.000 C 
BRANCH   2   3
ATOM      3  C   UNL     1      20.212   9.238  35.631  1.00  0.00     0.000 C 
BRANCH   3   4
ATOM      4  C   UNL     1      19.217   8.072  35.490  1.00  0.00     0.006 C 
BRANCH   4   5
ATOM      5  C   UNL     1      19.896   6.699  35.565  1.00  0.00     0.053 C 
BRANCH   5   6
ATOM      6  C   UNL     1      19.661   5.932  34.302  1.00  0.00     0.041 C 
ATOM      7  O   UNL     1      20.483   6.009  33.352  1.00  0.00    -0.550 OA
ATOM      8  O   UNL     1      18.557   5.095  34.192  1.00  0.00    -0.550 OA
ENDBRANCH   5   6
ENDBRANCH   4   5
ENDBRANCH   3   4
ENDBRANCH   2   3
ENDBRANCH   1   2
BRANCH   1   9
ATOM      9  C   UNL     1      22.170   9.840  37.574  1.00  0.00     0.000 C 
BRANCH   9  10
ATOM     10  C   UNL     1      22.525   9.194  38.924  1.00  0.00    -0.000 C 
BRANCH  10  11
ATOM     11  C   UNL     1      21.971   7.765  39.058  1.00  0.00    -0.000 C 
BRANCH  11  12
ATOM     12  C   UNL     1      20.434   7.725  39.048  1.00  0.00    -0.000 C 
BRANCH  12  13
ATOM     13  C   UNL     1      19.806   8.810  39.933  1.00  0.00    -0.003 C 
ATOM     14  C   UNL     1      18.755   9.606  39.164  1.00  0.00     0.004 C 
ENDBRANCH  12  13
ENDBRANCH  11  12
ENDBRANCH  10  11
ENDBRANCH   9  10
ENDBRANCH   1   9
TORSDOF 10
ENDMDL
MODEL 2
REMARK VINA RESULT:    -3.038      1.417      2.306
REMARK INTER + INTRA:          -6.249
REMARK INTER:                  -4.949
REMARK INTRA:                  -1.301
REMARK UNBOUND:                -1.435
REMARK SMILES CCCCCCCCCCCC(=O)[O-]
REMARK SMILES IDX 7 1 8 2 9 3 10 4 11 5 12 6 13 7 14 8 6 9 5 10 4 11 3 12 2 13
REMARK SMILES IDX 1 14
REMARK H PARENT
REMARK Flexibility Score: inf
ROOT
ATOM      1  C   UNL     1      22.048   8.935  36.350  1.00  0.00     0.000 C 
ENDROOT
BRANCH   1   2
ATOM      2  C   UNL     1      20.704   9.386  35.750  1.00  0.00     0.000 C 
BRANCH   2   3
ATOM      3  C   UNL     1      19.557   8.362  35.862  1.00  0.00     0.000 C 
BRANCH   3   4
ATOM      4  C   UNL     1      20.000   6.889  35.917  1.00  0.00     0.006 C 
BRANCH   4   5
ATOM      5  C   UNL     1      19.856   6.175  34.567  1.00  0.00     0.053 C 
BRANCH   5   6
ATOM      6  C   UNL     1      21.199   5.972  33.940  1.00  0.00     0.041 C 
ATOM      7  O   UNL     1      21.782   6.929  33.366  1.00  0.00    -0.550 OA
ATOM      8  O   UNL     1      21.830   4.736  34.031  1.00  0.00    -0.550 OA
ENDBRANCH   5   6
ENDBRANCH   4   5
ENDBRANCH   3   4
ENDBRANCH   2   3
ENDBRANCH   1   2
BRANCH   1   9
ATOM      9  C   UNL     1      22.470   9.776  37.567  1.00  0.00     0.000 C 
BRANCH   9  10
ATOM     10  C   UNL     1      22.553   8.942  38.858  1.00  0.00    -0.000 C 
BRANCH  10  11
ATOM     11  C   UNL     1      21.168   8.531  39.385  1.00  0.00    -0.000 C 
BRANCH  11  12
ATOM     12  C   UNL     1      21.048   7.014  39.608  1.00  0.00    -0.000 C 
BRANCH  12  13
ATOM     13  C   UNL     1      22.190   6.226  38.951  1.00  0.00    -0.003 C 
ATOM     14  C   UNL     1      22.480   4.938  39.716  1.00  0.00     0.004 C 
ENDBRANCH  12  13
ENDBRANCH  11  12
ENDBRANCH  10  11
ENDBRANCH   9  10
ENDBRANCH   1   9
TORSDOF 10
ENDMDL
MODEL 3
REMARK VINA RESULT:    -2.993      1.550      2.945
REMARK INTER + INTRA:          -6.177
REMARK INTER:                  -4.759
REMARK INTRA:                  -1.419
REMARK UNBOUND:                -1.435
REMARK SMILES CCCCCCCCCCCC(=O)[O-]
REMARK SMILES IDX 7 1 8 2 9 3 10 4 11 5 12 6 13 7 14 8 6 9 5 10 4 11 3 12 2 13
REMARK SMILES IDX 1 14
REMARK H PARENT
REMARK Flexibility Score: inf
ROOT
ATOM      1  C   UNL     1      21.913   6.008  38.281  1.00  0.00     0.000 C 
ENDROOT
BRANCH   1   2
ATOM      2  C   UNL     1      21.698   5.793  36.772  1.00  0.00     0.000 C 
BRANCH   2   3
ATOM      3  C   UNL     1      20.270   6.073  36.265  1.00  0.00     0.000 C 
BRANCH   3   4
ATOM      4  C   UNL     1      20.188   6.785  34.902  1.00  0.00     0.006 C 
BRANCH   4   5
ATOM      5  C   UNL     1      21.560   6.961  34.240  1.00  0.00     0.053 C 
BRANCH   5   6
ATOM      6  C   UNL     1      21.587   6.281  32.908  1.00  0.00     0.041 C 
ATOM      7  O   UNL     1      22.642   6.275  32.221  1.00  0.00    -0.550 OA
ATOM      8  O   UNL     1      20.460   5.613  32.445  1.00  0.00    -0.550 OA
ENDBRANCH   5   6
ENDBRANCH   4   5
ENDBRANCH   3   4
ENDBRANCH   2   3
ENDBRANCH   1   2
BRANCH   1   9
ATOM      9  C   UNL     1      20.687   6.625  38.976  1.00  0.00     0.000 C 
BRANCH   9  10
ATOM     10  C   UNL     1      20.918   8.090  39.387  1.00  0.00    -0.000 C 
BRANCH  10  11
ATOM     11  C   UNL     1      22.388   8.520  39.238  1.00  0.00    -0.000 C 
BRANCH  11  12
ATOM     12  C   UNL     1      22.555   9.743  38.322  1.00  0.00    -0.000 C 
BRANCH  12  13
ATOM     13  C   UNL     1      22.366   9.402  36.837  1.00  0.00    -0.003 C 
ATOM     14  C   UNL     1      21.153  10.125  36.258  1.00  0.00     0.004 C 
ENDBRANCH  12  13
ENDBRANCH  11  12
ENDBRANCH  10  11
ENDBRANCH   9  10
ENDBRANCH   1   9
TORSDOF 10
ENDMDL
MODEL 4
REMARK VINA RESULT:    -2.910      3.000      4.891
REMARK INTER + INTRA:          -6.047
REMARK INTER:                  -4.561
REMARK INTRA:                  -1.486
REMARK UNBOUND:                -1.435
REMARK SMILES CCCCCCCCCCCC(=O)[O-]
REMARK SMILES IDX 7 1 8 2 9 3 10 4 11 5 12 6 13 7 14 8 6 9 5 10 4 11 3 12 2 13
REMARK SMILES IDX 1 14
REMARK H PARENT
REMARK Flexibility Score: inf
ROOT
ATOM      1  C   UNL     1      21.644   9.257  35.589  1.00  0.00     0.000 C 
ENDROOT
BRANCH   1   2
ATOM      2  C   UNL     1      21.974   9.881  36.957  1.00  0.00     0.000 C 
BRANCH   2   3
ATOM      3  C   UNL     1      22.527   8.901  38.011  1.00  0.00     0.000 C 
BRANCH   3   4
ATOM      4  C   UNL     1      21.818   8.942  39.376  1.00  0.00     0.006 C 
BRANCH   4   5
ATOM      5  C   UNL     1      20.426   8.299  39.343  1.00  0.00     0.053 C 
BRANCH   5   6
ATOM      6  C   UNL     1      19.369   9.330  39.583  1.00  0.00     0.041 C 
ATOM      7  O   UNL     1      18.869   9.962  38.616  1.00  0.00    -0.550 OA
ATOM      8  O   UNL     1      18.902   9.560  40.872  1.00  0.00    -0.550 OA
ENDBRANCH   5   6
ENDBRANCH   4   5
ENDBRANCH   3   4
ENDBRANCH   2   3
ENDBRANCH   1   2
BRANCH   1   9
ATOM      9  C   UNL     1      20.133   9.202  35.308  1.00  0.00     0.000 C 
BRANCH   9  10
ATOM     10  C   UNL     1      19.503   7.864  35.732  1.00  0.00    -0.000 C 
BRANCH  10  11
ATOM     11  C   UNL     1      19.745   6.745  34.703  1.00  0.00    -0.000 C 
BRANCH  11  12
ATOM     12  C   UNL     1      20.182   5.425  35.359  1.00  0.00    -0.000 C 
BRANCH  12  13
ATOM     13  C   UNL     1      20.518   5.586  36.849  1.00  0.00    -0.003 C 
ATOM     14  C   UNL     1      22.003   5.344  37.105  1.00  0.00     0.004 C 
ENDBRANCH  12  13
ENDBRANCH  11  12
ENDBRANCH  10  11
ENDBRANCH   9  10
ENDBRANCH   1   9
TORSDOF 10
ENDMDL
MODEL 5
REMARK VINA RESULT:    -2.901      2.733      4.024
REMARK INTER + INTRA:          -6.033
REMARK INTER:                  -4.933
REMARK INTRA:                  -1.099
REMARK UNBOUND:                -1.435
REMARK SMILES CCCCCCCCCCCC(=O)[O-]
REMARK SMILES IDX 7 1 8 2 9 3 10 4 11 5 12 6 13 7 14 8 6 9 5 10 4 11 3 12 2 13
REMARK SMILES IDX 1 14
REMARK H PARENT
REMARK Flexibility Score: inf
ROOT
ATOM      1  C   UNL     1      21.437   7.629  39.130  1.00  0.00     0.000 C 
ENDROOT
BRANCH   1   2
ATOM      2  C   UNL     1      22.076   6.365  38.527  1.00  0.00     0.000 C 
BRANCH   2   3
ATOM      3  C   UNL     1      21.171   5.563  37.570  1.00  0.00     0.000 C 
BRANCH   3   4
ATOM      4  C   UNL     1      21.861   5.055  36.291  1.00  0.00     0.006 C 
BRANCH   4   5
ATOM      5  C   UNL     1      21.706   3.542  36.093  1.00  0.00     0.053 C 
BRANCH   5   6
ATOM      6  C   UNL     1      22.969   2.957  35.544  1.00  0.00     0.041 C 
ATOM      7  O   UNL     1      23.547   2.017  36.150  1.00  0.00    -0.550 OA
ATOM      8  O   UNL     1      23.481   3.417  34.337  1.00  0.00    -0.550 OA
ENDBRANCH   5   6
ENDBRANCH   4   5
ENDBRANCH   3   4
ENDBRANCH   2   3
ENDBRANCH   1   2
BRANCH   1   9
ATOM      9  C   UNL     1      22.375   8.847  39.094  1.00  0.00     0.000 C 
BRANCH   9  10
ATOM     10  C   UNL     1      22.335   9.582  37.744  1.00  0.00    -0.000 C 
BRANCH  10  11
ATOM     11  C   UNL     1      20.899   9.814  37.241  1.00  0.00    -0.000 C 
BRANCH  11  12
ATOM     12  C   UNL     1      20.797   9.768  35.707  1.00  0.00    -0.000 C 
BRANCH  12  13
ATOM     13  C   UNL     1      20.480   8.363  35.177  1.00  0.00    -0.003 C 
ATOM     14  C   UNL     1      19.069   7.933  35.569  1.00  0.00     0.004 C 
ENDBRANCH  12  13
ENDBRANCH  11  12
ENDBRANCH  10  11
ENDBRANCH   9  10
ENDBRANCH   1   9
TORSDOF 10
ENDMDL
MODEL 6
REMARK VINA RESULT:    -2.872      1.701      3.300
REMARK INTER + INTRA:          -5.986
REMARK INTER:                  -4.933
REMARK INTRA:                  -1.054
REMARK UNBOUND:                -1.435
REMARK SMILES CCCCCCCCCCCC(=O)[O-]
REMARK SMILES IDX 7 1 8 2 9 3 10 4 11 5 12 6 13 7 14 8 6 9 5 10 4 11 3 12 2 13
REMARK SMILES IDX 1 14
REMARK H PARENT
REMARK Flexibility Score: inf
ROOT
ATOM      1  C   UNL     1      21.993   6.395  38.328  1.00  0.00     0.000 C 
ENDROOT
BRANCH   1   2
ATOM      2  C   UNL     1      20.976   6.031  37.231  1.00  0.00     0.000 C 
BRANCH   2   3
ATOM      3  C   UNL     1      21.538   6.006  35.796  1.00  0.00     0.000 C 
BRANCH   3   4
ATOM      4  C   UNL     1      21.433   4.649  35.076  1.00  0.00     0.006 C 
BRANCH   4   5
ATOM      5  C   UNL     1      22.230   4.608  33.767  1.00  0.00     0.053 C 
BRANCH   5   6
ATOM      6  C   UNL     1      21.656   5.571  32.776  1.00  0.00     0.041 C 
ATOM      7  O   UNL     1      22.408   6.372  32.162  1.00  0.00    -0.550 OA
ATOM      8  O   UNL     1      20.295   5.551  32.496  1.00  0.00    -0.550 OA
ENDBRANCH   5   6
ENDBRANCH   4   5
ENDBRANCH   3   4
ENDBRANCH   2   3
ENDBRANCH   1   2
BRANCH   1   9
ATOM      9  C   UNL     1      21.499   7.524  39.248  1.00  0.00     0.000 C 
BRANCH   9  10
ATOM     10  C   UNL     1      22.392   8.775  39.177  1.00  0.00    -0.000 C 
BRANCH  10  11
ATOM     11  C   UNL     1      22.380   9.430  37.785  1.00  0.00    -0.000 C 
BRANCH  11  12
ATOM     12  C   UNL     1      20.958   9.751  37.296  1.00  0.00    -0.000 C 
BRANCH  12  13
ATOM     13  C   UNL     1      20.854   9.798  35.765  1.00  0.00    -0.003 C 
ATOM     14  C   UNL     1      22.201   9.499  35.114  1.00  0.00     0.004 C 
ENDBRANCH  12  13
ENDBRANCH  11  12
ENDBRANCH  10  11
ENDBRANCH   9  10
ENDBRANCH   1   9
TORSDOF 10
ENDMDL
MODEL 7
REMARK VINA RESULT:    -2.870      1.524      2.772
REMARK INTER + INTRA:          -5.984
REMARK INTER:                  -4.907
REMARK INTRA:                  -1.077
REMARK UNBOUND:                -1.435
REMARK SMILES CCCCCCCCCCCC(=O)[O-]
REMARK SMILES IDX 7 1 8 2 9 3 10 4 11 5 12 6 13 7 14 8 6 9 5 10 4 11 3 12 2 13
REMARK SMILES IDX 1 14
REMARK H PARENT
REMARK Flexibility Score: inf
ROOT
ATOM      1  C   UNL     1      21.825   7.689  38.913  1.00  0.00     0.000 C 
ENDROOT
BRANCH   1   2
ATOM      2  C   UNL     1      22.051   9.113  38.375  1.00  0.00     0.000 C 
BRANCH   2   3
ATOM      3  C   UNL     1      20.938   9.653  37.455  1.00  0.00     0.000 C 
BRANCH   3   4
ATOM      4  C   UNL     1      21.188   9.466  35.948  1.00  0.00     0.006 C 
BRANCH   4   5
ATOM      5  C   UNL     1      20.326   8.354  35.336  1.00  0.00     0.053 C 
BRANCH   5   6
ATOM      6  C   UNL     1      21.185   7.209  34.902  1.00  0.00     0.041 C 
ATOM      7  O   UNL     1      21.630   7.161  33.725  1.00  0.00    -0.550 OA
ATOM      8  O   UNL     1      21.534   6.218  35.812  1.00  0.00    -0.550 OA
ENDBRANCH   5   6
ENDBRANCH   4   5
ENDBRANCH   3   4
ENDBRANCH   2   3
ENDBRANCH   1   2
BRANCH   1   9
ATOM      9  C   UNL     1      20.341   7.284  38.924  1.00  0.00     0.000 C 
BRANCH   9  10
ATOM     10  C   UNL     1      19.770   7.177  40.349  1.00  0.00    -0.000 C 
BRANCH  10  11
ATOM     11  C   UNL     1      19.648   8.546  41.040  1.00  0.00    -0.000 C 
BRANCH  11  12
ATOM     12  C   UNL     1      18.207   8.861  41.474  1.00  0.00    -0.000 C 
BRANCH  12  13
ATOM     13  C   UNL     1      17.649  10.125  40.806  1.00  0.00    -0.003 C 
ATOM     14  C   UNL     1      17.811  10.062  39.290  1.00  0.00     0.004 C 
ENDBRANCH  12  13
ENDBRANCH  11  12
ENDBRANCH  10  11
ENDBRANCH   9  10
ENDBRANCH   1   9
TORSDOF 10
ENDMDL
MODEL 8
REMARK VINA RESULT:    -2.834      2.175      5.130
REMARK INTER + INTRA:          -5.926
REMARK INTER:                  -4.967
REMARK INTRA:                  -0.960
REMARK UNBOUND:                -1.435
REMARK SMILES CCCCCCCCCCCC(=O)[O-]
REMARK SMILES IDX 7 1 8 2 9 3 10 4 11 5 12 6 13 7 14 8 6 9 5 10 4 11 3 12 2 13
REMARK SMILES IDX 1 14
REMARK H PARENT
REMARK Flexibility Score: inf
ROOT
ATOM      1  C   UNL     1      22.016   6.458  38.500  1.00  0.00     0.000 C 
ENDROOT
BRANCH   1   2
ATOM      2  C   UNL     1      21.513   7.650  39.334  1.00  0.00     0.000 C 
BRANCH   2   3
ATOM      3  C   UNL     1      22.414   8.901  39.303  1.00  0.00     0.000 C 
BRANCH   3   4
ATOM      4  C   UNL     1      22.464   9.637  37.952  1.00  0.00     0.006 C 
BRANCH   4   5
ATOM      5  C   UNL     1      21.078   9.813  37.319  1.00  0.00     0.053 C 
BRANCH   5   6
ATOM      6  C   UNL     1      21.106   9.400  35.881  1.00  0.00     0.041 C 
ATOM      7  O   UNL     1      20.031   9.247  35.245  1.00  0.00    -0.550 OA
ATOM      8  O   UNL     1      22.323   9.233  35.230  1.00  0.00    -0.550 OA
ENDBRANCH   5   6
ENDBRANCH   4   5
ENDBRANCH   3   4
ENDBRANCH   2   3
ENDBRANCH   1   2
BRANCH   1   9
ATOM      9  C   UNL     1      21.006   6.010  37.429  1.00  0.00     0.000 C 
BRANCH   9  10
ATOM     10  C   UNL     1      21.679   5.679  36.086  1.00  0.00    -0.000 C 
BRANCH  10  11
ATOM     11  C   UNL     1      20.691   5.102  35.058  1.00  0.00    -0.000 C 
BRANCH  11  12
ATOM     12  C   UNL     1      20.427   6.066  33.889  1.00  0.00    -0.000 C 
BRANCH  12  13
ATOM     13  C   UNL     1      21.716   6.520  33.192  1.00  0.00    -0.003 C 
ATOM     14  C   UNL     1      22.076   5.585  32.041  1.00  0.00     0.004 C 
ENDBRANCH  12  13
ENDBRANCH  11  12
ENDBRANCH  10  11
ENDBRANCH   9  10
ENDBRANCH   1   9
TORSDOF 10
ENDMDL
MODEL 9
REMARK VINA RESULT:    -2.804      9.763     11.383
REMARK INTER + INTRA:          -5.878
REMARK INTER:                  -4.417
REMARK INTRA:                  -1.461
REMARK UNBOUND:                -1.435
REMARK SMILES CCCCCCCCCCCC(=O)[O-]
REMARK SMILES IDX 7 1 8 2 9 3 10 4 11 5 12 6 13 7 14 8 6 9 5 10 4 11 3 12 2 13
REMARK SMILES IDX 1 14
REMARK H PARENT
REMARK Flexibility Score: inf
ROOT
ATOM      1  C   UNL     1      12.867   5.220  33.678  1.00  0.00     0.000 C 
ENDROOT
BRANCH   1   2
ATOM      2  C   UNL     1      12.138   5.971  32.549  1.00  0.00     0.000 C 
BRANCH   2   3
ATOM      3  C   UNL     1      11.434   7.275  32.975  1.00  0.00     0.000 C 
BRANCH   3   4
ATOM      4  C   UNL     1      10.338   7.770  32.015  1.00  0.00     0.006 C 
BRANCH   4   5
ATOM      5  C   UNL     1       9.495   6.627  31.435  1.00  0.00     0.053 C 
BRANCH   5   6
ATOM      6  C   UNL     1       9.562   6.636  29.941  1.00  0.00     0.041 C 
ATOM      7  O   UNL     1       9.307   5.590  29.289  1.00  0.00    -0.550 OA
ATOM      8  O   UNL     1       9.859   7.814  29.265  1.00  0.00    -0.550 OA
ENDBRANCH   5   6
ENDBRANCH   4   5
ENDBRANCH   3   4
ENDBRANCH   2   3
ENDBRANCH   1   2
BRANCH   1   9
ATOM      9  C   UNL     1      12.220   3.863  34.005  1.00  0.00     0.000 C 
BRANCH   9  10
ATOM     10  C   UNL     1      10.772   3.761  33.495  1.00  0.00    -0.000 C 
BRANCH  10  11
ATOM     11  C   UNL     1       9.749   3.662  34.640  1.00  0.00    -0.000 C 
BRANCH  11  12
ATOM     12  C   UNL     1       8.918   4.946  34.800  1.00  0.00    -0.000 C 
BRANCH  12  13
ATOM     13  C   UNL     1       9.591   5.977  35.716  1.00  0.00    -0.003 C 
ATOM     14  C   UNL     1      10.280   5.297  36.896  1.00  0.00     0.004 C 
ENDBRANCH  12  13
ENDBRANCH  11  12
ENDBRANCH  10  11
ENDBRANCH   9  10
ENDBRANCH   1   9
TORSDOF 10
ENDMDL
