MODEL 1
REMARK VINA RESULT:    -4.649      0.000      0.000
REMARK INTER + INTRA:         -12.829
REMARK INTER:                 -10.086
REMARK INTRA:                  -2.744
REMARK UNBOUND:                -2.744
REMARK SMILES CCCCCCCCCCCCCCCCCCCCCC(=O)[O-]
REMARK SMILES IDX 12 1 11 2 10 3 9 4 8 5 7 6 6 7 5 8 4 9 3 10 2 11 1 12 13 13
REMARK SMILES IDX 14 14 15 15 16 16 17 17 18 18 19 19 20 20 21 21 22 22 23 23
REMARK SMILES IDX 24 24
REMARK H PARENT
REMARK Flexibility Score: inf
ROOT
ATOM      1  C   UNL     1      40.243  18.250  10.001  1.00  0.00     0.000 C 
ENDROOT
BRANCH   1   2
ATOM      2  C   UNL     1      40.454  18.063  11.512  1.00  0.00     0.000 C 
BRANCH   2   3
ATOM      3  C   UNL     1      40.176  19.344  12.316  1.00  0.00     0.000 C 
BRANCH   3   4
ATOM      4  C   UNL     1      40.997  19.429  13.616  1.00  0.00    -0.000 C 
BRANCH   4   5
ATOM      5  C   UNL     1      41.855  20.703  13.778  1.00  0.00    -0.000 C 
BRANCH   5   6
ATOM      6  C   UNL     1      43.354  20.534  13.474  1.00  0.00    -0.000 C 
BRANCH   6   7
ATOM      7  C   UNL     1      43.623  20.037  12.044  1.00  0.00    -0.000 C 
BRANCH   7   8
ATOM      8  C   UNL     1      44.475  18.756  12.004  1.00  0.00    -0.000 C 
BRANCH   8   9
ATOM      9  C   UNL     1      44.007  17.632  12.947  1.00  0.00    -0.000 C 
BRANCH   9  10
ATOM     10  C   UNL     1      43.747  16.305  12.215  1.00  0.00    -0.000 C 
BRANCH  10  11
ATOM     11  C   UNL     1      45.047  15.563  11.867  1.00  0.00    -0.003 C 
ATOM     12  C   UNL     1      45.147  14.200  12.554  1.00  0.00     0.004 C 
ENDBRANCH  10  11
ENDBRANCH   9  10
ENDBRANCH   8   9
ENDBRANCH   7   8
ENDBRANCH   6   7
ENDBRANCH   5   6
ENDBRANCH   4   5
ENDBRANCH   3   4
ENDBRANCH   2   3
ENDBRANCH   1   2
BRANCH   1  13
ATOM     13  C   UNL     1      41.389  19.010   9.300  1.00  0.00     0.000 C 
BRANCH  13  14
ATOM     14  C   UNL     1      40.868  20.035   8.279  1.00  0.00     0.000 C 
BRANCH  14  15
ATOM     15  C   UNL     1      40.497  21.382   8.920  1.00  0.00     0.000 C 
BRANCH  15  16
ATOM     16  C   UNL     1      41.496  21.847  10.002  1.00  0.00     0.000 C 
BRANCH  16  17
ATOM     17  C   UNL     1      42.549  22.817   9.438  1.00  0.00     0.000 C 
BRANCH  17  18
ATOM     18  C   UNL     1      43.786  22.093   8.887  1.00  0.00     0.000 C 
BRANCH  18  19
ATOM     19  C   UNL     1      43.727  21.898   7.364  1.00  0.00     0.000 C 
BRANCH  19  20
ATOM     20  C   UNL     1      44.815  22.724   6.660  1.00  0.00     0.006 C 
BRANCH  20  21
ATOM     21  C   UNL     1      44.726  22.621   5.132  1.00  0.00     0.053 C 
BRANCH  21  22
ATOM     22  C   UNL     1      45.558  21.494   4.600  1.00  0.00     0.041 C 
ATOM     23  O   UNL     1      45.088  20.719   3.725  1.00  0.00    -0.550 OA
ATOM     24  O   UNL     1      46.834  21.274   5.101  1.00  0.00    -0.550 OA
ENDBRANCH  21  22
ENDBRANCH  20  21
ENDBRANCH  19  20
ENDBRANCH  18  19
ENDBRANCH  17  18
ENDBRANCH  16  17
ENDBRANCH  15  16
ENDBRANCH  14  15
ENDBRANCH  13  14
ENDBRANCH   1  13
TORSDOF 20
ENDMDL
MODEL 2
REMARK VINA RESULT:    -4.645      4.100      6.254
REMARK INTER + INTRA:         -12.820
REMARK INTER:                 -10.579
REMARK INTRA:                  -2.241
REMARK UNBOUND:                -2.744
REMARK SMILES CCCCCCCCCCCCCCCCCCCCCC(=O)[O-]
REMARK SMILES IDX 12 1 11 2 10 3 9 4 8 5 7 6 6 7 5 8 4 9 3 10 2 11 1 12 13 13
REMARK SMILES IDX 14 14 15 15 16 16 17 17 18 18 19 19 20 20 21 21 22 22 23 23
REMARK SMILES IDX 24 24
REMARK H PARENT
REMARK Flexibility Score: inf
ROOT
ATOM      1  C   UNL     1      43.124  21.731   9.363  1.00  0.00     0.000 C 
ENDROOT
BRANCH   1   2
ATOM      2  C   UNL     1      42.912  23.067  10.094  1.00  0.00     0.000 C 
BRANCH   2   3
ATOM      3  C   UNL     1      42.193  22.901  11.443  1.00  0.00     0.000 C 
BRANCH   3   4
ATOM      4  C   UNL     1      43.164  22.799  12.633  1.00  0.00    -0.000 C 
BRANCH   4   5
ATOM      5  C   UNL     1      43.295  21.396  13.266  1.00  0.00    -0.000 C 
BRANCH   5   6
ATOM      6  C   UNL     1      41.972  20.744  13.706  1.00  0.00    -0.000 C 
BRANCH   6   7
ATOM      7  C   UNL     1      41.786  19.325  13.145  1.00  0.00    -0.000 C 
BRANCH   7   8
ATOM      8  C   UNL     1      43.101  18.701  12.644  1.00  0.00    -0.000 C 
BRANCH   8   9
ATOM      9  C   UNL     1      43.024  17.200  12.309  1.00  0.00    -0.000 C 
BRANCH   9  10
ATOM     10  C   UNL     1      44.409  16.553  12.138  1.00  0.00    -0.000 C 
BRANCH  10  11
ATOM     11  C   UNL     1      44.347  15.018  12.171  1.00  0.00    -0.003 C 
ATOM     12  C   UNL     1      45.730  14.377  12.298  1.00  0.00     0.004 C 
ENDBRANCH  10  11
ENDBRANCH   9  10
ENDBRANCH   8   9
ENDBRANCH   7   8
ENDBRANCH   6   7
ENDBRANCH   5   6
ENDBRANCH   4   5
ENDBRANCH   3   4
ENDBRANCH   2   3
ENDBRANCH   1   2
BRANCH   1  13
ATOM     13  C   UNL     1      43.695  21.883   7.937  1.00  0.00     0.000 C 
BRANCH  13  14
ATOM     14  C   UNL     1      43.086  20.868   6.955  1.00  0.00     0.000 C 
BRANCH  14  15
ATOM     15  C   UNL     1      41.823  20.186   7.507  1.00  0.00     0.000 C 
BRANCH  15  16
ATOM     16  C   UNL     1      42.009  18.680   7.793  1.00  0.00     0.000 C 
BRANCH  16  17
ATOM     17  C   UNL     1      41.557  18.302   9.214  1.00  0.00     0.000 C 
BRANCH  17  18
ATOM     18  C   UNL     1      40.352  19.126   9.692  1.00  0.00     0.000 C 
BRANCH  18  19
ATOM     19  C   UNL     1      39.437  18.339  10.643  1.00  0.00     0.000 C 
BRANCH  19  20
ATOM     20  C   UNL     1      37.976  18.794  10.503  1.00  0.00     0.006 C 
BRANCH  20  21
ATOM     21  C   UNL     1      37.310  19.036  11.863  1.00  0.00     0.053 C 
BRANCH  21  22
ATOM     22  C   UNL     1      35.937  18.438  11.926  1.00  0.00     0.041 C 
ATOM     23  O   UNL     1      35.791  17.187  11.906  1.00  0.00    -0.550 OA
ATOM     24  O   UNL     1      34.820  19.261  11.965  1.00  0.00    -0.550 OA
ENDBRANCH  21  22
ENDBRANCH  20  21
ENDBRANCH  19  20
ENDBRANCH  18  19
ENDBRANCH  17  18
ENDBRANCH  16  17
ENDBRANCH  15  16
ENDBRANCH  14  15
ENDBRANCH  13  14
ENDBRANCH   1  13
TORSDOF 20
ENDMDL
MODEL 3
REMARK VINA RESULT:    -4.563      1.713      3.573
REMARK INTER + INTRA:         -12.642
REMARK INTER:                  -9.894
REMARK INTRA:                  -2.748
REMARK UNBOUND:                -2.744
REMARK SMILES CCCCCCCCCCCCCCCCCCCCCC(=O)[O-]
REMARK SMILES IDX 12 1 11 2 10 3 9 4 8 5 7 6 6 7 5 8 4 9 3 10 2 11 1 12 13 13
REMARK SMILES IDX 14 14 15 15 16 16 17 17 18 18 19 19 20 20 21 21 22 22 23 23
REMARK SMILES IDX 24 24
REMARK H PARENT
REMARK Flexibility Score: inf
ROOT
ATOM      1  C   UNL     1      39.751  20.700   9.925  1.00  0.00     0.000 C 
ENDROOT
BRANCH   1   2
ATOM      2  C   UNL     1      39.593  19.171   9.877  1.00  0.00     0.000 C 
BRANCH   2   3
ATOM      3  C   UNL     1      39.284  18.560  11.254  1.00  0.00     0.000 C 
BRANCH   3   4
ATOM      4  C   UNL     1      40.461  18.673  12.240  1.00  0.00    -0.000 C 
BRANCH   4   5
ATOM      5  C   UNL     1      41.468  17.502  12.210  1.00  0.00    -0.000 C 
BRANCH   5   6
ATOM      6  C   UNL     1      42.693  17.708  11.302  1.00  0.00    -0.000 C 
BRANCH   6   7
ATOM      7  C   UNL     1      43.962  18.088  12.084  1.00  0.00    -0.000 C 
BRANCH   7   8
ATOM      8  C   UNL     1      44.020  19.583  12.444  1.00  0.00    -0.000 C 
BRANCH   8   9
ATOM      9  C   UNL     1      43.418  20.531  11.391  1.00  0.00    -0.000 C 
BRANCH   9  10
ATOM     10  C   UNL     1      42.690  21.734  12.016  1.00  0.00    -0.000 C 
BRANCH  10  11
ATOM     11  C   UNL     1      43.115  21.986  13.471  1.00  0.00    -0.003 C 
ATOM     12  C   UNL     1      41.982  21.732  14.466  1.00  0.00     0.004 C 
ENDBRANCH  10  11
ENDBRANCH   9  10
ENDBRANCH   8   9
ENDBRANCH   7   8
ENDBRANCH   6   7
ENDBRANCH   5   6
ENDBRANCH   4   5
ENDBRANCH   3   4
ENDBRANCH   2   3
ENDBRANCH   1   2
BRANCH   1  13
ATOM     13  C   UNL     1      40.717  21.261   8.860  1.00  0.00     0.000 C 
BRANCH  13  14
ATOM     14  C   UNL     1      41.496  20.148   8.138  1.00  0.00     0.000 C 
BRANCH  14  15
ATOM     15  C   UNL     1      42.730  20.674   7.385  1.00  0.00     0.000 C 
BRANCH  15  16
ATOM     16  C   UNL     1      43.301  21.983   7.974  1.00  0.00     0.000 C 
BRANCH  16  17
ATOM     17  C   UNL     1      44.530  22.479   7.194  1.00  0.00     0.000 C 
BRANCH  17  18
ATOM     18  C   UNL     1      44.243  22.676   5.698  1.00  0.00     0.000 C 
BRANCH  18  19
ATOM     19  C   UNL     1      45.017  21.688   4.812  1.00  0.00     0.000 C 
BRANCH  19  20
ATOM     20  C   UNL     1      46.246  22.361   4.182  1.00  0.00     0.006 C 
BRANCH  20  21
ATOM     21  C   UNL     1      47.546  21.609   4.498  1.00  0.00     0.053 C 
BRANCH  21  22
ATOM     22  C   UNL     1      47.824  21.572   5.970  1.00  0.00     0.041 C 
ATOM     23  O   UNL     1      48.205  22.613   6.568  1.00  0.00    -0.550 OA
ATOM     24  O   UNL     1      47.704  20.380   6.671  1.00  0.00    -0.550 OA
ENDBRANCH  21  22
ENDBRANCH  20  21
ENDBRANCH  19  20
ENDBRANCH  18  19
ENDBRANCH  17  18
ENDBRANCH  16  17
ENDBRANCH  15  16
ENDBRANCH  14  15
ENDBRANCH  13  14
ENDBRANCH   1  13
TORSDOF 20
ENDMDL
MODEL 4
REMARK VINA RESULT:    -4.535      3.314      7.032
REMARK INTER + INTRA:         -12.581
REMARK INTER:                  -9.944
REMARK INTRA:                  -2.637
REMARK UNBOUND:                -2.744
REMARK SMILES CCCCCCCCCCCCCCCCCCCCCC(=O)[O-]
REMARK SMILES IDX 12 1 11 2 10 3 9 4 8 5 7 6 6 7 5 8 4 9 3 10 2 11 1 12 13 13
REMARK SMILES IDX 14 14 15 15 16 16 17 17 18 18 19 19 20 20 21 21 22 22 23 23
REMARK SMILES IDX 24 24
REMARK H PARENT
REMARK Flexibility Score: inf
ROOT
ATOM      1  C   UNL     1      42.414  22.824   9.730  1.00  0.00     0.000 C 
ENDROOT
BRANCH   1   2
ATOM      2  C   UNL     1      43.297  23.039   8.490  1.00  0.00     0.000 C 
BRANCH   2   3
ATOM      3  C   UNL     1      44.144  21.804   8.140  1.00  0.00     0.000 C 
BRANCH   3   4
ATOM      4  C   UNL     1      44.039  21.404   6.657  1.00  0.00    -0.000 C 
BRANCH   4   5
ATOM      5  C   UNL     1      43.030  20.277   6.342  1.00  0.00    -0.000 C 
BRANCH   5   6
ATOM      6  C   UNL     1      41.829  20.180   7.300  1.00  0.00    -0.000 C 
BRANCH   6   7
ATOM      7  C   UNL     1      41.809  18.871   8.106  1.00  0.00    -0.000 C 
BRANCH   7   8
ATOM      8  C   UNL     1      40.738  18.863   9.211  1.00  0.00    -0.000 C 
BRANCH   8   9
ATOM      9  C   UNL     1      40.178  20.247   9.587  1.00  0.00    -0.000 C 
BRANCH   9  10
ATOM     10  C   UNL     1      38.886  20.165  10.418  1.00  0.00    -0.000 C 
BRANCH  10  11
ATOM     11  C   UNL     1      38.275  18.755  10.414  1.00  0.00    -0.003 C 
ATOM     12  C   UNL     1      37.378  18.500  11.626  1.00  0.00     0.004 C 
ENDBRANCH  10  11
ENDBRANCH   9  10
ENDBRANCH   8   9
ENDBRANCH   7   8
ENDBRANCH   6   7
ENDBRANCH   5   6
ENDBRANCH   4   5
ENDBRANCH   3   4
ENDBRANCH   2   3
ENDBRANCH   1   2
BRANCH   1  13
ATOM     13  C   UNL     1      43.144  22.139  10.905  1.00  0.00     0.000 C 
BRANCH  13  14
ATOM     14  C   UNL     1      42.652  22.648  12.271  1.00  0.00     0.000 C 
BRANCH  14  15
ATOM     15  C   UNL     1      43.315  21.920  13.453  1.00  0.00     0.000 C 
BRANCH  15  16
ATOM     16  C   UNL     1      43.217  20.382  13.364  1.00  0.00     0.000 C 
BRANCH  16  17
ATOM     17  C   UNL     1      41.758  19.893  13.398  1.00  0.00     0.000 C 
BRANCH  17  18
ATOM     18  C   UNL     1      41.544  18.609  12.583  1.00  0.00     0.000 C 
BRANCH  18  19
ATOM     19  C   UNL     1      42.839  18.100  11.931  1.00  0.00     0.000 C 
BRANCH  19  20
ATOM     20  C   UNL     1      43.147  16.660  12.369  1.00  0.00     0.006 C 
BRANCH  20  21
ATOM     21  C   UNL     1      44.645  16.339  12.303  1.00  0.00     0.053 C 
BRANCH  21  22
ATOM     22  C   UNL     1      44.902  14.863  12.321  1.00  0.00     0.041 C 
ATOM     23  O   UNL     1      43.977  14.064  12.627  1.00  0.00    -0.550 OA
ATOM     24  O   UNL     1      46.170  14.373  12.041  1.00  0.00    -0.550 OA
ENDBRANCH  21  22
ENDBRANCH  20  21
ENDBRANCH  19  20
ENDBRANCH  18  19
ENDBRANCH  17  18
ENDBRANCH  16  17
ENDBRANCH  15  16
ENDBRANCH  14  15
ENDBRANCH  13  14
ENDBRANCH   1  13
TORSDOF 20
ENDMDL
MODEL 5
REMARK VINA RESULT:    -4.522      1.616      4.568
REMARK INTER + INTRA:         -12.553
REMARK INTER:                  -9.712
REMARK INTRA:                  -2.841
REMARK UNBOUND:                -2.744
REMARK SMILES CCCCCCCCCCCCCCCCCCCCCC(=O)[O-]
REMARK SMILES IDX 12 1 11 2 10 3 9 4 8 5 7 6 6 7 5 8 4 9 3 10 2 11 1 12 13 13
REMARK SMILES IDX 14 14 15 15 16 16 17 17 18 18 19 19 20 20 21 21 22 22 23 23
REMARK SMILES IDX 24 24
REMARK H PARENT
REMARK Flexibility Score: inf
ROOT
ATOM      1  C   UNL     1      43.376  21.871   8.899  1.00  0.00     0.000 C 
ENDROOT
BRANCH   1   2
ATOM      2  C   UNL     1      41.984  22.142   9.494  1.00  0.00     0.000 C 
BRANCH   2   3
ATOM      3  C   UNL     1      40.909  21.181   8.959  1.00  0.00     0.000 C 
BRANCH   3   4
ATOM      4  C   UNL     1      41.503  19.922   8.300  1.00  0.00    -0.000 C 
BRANCH   4   5
ATOM      5  C   UNL     1      41.468  18.642   9.163  1.00  0.00    -0.000 C 
BRANCH   5   6
ATOM      6  C   UNL     1      40.191  18.443   9.999  1.00  0.00    -0.000 C 
BRANCH   6   7
ATOM      7  C   UNL     1      40.484  18.055  11.458  1.00  0.00    -0.000 C 
BRANCH   7   8
ATOM      8  C   UNL     1      40.761  19.271  12.359  1.00  0.00    -0.000 C 
BRANCH   8   9
ATOM      9  C   UNL     1      42.134  19.268  13.055  1.00  0.00    -0.000 C 
BRANCH   9  10
ATOM     10  C   UNL     1      43.292  19.593  12.096  1.00  0.00    -0.000 C 
BRANCH  10  11
ATOM     11  C   UNL     1      44.396  18.525  12.126  1.00  0.00    -0.003 C 
ATOM     12  C   UNL     1      43.871  17.150  12.542  1.00  0.00     0.004 C 
ENDBRANCH  10  11
ENDBRANCH   9  10
ENDBRANCH   8   9
ENDBRANCH   7   8
ENDBRANCH   6   7
ENDBRANCH   5   6
ENDBRANCH   4   5
ENDBRANCH   3   4
ENDBRANCH   2   3
ENDBRANCH   1   2
BRANCH   1  13
ATOM     13  C   UNL     1      43.850  22.952   7.904  1.00  0.00     0.000 C 
BRANCH  13  14
ATOM     14  C   UNL     1      44.776  22.377   6.819  1.00  0.00     0.000 C 
BRANCH  14  15
ATOM     15  C   UNL     1      44.064  21.375   5.894  1.00  0.00     0.000 C 
BRANCH  15  16
ATOM     16  C   UNL     1      45.030  20.432   5.145  1.00  0.00     0.000 C 
BRANCH  16  17
ATOM     17  C   UNL     1      45.098  20.752   3.641  1.00  0.00     0.000 C 
BRANCH  17  18
ATOM     18  C   UNL     1      46.484  21.247   3.202  1.00  0.00     0.000 C 
BRANCH  18  19
ATOM     19  C   UNL     1      46.786  22.670   3.696  1.00  0.00     0.000 C 
BRANCH  19  20
ATOM     20  C   UNL     1      48.193  22.753   4.310  1.00  0.00     0.006 C 
BRANCH  20  21
ATOM     21  C   UNL     1      48.642  21.417   4.915  1.00  0.00     0.053 C 
BRANCH  21  22
ATOM     22  C   UNL     1      48.411  21.370   6.395  1.00  0.00     0.041 C 
ATOM     23  O   UNL     1      48.638  22.386   7.104  1.00  0.00    -0.550 OA
ATOM     24  O   UNL     1      47.985  20.193   6.995  1.00  0.00    -0.550 OA
ENDBRANCH  21  22
ENDBRANCH  20  21
ENDBRANCH  19  20
ENDBRANCH  18  19
ENDBRANCH  17  18
ENDBRANCH  16  17
ENDBRANCH  15  16
ENDBRANCH  14  15
ENDBRANCH  13  14
ENDBRANCH   1  13
TORSDOF 20
ENDMDL
MODEL 6
REMARK VINA RESULT:    -4.500      2.885      7.320
REMARK INTER + INTRA:         -12.505
REMARK INTER:                  -9.855
REMARK INTRA:                  -2.650
REMARK UNBOUND:                -2.744
REMARK SMILES CCCCCCCCCCCCCCCCCCCCCC(=O)[O-]
REMARK SMILES IDX 12 1 11 2 10 3 9 4 8 5 7 6 6 7 5 8 4 9 3 10 2 11 1 12 13 13
REMARK SMILES IDX 14 14 15 15 16 16 17 17 18 18 19 19 20 20 21 21 22 22 23 23
REMARK SMILES IDX 24 24
REMARK H PARENT
REMARK Flexibility Score: inf
ROOT
ATOM      1  C   UNL     1      40.906  21.153   9.027  1.00  0.00     0.000 C 
ENDROOT
BRANCH   1   2
ATOM      2  C   UNL     1      41.972  22.236   9.263  1.00  0.00     0.000 C 
BRANCH   2   3
ATOM      3  C   UNL     1      43.383  21.785   8.849  1.00  0.00     0.000 C 
BRANCH   3   4
ATOM      4  C   UNL     1      43.837  22.386   7.506  1.00  0.00    -0.000 C 
BRANCH   4   5
ATOM      5  C   UNL     1      43.993  21.378   6.346  1.00  0.00    -0.000 C 
BRANCH   5   6
ATOM      6  C   UNL     1      44.679  21.927   5.083  1.00  0.00    -0.000 C 
BRANCH   6   7
ATOM      7  C   UNL     1      45.128  20.820   4.114  1.00  0.00    -0.000 C 
BRANCH   7   8
ATOM      8  C   UNL     1      46.210  21.290   3.126  1.00  0.00    -0.000 C 
BRANCH   8   9
ATOM      9  C   UNL     1      47.221  22.300   3.697  1.00  0.00    -0.000 C 
BRANCH   9  10
ATOM     10  C   UNL     1      48.362  21.628   4.479  1.00  0.00    -0.000 C 
BRANCH  10  11
ATOM     11  C   UNL     1      48.233  21.832   5.997  1.00  0.00    -0.003 C 
ATOM     12  C   UNL     1      47.802  20.558   6.726  1.00  0.00     0.004 C 
ENDBRANCH  10  11
ENDBRANCH   9  10
ENDBRANCH   8   9
ENDBRANCH   7   8
ENDBRANCH   6   7
ENDBRANCH   5   6
ENDBRANCH   4   5
ENDBRANCH   3   4
ENDBRANCH   2   3
ENDBRANCH   1   2
BRANCH   1  13
ATOM     13  C   UNL     1      41.440  19.899   8.304  1.00  0.00     0.000 C 
BRANCH  13  14
ATOM     14  C   UNL     1      41.161  18.610   9.094  1.00  0.00     0.000 C 
BRANCH  14  15
ATOM     15  C   UNL     1      39.946  18.732  10.029  1.00  0.00     0.000 C 
BRANCH  15  16
ATOM     16  C   UNL     1      40.204  18.188  11.451  1.00  0.00     0.000 C 
BRANCH  16  17
ATOM     17  C   UNL     1      40.165  19.302  12.512  1.00  0.00     0.000 C 
BRANCH  17  18
ATOM     18  C   UNL     1      41.524  19.517  13.194  1.00  0.00     0.000 C 
BRANCH  18  19
ATOM     19  C   UNL     1      42.575  20.110  12.244  1.00  0.00     0.000 C 
BRANCH  19  20
ATOM     20  C   UNL     1      43.883  19.306  12.299  1.00  0.00     0.006 C 
BRANCH  20  21
ATOM     21  C   UNL     1      43.712  17.966  13.026  1.00  0.00     0.053 C 
BRANCH  21  22
ATOM     22  C   UNL     1      43.882  16.802  12.098  1.00  0.00     0.041 C 
ATOM     23  O   UNL     1      43.258  16.769  11.005  1.00  0.00    -0.550 OA
ATOM     24  O   UNL     1      44.695  15.737  12.460  1.00  0.00    -0.550 OA
ENDBRANCH  21  22
ENDBRANCH  20  21
ENDBRANCH  19  20
ENDBRANCH  18  19
ENDBRANCH  17  18
ENDBRANCH  16  17
ENDBRANCH  15  16
ENDBRANCH  14  15
ENDBRANCH  13  14
ENDBRANCH   1  13
TORSDOF 20
ENDMDL
MODEL 7
REMARK VINA RESULT:    -4.398      3.200      7.640
REMARK INTER + INTRA:         -12.285
REMARK INTER:                  -9.685
REMARK INTRA:                  -2.599
REMARK UNBOUND:                -2.744
REMARK SMILES CCCCCCCCCCCCCCCCCCCCCC(=O)[O-]
REMARK SMILES IDX 12 1 11 2 10 3 9 4 8 5 7 6 6 7 5 8 4 9 3 10 2 11 1 12 13 13
REMARK SMILES IDX 14 14 15 15 16 16 17 17 18 18 19 19 20 20 21 21 22 22 23 23
REMARK SMILES IDX 24 24
REMARK H PARENT
REMARK Flexibility Score: inf
ROOT
ATOM      1  C   UNL     1      42.503  20.720   8.515  1.00  0.00     0.000 C 
ENDROOT
BRANCH   1   2
ATOM      2  C   UNL     1      42.863  22.194   8.766  1.00  0.00     0.000 C 
BRANCH   2   3
ATOM      3  C   UNL     1      43.899  22.733   7.766  1.00  0.00     0.000 C 
BRANCH   3   4
ATOM      4  C   UNL     1      44.406  21.658   6.787  1.00  0.00    -0.000 C 
BRANCH   4   5
ATOM      5  C   UNL     1      44.618  22.131   5.332  1.00  0.00    -0.000 C 
BRANCH   5   6
ATOM      6  C   UNL     1      44.943  21.019   4.318  1.00  0.00    -0.000 C 
BRANCH   6   7
ATOM      7  C   UNL     1      46.155  21.352   3.432  1.00  0.00    -0.000 C 
BRANCH   7   8
ATOM      8  C   UNL     1      46.757  22.736   3.733  1.00  0.00    -0.000 C 
BRANCH   8   9
ATOM      9  C   UNL     1      48.277  22.748   3.973  1.00  0.00    -0.000 C 
BRANCH   9  10
ATOM     10  C   UNL     1      48.768  21.521   4.762  1.00  0.00    -0.000 C 
BRANCH  10  11
ATOM     11  C   UNL     1      48.467  21.631   6.265  1.00  0.00    -0.003 C 
ATOM     12  C   UNL     1      47.813  20.368   6.826  1.00  0.00     0.004 C 
ENDBRANCH  10  11
ENDBRANCH   9  10
ENDBRANCH   8   9
ENDBRANCH   7   8
ENDBRANCH   6   7
ENDBRANCH   5   6
ENDBRANCH   4   5
ENDBRANCH   3   4
ENDBRANCH   2   3
ENDBRANCH   1   2
BRANCH   1  13
ATOM     13  C   UNL     1      40.994  20.472   8.309  1.00  0.00     0.000 C 
BRANCH  13  14
ATOM     14  C   UNL     1      40.139  21.173   9.378  1.00  0.00     0.000 C 
BRANCH  14  15
ATOM     15  C   UNL     1      39.394  20.183  10.290  1.00  0.00     0.000 C 
BRANCH  15  16
ATOM     16  C   UNL     1      39.808  18.712  10.073  1.00  0.00     0.000 C 
BRANCH  16  17
ATOM     17  C   UNL     1      40.253  18.037  11.383  1.00  0.00     0.000 C 
BRANCH  17  18
ATOM     18  C   UNL     1      41.165  18.935  12.232  1.00  0.00     0.000 C 
BRANCH  18  19
ATOM     19  C   UNL     1      42.610  18.968  11.712  1.00  0.00     0.000 C 
BRANCH  19  20
ATOM     20  C   UNL     1      43.442  20.017  12.465  1.00  0.00     0.006 C 
BRANCH  20  21
ATOM     21  C   UNL     1      42.646  20.695  13.588  1.00  0.00     0.053 C 
BRANCH  21  22
ATOM     22  C   UNL     1      42.702  22.189  13.488  1.00  0.00     0.041 C 
ATOM     23  O   UNL     1      42.299  22.902  14.445  1.00  0.00    -0.550 OA
ATOM     24  O   UNL     1      43.158  22.792  12.324  1.00  0.00    -0.550 OA
ENDBRANCH  21  22
ENDBRANCH  20  21
ENDBRANCH  19  20
ENDBRANCH  18  19
ENDBRANCH  17  18
ENDBRANCH  16  17
ENDBRANCH  15  16
ENDBRANCH  14  15
ENDBRANCH  13  14
ENDBRANCH   1  13
TORSDOF 20
ENDMDL
MODEL 8
REMARK VINA RESULT:    -4.383      1.911      4.489
REMARK INTER + INTRA:         -12.252
REMARK INTER:                  -9.939
REMARK INTRA:                  -2.314
REMARK UNBOUND:                -2.744
REMARK SMILES CCCCCCCCCCCCCCCCCCCCCC(=O)[O-]
REMARK SMILES IDX 12 1 11 2 10 3 9 4 8 5 7 6 6 7 5 8 4 9 3 10 2 11 1 12 13 13
REMARK SMILES IDX 14 14 15 15 16 16 17 17 18 18 19 19 20 20 21 21 22 22 23 23
REMARK SMILES IDX 24 24
REMARK H PARENT
REMARK Flexibility Score: inf
ROOT
ATOM      1  C   UNL     1      41.807  19.686   8.270  1.00  0.00     0.000 C 
ENDROOT
BRANCH   1   2
ATOM      2  C   UNL     1      40.810  20.742   8.775  1.00  0.00     0.000 C 
BRANCH   2   3
ATOM      3  C   UNL     1      40.110  20.326  10.079  1.00  0.00     0.000 C 
BRANCH   3   4
ATOM      4  C   UNL     1      39.457  18.934   9.994  1.00  0.00    -0.000 C 
BRANCH   4   5
ATOM      5  C   UNL     1      39.810  17.962  11.142  1.00  0.00    -0.000 C 
BRANCH   5   6
ATOM      6  C   UNL     1      40.866  18.473  12.138  1.00  0.00    -0.000 C 
BRANCH   6   7
ATOM      7  C   UNL     1      42.068  17.525  12.276  1.00  0.00    -0.000 C 
BRANCH   7   8
ATOM      8  C   UNL     1      43.415  18.221  12.009  1.00  0.00    -0.000 C 
BRANCH   8   9
ATOM      9  C   UNL     1      43.335  19.747  11.821  1.00  0.00    -0.000 C 
BRANCH   9  10
ATOM     10  C   UNL     1      43.393  20.517  13.152  1.00  0.00    -0.000 C 
BRANCH  10  11
ATOM     11  C   UNL     1      43.189  22.029  12.963  1.00  0.00    -0.003 C 
ATOM     12  C   UNL     1      42.804  22.395  11.529  1.00  0.00     0.004 C 
ENDBRANCH  10  11
ENDBRANCH   9  10
ENDBRANCH   8   9
ENDBRANCH   7   8
ENDBRANCH   6   7
ENDBRANCH   5   6
ENDBRANCH   4   5
ENDBRANCH   3   4
ENDBRANCH   2   3
ENDBRANCH   1   2
BRANCH   1  13
ATOM     13  C   UNL     1      42.584  20.114   7.008  1.00  0.00     0.000 C 
BRANCH  13  14
ATOM     14  C   UNL     1      43.381  21.412   7.228  1.00  0.00     0.000 C 
BRANCH  14  15
ATOM     15  C   UNL     1      44.758  21.391   6.544  1.00  0.00     0.000 C 
BRANCH  15  16
ATOM     16  C   UNL     1      44.756  22.018   5.133  1.00  0.00     0.000 C 
BRANCH  16  17
ATOM     17  C   UNL     1      45.184  21.010   4.052  1.00  0.00     0.000 C 
BRANCH  17  18
ATOM     18  C   UNL     1      46.428  21.467   3.276  1.00  0.00     0.000 C 
BRANCH  18  19
ATOM     19  C   UNL     1      46.943  22.838   3.739  1.00  0.00     0.000 C 
BRANCH  19  20
ATOM     20  C   UNL     1      48.421  22.759   4.154  1.00  0.00     0.006 C 
BRANCH  20  21
ATOM     21  C   UNL     1      48.774  21.410   4.794  1.00  0.00     0.053 C 
BRANCH  21  22
ATOM     22  C   UNL     1      48.461  21.389   6.259  1.00  0.00     0.041 C 
ATOM     23  O   UNL     1      48.182  20.301   6.830  1.00  0.00    -0.550 OA
ATOM     24  O   UNL     1      48.436  22.573   6.983  1.00  0.00    -0.550 OA
ENDBRANCH  21  22
ENDBRANCH  20  21
ENDBRANCH  19  20
ENDBRANCH  18  19
ENDBRANCH  17  18
ENDBRANCH  16  17
ENDBRANCH  15  16
ENDBRANCH  14  15
ENDBRANCH  13  14
ENDBRANCH   1  13
TORSDOF 20
ENDMDL
MODEL 9
REMARK VINA RESULT:    -4.357      3.228      7.514
REMARK INTER + INTRA:         -12.195
REMARK INTER:                  -9.306
REMARK INTRA:                  -2.889
REMARK UNBOUND:                -2.744
REMARK SMILES CCCCCCCCCCCCCCCCCCCCCC(=O)[O-]
REMARK SMILES IDX 12 1 11 2 10 3 9 4 8 5 7 6 6 7 5 8 4 9 3 10 2 11 1 12 13 13
REMARK SMILES IDX 14 14 15 15 16 16 17 17 18 18 19 19 20 20 21 21 22 22 23 23
REMARK SMILES IDX 24 24
REMARK H PARENT
REMARK Flexibility Score: inf
ROOT
ATOM      1  C   UNL     1      42.231  20.412   9.209  1.00  0.00     0.000 C 
ENDROOT
BRANCH   1   2
ATOM      2  C   UNL     1      41.987  19.729   7.853  1.00  0.00     0.000 C 
BRANCH   2   3
ATOM      3  C   UNL     1      42.631  20.486   6.679  1.00  0.00     0.000 C 
BRANCH   3   4
ATOM      4  C   UNL     1      44.028  21.038   7.015  1.00  0.00    -0.000 C 
BRANCH   4   5
ATOM      5  C   UNL     1      44.273  22.512   6.621  1.00  0.00    -0.000 C 
BRANCH   5   6
ATOM      6  C   UNL     1      44.692  22.744   5.158  1.00  0.00    -0.000 C 
BRANCH   6   7
ATOM      7  C   UNL     1      45.074  21.444   4.431  1.00  0.00    -0.000 C 
BRANCH   7   8
ATOM      8  C   UNL     1      46.312  21.603   3.530  1.00  0.00    -0.000 C 
BRANCH   8   9
ATOM      9  C   UNL     1      47.262  22.749   3.924  1.00  0.00    -0.000 C 
BRANCH   9  10
ATOM     10  C   UNL     1      48.465  22.271   4.756  1.00  0.00    -0.000 C 
BRANCH  10  11
ATOM     11  C   UNL     1      48.125  22.124   6.247  1.00  0.00    -0.003 C 
ATOM     12  C   UNL     1      48.054  20.663   6.692  1.00  0.00     0.004 C 
ENDBRANCH  10  11
ENDBRANCH   9  10
ENDBRANCH   8   9
ENDBRANCH   7   8
ENDBRANCH   6   7
ENDBRANCH   5   6
ENDBRANCH   4   5
ENDBRANCH   3   4
ENDBRANCH   2   3
ENDBRANCH   1   2
BRANCH   1  13
ATOM     13  C   UNL     1      41.280  21.593   9.493  1.00  0.00     0.000 C 
BRANCH  13  14
ATOM     14  C   UNL     1      41.936  22.670  10.373  1.00  0.00     0.000 C 
BRANCH  14  15
ATOM     15  C   UNL     1      43.160  22.148  11.143  1.00  0.00     0.000 C 
BRANCH  15  16
ATOM     16  C   UNL     1      43.039  22.307  12.675  1.00  0.00     0.000 C 
BRANCH  16  17
ATOM     17  C   UNL     1      42.941  20.949  13.391  1.00  0.00     0.000 C 
BRANCH  17  18
ATOM     18  C   UNL     1      43.666  19.826  12.633  1.00  0.00     0.000 C 
BRANCH  18  19
ATOM     19  C   UNL     1      42.866  18.515  12.613  1.00  0.00     0.000 C 
BRANCH  19  20
ATOM     20  C   UNL     1      41.355  18.792  12.575  1.00  0.00     0.006 C 
BRANCH  20  21
ATOM     21  C   UNL     1      40.633  17.931  11.530  1.00  0.00     0.053 C 
BRANCH  21  22
ATOM     22  C   UNL     1      39.364  18.574  11.059  1.00  0.00     0.041 C 
ATOM     23  O   UNL     1      38.508  18.971  11.894  1.00  0.00    -0.550 OA
ATOM     24  O   UNL     1      39.109  18.696   9.700  1.00  0.00    -0.550 OA
ENDBRANCH  21  22
ENDBRANCH  20  21
ENDBRANCH  19  20
ENDBRANCH  18  19
ENDBRANCH  17  18
ENDBRANCH  16  17
ENDBRANCH  15  16
ENDBRANCH  14  15
ENDBRANCH  13  14
ENDBRANCH   1  13
TORSDOF 20
ENDMDL
