MODEL 1
REMARK VINA RESULT:    -3.946      0.000      0.000
REMARK INTER + INTRA:         -14.720
REMARK INTER:                  -9.944
REMARK INTRA:                  -4.776
REMARK UNBOUND:                -4.776
REMARK SMILES CCCCCCCCCCCCCCCCCCCCCCCCCCCC(=O)[O-]
REMARK SMILES IDX 15 1 16 2 17 3 18 4 19 5 20 6 21 7 22 8 23 9 24 10 25 11
REMARK SMILES IDX 26 12 27 13 28 14 29 15 30 16 14 17 13 18 12 19 11 20 10 21
REMARK SMILES IDX 9 22 8 23 7 24 6 25 5 26 4 27 3 28 2 29 1 30
REMARK H PARENT
REMARK Flexibility Score: inf
ROOT
ATOM      1  C   UNL     1      77.617  81.760  78.425  1.00  0.00     0.000 C 
ENDROOT
BRANCH   1   2
ATOM      2  C   UNL     1      78.201  80.335  78.519  1.00  0.00     0.000 C 
BRANCH   2   3
ATOM      3  C   UNL     1      79.735  80.270  78.644  1.00  0.00     0.000 C 
BRANCH   3   4
ATOM      4  C   UNL     1      80.495  81.413  77.942  1.00  0.00     0.000 C 
BRANCH   4   5
ATOM      5  C   UNL     1      81.971  81.111  77.615  1.00  0.00     0.000 C 
BRANCH   5   6
ATOM      6  C   UNL     1      82.346  81.234  76.127  1.00  0.00     0.000 C 
BRANCH   6   7
ATOM      7  C   UNL     1      81.496  82.275  75.383  1.00  0.00     0.000 C 
BRANCH   7   8
ATOM      8  C   UNL     1      80.799  81.646  74.168  1.00  0.00     0.000 C 
BRANCH   8   9
ATOM      9  C   UNL     1      80.430  80.173  74.399  1.00  0.00     0.000 C 
BRANCH   9  10
ATOM     10  C   UNL     1      78.961  79.875  74.059  1.00  0.00     0.000 C 
BRANCH  10  11
ATOM     11  C   UNL     1      78.013  80.695  74.945  1.00  0.00     0.000 C 
BRANCH  11  12
ATOM     12  C   UNL     1      77.150  81.642  74.098  1.00  0.00     0.006 C 
BRANCH  12  13
ATOM     13  C   UNL     1      76.502  82.748  74.941  1.00  0.00     0.053 C 
BRANCH  13  14
ATOM     14  C   UNL     1      77.250  84.041  74.836  1.00  0.00     0.041 C 
ATOM     15  O   UNL     1      78.499  84.040  74.675  1.00  0.00    -0.550 OA
ATOM     16  O   UNL     1      76.564  85.248  74.885  1.00  0.00    -0.550 OA
ENDBRANCH  13  14
ENDBRANCH  12  13
ENDBRANCH  11  12
ENDBRANCH  10  11
ENDBRANCH   9  10
ENDBRANCH   8   9
ENDBRANCH   7   8
ENDBRANCH   6   7
ENDBRANCH   5   6
ENDBRANCH   4   5
ENDBRANCH   3   4
ENDBRANCH   2   3
ENDBRANCH   1   2
BRANCH   1  17
ATOM     17  C   UNL     1      76.080  81.840  78.513  1.00  0.00     0.000 C 
BRANCH  17  18
ATOM     18  C   UNL     1      75.399  80.623  79.169  1.00  0.00     0.000 C 
BRANCH  18  19
ATOM     19  C   UNL     1      74.401  79.877  78.265  1.00  0.00     0.000 C 
BRANCH  19  20
ATOM     20  C   UNL     1      74.926  79.687  76.830  1.00  0.00     0.000 C 
BRANCH  20  21
ATOM     21  C   UNL     1      74.740  78.250  76.319  1.00  0.00     0.000 C 
BRANCH  21  22
ATOM     22  C   UNL     1      73.266  77.910  76.036  1.00  0.00    -0.000 C 
BRANCH  22  23
ATOM     23  C   UNL     1      72.829  78.317  74.613  1.00  0.00    -0.000 C 
BRANCH  23  24
ATOM     24  C   UNL     1      71.758  79.425  74.584  1.00  0.00    -0.000 C 
BRANCH  24  25
ATOM     25  C   UNL     1      72.038  80.574  73.597  1.00  0.00    -0.000 C 
BRANCH  25  26
ATOM     26  C   UNL     1      73.111  81.586  74.054  1.00  0.00    -0.000 C 
BRANCH  26  27
ATOM     27  C   UNL     1      72.576  82.780  74.865  1.00  0.00    -0.000 C 
BRANCH  27  28
ATOM     28  C   UNL     1      73.047  82.765  76.329  1.00  0.00    -0.000 C 
BRANCH  28  29
ATOM     29  C   UNL     1      71.876  82.701  77.322  1.00  0.00    -0.003 C 
ATOM     30  C   UNL     1      70.561  82.300  76.655  1.00  0.00     0.004 C 
ENDBRANCH  28  29
ENDBRANCH  27  28
ENDBRANCH  26  27
ENDBRANCH  25  26
ENDBRANCH  24  25
ENDBRANCH  23  24
ENDBRANCH  22  23
ENDBRANCH  21  22
ENDBRANCH  20  21
ENDBRANCH  19  20
ENDBRANCH  18  19
ENDBRANCH  17  18
ENDBRANCH   1  17
TORSDOF 26
ENDMDL
MODEL 2
REMARK VINA RESULT:    -3.708      2.460      6.320
REMARK INTER + INTRA:         -14.120
REMARK INTER:                  -8.919
REMARK INTRA:                  -5.201
REMARK UNBOUND:                -4.776
REMARK SMILES CCCCCCCCCCCCCCCCCCCCCCCCCCCC(=O)[O-]
REMARK SMILES IDX 15 1 16 2 17 3 18 4 19 5 20 6 21 7 22 8 23 9 24 10 25 11
REMARK SMILES IDX 26 12 27 13 28 14 29 15 30 16 14 17 13 18 12 19 11 20 10 21
REMARK SMILES IDX 9 22 8 23 7 24 6 25 5 26 4 27 3 28 2 29 1 30
REMARK H PARENT
REMARK Flexibility Score: inf
ROOT
ATOM      1  C   UNL     1      75.166  78.619  75.870  1.00  0.00     0.000 C 
ENDROOT
BRANCH   1   2
ATOM      2  C   UNL     1      75.712  78.555  74.429  1.00  0.00     0.000 C 
BRANCH   2   3
ATOM      3  C   UNL     1      75.527  79.846  73.608  1.00  0.00     0.000 C 
BRANCH   3   4
ATOM      4  C   UNL     1      76.823  80.432  73.016  1.00  0.00     0.000 C 
BRANCH   4   5
ATOM      5  C   UNL     1      77.794  81.043  74.047  1.00  0.00     0.000 C 
BRANCH   5   6
ATOM      6  C   UNL     1      78.313  82.449  73.698  1.00  0.00     0.000 C 
BRANCH   6   7
ATOM      7  C   UNL     1      77.771  83.535  74.639  1.00  0.00     0.000 C 
BRANCH   7   8
ATOM      8  C   UNL     1      76.631  82.987  75.510  1.00  0.00     0.000 C 
BRANCH   8   9
ATOM      9  C   UNL     1      75.505  84.011  75.717  1.00  0.00     0.000 C 
BRANCH   9  10
ATOM     10  C   UNL     1      74.117  83.354  75.776  1.00  0.00     0.000 C 
BRANCH  10  11
ATOM     11  C   UNL     1      73.668  82.888  74.385  1.00  0.00     0.000 C 
BRANCH  11  12
ATOM     12  C   UNL     1      72.177  82.521  74.382  1.00  0.00     0.006 C 
BRANCH  12  13
ATOM     13  C   UNL     1      71.573  82.525  75.792  1.00  0.00     0.053 C 
BRANCH  13  14
ATOM     14  C   UNL     1      71.125  81.159  76.212  1.00  0.00     0.041 C 
ATOM     15  O   UNL     1      71.602  80.135  75.654  1.00  0.00    -0.550 OA
ATOM     16  O   UNL     1      70.204  81.015  77.242  1.00  0.00    -0.550 OA
ENDBRANCH  13  14
ENDBRANCH  12  13
ENDBRANCH  11  12
ENDBRANCH  10  11
ENDBRANCH   9  10
ENDBRANCH   8   9
ENDBRANCH   7   8
ENDBRANCH   6   7
ENDBRANCH   5   6
ENDBRANCH   4   5
ENDBRANCH   3   4
ENDBRANCH   2   3
ENDBRANCH   1   2
BRANCH   1  17
ATOM     17  C   UNL     1      75.559  79.884  76.658  1.00  0.00     0.000 C 
BRANCH  17  18
ATOM     18  C   UNL     1      74.558  80.310  77.752  1.00  0.00     0.000 C 
BRANCH  18  19
ATOM     19  C   UNL     1      75.104  81.335  78.762  1.00  0.00     0.000 C 
BRANCH  19  20
ATOM     20  C   UNL     1      75.915  80.680  79.895  1.00  0.00     0.000 C 
BRANCH  20  21
ATOM     21  C   UNL     1      75.207  79.456  80.495  1.00  0.00     0.000 C 
BRANCH  21  22
ATOM     22  C   UNL     1      76.165  78.274  80.727  1.00  0.00    -0.000 C 
BRANCH  22  23
ATOM     23  C   UNL     1      76.754  77.725  79.410  1.00  0.00    -0.000 C 
BRANCH  23  24
ATOM     24  C   UNL     1      78.283  77.876  79.301  1.00  0.00    -0.000 C 
BRANCH  24  25
ATOM     25  C   UNL     1      78.765  78.820  78.183  1.00  0.00    -0.000 C 
BRANCH  25  26
ATOM     26  C   UNL     1      79.359  80.160  78.666  1.00  0.00    -0.000 C 
BRANCH  26  27
ATOM     27  C   UNL     1      78.913  81.397  77.864  1.00  0.00    -0.000 C 
BRANCH  27  28
ATOM     28  C   UNL     1      80.022  81.948  76.954  1.00  0.00    -0.000 C 
BRANCH  28  29
ATOM     29  C   UNL     1      81.391  81.316  77.248  1.00  0.00    -0.003 C 
ATOM     30  C   UNL     1      82.492  81.841  76.326  1.00  0.00     0.004 C 
ENDBRANCH  28  29
ENDBRANCH  27  28
ENDBRANCH  26  27
ENDBRANCH  25  26
ENDBRANCH  24  25
ENDBRANCH  23  24
ENDBRANCH  22  23
ENDBRANCH  21  22
ENDBRANCH  20  21
ENDBRANCH  19  20
ENDBRANCH  18  19
ENDBRANCH  17  18
ENDBRANCH   1  17
TORSDOF 26
ENDMDL
MODEL 3
REMARK VINA RESULT:    -3.682      1.949      6.471
REMARK INTER + INTRA:         -14.053
REMARK INTER:                  -8.158
REMARK INTRA:                  -5.896
REMARK UNBOUND:                -4.776
REMARK SMILES CCCCCCCCCCCCCCCCCCCCCCCCCCCC(=O)[O-]
REMARK SMILES IDX 15 1 16 2 17 3 18 4 19 5 20 6 21 7 22 8 23 9 24 10 25 11
REMARK SMILES IDX 26 12 27 13 28 14 29 15 30 16 14 17 13 18 12 19 11 20 10 21
REMARK SMILES IDX 9 22 8 23 7 24 6 25 5 26 4 27 3 28 2 29 1 30
REMARK H PARENT
REMARK Flexibility Score: inf
ROOT
ATOM      1  C   UNL     1      76.525  82.696  75.836  1.00  0.00     0.000 C 
ENDROOT
BRANCH   1   2
ATOM      2  C   UNL     1      75.126  83.345  75.877  1.00  0.00     0.000 C 
BRANCH   2   3
ATOM      3  C   UNL     1      74.312  83.213  74.575  1.00  0.00     0.000 C 
BRANCH   3   4
ATOM      4  C   UNL     1      72.814  82.909  74.771  1.00  0.00     0.000 C 
BRANCH   4   5
ATOM      5  C   UNL     1      72.408  82.528  76.209  1.00  0.00     0.000 C 
BRANCH   5   6
ATOM      6  C   UNL     1      71.908  81.083  76.383  1.00  0.00     0.000 C 
BRANCH   6   7
ATOM      7  C   UNL     1      73.042  80.092  76.682  1.00  0.00     0.000 C 
BRANCH   7   8
ATOM      8  C   UNL     1      73.323  79.197  75.467  1.00  0.00     0.000 C 
BRANCH   8   9
ATOM      9  C   UNL     1      74.738  79.396  74.904  1.00  0.00     0.000 C 
BRANCH   9  10
ATOM     10  C   UNL     1      74.731  79.740  73.406  1.00  0.00     0.000 C 
BRANCH  10  11
ATOM     11  C   UNL     1      76.065  80.365  72.976  1.00  0.00     0.000 C 
BRANCH  11  12
ATOM     12  C   UNL     1      77.247  79.666  73.664  1.00  0.00     0.006 C 
BRANCH  12  13
ATOM     13  C   UNL     1      78.534  80.498  73.596  1.00  0.00     0.053 C 
BRANCH  13  14
ATOM     14  C   UNL     1      78.884  80.873  72.188  1.00  0.00     0.041 C 
ATOM     15  O   UNL     1      79.166  79.980  71.346  1.00  0.00    -0.550 OA
ATOM     16  O   UNL     1      78.866  82.206  71.799  1.00  0.00    -0.550 OA
ENDBRANCH  13  14
ENDBRANCH  12  13
ENDBRANCH  11  12
ENDBRANCH  10  11
ENDBRANCH   9  10
ENDBRANCH   8   9
ENDBRANCH   7   8
ENDBRANCH   6   7
ENDBRANCH   5   6
ENDBRANCH   4   5
ENDBRANCH   3   4
ENDBRANCH   2   3
ENDBRANCH   1   2
BRANCH   1  17
ATOM     17  C   UNL     1      76.758  81.589  76.883  1.00  0.00     0.000 C 
BRANCH  17  18
ATOM     18  C   UNL     1      76.542  82.019  78.348  1.00  0.00     0.000 C 
BRANCH  18  19
ATOM     19  C   UNL     1      75.308  81.398  79.027  1.00  0.00     0.000 C 
BRANCH  19  20
ATOM     20  C   UNL     1      75.670  80.231  79.964  1.00  0.00     0.000 C 
BRANCH  20  21
ATOM     21  C   UNL     1      75.007  78.909  79.544  1.00  0.00     0.000 C 
BRANCH  21  22
ATOM     22  C   UNL     1      76.034  77.834  79.147  1.00  0.00    -0.000 C 
BRANCH  22  23
ATOM     23  C   UNL     1      76.597  78.052  77.726  1.00  0.00    -0.000 C 
BRANCH  23  24
ATOM     24  C   UNL     1      78.128  78.221  77.682  1.00  0.00    -0.000 C 
BRANCH  24  25
ATOM     25  C   UNL     1      78.773  78.653  79.013  1.00  0.00    -0.000 C 
BRANCH  25  26
ATOM     26  C   UNL     1      80.145  79.347  78.882  1.00  0.00    -0.000 C 
BRANCH  26  27
ATOM     27  C   UNL     1      80.093  80.803  78.385  1.00  0.00    -0.000 C 
BRANCH  27  28
ATOM     28  C   UNL     1      80.362  80.926  76.876  1.00  0.00    -0.000 C 
BRANCH  28  29
ATOM     29  C   UNL     1      80.260  82.376  76.378  1.00  0.00    -0.003 C 
ATOM     30  C   UNL     1      81.501  82.821  75.604  1.00  0.00     0.004 C 
ENDBRANCH  28  29
ENDBRANCH  27  28
ENDBRANCH  26  27
ENDBRANCH  25  26
ENDBRANCH  24  25
ENDBRANCH  23  24
ENDBRANCH  22  23
ENDBRANCH  21  22
ENDBRANCH  20  21
ENDBRANCH  19  20
ENDBRANCH  18  19
ENDBRANCH  17  18
ENDBRANCH   1  17
TORSDOF 26
ENDMDL
MODEL 4
REMARK VINA RESULT:    -3.674      2.368      6.913
REMARK INTER + INTRA:         -14.034
REMARK INTER:                  -8.637
REMARK INTRA:                  -5.397
REMARK UNBOUND:                -4.776
REMARK SMILES CCCCCCCCCCCCCCCCCCCCCCCCCCCC(=O)[O-]
REMARK SMILES IDX 15 1 16 2 17 3 18 4 19 5 20 6 21 7 22 8 23 9 24 10 25 11
REMARK SMILES IDX 26 12 27 13 28 14 29 15 30 16 14 17 13 18 12 19 11 20 10 21
REMARK SMILES IDX 9 22 8 23 7 24 6 25 5 26 4 27 3 28 2 29 1 30
REMARK H PARENT
REMARK Flexibility Score: inf
ROOT
ATOM      1  C   UNL     1      76.817  81.849  77.996  1.00  0.00     0.000 C 
ENDROOT
BRANCH   1   2
ATOM      2  C   UNL     1      75.469  81.580  78.696  1.00  0.00     0.000 C 
BRANCH   2   3
ATOM      3  C   UNL     1      75.519  80.517  79.811  1.00  0.00     0.000 C 
BRANCH   3   4
ATOM      4  C   UNL     1      74.909  79.152  79.437  1.00  0.00     0.000 C 
BRANCH   4   5
ATOM      5  C   UNL     1      74.079  79.142  78.138  1.00  0.00     0.000 C 
BRANCH   5   6
ATOM      6  C   UNL     1      74.687  78.327  76.983  1.00  0.00     0.000 C 
BRANCH   6   7
ATOM      7  C   UNL     1      74.701  79.096  75.654  1.00  0.00     0.000 C 
BRANCH   7   8
ATOM      8  C   UNL     1      76.140  79.385  75.202  1.00  0.00     0.000 C 
BRANCH   8   9
ATOM      9  C   UNL     1      76.272  80.739  74.490  1.00  0.00     0.000 C 
BRANCH   9  10
ATOM     10  C   UNL     1      74.933  81.488  74.398  1.00  0.00     0.000 C 
BRANCH  10  11
ATOM     11  C   UNL     1      75.056  82.910  74.961  1.00  0.00     0.000 C 
BRANCH  11  12
ATOM     12  C   UNL     1      73.804  83.295  75.762  1.00  0.00     0.006 C 
BRANCH  12  13
ATOM     13  C   UNL     1      72.910  82.085  76.063  1.00  0.00     0.053 C 
BRANCH  13  14
ATOM     14  C   UNL     1      71.492  82.318  75.640  1.00  0.00     0.041 C 
ATOM     15  O   UNL     1      71.177  82.266  74.422  1.00  0.00    -0.550 OA
ATOM     16  O   UNL     1      70.513  82.562  76.595  1.00  0.00    -0.550 OA
ENDBRANCH  13  14
ENDBRANCH  12  13
ENDBRANCH  11  12
ENDBRANCH  10  11
ENDBRANCH   9  10
ENDBRANCH   8   9
ENDBRANCH   7   8
ENDBRANCH   6   7
ENDBRANCH   5   6
ENDBRANCH   4   5
ENDBRANCH   3   4
ENDBRANCH   2   3
ENDBRANCH   1   2
BRANCH   1  17
ATOM     17  C   UNL     1      78.040  81.191  78.665  1.00  0.00     0.000 C 
BRANCH  17  18
ATOM     18  C   UNL     1      78.703  80.063  77.848  1.00  0.00     0.000 C 
BRANCH  18  19
ATOM     19  C   UNL     1      78.184  78.648  78.161  1.00  0.00     0.000 C 
BRANCH  19  20
ATOM     20  C   UNL     1      78.790  78.065  79.451  1.00  0.00     0.000 C 
BRANCH  20  21
ATOM     21  C   UNL     1      79.758  76.904  79.176  1.00  0.00     0.000 C 
BRANCH  21  22
ATOM     22  C   UNL     1      81.233  77.319  79.314  1.00  0.00    -0.000 C 
BRANCH  22  23
ATOM     23  C   UNL     1      81.393  78.758  79.848  1.00  0.00    -0.000 C 
BRANCH  23  24
ATOM     24  C   UNL     1      82.541  79.544  79.185  1.00  0.00    -0.000 C 
BRANCH  24  25
ATOM     25  C   UNL     1      82.186  80.984  78.767  1.00  0.00    -0.000 C 
BRANCH  25  26
ATOM     26  C   UNL     1      82.718  81.415  77.383  1.00  0.00    -0.000 C 
BRANCH  26  27
ATOM     27  C   UNL     1      81.717  81.259  76.224  1.00  0.00    -0.000 C 
BRANCH  27  28
ATOM     28  C   UNL     1      80.813  82.490  76.049  1.00  0.00    -0.000 C 
BRANCH  28  29
ATOM     29  C   UNL     1      79.728  82.275  74.982  1.00  0.00    -0.003 C 
ATOM     30  C   UNL     1      78.733  83.434  74.912  1.00  0.00     0.004 C 
ENDBRANCH  28  29
ENDBRANCH  27  28
ENDBRANCH  26  27
ENDBRANCH  25  26
ENDBRANCH  24  25
ENDBRANCH  23  24
ENDBRANCH  22  23
ENDBRANCH  21  22
ENDBRANCH  20  21
ENDBRANCH  19  20
ENDBRANCH  18  19
ENDBRANCH  17  18
ENDBRANCH   1  17
TORSDOF 26
ENDMDL
MODEL 5
REMARK VINA RESULT:    -3.667      2.339      6.949
REMARK INTER + INTRA:         -14.016
REMARK INTER:                  -8.852
REMARK INTRA:                  -5.164
REMARK UNBOUND:                -4.776
REMARK SMILES CCCCCCCCCCCCCCCCCCCCCCCCCCCC(=O)[O-]
REMARK SMILES IDX 15 1 16 2 17 3 18 4 19 5 20 6 21 7 22 8 23 9 24 10 25 11
REMARK SMILES IDX 26 12 27 13 28 14 29 15 30 16 14 17 13 18 12 19 11 20 10 21
REMARK SMILES IDX 9 22 8 23 7 24 6 25 5 26 4 27 3 28 2 29 1 30
REMARK H PARENT
REMARK Flexibility Score: inf
ROOT
ATOM      1  C   UNL     1      78.585  80.152  78.780  1.00  0.00     0.000 C 
ENDROOT
BRANCH   1   2
ATOM      2  C   UNL     1      78.194  78.978  77.858  1.00  0.00     0.000 C 
BRANCH   2   3
ATOM      3  C   UNL     1      77.864  77.662  78.590  1.00  0.00     0.000 C 
BRANCH   3   4
ATOM      4  C   UNL     1      78.608  77.453  79.923  1.00  0.00     0.000 C 
BRANCH   4   5
ATOM      5  C   UNL     1      77.701  77.221  81.148  1.00  0.00     0.000 C 
BRANCH   5   6
ATOM      6  C   UNL     1      76.240  77.671  80.970  1.00  0.00     0.000 C 
BRANCH   6   7
ATOM      7  C   UNL     1      76.000  79.114  81.440  1.00  0.00     0.000 C 
BRANCH   7   8
ATOM      8  C   UNL     1      75.309  79.939  80.345  1.00  0.00     0.000 C 
BRANCH   8   9
ATOM      9  C   UNL     1      74.593  79.059  79.308  1.00  0.00     0.000 C 
BRANCH   9  10
ATOM     10  C   UNL     1      74.499  79.733  77.931  1.00  0.00     0.000 C 
BRANCH  10  11
ATOM     11  C   UNL     1      74.988  81.186  77.993  1.00  0.00     0.000 C 
BRANCH  11  12
ATOM     12  C   UNL     1      74.967  81.834  76.600  1.00  0.00     0.006 C 
BRANCH  12  13
ATOM     13  C   UNL     1      75.894  83.053  76.511  1.00  0.00     0.053 C 
BRANCH  13  14
ATOM     14  C   UNL     1      75.564  83.922  75.337  1.00  0.00     0.041 C 
ATOM     15  O   UNL     1      74.595  83.632  74.586  1.00  0.00    -0.550 OA
ATOM     16  O   UNL     1      76.306  85.070  75.092  1.00  0.00    -0.550 OA
ENDBRANCH  13  14
ENDBRANCH  12  13
ENDBRANCH  11  12
ENDBRANCH  10  11
ENDBRANCH   9  10
ENDBRANCH   8   9
ENDBRANCH   7   8
ENDBRANCH   6   7
ENDBRANCH   5   6
ENDBRANCH   4   5
ENDBRANCH   3   4
ENDBRANCH   2   3
ENDBRANCH   1   2
BRANCH   1  17
ATOM     17  C   UNL     1      78.697  81.520  78.078  1.00  0.00     0.000 C 
BRANCH  17  18
ATOM     18  C   UNL     1      79.194  81.467  76.620  1.00  0.00     0.000 C 
BRANCH  18  19
ATOM     19  C   UNL     1      79.813  82.778  76.101  1.00  0.00     0.000 C 
BRANCH  19  20
ATOM     20  C   UNL     1      79.196  83.239  74.768  1.00  0.00     0.000 C 
BRANCH  20  21
ATOM     21  C   UNL     1      78.631  82.072  73.943  1.00  0.00     0.000 C 
BRANCH  21  22
ATOM     22  C   UNL     1      79.151  82.064  72.496  1.00  0.00    -0.000 C 
BRANCH  22  23
ATOM     23  C   UNL     1      80.182  80.943  72.245  1.00  0.00    -0.000 C 
BRANCH  23  24
ATOM     24  C   UNL     1      80.384  80.003  73.449  1.00  0.00    -0.000 C 
BRANCH  24  25
ATOM     25  C   UNL     1      81.751  79.296  73.500  1.00  0.00    -0.000 C 
BRANCH  25  26
ATOM     26  C   UNL     1      81.986  78.408  74.741  1.00  0.00    -0.000 C 
BRANCH  26  27
ATOM     27  C   UNL     1      81.355  78.930  76.044  1.00  0.00    -0.000 C 
BRANCH  27  28
ATOM     28  C   UNL     1      82.229  78.659  77.279  1.00  0.00    -0.000 C 
BRANCH  28  29
ATOM     29  C   UNL     1      82.223  79.831  78.273  1.00  0.00    -0.003 C 
ATOM     30  C   UNL     1      82.743  81.128  77.655  1.00  0.00     0.004 C 
ENDBRANCH  28  29
ENDBRANCH  27  28
ENDBRANCH  26  27
ENDBRANCH  25  26
ENDBRANCH  24  25
ENDBRANCH  23  24
ENDBRANCH  22  23
ENDBRANCH  21  22
ENDBRANCH  20  21
ENDBRANCH  19  20
ENDBRANCH  18  19
ENDBRANCH  17  18
ENDBRANCH   1  17
TORSDOF 26
ENDMDL
MODEL 6
REMARK VINA RESULT:    -3.662      1.840      6.912
REMARK INTER + INTRA:         -14.005
REMARK INTER:                  -8.800
REMARK INTRA:                  -5.205
REMARK UNBOUND:                -4.776
REMARK SMILES CCCCCCCCCCCCCCCCCCCCCCCCCCCC(=O)[O-]
REMARK SMILES IDX 15 1 16 2 17 3 18 4 19 5 20 6 21 7 22 8 23 9 24 10 25 11
REMARK SMILES IDX 26 12 27 13 28 14 29 15 30 16 14 17 13 18 12 19 11 20 10 21
REMARK SMILES IDX 9 22 8 23 7 24 6 25 5 26 4 27 3 28 2 29 1 30
REMARK H PARENT
REMARK Flexibility Score: inf
ROOT
ATOM      1  C   UNL     1      75.574  78.757  74.797  1.00  0.00     0.000 C 
ENDROOT
BRANCH   1   2
ATOM      2  C   UNL     1      76.001  79.815  73.759  1.00  0.00     0.000 C 
BRANCH   2   3
ATOM      3  C   UNL     1      74.879  80.280  72.809  1.00  0.00     0.000 C 
BRANCH   3   4
ATOM      4  C   UNL     1      73.734  79.268  72.610  1.00  0.00     0.000 C 
BRANCH   4   5
ATOM      5  C   UNL     1      72.410  79.635  73.310  1.00  0.00     0.000 C 
BRANCH   5   6
ATOM      6  C   UNL     1      71.866  78.565  74.274  1.00  0.00     0.000 C 
BRANCH   6   7
ATOM      7  C   UNL     1      71.775  79.062  75.724  1.00  0.00     0.000 C 
BRANCH   7   8
ATOM      8  C   UNL     1      71.555  80.580  75.771  1.00  0.00     0.000 C 
BRANCH   8   9
ATOM      9  C   UNL     1      72.346  81.255  76.902  1.00  0.00     0.000 C 
BRANCH   9  10
ATOM     10  C   UNL     1      72.908  82.625  76.489  1.00  0.00     0.000 C 
BRANCH  10  11
ATOM     11  C   UNL     1      72.819  82.823  74.970  1.00  0.00     0.000 C 
BRANCH  11  12
ATOM     12  C   UNL     1      74.148  83.345  74.404  1.00  0.00     0.006 C 
BRANCH  12  13
ATOM     13  C   UNL     1      75.312  83.161  75.387  1.00  0.00     0.053 C 
BRANCH  13  14
ATOM     14  C   UNL     1      76.564  83.821  74.899  1.00  0.00     0.041 C 
ATOM     15  O   UNL     1      77.511  83.126  74.443  1.00  0.00    -0.550 OA
ATOM     16  O   UNL     1      76.673  85.206  74.917  1.00  0.00    -0.550 OA
ENDBRANCH  13  14
ENDBRANCH  12  13
ENDBRANCH  11  12
ENDBRANCH  10  11
ENDBRANCH   9  10
ENDBRANCH   8   9
ENDBRANCH   7   8
ENDBRANCH   6   7
ENDBRANCH   5   6
ENDBRANCH   4   5
ENDBRANCH   3   4
ENDBRANCH   2   3
ENDBRANCH   1   2
BRANCH   1  17
ATOM     17  C   UNL     1      75.448  79.278  76.242  1.00  0.00     0.000 C 
BRANCH  17  18
ATOM     18  C   UNL     1      74.956  78.240  77.270  1.00  0.00     0.000 C 
BRANCH  18  19
ATOM     19  C   UNL     1      74.383  78.838  78.568  1.00  0.00     0.000 C 
BRANCH  19  20
ATOM     20  C   UNL     1      75.054  80.170  78.955  1.00  0.00     0.000 C 
BRANCH  20  21
ATOM     21  C   UNL     1      75.539  80.185  80.413  1.00  0.00     0.000 C 
BRANCH  21  22
ATOM     22  C   UNL     1      75.232  78.871  81.151  1.00  0.00    -0.000 C 
BRANCH  22  23
ATOM     23  C   UNL     1      76.512  78.105  81.548  1.00  0.00    -0.000 C 
BRANCH  23  24
ATOM     24  C   UNL     1      77.277  77.508  80.350  1.00  0.00    -0.000 C 
BRANCH  24  25
ATOM     25  C   UNL     1      78.774  77.249  80.599  1.00  0.00    -0.000 C 
BRANCH  25  26
ATOM     26  C   UNL     1      79.725  77.804  79.516  1.00  0.00    -0.000 C 
BRANCH  26  27
ATOM     27  C   UNL     1      79.039  78.608  78.397  1.00  0.00    -0.000 C 
BRANCH  27  28
ATOM     28  C   UNL     1      78.887  80.099  78.744  1.00  0.00    -0.000 C 
BRANCH  28  29
ATOM     29  C   UNL     1      78.384  80.930  77.553  1.00  0.00    -0.003 C 
ATOM     30  C   UNL     1      79.452  81.873  77.001  1.00  0.00     0.004 C 
ENDBRANCH  28  29
ENDBRANCH  27  28
ENDBRANCH  26  27
ENDBRANCH  25  26
ENDBRANCH  24  25
ENDBRANCH  23  24
ENDBRANCH  22  23
ENDBRANCH  21  22
ENDBRANCH  20  21
ENDBRANCH  19  20
ENDBRANCH  18  19
ENDBRANCH  17  18
ENDBRANCH   1  17
TORSDOF 26
ENDMDL
MODEL 7
REMARK VINA RESULT:    -3.638      2.588      5.304
REMARK INTER + INTRA:         -13.943
REMARK INTER:                  -8.664
REMARK INTRA:                  -5.279
REMARK UNBOUND:                -4.776
REMARK SMILES CCCCCCCCCCCCCCCCCCCCCCCCCCCC(=O)[O-]
REMARK SMILES IDX 15 1 16 2 17 3 18 4 19 5 20 6 21 7 22 8 23 9 24 10 25 11
REMARK SMILES IDX 26 12 27 13 28 14 29 15 30 16 14 17 13 18 12 19 11 20 10 21
REMARK SMILES IDX 9 22 8 23 7 24 6 25 5 26 4 27 3 28 2 29 1 30
REMARK H PARENT
REMARK Flexibility Score: inf
ROOT
ATOM      1  C   UNL     1      73.560  83.002  75.755  1.00  0.00     0.000 C 
ENDROOT
BRANCH   1   2
ATOM      2  C   UNL     1      74.968  83.627  75.680  1.00  0.00     0.000 C 
BRANCH   2   3
ATOM      3  C   UNL     1      75.994  82.816  74.864  1.00  0.00     0.000 C 
BRANCH   3   4
ATOM      4  C   UNL     1      77.449  83.313  74.970  1.00  0.00     0.000 C 
BRANCH   4   5
ATOM      5  C   UNL     1      78.395  82.803  73.863  1.00  0.00     0.000 C 
BRANCH   5   6
ATOM      6  C   UNL     1      79.794  82.381  74.346  1.00  0.00     0.000 C 
BRANCH   6   7
ATOM      7  C   UNL     1      80.321  83.264  75.487  1.00  0.00     0.000 C 
BRANCH   7   8
ATOM      8  C   UNL     1      81.763  82.886  75.852  1.00  0.00     0.000 C 
BRANCH   8   9
ATOM      9  C   UNL     1      81.864  81.486  76.477  1.00  0.00     0.000 C 
BRANCH   9  10
ATOM     10  C   UNL     1      83.127  81.316  77.336  1.00  0.00     0.000 C 
BRANCH  10  11
ATOM     11  C   UNL     1      82.766  81.113  78.814  1.00  0.00     0.000 C 
BRANCH  11  12
ATOM     12  C   UNL     1      81.297  80.692  78.970  1.00  0.00     0.006 C 
BRANCH  12  13
ATOM     13  C   UNL     1      81.154  79.311  79.621  1.00  0.00     0.053 C 
BRANCH  13  14
ATOM     14  C   UNL     1      80.713  78.271  78.637  1.00  0.00     0.041 C 
ATOM     15  O   UNL     1      79.746  77.511  78.907  1.00  0.00    -0.550 OA
ATOM     16  O   UNL     1      81.351  78.164  77.408  1.00  0.00    -0.550 OA
ENDBRANCH  13  14
ENDBRANCH  12  13
ENDBRANCH  11  12
ENDBRANCH  10  11
ENDBRANCH   9  10
ENDBRANCH   8   9
ENDBRANCH   7   8
ENDBRANCH   6   7
ENDBRANCH   5   6
ENDBRANCH   4   5
ENDBRANCH   3   4
ENDBRANCH   2   3
ENDBRANCH   1   2
BRANCH   1  17
ATOM     17  C   UNL     1      73.288  82.163  77.019  1.00  0.00     0.000 C 
BRANCH  17  18
ATOM     18  C   UNL     1      73.879  80.739  76.997  1.00  0.00     0.000 C 
BRANCH  18  19
ATOM     19  C   UNL     1      74.842  80.422  78.156  1.00  0.00     0.000 C 
BRANCH  19  20
ATOM     20  C   UNL     1      75.492  81.685  78.750  1.00  0.00     0.000 C 
BRANCH  20  21
ATOM     21  C   UNL     1      76.973  81.823  78.366  1.00  0.00     0.000 C 
BRANCH  21  22
ATOM     22  C   UNL     1      77.670  80.462  78.200  1.00  0.00    -0.000 C 
BRANCH  22  23
ATOM     23  C   UNL     1      78.315  80.295  76.807  1.00  0.00    -0.000 C 
BRANCH  23  24
ATOM     24  C   UNL     1      77.792  79.077  76.021  1.00  0.00    -0.000 C 
BRANCH  24  25
ATOM     25  C   UNL     1      76.734  79.401  74.949  1.00  0.00    -0.000 C 
BRANCH  25  26
ATOM     26  C   UNL     1      77.213  79.256  73.489  1.00  0.00    -0.000 C 
BRANCH  26  27
ATOM     27  C   UNL     1      76.399  80.054  72.454  1.00  0.00    -0.000 C 
BRANCH  27  28
ATOM     28  C   UNL     1      74.946  79.563  72.334  1.00  0.00    -0.000 C 
BRANCH  28  29
ATOM     29  C   UNL     1      73.991  80.321  73.268  1.00  0.00    -0.003 C 
ATOM     30  C   UNL     1      72.533  79.896  73.088  1.00  0.00     0.004 C 
ENDBRANCH  28  29
ENDBRANCH  27  28
ENDBRANCH  26  27
ENDBRANCH  25  26
ENDBRANCH  24  25
ENDBRANCH  23  24
ENDBRANCH  22  23
ENDBRANCH  21  22
ENDBRANCH  20  21
ENDBRANCH  19  20
ENDBRANCH  18  19
ENDBRANCH  17  18
ENDBRANCH   1  17
TORSDOF 26
ENDMDL
MODEL 8
REMARK VINA RESULT:    -3.615      2.644      7.255
REMARK INTER + INTRA:         -13.887
REMARK INTER:                  -7.384
REMARK INTRA:                  -6.503
REMARK UNBOUND:                -4.776
REMARK SMILES CCCCCCCCCCCCCCCCCCCCCCCCCCCC(=O)[O-]
REMARK SMILES IDX 15 1 16 2 17 3 18 4 19 5 20 6 21 7 22 8 23 9 24 10 25 11
REMARK SMILES IDX 26 12 27 13 28 14 29 15 30 16 14 17 13 18 12 19 11 20 10 21
REMARK SMILES IDX 9 22 8 23 7 24 6 25 5 26 4 27 3 28 2 29 1 30
REMARK H PARENT
REMARK Flexibility Score: inf
ROOT
ATOM      1  C   UNL     1      78.050  80.682  72.828  1.00  0.00     0.000 C 
ENDROOT
BRANCH   1   2
ATOM      2  C   UNL     1      76.714  80.960  73.546  1.00  0.00     0.000 C 
BRANCH   2   3
ATOM      3  C   UNL     1      75.835  79.716  73.783  1.00  0.00     0.000 C 
BRANCH   3   4
ATOM      4  C   UNL     1      75.551  79.391  75.263  1.00  0.00     0.000 C 
BRANCH   4   5
ATOM      5  C   UNL     1      76.460  80.116  76.276  1.00  0.00     0.000 C 
BRANCH   5   6
ATOM      6  C   UNL     1      75.788  80.474  77.613  1.00  0.00     0.000 C 
BRANCH   6   7
ATOM      7  C   UNL     1      75.313  81.934  77.669  1.00  0.00     0.000 C 
BRANCH   7   8
ATOM      8  C   UNL     1      76.233  82.841  76.840  1.00  0.00     0.000 C 
BRANCH   8   9
ATOM      9  C   UNL     1      75.462  83.663  75.795  1.00  0.00     0.000 C 
BRANCH   9  10
ATOM     10  C   UNL     1      73.968  83.309  75.756  1.00  0.00     0.000 C 
BRANCH  10  11
ATOM     11  C   UNL     1      73.581  82.697  74.403  1.00  0.00     0.000 C 
BRANCH  11  12
ATOM     12  C   UNL     1      72.276  81.894  74.514  1.00  0.00     0.006 C 
BRANCH  12  13
ATOM     13  C   UNL     1      71.997  81.434  75.951  1.00  0.00     0.053 C 
BRANCH  13  14
ATOM     14  C   UNL     1      72.093  79.946  76.090  1.00  0.00     0.041 C 
ATOM     15  O   UNL     1      71.834  79.199  75.109  1.00  0.00    -0.550 OA
ATOM     16  O   UNL     1      72.498  79.385  77.295  1.00  0.00    -0.550 OA
ENDBRANCH  13  14
ENDBRANCH  12  13
ENDBRANCH  11  12
ENDBRANCH  10  11
ENDBRANCH   9  10
ENDBRANCH   8   9
ENDBRANCH   7   8
ENDBRANCH   6   7
ENDBRANCH   5   6
ENDBRANCH   4   5
ENDBRANCH   3   4
ENDBRANCH   2   3
ENDBRANCH   1   2
BRANCH   1  17
ATOM     17  C   UNL     1      79.174  81.693  73.132  1.00  0.00     0.000 C 
BRANCH  17  18
ATOM     18  C   UNL     1      78.756  82.889  74.010  1.00  0.00     0.000 C 
BRANCH  18  19
ATOM     19  C   UNL     1      79.627  83.107  75.261  1.00  0.00     0.000 C 
BRANCH  19  20
ATOM     20  C   UNL     1      79.713  81.854  76.151  1.00  0.00     0.000 C 
BRANCH  20  21
ATOM     21  C   UNL     1      81.021  81.789  76.955  1.00  0.00     0.000 C 
BRANCH  21  22
ATOM     22  C   UNL     1      80.860  81.033  78.285  1.00  0.00    -0.000 C 
BRANCH  22  23
ATOM     23  C   UNL     1      79.383  80.722  78.611  1.00  0.00    -0.000 C 
BRANCH  23  24
ATOM     24  C   UNL     1      79.101  79.226  78.854  1.00  0.00    -0.000 C 
BRANCH  24  25
ATOM     25  C   UNL     1      80.341  78.314  78.802  1.00  0.00    -0.000 C 
BRANCH  25  26
ATOM     26  C   UNL     1      80.429  77.395  77.565  1.00  0.00    -0.000 C 
BRANCH  26  27
ATOM     27  C   UNL     1      81.500  77.793  76.533  1.00  0.00    -0.000 C 
BRANCH  27  28
ATOM     28  C   UNL     1      80.901  78.442  75.274  1.00  0.00    -0.000 C 
BRANCH  28  29
ATOM     29  C   UNL     1      79.375  78.288  75.203  1.00  0.00    -0.003 C 
ATOM     30  C   UNL     1      78.933  77.298  74.125  1.00  0.00     0.004 C 
ENDBRANCH  28  29
ENDBRANCH  27  28
ENDBRANCH  26  27
ENDBRANCH  25  26
ENDBRANCH  24  25
ENDBRANCH  23  24
ENDBRANCH  22  23
ENDBRANCH  21  22
ENDBRANCH  20  21
ENDBRANCH  19  20
ENDBRANCH  18  19
ENDBRANCH  17  18
ENDBRANCH   1  17
TORSDOF 26
ENDMDL
MODEL 9
REMARK VINA RESULT:    -3.581      1.852      6.497
REMARK INTER + INTRA:         -13.800
REMARK INTER:                  -8.265
REMARK INTRA:                  -5.536
REMARK UNBOUND:                -4.776
REMARK SMILES CCCCCCCCCCCCCCCCCCCCCCCCCCCC(=O)[O-]
REMARK SMILES IDX 15 1 16 2 17 3 18 4 19 5 20 6 21 7 22 8 23 9 24 10 25 11
REMARK SMILES IDX 26 12 27 13 28 14 29 15 30 16 14 17 13 18 12 19 11 20 10 21
REMARK SMILES IDX 9 22 8 23 7 24 6 25 5 26 4 27 3 28 2 29 1 30
REMARK H PARENT
REMARK Flexibility Score: inf
ROOT
ATOM      1  C   UNL     1      76.318  79.330  74.625  1.00  0.00     0.000 C 
ENDROOT
BRANCH   1   2
ATOM      2  C   UNL     1      77.280  80.261  73.858  1.00  0.00     0.000 C 
BRANCH   2   3
ATOM      3  C   UNL     1      76.868  80.562  72.403  1.00  0.00     0.000 C 
BRANCH   3   4
ATOM      4  C   UNL     1      76.317  79.354  71.620  1.00  0.00     0.000 C 
BRANCH   4   5
ATOM      5  C   UNL     1      74.803  79.402  71.329  1.00  0.00     0.000 C 
BRANCH   5   6
ATOM      6  C   UNL     1      73.996  78.215  71.885  1.00  0.00     0.000 C 
BRANCH   6   7
ATOM      7  C   UNL     1      73.015  78.628  72.992  1.00  0.00     0.000 C 
BRANCH   7   8
ATOM      8  C   UNL     1      72.957  80.156  73.130  1.00  0.00     0.000 C 
BRANCH   8   9
ATOM      9  C   UNL     1      71.589  80.651  73.624  1.00  0.00     0.000 C 
BRANCH   9  10
ATOM     10  C   UNL     1      71.581  80.949  75.131  1.00  0.00     0.000 C 
BRANCH  10  11
ATOM     11  C   UNL     1      71.775  82.447  75.399  1.00  0.00     0.000 C 
BRANCH  11  12
ATOM     12  C   UNL     1      73.183  82.732  75.943  1.00  0.00     0.006 C 
BRANCH  12  13
ATOM     13  C   UNL     1      74.136  83.240  74.855  1.00  0.00     0.053 C 
BRANCH  13  14
ATOM     14  C   UNL     1      75.430  83.731  75.429  1.00  0.00     0.041 C 
ATOM     15  O   UNL     1      76.211  84.428  74.728  1.00  0.00    -0.550 OA
ATOM     16  O   UNL     1      75.757  83.445  76.748  1.00  0.00    -0.550 OA
ENDBRANCH  13  14
ENDBRANCH  12  13
ENDBRANCH  11  12
ENDBRANCH  10  11
ENDBRANCH   9  10
ENDBRANCH   8   9
ENDBRANCH   7   8
ENDBRANCH   6   7
ENDBRANCH   5   6
ENDBRANCH   4   5
ENDBRANCH   3   4
ENDBRANCH   2   3
ENDBRANCH   1   2
BRANCH   1  17
ATOM     17  C   UNL     1      75.583  79.989  75.809  1.00  0.00     0.000 C 
BRANCH  17  18
ATOM     18  C   UNL     1      74.519  79.105  76.490  1.00  0.00     0.000 C 
BRANCH  18  19
ATOM     19  C   UNL     1      74.122  79.551  77.910  1.00  0.00     0.000 C 
BRANCH  19  20
ATOM     20  C   UNL     1      75.118  80.558  78.516  1.00  0.00     0.000 C 
BRANCH  20  21
ATOM     21  C   UNL     1      75.543  80.181  79.943  1.00  0.00     0.000 C 
BRANCH  21  22
ATOM     22  C   UNL     1      75.789  78.671  80.107  1.00  0.00    -0.000 C 
BRANCH  22  23
ATOM     23  C   UNL     1      77.272  78.291  79.914  1.00  0.00    -0.000 C 
BRANCH  23  24
ATOM     24  C   UNL     1      77.605  77.782  78.498  1.00  0.00    -0.000 C 
BRANCH  24  25
ATOM     25  C   UNL     1      78.461  78.739  77.647  1.00  0.00    -0.000 C 
BRANCH  25  26
ATOM     26  C   UNL     1      79.270  79.782  78.447  1.00  0.00    -0.000 C 
BRANCH  26  27
ATOM     27  C   UNL     1      78.750  81.227  78.344  1.00  0.00    -0.000 C 
BRANCH  27  28
ATOM     28  C   UNL     1      78.669  81.729  76.892  1.00  0.00    -0.000 C 
BRANCH  28  29
ATOM     29  C   UNL     1      80.019  81.638  76.164  1.00  0.00    -0.003 C 
ATOM     30  C   UNL     1      80.694  83.000  76.006  1.00  0.00     0.004 C 
ENDBRANCH  28  29
ENDBRANCH  27  28
ENDBRANCH  26  27
ENDBRANCH  25  26
ENDBRANCH  24  25
ENDBRANCH  23  24
ENDBRANCH  22  23
ENDBRANCH  21  22
ENDBRANCH  20  21
ENDBRANCH  19  20
ENDBRANCH  18  19
ENDBRANCH  17  18
ENDBRANCH   1  17
TORSDOF 26
ENDMDL
