MODEL 1
REMARK VINA RESULT:    -6.548      0.000      0.000
REMARK INTER + INTRA:          -8.186
REMARK INTER:                  -7.887
REMARK INTRA:                  -0.299
REMARK UNBOUND:                -0.299
REMARK SMILES O=c1c(O)c(-c2ccc(O)c(O)c2)oc2cc(O)cc(O)c12
REMARK SMILES IDX 5 1 3 2 2 3 1 4 22 5 20 6 19 7 17 8 16 9 15 10 14 11 6 12
REMARK SMILES IDX 7 13 8 14 9 15 13 16 11 17 10 18 12 20 4 22 21 24 18 26
REMARK H PARENT 10 19 12 21 4 23 21 25 18 27
REMARK Flexibility Score: inf
ROOT
ATOM      1  C   UNL     1     -44.696 -50.697   8.187  1.00  0.00     0.180 A 
ATOM      2  C   UNL     1     -45.347 -51.793   8.779  1.00  0.00     0.208 A 
ATOM      3  C   UNL     1     -44.647 -52.580   9.709  1.00  0.00     0.238 A 
ATOM      4  O   UNL     1     -45.251 -53.527  10.277  1.00  0.00    -0.285 OA
ATOM      5  C   UNL     1     -43.302 -52.271  10.022  1.00  0.00     0.111 A 
ATOM      6  C   UNL     1     -42.485 -53.023  10.918  1.00  0.00     0.134 A 
ATOM      7  C   UNL     1     -41.209 -52.549  11.254  1.00  0.00     0.093 A 
ATOM      8  C   UNL     1     -40.697 -51.389  10.675  1.00  0.00     0.123 A 
ATOM      9  C   UNL     1     -41.464 -50.677   9.752  1.00  0.00     0.094 A 
ATOM     10  C   UNL     1     -42.755 -51.105   9.425  1.00  0.00     0.146 A 
ATOM     11  O   UNL     1     -43.455 -50.394   8.551  1.00  0.00    -0.452 OA
ENDROOT
BRANCH   1  12
ATOM     12  C   UNL     1     -45.359 -49.837   7.181  1.00  0.00     0.025 A 
ATOM     13  C   UNL     1     -46.204 -48.799   7.607  1.00  0.00     0.016 A 
ATOM     14  C   UNL     1     -46.823 -47.964   6.676  1.00  0.00     0.051 A 
ATOM     15  C   UNL     1     -46.598 -48.139   5.307  1.00  0.00     0.157 A 
ATOM     16  C   UNL     1     -45.118 -50.000   5.805  1.00  0.00     0.062 A 
ATOM     17  C   UNL     1     -45.738 -49.160   4.868  1.00  0.00     0.158 A 
BRANCH  15  18
ATOM     18  O   UNL     1     -47.233 -47.291   4.401  1.00  0.00    -0.504 OA
ATOM     19  H   UNL     1     -47.314 -47.518   3.417  1.00  0.00     0.293 HD
ENDBRANCH  15  18
BRANCH  17  20
ATOM     20  O   UNL     1     -45.497 -49.332   3.506  1.00  0.00    -0.504 OA
ATOM     21  H   UNL     1     -44.620 -49.055   3.082  1.00  0.00     0.293 HD
ENDBRANCH  17  20
ENDBRANCH   1  12
BRANCH   2  22
ATOM     22  O   UNL     1     -46.682 -52.068   8.473  1.00  0.00    -0.502 OA
ATOM     23  H   UNL     1     -47.325 -51.354   8.152  1.00  0.00     0.293 HD
ENDBRANCH   2  22
BRANCH   6  24
ATOM     24  O   UNL     1     -42.864 -54.245  11.481  1.00  0.00    -0.507 OA
ATOM     25  H   UNL     1     -43.686 -54.768  11.219  1.00  0.00     0.293 HD
ENDBRANCH   6  24
BRANCH   8  26
ATOM     26  O   UNL     1     -39.419 -50.956  11.020  1.00  0.00    -0.508 OA
ATOM     27  H   UNL     1     -39.275 -50.148  11.615  1.00  0.00     0.293 HD
ENDBRANCH   8  26
TORSDOF 6
ENDMDL
MODEL 2
REMARK VINA RESULT:    -6.249      5.054      6.999
REMARK INTER + INTRA:          -7.827
REMARK INTER:                  -7.511
REMARK INTRA:                  -0.316
REMARK UNBOUND:                -0.299
REMARK SMILES O=c1c(O)c(-c2ccc(O)c(O)c2)oc2cc(O)cc(O)c12
REMARK SMILES IDX 5 1 3 2 2 3 1 4 22 5 20 6 19 7 17 8 16 9 15 10 14 11 6 12
REMARK SMILES IDX 7 13 8 14 9 15 13 16 11 17 10 18 12 20 4 22 21 24 18 26
REMARK H PARENT 10 19 12 21 4 23 21 25 18 27
REMARK Flexibility Score: inf
ROOT
ATOM      1  C   UNL     1     -45.597 -48.231  11.626  1.00  0.00     0.180 A 
ATOM      2  C   UNL     1     -45.887 -47.666  10.372  1.00  0.00     0.208 A 
ATOM      3  C   UNL     1     -45.904 -48.496   9.239  1.00  0.00     0.238 A 
ATOM      4  O   UNL     1     -46.217 -47.996   8.128  1.00  0.00    -0.285 OA
ATOM      5  C   UNL     1     -45.615 -49.875   9.372  1.00  0.00     0.111 A 
ATOM      6  C   UNL     1     -45.565 -50.801   8.287  1.00  0.00     0.134 A 
ATOM      7  C   UNL     1     -45.400 -52.167   8.551  1.00  0.00     0.093 A 
ATOM      8  C   UNL     1     -45.217 -52.631   9.852  1.00  0.00     0.123 A 
ATOM      9  C   UNL     1     -45.204 -51.728  10.916  1.00  0.00     0.094 A 
ATOM     10  C   UNL     1     -45.404 -50.364  10.688  1.00  0.00     0.146 A 
ATOM     11  O   UNL     1     -45.396 -49.539  11.727  1.00  0.00    -0.452 OA
ENDROOT
BRANCH   1  12
ATOM     12  C   UNL     1     -45.536 -47.416  12.861  1.00  0.00     0.025 A 
ATOM     13  C   UNL     1     -44.351 -46.733  13.181  1.00  0.00     0.016 A 
ATOM     14  C   UNL     1     -44.279 -45.943  14.330  1.00  0.00     0.051 A 
ATOM     15  C   UNL     1     -45.389 -45.808  15.168  1.00  0.00     0.157 A 
ATOM     16  C   UNL     1     -46.659 -47.264  13.694  1.00  0.00     0.062 A 
ATOM     17  C   UNL     1     -46.589 -46.468  14.847  1.00  0.00     0.158 A 
BRANCH  15  18
ATOM     18  O   UNL     1     -45.286 -45.014  16.310  1.00  0.00    -0.504 OA
ATOM     19  H   UNL     1     -46.048 -44.921  16.971  1.00  0.00     0.293 HD
ENDBRANCH  15  18
BRANCH  17  20
ATOM     20  O   UNL     1     -47.704 -46.327  15.670  1.00  0.00    -0.504 OA
ATOM     21  H   UNL     1     -47.614 -46.111  16.656  1.00  0.00     0.293 HD
ENDBRANCH  17  20
ENDBRANCH   1  12
BRANCH   2  22
ATOM     22  O   UNL     1     -46.190 -46.306  10.266  1.00  0.00    -0.502 OA
ATOM     23  H   UNL     1     -45.912 -45.630  10.967  1.00  0.00     0.293 HD
ENDBRANCH   2  22
BRANCH   6  24
ATOM     24  O   UNL     1     -45.645 -50.431   6.941  1.00  0.00    -0.507 OA
ATOM     25  H   UNL     1     -45.087 -50.831   6.202  1.00  0.00     0.293 HD
ENDBRANCH   6  24
BRANCH   8  26
ATOM     26  O   UNL     1     -45.039 -53.995  10.076  1.00  0.00    -0.508 OA
ATOM     27  H   UNL     1     -45.667 -54.684   9.678  1.00  0.00     0.293 HD
ENDBRANCH   8  26
TORSDOF 6
ENDMDL
MODEL 3
REMARK VINA RESULT:    -6.220      1.247      2.808
REMARK INTER + INTRA:          -7.792
REMARK INTER:                  -7.584
REMARK INTRA:                  -0.207
REMARK UNBOUND:                -0.299
REMARK SMILES O=c1c(O)c(-c2ccc(O)c(O)c2)oc2cc(O)cc(O)c12
REMARK SMILES IDX 5 1 3 2 2 3 1 4 22 5 20 6 19 7 17 8 16 9 15 10 14 11 6 12
REMARK SMILES IDX 7 13 8 14 9 15 13 16 11 17 10 18 12 20 4 22 21 24 18 26
REMARK H PARENT 10 19 12 21 4 23 21 25 18 27
REMARK Flexibility Score: inf
ROOT
ATOM      1  C   UNL     1     -44.086 -50.313   7.967  1.00  0.00     0.180 A 
ATOM      2  C   UNL     1     -42.684 -50.226   7.925  1.00  0.00     0.208 A 
ATOM      3  C   UNL     1     -41.928 -50.951   8.860  1.00  0.00     0.238 A 
ATOM      4  O   UNL     1     -40.672 -50.912   8.784  1.00  0.00    -0.285 OA
ATOM      5  C   UNL     1     -42.583 -51.740   9.835  1.00  0.00     0.111 A 
ATOM      6  C   UNL     1     -41.919 -52.484  10.856  1.00  0.00     0.134 A 
ATOM      7  C   UNL     1     -42.661 -53.335  11.686  1.00  0.00     0.093 A 
ATOM      8  C   UNL     1     -44.048 -53.418  11.575  1.00  0.00     0.123 A 
ATOM      9  C   UNL     1     -44.715 -52.650  10.620  1.00  0.00     0.094 A 
ATOM     10  C   UNL     1     -43.998 -51.820   9.753  1.00  0.00     0.146 A 
ATOM     11  O   UNL     1     -44.669 -51.114   8.851  1.00  0.00    -0.452 OA
ENDROOT
BRANCH   1  12
ATOM     12  C   UNL     1     -44.950 -49.559   7.031  1.00  0.00     0.025 A 
ATOM     13  C   UNL     1     -45.692 -48.465   7.504  1.00  0.00     0.016 A 
ATOM     14  C   UNL     1     -46.498 -47.727   6.633  1.00  0.00     0.051 A 
ATOM     15  C   UNL     1     -46.563 -48.058   5.277  1.00  0.00     0.157 A 
ATOM     16  C   UNL     1     -45.001 -49.879   5.662  1.00  0.00     0.062 A 
ATOM     17  C   UNL     1     -45.808 -49.137   4.786  1.00  0.00     0.158 A 
BRANCH  15  18
ATOM     18  O   UNL     1     -47.378 -47.305   4.433  1.00  0.00    -0.504 OA
ATOM     19  H   UNL     1     -48.318 -47.032   4.694  1.00  0.00     0.293 HD
ENDBRANCH  15  18
BRANCH  17  20
ATOM     20  O   UNL     1     -45.857 -49.465   3.432  1.00  0.00    -0.504 OA
ATOM     21  H   UNL     1     -45.641 -48.785   2.713  1.00  0.00     0.293 HD
ENDBRANCH  17  20
ENDBRANCH   1  12
BRANCH   2  22
ATOM     22  O   UNL     1     -42.056 -49.458   6.941  1.00  0.00    -0.502 OA
ATOM     23  H   UNL     1     -42.454 -49.323   6.018  1.00  0.00     0.293 HD
ENDBRANCH   2  22
BRANCH   6  24
ATOM     24  O   UNL     1     -40.547 -52.404  11.113  1.00  0.00    -0.507 OA
ATOM     25  H   UNL     1     -39.923 -53.196  11.155  1.00  0.00     0.293 HD
ENDBRANCH   6  24
BRANCH   8  26
ATOM     26  O   UNL     1     -44.756 -54.262  12.427  1.00  0.00    -0.508 OA
ATOM     27  H   UNL     1     -45.766 -54.219  12.498  1.00  0.00     0.293 HD
ENDBRANCH   8  26
TORSDOF 6
ENDMDL
MODEL 4
REMARK VINA RESULT:    -6.039      4.470      6.784
REMARK INTER + INTRA:          -7.574
REMARK INTER:                  -7.387
REMARK INTRA:                  -0.188
REMARK UNBOUND:                -0.299
REMARK SMILES O=c1c(O)c(-c2ccc(O)c(O)c2)oc2cc(O)cc(O)c12
REMARK SMILES IDX 5 1 3 2 2 3 1 4 22 5 20 6 19 7 17 8 16 9 15 10 14 11 6 12
REMARK SMILES IDX 7 13 8 14 9 15 13 16 11 17 10 18 12 20 4 22 21 24 18 26
REMARK H PARENT 10 19 12 21 4 23 21 25 18 27
REMARK Flexibility Score: inf
ROOT
ATOM      1  C   UNL     1     -45.487 -49.053  10.558  1.00  0.00     0.180 A 
ATOM      2  C   UNL     1     -45.430 -47.996   9.633  1.00  0.00     0.208 A 
ATOM      3  C   UNL     1     -45.688 -46.688  10.075  1.00  0.00     0.238 A 
ATOM      4  O   UNL     1     -45.582 -45.740   9.255  1.00  0.00    -0.285 OA
ATOM      5  C   UNL     1     -46.016 -46.455  11.432  1.00  0.00     0.111 A 
ATOM      6  C   UNL     1     -46.335 -45.177  11.981  1.00  0.00     0.134 A 
ATOM      7  C   UNL     1     -46.515 -45.045  13.365  1.00  0.00     0.093 A 
ATOM      8  C   UNL     1     -46.453 -46.153  14.208  1.00  0.00     0.123 A 
ATOM      9  C   UNL     1     -46.201 -47.418  13.675  1.00  0.00     0.094 A 
ATOM     10  C   UNL     1     -45.980 -47.576  12.303  1.00  0.00     0.146 A 
ATOM     11  O   UNL     1     -45.732 -48.793  11.838  1.00  0.00    -0.452 OA
ENDROOT
BRANCH   1  12
ATOM     12  C   UNL     1     -45.252 -50.459  10.163  1.00  0.00     0.025 A 
ATOM     13  C   UNL     1     -44.181 -51.168  10.731  1.00  0.00     0.016 A 
ATOM     14  C   UNL     1     -43.954 -52.502  10.387  1.00  0.00     0.051 A 
ATOM     15  C   UNL     1     -44.799 -53.155   9.485  1.00  0.00     0.157 A 
ATOM     16  C   UNL     1     -46.114 -51.123   9.271  1.00  0.00     0.062 A 
ATOM     17  C   UNL     1     -45.888 -52.464   8.926  1.00  0.00     0.158 A 
BRANCH  15  18
ATOM     18  O   UNL     1     -44.545 -54.486   9.159  1.00  0.00    -0.504 OA
ATOM     19  H   UNL     1     -45.208 -55.048   8.637  1.00  0.00     0.293 HD
ENDBRANCH  15  18
BRANCH  17  20
ATOM     20  O   UNL     1     -46.744 -53.112   8.037  1.00  0.00    -0.504 OA
ATOM     21  H   UNL     1     -46.492 -53.256   7.066  1.00  0.00     0.293 HD
ENDBRANCH  17  20
ENDBRANCH   1  12
BRANCH   2  22
ATOM     22  O   UNL     1     -45.083 -48.244   8.303  1.00  0.00    -0.502 OA
ATOM     23  H   UNL     1     -44.905 -47.500   7.638  1.00  0.00     0.293 HD
ENDBRANCH   2  22
BRANCH   6  24
ATOM     24  O   UNL     1     -46.512 -44.021  11.216  1.00  0.00    -0.507 OA
ATOM     25  H   UNL     1     -45.789 -43.579  10.669  1.00  0.00     0.293 HD
ENDBRANCH   6  24
BRANCH   8  26
ATOM     26  O   UNL     1     -46.654 -45.987  15.576  1.00  0.00    -0.508 OA
ATOM     27  H   UNL     1     -47.541 -45.666  15.947  1.00  0.00     0.293 HD
ENDBRANCH   8  26
TORSDOF 6
ENDMDL
MODEL 5
REMARK VINA RESULT:    -5.995      2.557      6.269
REMARK INTER + INTRA:          -7.520
REMARK INTER:                  -7.215
REMARK INTRA:                  -0.306
REMARK UNBOUND:                -0.299
REMARK SMILES O=c1c(O)c(-c2ccc(O)c(O)c2)oc2cc(O)cc(O)c12
REMARK SMILES IDX 5 1 3 2 2 3 1 4 22 5 20 6 19 7 17 8 16 9 15 10 14 11 6 12
REMARK SMILES IDX 7 13 8 14 9 15 13 16 11 17 10 18 12 20 4 22 21 24 18 26
REMARK H PARENT 10 19 12 21 4 23 21 25 18 27
REMARK Flexibility Score: inf
ROOT
ATOM      1  C   UNL     1     -44.797 -51.215   8.721  1.00  0.00     0.180 A 
ATOM      2  C   UNL     1     -45.203 -50.731   9.977  1.00  0.00     0.208 A 
ATOM      3  C   UNL     1     -45.554 -49.377  10.104  1.00  0.00     0.238 A 
ATOM      4  O   UNL     1     -45.969 -48.962  11.217  1.00  0.00    -0.285 OA
ATOM      5  C   UNL     1     -45.478 -48.521   8.979  1.00  0.00     0.111 A 
ATOM      6  C   UNL     1     -45.771 -47.125   9.002  1.00  0.00     0.134 A 
ATOM      7  C   UNL     1     -45.790 -46.402   7.801  1.00  0.00     0.093 A 
ATOM      8  C   UNL     1     -45.463 -47.011   6.590  1.00  0.00     0.123 A 
ATOM      9  C   UNL     1     -45.116 -48.363   6.564  1.00  0.00     0.094 A 
ATOM     10  C   UNL     1     -45.125 -49.118   7.740  1.00  0.00     0.146 A 
ATOM     11  O   UNL     1     -44.800 -50.403   7.671  1.00  0.00    -0.452 OA
ENDROOT
BRANCH   1  12
ATOM     12  C   UNL     1     -44.388 -52.623   8.515  1.00  0.00     0.025 A 
ATOM     13  C   UNL     1     -43.028 -52.965   8.580  1.00  0.00     0.016 A 
ATOM     14  C   UNL     1     -42.623 -54.290   8.409  1.00  0.00     0.051 A 
ATOM     15  C   UNL     1     -43.567 -55.296   8.187  1.00  0.00     0.157 A 
ATOM     16  C   UNL     1     -45.340 -53.639   8.311  1.00  0.00     0.062 A 
ATOM     17  C   UNL     1     -44.934 -54.972   8.142  1.00  0.00     0.158 A 
BRANCH  15  18
ATOM     18  O   UNL     1     -43.132 -56.610   8.017  1.00  0.00    -0.504 OA
ATOM     19  H   UNL     1     -42.383 -57.005   8.574  1.00  0.00     0.293 HD
ENDBRANCH  15  18
BRANCH  17  20
ATOM     20  O   UNL     1     -45.883 -55.971   7.935  1.00  0.00    -0.504 OA
ATOM     21  H   UNL     1     -46.687 -56.075   8.542  1.00  0.00     0.293 HD
ENDBRANCH  17  20
ENDBRANCH   1  12
BRANCH   2  22
ATOM     22  O   UNL     1     -45.292 -51.597  11.070  1.00  0.00    -0.502 OA
ATOM     23  H   UNL     1     -45.097 -52.589  10.996  1.00  0.00     0.293 HD
ENDBRANCH   2  22
BRANCH   6  24
ATOM     24  O   UNL     1     -46.022 -46.399  10.170  1.00  0.00    -0.507 OA
ATOM     25  H   UNL     1     -45.869 -45.407  10.273  1.00  0.00     0.293 HD
ENDBRANCH   6  24
BRANCH   8  26
ATOM     26  O   UNL     1     -45.476 -46.258   5.418  1.00  0.00    -0.508 OA
ATOM     27  H   UNL     1     -46.278 -45.696   5.158  1.00  0.00     0.293 HD
ENDBRANCH   8  26
TORSDOF 6
ENDMDL
MODEL 6
REMARK VINA RESULT:    -5.878      4.945      6.890
REMARK INTER + INTRA:          -7.380
REMARK INTER:                  -7.059
REMARK INTRA:                  -0.321
REMARK UNBOUND:                -0.299
REMARK SMILES O=c1c(O)c(-c2ccc(O)c(O)c2)oc2cc(O)cc(O)c12
REMARK SMILES IDX 5 1 3 2 2 3 1 4 22 5 20 6 19 7 17 8 16 9 15 10 14 11 6 12
REMARK SMILES IDX 7 13 8 14 9 15 13 16 11 17 10 18 12 20 4 22 21 24 18 26
REMARK H PARENT 10 19 12 21 4 23 21 25 18 27
REMARK Flexibility Score: inf
ROOT
ATOM      1  C   UNL     1     -45.582 -48.228  11.635  1.00  0.00     0.180 A 
ATOM      2  C   UNL     1     -45.870 -47.715  10.358  1.00  0.00     0.208 A 
ATOM      3  C   UNL     1     -45.896 -48.592   9.261  1.00  0.00     0.238 A 
ATOM      4  O   UNL     1     -46.208 -48.136   8.130  1.00  0.00    -0.285 OA
ATOM      5  C   UNL     1     -45.619 -49.966   9.452  1.00  0.00     0.111 A 
ATOM      6  C   UNL     1     -45.580 -50.937   8.407  1.00  0.00     0.134 A 
ATOM      7  C   UNL     1     -45.425 -52.293   8.728  1.00  0.00     0.093 A 
ATOM      8  C   UNL     1     -45.244 -52.703  10.047  1.00  0.00     0.123 A 
ATOM      9  C   UNL     1     -45.221 -51.756  11.072  1.00  0.00     0.094 A 
ATOM     10  C   UNL     1     -45.410 -50.401  10.787  1.00  0.00     0.146 A 
ATOM     11  O   UNL     1     -45.392 -49.533  11.791  1.00  0.00    -0.452 OA
ENDROOT
BRANCH   1  12
ATOM     12  C   UNL     1     -45.512 -47.363  12.834  1.00  0.00     0.025 A 
ATOM     13  C   UNL     1     -46.607 -47.307  13.711  1.00  0.00     0.016 A 
ATOM     14  C   UNL     1     -46.553 -46.514  14.859  1.00  0.00     0.051 A 
ATOM     15  C   UNL     1     -45.404 -45.777  15.158  1.00  0.00     0.157 A 
ATOM     16  C   UNL     1     -44.348 -46.637  13.146  1.00  0.00     0.062 A 
ATOM     17  C   UNL     1     -44.292 -45.842  14.300  1.00  0.00     0.158 A 
BRANCH  15  18
ATOM     18  O   UNL     1     -45.380 -44.991  16.310  1.00  0.00    -0.504 OA
ATOM     19  H   UNL     1     -44.527 -44.571  16.657  1.00  0.00     0.293 HD
ENDBRANCH  15  18
BRANCH  17  20
ATOM     20  O   UNL     1     -43.137 -45.121  14.598  1.00  0.00    -0.504 OA
ATOM     21  H   UNL     1     -43.164 -44.288  15.173  1.00  0.00     0.293 HD
ENDBRANCH  17  20
ENDBRANCH   1  12
BRANCH   2  22
ATOM     22  O   UNL     1     -46.161 -46.358  10.195  1.00  0.00    -0.502 OA
ATOM     23  H   UNL     1     -47.101 -46.019  10.024  1.00  0.00     0.293 HD
ENDBRANCH   2  22
BRANCH   6  24
ATOM     24  O   UNL     1     -45.659 -50.625   7.047  1.00  0.00    -0.507 OA
ATOM     25  H   UNL     1     -45.467 -51.271   6.296  1.00  0.00     0.293 HD
ENDBRANCH   6  24
BRANCH   8  26
ATOM     26  O   UNL     1     -45.077 -54.057  10.329  1.00  0.00    -0.508 OA
ATOM     27  H   UNL     1     -45.778 -54.743  10.070  1.00  0.00     0.293 HD
ENDBRANCH   8  26
TORSDOF 6
ENDMDL
MODEL 7
REMARK VINA RESULT:    -5.824      4.516      6.092
REMARK INTER + INTRA:          -7.314
REMARK INTER:                  -7.401
REMARK INTRA:                   0.087
REMARK UNBOUND:                -0.299
REMARK SMILES O=c1c(O)c(-c2ccc(O)c(O)c2)oc2cc(O)cc(O)c12
REMARK SMILES IDX 5 1 3 2 2 3 1 4 22 5 20 6 19 7 17 8 16 9 15 10 14 11 6 12
REMARK SMILES IDX 7 13 8 14 9 15 13 16 11 17 10 18 12 20 4 22 21 24 18 26
REMARK H PARENT 10 19 12 21 4 23 21 25 18 27
REMARK Flexibility Score: inf
ROOT
ATOM      1  C   UNL     1     -45.714 -47.095   8.901  1.00  0.00     0.180 A 
ATOM      2  C   UNL     1     -45.865 -47.837  10.086  1.00  0.00     0.208 A 
ATOM      3  C   UNL     1     -45.807 -47.169  11.320  1.00  0.00     0.238 A 
ATOM      4  O   UNL     1     -45.997 -47.829  12.374  1.00  0.00    -0.285 OA
ATOM      5  C   UNL     1     -45.583 -45.772  11.355  1.00  0.00     0.111 A 
ATOM      6  C   UNL     1     -45.467 -45.000  12.549  1.00  0.00     0.134 A 
ATOM      7  C   UNL     1     -45.377 -43.604  12.463  1.00  0.00     0.093 A 
ATOM      8  C   UNL     1     -45.333 -42.960  11.228  1.00  0.00     0.123 A 
ATOM      9  C   UNL     1     -45.387 -43.710  10.052  1.00  0.00     0.094 A 
ATOM     10  C   UNL     1     -45.514 -45.101  10.106  1.00  0.00     0.146 A 
ATOM     11  O   UNL     1     -45.572 -45.777   8.965  1.00  0.00    -0.452 OA
ENDROOT
BRANCH   1  12
ATOM     12  C   UNL     1     -45.738 -47.732   7.565  1.00  0.00     0.025 A 
ATOM     13  C   UNL     1     -45.012 -48.914   7.349  1.00  0.00     0.016 A 
ATOM     14  C   UNL     1     -45.037 -49.543   6.103  1.00  0.00     0.051 A 
ATOM     15  C   UNL     1     -45.799 -49.012   5.058  1.00  0.00     0.157 A 
ATOM     16  C   UNL     1     -46.521 -47.210   6.519  1.00  0.00     0.062 A 
ATOM     17  C   UNL     1     -46.550 -47.842   5.267  1.00  0.00     0.158 A 
BRANCH  15  18
ATOM     18  O   UNL     1     -45.803 -49.660   3.823  1.00  0.00    -0.504 OA
ATOM     19  H   UNL     1     -45.185 -49.386   3.069  1.00  0.00     0.293 HD
ENDBRANCH  15  18
BRANCH  17  20
ATOM     20  O   UNL     1     -47.323 -47.315   4.234  1.00  0.00    -0.504 OA
ATOM     21  H   UNL     1     -47.190 -46.368   3.900  1.00  0.00     0.293 HD
ENDBRANCH  17  20
ENDBRANCH   1  12
BRANCH   2  22
ATOM     22  O   UNL     1     -46.106 -49.212  10.029  1.00  0.00    -0.502 OA
ATOM     23  H   UNL     1     -45.499 -49.852   9.528  1.00  0.00     0.293 HD
ENDBRANCH   2  22
BRANCH   6  24
ATOM     24  O   UNL     1     -45.407 -45.550  13.832  1.00  0.00    -0.507 OA
ATOM     25  H   UNL     1     -45.815 -45.134  14.656  1.00  0.00     0.293 HD
ENDBRANCH   6  24
BRANCH   8  26
ATOM     26  O   UNL     1     -45.228 -41.572  11.180  1.00  0.00    -0.508 OA
ATOM     27  H   UNL     1     -44.349 -41.114  10.966  1.00  0.00     0.293 HD
ENDBRANCH   8  26
TORSDOF 6
ENDMDL
MODEL 8
REMARK VINA RESULT:    -5.791      1.205      1.986
REMARK INTER + INTRA:          -7.275
REMARK INTER:                  -6.999
REMARK INTRA:                  -0.276
REMARK UNBOUND:                -0.299
REMARK SMILES O=c1c(O)c(-c2ccc(O)c(O)c2)oc2cc(O)cc(O)c12
REMARK SMILES IDX 5 1 3 2 2 3 1 4 22 5 20 6 19 7 17 8 16 9 15 10 14 11 6 12
REMARK SMILES IDX 7 13 8 14 9 15 13 16 11 17 10 18 12 20 4 22 21 24 18 26
REMARK H PARENT 10 19 12 21 4 23 21 25 18 27
REMARK Flexibility Score: inf
ROOT
ATOM      1  C   UNL     1     -43.983 -51.676   7.351  1.00  0.00     0.180 A 
ATOM      2  C   UNL     1     -44.869 -52.396   8.172  1.00  0.00     0.208 A 
ATOM      3  C   UNL     1     -44.395 -52.933   9.380  1.00  0.00     0.238 A 
ATOM      4  O   UNL     1     -45.206 -53.528  10.136  1.00  0.00    -0.285 OA
ATOM      5  C   UNL     1     -43.039 -52.758   9.744  1.00  0.00     0.111 A 
ATOM      6  C   UNL     1     -42.442 -53.293  10.925  1.00  0.00     0.134 A 
ATOM      7  C   UNL     1     -41.123 -52.947  11.250  1.00  0.00     0.093 A 
ATOM      8  C   UNL     1     -40.361 -52.141  10.405  1.00  0.00     0.123 A 
ATOM      9  C   UNL     1     -40.916 -51.661   9.218  1.00  0.00     0.094 A 
ATOM     10  C   UNL     1     -42.240 -51.959   8.885  1.00  0.00     0.146 A 
ATOM     11  O   UNL     1     -42.733 -51.474   7.752  1.00  0.00    -0.452 OA
ENDROOT
BRANCH   1  12
ATOM     12  C   UNL     1     -44.402 -51.103   6.052  1.00  0.00     0.025 A 
ATOM     13  C   UNL     1     -44.082 -51.777   4.863  1.00  0.00     0.016 A 
ATOM     14  C   UNL     1     -44.486 -51.264   3.628  1.00  0.00     0.051 A 
ATOM     15  C   UNL     1     -45.228 -50.082   3.561  1.00  0.00     0.157 A 
ATOM     16  C   UNL     1     -45.167 -49.924   5.985  1.00  0.00     0.062 A 
ATOM     17  C   UNL     1     -45.575 -49.409   4.746  1.00  0.00     0.158 A 
BRANCH  15  18
ATOM     18  O   UNL     1     -45.615 -49.592   2.314  1.00  0.00    -0.504 OA
ATOM     19  H   UNL     1     -45.370 -50.064   1.452  1.00  0.00     0.293 HD
ENDBRANCH  15  18
BRANCH  17  20
ATOM     20  O   UNL     1     -46.327 -48.237   4.688  1.00  0.00    -0.504 OA
ATOM     21  H   UNL     1     -47.202 -48.191   4.179  1.00  0.00     0.293 HD
ENDBRANCH  17  20
ENDBRANCH   1  12
BRANCH   2  22
ATOM     22  O   UNL     1     -46.209 -52.538   7.804  1.00  0.00    -0.502 OA
ATOM     23  H   UNL     1     -46.501 -52.658   6.841  1.00  0.00     0.293 HD
ENDBRANCH   2  22
BRANCH   6  24
ATOM     24  O   UNL     1     -43.084 -54.182  11.791  1.00  0.00    -0.507 OA
ATOM     25  H   UNL     1     -43.307 -53.985  12.755  1.00  0.00     0.293 HD
ENDBRANCH   6  24
BRANCH   8  26
ATOM     26  O   UNL     1     -39.049 -51.830  10.752  1.00  0.00    -0.508 OA
ATOM     27  H   UNL     1     -38.467 -51.248  10.160  1.00  0.00     0.293 HD
ENDBRANCH   8  26
TORSDOF 6
ENDMDL
MODEL 9
REMARK VINA RESULT:    -5.775      9.216     11.300
REMARK INTER + INTRA:          -7.256
REMARK INTER:                  -7.016
REMARK INTRA:                  -0.240
REMARK UNBOUND:                -0.299
REMARK SMILES O=c1c(O)c(-c2ccc(O)c(O)c2)oc2cc(O)cc(O)c12
REMARK SMILES IDX 5 1 3 2 2 3 1 4 22 5 20 6 19 7 17 8 16 9 15 10 14 11 6 12
REMARK SMILES IDX 7 13 8 14 9 15 13 16 11 17 10 18 12 20 4 22 21 24 18 26
REMARK H PARENT 10 19 12 21 4 23 21 25 18 27
REMARK Flexibility Score: inf
ROOT
ATOM      1  C   UNL     1     -44.762 -42.872  13.355  1.00  0.00     0.180 A 
ATOM      2  C   UNL     1     -43.430 -42.839  13.805  1.00  0.00     0.208 A 
ATOM      3  C   UNL     1     -42.489 -42.079  13.091  1.00  0.00     0.238 A 
ATOM      4  O   UNL     1     -41.311 -42.009  13.529  1.00  0.00    -0.285 OA
ATOM      5  C   UNL     1     -42.887 -41.375  11.930  1.00  0.00     0.111 A 
ATOM      6  C   UNL     1     -42.010 -40.606  11.108  1.00  0.00     0.134 A 
ATOM      7  C   UNL     1     -42.538 -39.844  10.057  1.00  0.00     0.093 A 
ATOM      8  C   UNL     1     -43.900 -39.876   9.758  1.00  0.00     0.123 A 
ATOM      9  C   UNL     1     -44.758 -40.671  10.518  1.00  0.00     0.094 A 
ATOM     10  C   UNL     1     -44.267 -41.413  11.596  1.00  0.00     0.146 A 
ATOM     11  O   UNL     1     -45.118 -42.148  12.301  1.00  0.00    -0.452 OA
ENDROOT
BRANCH   1  12
ATOM     12  C   UNL     1     -45.804 -43.671  14.039  1.00  0.00     0.025 A 
ATOM     13  C   UNL     1     -46.238 -44.877  13.467  1.00  0.00     0.016 A 
ATOM     14  C   UNL     1     -47.205 -45.656  14.106  1.00  0.00     0.051 A 
ATOM     15  C   UNL     1     -47.742 -45.253  15.332  1.00  0.00     0.157 A 
ATOM     16  C   UNL     1     -46.330 -43.276  15.283  1.00  0.00     0.062 A 
ATOM     17  C   UNL     1     -47.300 -44.059  15.927  1.00  0.00     0.158 A 
BRANCH  15  18
ATOM     18  O   UNL     1     -48.708 -46.050  15.945  1.00  0.00    -0.504 OA
ATOM     19  H   UNL     1     -48.837 -46.062  16.950  1.00  0.00     0.293 HD
ENDBRANCH  15  18
BRANCH  17  20
ATOM     20  O   UNL     1     -47.820 -43.657  17.156  1.00  0.00    -0.504 OA
ATOM     21  H   UNL     1     -48.759 -43.908  17.444  1.00  0.00     0.293 HD
ENDBRANCH  17  20
ENDBRANCH   1  12
BRANCH   2  22
ATOM     22  O   UNL     1     -43.063 -43.524  14.965  1.00  0.00    -0.502 OA
ATOM     23  H   UNL     1     -42.096 -43.717  15.201  1.00  0.00     0.293 HD
ENDBRANCH   2  22
BRANCH   6  24
ATOM     24  O   UNL     1     -40.621 -40.577  11.262  1.00  0.00    -0.507 OA
ATOM     25  H   UNL     1     -40.015 -41.376  11.155  1.00  0.00     0.293 HD
ENDBRANCH   6  24
BRANCH   8  26
ATOM     26  O   UNL     1     -44.388 -39.119   8.696  1.00  0.00    -0.508 OA
ATOM     27  H   UNL     1     -44.710 -38.167   8.828  1.00  0.00     0.293 HD
ENDBRANCH   8  26
TORSDOF 6
ENDMDL
