MODEL 1
REMARK VINA RESULT:    -5.389      0.000      0.000
REMARK INTER + INTRA:         -19.349
REMARK INTER:                 -14.211
REMARK INTRA:                  -5.138
REMARK UNBOUND:                -5.138
REMARK SMILES CCCCCCCCCCCCCCCCCCCCCCCCCCCCCC(=O)[O-]
REMARK SMILES IDX 16 1 17 2 18 3 19 4 20 5 21 6 22 7 23 8 24 9 25 10 26 11
REMARK SMILES IDX 27 12 28 13 29 14 30 15 31 16 32 17 15 18 14 19 13 20 12 21
REMARK SMILES IDX 11 22 10 23 9 24 8 25 7 26 6 27 5 28 4 29 3 30 2 31 1 32
REMARK H PARENT
REMARK Flexibility Score: inf
ROOT
ATOM      1  C   UNL     1      10.049  14.844 -19.698  1.00  0.00     0.000 C 
ENDROOT
BRANCH   1   2
ATOM      2  C   UNL     1       9.761  16.299 -19.280  1.00  0.00     0.000 C 
BRANCH   2   3
ATOM      3  C   UNL     1       8.307  16.606 -18.881  1.00  0.00     0.000 C 
BRANCH   3   4
ATOM      4  C   UNL     1       8.179  17.164 -17.452  1.00  0.00     0.000 C 
BRANCH   4   5
ATOM      5  C   UNL     1       9.534  17.549 -16.828  1.00  0.00     0.000 C 
BRANCH   5   6
ATOM      6  C   UNL     1      10.180  16.473 -15.934  1.00  0.00     0.000 C 
BRANCH   6   7
ATOM      7  C   UNL     1      11.711  16.565 -15.789  1.00  0.00     0.000 C 
BRANCH   7   8
ATOM      8  C   UNL     1      12.352  17.742 -16.556  1.00  0.00     0.000 C 
BRANCH   8   9
ATOM      9  C   UNL     1      13.032  17.304 -17.863  1.00  0.00     0.000 C 
BRANCH   9  10
ATOM     10  C   UNL     1      14.150  16.273 -17.629  1.00  0.00     0.000 C 
BRANCH  10  11
ATOM     11  C   UNL     1      13.772  14.849 -18.094  1.00  0.00     0.000 C 
BRANCH  11  12
ATOM     12  C   UNL     1      14.177  13.777 -17.066  1.00  0.00     0.000 C 
BRANCH  12  13
ATOM     13  C   UNL     1      15.204  14.294 -16.044  1.00  0.00     0.006 C 
BRANCH  13  14
ATOM     14  C   UNL     1      16.545  13.549 -16.118  1.00  0.00     0.053 C 
BRANCH  14  15
ATOM     15  C   UNL     1      17.296  13.931 -17.355  1.00  0.00     0.041 C 
ATOM     16  O   UNL     1      17.523  15.146 -17.607  1.00  0.00    -0.550 OA
ATOM     17  O   UNL     1      17.726  12.948 -18.242  1.00  0.00    -0.550 OA
ENDBRANCH  14  15
ENDBRANCH  13  14
ENDBRANCH  12  13
ENDBRANCH  11  12
ENDBRANCH  10  11
ENDBRANCH   9  10
ENDBRANCH   8   9
ENDBRANCH   7   8
ENDBRANCH   6   7
ENDBRANCH   5   6
ENDBRANCH   4   5
ENDBRANCH   3   4
ENDBRANCH   2   3
ENDBRANCH   1   2
BRANCH   1  18
ATOM     18  C   UNL     1      10.378  13.892 -18.531  1.00  0.00     0.000 C 
BRANCH  18  19
ATOM     19  C   UNL     1      10.378  12.402 -18.931  1.00  0.00     0.000 C 
BRANCH  19  20
ATOM     20  C   UNL     1      11.793  11.855 -19.184  1.00  0.00     0.000 C 
BRANCH  20  21
ATOM     21  C   UNL     1      11.985  11.334 -20.620  1.00  0.00     0.000 C 
BRANCH  21  22
ATOM     22  C   UNL     1      13.453  11.361 -21.074  1.00  0.00     0.000 C 
BRANCH  22  23
ATOM     23  C   UNL     1      13.762  12.554 -21.995  1.00  0.00     0.000 C 
BRANCH  23  24
ATOM     24  C   UNL     1      13.321  13.905 -21.401  1.00  0.00    -0.000 C 
BRANCH  24  25
ATOM     25  C   UNL     1      12.973  15.002 -22.432  1.00  0.00    -0.000 C 
BRANCH  25  26
ATOM     26  C   UNL     1      12.665  16.390 -21.839  1.00  0.00    -0.000 C 
BRANCH  26  27
ATOM     27  C   UNL     1      12.031  17.351 -22.860  1.00  0.00    -0.000 C 
BRANCH  27  28
ATOM     28  C   UNL     1      10.591  17.740 -22.490  1.00  0.00    -0.000 C 
BRANCH  28  29
ATOM     29  C   UNL     1       9.542  16.931 -23.275  1.00  0.00    -0.000 C 
BRANCH  29  30
ATOM     30  C   UNL     1       8.198  16.813 -22.532  1.00  0.00    -0.000 C 
BRANCH  30  31
ATOM     31  C   UNL     1       7.330  15.613 -22.946  1.00  0.00    -0.003 C 
ATOM     32  C   UNL     1       6.912  14.741 -21.762  1.00  0.00     0.004 C 
ENDBRANCH  30  31
ENDBRANCH  29  30
ENDBRANCH  28  29
ENDBRANCH  27  28
ENDBRANCH  26  27
ENDBRANCH  25  26
ENDBRANCH  24  25
ENDBRANCH  23  24
ENDBRANCH  22  23
ENDBRANCH  21  22
ENDBRANCH  20  21
ENDBRANCH  19  20
ENDBRANCH  18  19
ENDBRANCH   1  18
TORSDOF 28
ENDMDL
MODEL 2
REMARK VINA RESULT:    -5.345      1.713      4.662
REMARK INTER + INTRA:         -19.232
REMARK INTER:                 -13.916
REMARK INTRA:                  -5.316
REMARK UNBOUND:                -5.138
REMARK SMILES CCCCCCCCCCCCCCCCCCCCCCCCCCCCCC(=O)[O-]
REMARK SMILES IDX 16 1 17 2 18 3 19 4 20 5 21 6 22 7 23 8 24 9 25 10 26 11
REMARK SMILES IDX 27 12 28 13 29 14 30 15 31 16 32 17 15 18 14 19 13 20 12 21
REMARK SMILES IDX 11 22 10 23 9 24 8 25 7 26 6 27 5 28 4 29 3 30 2 31 1 32
REMARK H PARENT
REMARK Flexibility Score: inf
ROOT
ATOM      1  C   UNL     1      14.835  13.507 -15.745  1.00  0.00     0.000 C 
ENDROOT
BRANCH   1   2
ATOM      2  C   UNL     1      14.109  13.718 -17.088  1.00  0.00     0.000 C 
BRANCH   2   3
ATOM      3  C   UNL     1      13.141  14.913 -17.145  1.00  0.00     0.000 C 
BRANCH   3   4
ATOM      4  C   UNL     1      13.264  15.846 -15.926  1.00  0.00     0.000 C 
BRANCH   4   5
ATOM      5  C   UNL     1      12.135  16.891 -15.848  1.00  0.00     0.000 C 
BRANCH   5   6
ATOM      6  C   UNL     1      10.714  16.349 -16.094  1.00  0.00     0.000 C 
BRANCH   6   7
ATOM      7  C   UNL     1       9.919  17.058 -17.208  1.00  0.00     0.000 C 
BRANCH   7   8
ATOM      8  C   UNL     1      10.174  16.497 -18.624  1.00  0.00     0.000 C 
BRANCH   8   9
ATOM      9  C   UNL     1       9.625  15.073 -18.810  1.00  0.00     0.000 C 
BRANCH   9  10
ATOM     10  C   UNL     1      10.670  14.110 -19.398  1.00  0.00     0.000 C 
BRANCH  10  11
ATOM     11  C   UNL     1      10.535  12.666 -18.867  1.00  0.00     0.000 C 
BRANCH  11  12
ATOM     12  C   UNL     1      11.709  11.773 -19.307  1.00  0.00     0.000 C 
BRANCH  12  13
ATOM     13  C   UNL     1      12.704  12.509 -20.220  1.00  0.00     0.006 C 
BRANCH  13  14
ATOM     14  C   UNL     1      13.068  11.704 -21.476  1.00  0.00     0.053 C 
BRANCH  14  15
ATOM     15  C   UNL     1      14.319  12.237 -22.102  1.00  0.00     0.041 C 
ATOM     16  O   UNL     1      14.373  12.424 -23.348  1.00  0.00    -0.550 OA
ATOM     17  O   UNL     1      15.434  12.505 -21.313  1.00  0.00    -0.550 OA
ENDBRANCH  14  15
ENDBRANCH  13  14
ENDBRANCH  12  13
ENDBRANCH  11  12
ENDBRANCH  10  11
ENDBRANCH   9  10
ENDBRANCH   8   9
ENDBRANCH   7   8
ENDBRANCH   6   7
ENDBRANCH   5   6
ENDBRANCH   4   5
ENDBRANCH   3   4
ENDBRANCH   2   3
ENDBRANCH   1   2
BRANCH   1  18
ATOM     18  C   UNL     1      16.375  13.505 -15.839  1.00  0.00     0.000 C 
BRANCH  18  19
ATOM     19  C   UNL     1      16.906  13.616 -17.283  1.00  0.00     0.000 C 
BRANCH  19  20
ATOM     20  C   UNL     1      17.501  14.999 -17.592  1.00  0.00     0.000 C 
BRANCH  20  21
ATOM     21  C   UNL     1      16.585  15.859 -18.481  1.00  0.00     0.000 C 
BRANCH  21  22
ATOM     22  C   UNL     1      16.086  17.129 -17.773  1.00  0.00     0.000 C 
BRANCH  22  23
ATOM     23  C   UNL     1      14.941  17.817 -18.537  1.00  0.00     0.000 C 
BRANCH  23  24
ATOM     24  C   UNL     1      14.719  17.231 -19.944  1.00  0.00    -0.000 C 
BRANCH  24  25
ATOM     25  C   UNL     1      13.257  16.865 -20.287  1.00  0.00    -0.000 C 
BRANCH  25  26
ATOM     26  C   UNL     1      13.080  15.898 -21.473  1.00  0.00    -0.000 C 
BRANCH  26  27
ATOM     27  C   UNL     1      12.212  16.484 -22.600  1.00  0.00    -0.000 C 
BRANCH  27  28
ATOM     28  C   UNL     1      10.730  16.600 -22.206  1.00  0.00    -0.000 C 
BRANCH  28  29
ATOM     29  C   UNL     1       9.812  16.804 -23.424  1.00  0.00    -0.000 C 
BRANCH  29  30
ATOM     30  C   UNL     1       8.320  16.624 -23.086  1.00  0.00    -0.000 C 
BRANCH  30  31
ATOM     31  C   UNL     1       8.037  16.011 -21.703  1.00  0.00    -0.003 C 
ATOM     32  C   UNL     1       7.105  14.802 -21.765  1.00  0.00     0.004 C 
ENDBRANCH  30  31
ENDBRANCH  29  30
ENDBRANCH  28  29
ENDBRANCH  27  28
ENDBRANCH  26  27
ENDBRANCH  25  26
ENDBRANCH  24  25
ENDBRANCH  23  24
ENDBRANCH  22  23
ENDBRANCH  21  22
ENDBRANCH  20  21
ENDBRANCH  19  20
ENDBRANCH  18  19
ENDBRANCH   1  18
TORSDOF 28
ENDMDL
MODEL 3
REMARK VINA RESULT:    -5.335      2.950      7.043
REMARK INTER + INTRA:         -19.206
REMARK INTER:                 -13.055
REMARK INTRA:                  -6.151
REMARK UNBOUND:                -5.138
REMARK SMILES CCCCCCCCCCCCCCCCCCCCCCCCCCCCCC(=O)[O-]
REMARK SMILES IDX 16 1 17 2 18 3 19 4 20 5 21 6 22 7 23 8 24 9 25 10 26 11
REMARK SMILES IDX 27 12 28 13 29 14 30 15 31 16 32 17 15 18 14 19 13 20 12 21
REMARK SMILES IDX 11 22 10 23 9 24 8 25 7 26 6 27 5 28 4 29 3 30 2 31 1 32
REMARK H PARENT
REMARK Flexibility Score: inf
ROOT
ATOM      1  C   UNL     1      14.046  13.625 -17.094  1.00  0.00     0.000 C 
ENDROOT
BRANCH   1   2
ATOM      2  C   UNL     1      14.917  13.487 -15.829  1.00  0.00     0.000 C 
BRANCH   2   3
ATOM      3  C   UNL     1      16.411  13.808 -16.008  1.00  0.00     0.000 C 
BRANCH   3   4
ATOM      4  C   UNL     1      16.812  14.011 -17.481  1.00  0.00     0.000 C 
BRANCH   4   5
ATOM      5  C   UNL     1      17.101  15.482 -17.833  1.00  0.00     0.000 C 
BRANCH   5   6
ATOM      6  C   UNL     1      16.571  16.520 -16.825  1.00  0.00     0.000 C 
BRANCH   6   7
ATOM      7  C   UNL     1      15.726  17.659 -17.429  1.00  0.00     0.000 C 
BRANCH   7   8
ATOM      8  C   UNL     1      15.142  17.344 -18.823  1.00  0.00     0.000 C 
BRANCH   8   9
ATOM      9  C   UNL     1      13.818  18.077 -19.096  1.00  0.00     0.000 C 
BRANCH   9  10
ATOM     10  C   UNL     1      13.259  17.785 -20.498  1.00  0.00     0.000 C 
BRANCH  10  11
ATOM     11  C   UNL     1      13.013  16.282 -20.754  1.00  0.00     0.000 C 
BRANCH  11  12
ATOM     12  C   UNL     1      12.115  16.041 -21.981  1.00  0.00     0.000 C 
BRANCH  12  13
ATOM     13  C   UNL     1      10.954  17.045 -22.071  1.00  0.00     0.006 C 
BRANCH  13  14
ATOM     14  C   UNL     1       9.938  16.684 -23.165  1.00  0.00     0.053 C 
BRANCH  14  15
ATOM     15  C   UNL     1       8.549  16.649 -22.608  1.00  0.00     0.041 C 
ATOM     16  O   UNL     1       7.717  15.803 -23.035  1.00  0.00    -0.550 OA
ATOM     17  O   UNL     1       8.166  17.565 -21.633  1.00  0.00    -0.550 OA
ENDBRANCH  14  15
ENDBRANCH  13  14
ENDBRANCH  12  13
ENDBRANCH  11  12
ENDBRANCH  10  11
ENDBRANCH   9  10
ENDBRANCH   8   9
ENDBRANCH   7   8
ENDBRANCH   6   7
ENDBRANCH   5   6
ENDBRANCH   4   5
ENDBRANCH   3   4
ENDBRANCH   2   3
ENDBRANCH   1   2
BRANCH   1  18
ATOM     18  C   UNL     1      13.246  14.939 -17.185  1.00  0.00     0.000 C 
BRANCH  18  19
ATOM     19  C   UNL     1      13.139  15.692 -15.842  1.00  0.00     0.000 C 
BRANCH  19  20
ATOM     20  C   UNL     1      12.268  16.956 -15.938  1.00  0.00     0.000 C 
BRANCH  20  21
ATOM     21  C   UNL     1      10.774  16.640 -16.132  1.00  0.00     0.000 C 
BRANCH  21  22
ATOM     22  C   UNL     1      10.079  17.607 -17.103  1.00  0.00     0.000 C 
BRANCH  22  23
ATOM     23  C   UNL     1      10.111  17.103 -18.557  1.00  0.00     0.000 C 
BRANCH  23  24
ATOM     24  C   UNL     1       9.276  15.826 -18.770  1.00  0.00    -0.000 C 
BRANCH  24  25
ATOM     25  C   UNL     1      10.072  14.581 -19.220  1.00  0.00    -0.000 C 
BRANCH  25  26
ATOM     26  C   UNL     1      10.311  13.522 -18.126  1.00  0.00    -0.000 C 
BRANCH  26  27
ATOM     27  C   UNL     1      10.996  12.252 -18.660  1.00  0.00    -0.000 C 
BRANCH  27  28
ATOM     28  C   UNL     1      11.820  12.515 -19.930  1.00  0.00    -0.000 C 
BRANCH  28  29
ATOM     29  C   UNL     1      12.360  11.218 -20.561  1.00  0.00    -0.000 C 
BRANCH  29  30
ATOM     30  C   UNL     1      13.515  11.469 -21.550  1.00  0.00    -0.000 C 
BRANCH  30  31
ATOM     31  C   UNL     1      14.107  12.888 -21.511  1.00  0.00    -0.003 C 
ATOM     32  C   UNL     1      15.429  12.963 -20.748  1.00  0.00     0.004 C 
ENDBRANCH  30  31
ENDBRANCH  29  30
ENDBRANCH  28  29
ENDBRANCH  27  28
ENDBRANCH  26  27
ENDBRANCH  25  26
ENDBRANCH  24  25
ENDBRANCH  23  24
ENDBRANCH  22  23
ENDBRANCH  21  22
ENDBRANCH  20  21
ENDBRANCH  19  20
ENDBRANCH  18  19
ENDBRANCH   1  18
TORSDOF 28
ENDMDL
MODEL 4
REMARK VINA RESULT:    -5.294      1.165      4.298
REMARK INTER + INTRA:         -19.098
REMARK INTER:                 -13.376
REMARK INTRA:                  -5.723
REMARK UNBOUND:                -5.138
REMARK SMILES CCCCCCCCCCCCCCCCCCCCCCCCCCCCCC(=O)[O-]
REMARK SMILES IDX 16 1 17 2 18 3 19 4 20 5 21 6 22 7 23 8 24 9 25 10 26 11
REMARK SMILES IDX 27 12 28 13 29 14 30 15 31 16 32 17 15 18 14 19 13 20 12 21
REMARK SMILES IDX 11 22 10 23 9 24 8 25 7 26 6 27 5 28 4 29 3 30 2 31 1 32
REMARK H PARENT
REMARK Flexibility Score: inf
ROOT
ATOM      1  C   UNL     1       8.010  17.282 -19.919  1.00  0.00     0.000 C 
ENDROOT
BRANCH   1   2
ATOM      2  C   UNL     1       8.085  16.679 -18.503  1.00  0.00     0.000 C 
BRANCH   2   3
ATOM      3  C   UNL     1       8.411  17.669 -17.371  1.00  0.00     0.000 C 
BRANCH   3   4
ATOM      4  C   UNL     1       9.906  17.692 -17.003  1.00  0.00     0.000 C 
BRANCH   4   5
ATOM      5  C   UNL     1      10.337  16.488 -16.145  1.00  0.00     0.000 C 
BRANCH   5   6
ATOM      6  C   UNL     1      11.854  16.225 -16.089  1.00  0.00     0.000 C 
BRANCH   6   7
ATOM      7  C   UNL     1      12.748  17.437 -16.420  1.00  0.00     0.000 C 
BRANCH   7   8
ATOM      8  C   UNL     1      14.183  17.339 -15.857  1.00  0.00     0.000 C 
BRANCH   8   9
ATOM      9  C   UNL     1      15.260  17.644 -16.910  1.00  0.00     0.000 C 
BRANCH   9  10
ATOM     10  C   UNL     1      14.716  17.583 -18.347  1.00  0.00     0.000 C 
BRANCH  10  11
ATOM     11  C   UNL     1      15.274  16.395 -19.160  1.00  0.00     0.000 C 
BRANCH  11  12
ATOM     12  C   UNL     1      14.381  15.146 -19.051  1.00  0.00     0.000 C 
BRANCH  12  13
ATOM     13  C   UNL     1      15.159  13.901 -18.592  1.00  0.00     0.006 C 
BRANCH  13  14
ATOM     14  C   UNL     1      16.670  14.149 -18.485  1.00  0.00     0.053 C 
BRANCH  14  15
ATOM     15  C   UNL     1      17.139  13.963 -17.075  1.00  0.00     0.041 C 
ATOM     16  O   UNL     1      18.256  13.424 -16.846  1.00  0.00    -0.550 OA
ATOM     17  O   UNL     1      16.333  14.363 -16.014  1.00  0.00    -0.550 OA
ENDBRANCH  14  15
ENDBRANCH  13  14
ENDBRANCH  12  13
ENDBRANCH  11  12
ENDBRANCH  10  11
ENDBRANCH   9  10
ENDBRANCH   8   9
ENDBRANCH   7   8
ENDBRANCH   6   7
ENDBRANCH   5   6
ENDBRANCH   4   5
ENDBRANCH   3   4
ENDBRANCH   2   3
ENDBRANCH   1   2
BRANCH   1  18
ATOM     18  C   UNL     1       7.718  16.262 -21.039  1.00  0.00     0.000 C 
BRANCH  18  19
ATOM     19  C   UNL     1       7.648  16.893 -22.445  1.00  0.00     0.000 C 
BRANCH  19  20
ATOM     20  C   UNL     1       8.865  16.539 -23.316  1.00  0.00     0.000 C 
BRANCH  20  21
ATOM     21  C   UNL     1      10.123  17.342 -22.939  1.00  0.00     0.000 C 
BRANCH  21  22
ATOM     22  C   UNL     1      11.427  16.614 -23.303  1.00  0.00     0.000 C 
BRANCH  22  23
ATOM     23  C   UNL     1      12.391  16.503 -22.108  1.00  0.00     0.000 C 
BRANCH  23  24
ATOM     24  C   UNL     1      11.838  17.153 -20.826  1.00  0.00    -0.000 C 
BRANCH  24  25
ATOM     25  C   UNL     1      11.459  16.171 -19.695  1.00  0.00    -0.000 C 
BRANCH  25  26
ATOM     26  C   UNL     1      11.002  14.775 -20.160  1.00  0.00    -0.000 C 
BRANCH  26  27
ATOM     27  C   UNL     1      10.467  13.905 -19.010  1.00  0.00    -0.000 C 
BRANCH  27  28
ATOM     28  C   UNL     1      10.592  12.401 -19.300  1.00  0.00    -0.000 C 
BRANCH  28  29
ATOM     29  C   UNL     1      12.056  11.928 -19.341  1.00  0.00    -0.000 C 
BRANCH  29  30
ATOM     30  C   UNL     1      12.468  11.374 -20.719  1.00  0.00    -0.000 C 
BRANCH  30  31
ATOM     31  C   UNL     1      13.842  11.845 -21.224  1.00  0.00    -0.003 C 
ATOM     32  C   UNL     1      13.752  13.029 -22.187  1.00  0.00     0.004 C 
ENDBRANCH  30  31
ENDBRANCH  29  30
ENDBRANCH  28  29
ENDBRANCH  27  28
ENDBRANCH  26  27
ENDBRANCH  25  26
ENDBRANCH  24  25
ENDBRANCH  23  24
ENDBRANCH  22  23
ENDBRANCH  21  22
ENDBRANCH  20  21
ENDBRANCH  19  20
ENDBRANCH  18  19
ENDBRANCH   1  18
TORSDOF 28
ENDMDL
MODEL 5
REMARK VINA RESULT:    -5.261      1.230      3.307
REMARK INTER + INTRA:         -19.012
REMARK INTER:                 -13.552
REMARK INTRA:                  -5.459
REMARK UNBOUND:                -5.138
REMARK SMILES CCCCCCCCCCCCCCCCCCCCCCCCCCCCCC(=O)[O-]
REMARK SMILES IDX 16 1 17 2 18 3 19 4 20 5 21 6 22 7 23 8 24 9 25 10 26 11
REMARK SMILES IDX 27 12 28 13 29 14 30 15 31 16 32 17 15 18 14 19 13 20 12 21
REMARK SMILES IDX 11 22 10 23 9 24 8 25 7 26 6 27 5 28 4 29 3 30 2 31 1 32
REMARK H PARENT
REMARK Flexibility Score: inf
ROOT
ATOM      1  C   UNL     1      12.525  11.338 -20.250  1.00  0.00     0.000 C 
ENDROOT
BRANCH   1   2
ATOM      2  C   UNL     1      11.007  11.603 -20.226  1.00  0.00     0.000 C 
BRANCH   2   3
ATOM      3  C   UNL     1      10.515  12.578 -19.143  1.00  0.00     0.000 C 
BRANCH   3   4
ATOM      4  C   UNL     1      11.613  12.963 -18.135  1.00  0.00     0.000 C 
BRANCH   4   5
ATOM      5  C   UNL     1      11.243  14.185 -17.273  1.00  0.00     0.000 C 
BRANCH   5   6
ATOM      6  C   UNL     1      11.720  15.546 -17.817  1.00  0.00     0.000 C 
BRANCH   6   7
ATOM      7  C   UNL     1      11.584  16.732 -16.843  1.00  0.00     0.000 C 
BRANCH   7   8
ATOM      8  C   UNL     1      12.587  17.879 -17.096  1.00  0.00     0.000 C 
BRANCH   8   9
ATOM      9  C   UNL     1      13.264  17.786 -18.473  1.00  0.00     0.000 C 
BRANCH   9  10
ATOM     10  C   UNL     1      14.773  17.507 -18.371  1.00  0.00     0.000 C 
BRANCH  10  11
ATOM     11  C   UNL     1      15.361  17.835 -16.981  1.00  0.00     0.000 C 
BRANCH  11  12
ATOM     12  C   UNL     1      15.911  16.584 -16.272  1.00  0.00     0.000 C 
BRANCH  12  13
ATOM     13  C   UNL     1      15.225  15.289 -16.740  1.00  0.00     0.006 C 
BRANCH  13  14
ATOM     14  C   UNL     1      16.056  14.033 -16.440  1.00  0.00     0.053 C 
BRANCH  14  15
ATOM     15  C   UNL     1      17.144  13.862 -17.453  1.00  0.00     0.041 C 
ATOM     16  O   UNL     1      17.107  14.508 -18.536  1.00  0.00    -0.550 OA
ATOM     17  O   UNL     1      18.186  12.972 -17.214  1.00  0.00    -0.550 OA
ENDBRANCH  14  15
ENDBRANCH  13  14
ENDBRANCH  12  13
ENDBRANCH  11  12
ENDBRANCH  10  11
ENDBRANCH   9  10
ENDBRANCH   8   9
ENDBRANCH   7   8
ENDBRANCH   6   7
ENDBRANCH   5   6
ENDBRANCH   4   5
ENDBRANCH   3   4
ENDBRANCH   2   3
ENDBRANCH   1   2
BRANCH   1  18
ATOM     18  C   UNL     1      13.160  11.354 -21.655  1.00  0.00     0.000 C 
BRANCH  18  19
ATOM     19  C   UNL     1      13.977  12.629 -21.950  1.00  0.00     0.000 C 
BRANCH  19  20
ATOM     20  C   UNL     1      14.520  13.293 -20.674  1.00  0.00     0.000 C 
BRANCH  20  21
ATOM     21  C   UNL     1      13.986  14.723 -20.471  1.00  0.00     0.000 C 
BRANCH  21  22
ATOM     22  C   UNL     1      12.615  14.947 -21.127  1.00  0.00     0.000 C 
BRANCH  22  23
ATOM     23  C   UNL     1      12.568  16.237 -21.965  1.00  0.00     0.000 C 
BRANCH  23  24
ATOM     24  C   UNL     1      12.263  15.978 -23.453  1.00  0.00    -0.000 C 
BRANCH  24  25
ATOM     25  C   UNL     1      10.798  16.220 -23.881  1.00  0.00    -0.000 C 
BRANCH  25  26
ATOM     26  C   UNL     1      10.017  17.228 -23.017  1.00  0.00    -0.000 C 
BRANCH  26  27
ATOM     27  C   UNL     1       8.503  17.201 -23.285  1.00  0.00    -0.000 C 
BRANCH  27  28
ATOM     28  C   UNL     1       7.679  16.997 -22.003  1.00  0.00    -0.000 C 
BRANCH  28  29
ATOM     29  C   UNL     1       7.764  15.555 -21.472  1.00  0.00    -0.000 C 
BRANCH  29  30
ATOM     30  C   UNL     1       8.662  15.428 -20.226  1.00  0.00    -0.000 C 
BRANCH  30  31
ATOM     31  C   UNL     1       8.914  16.744 -19.470  1.00  0.00    -0.003 C 
ATOM     32  C   UNL     1       8.044  16.893 -18.223  1.00  0.00     0.004 C 
ENDBRANCH  30  31
ENDBRANCH  29  30
ENDBRANCH  28  29
ENDBRANCH  27  28
ENDBRANCH  26  27
ENDBRANCH  25  26
ENDBRANCH  24  25
ENDBRANCH  23  24
ENDBRANCH  22  23
ENDBRANCH  21  22
ENDBRANCH  20  21
ENDBRANCH  19  20
ENDBRANCH  18  19
ENDBRANCH   1  18
TORSDOF 28
ENDMDL
MODEL 6
REMARK VINA RESULT:    -5.256      1.474      5.182
REMARK INTER + INTRA:         -18.997
REMARK INTER:                 -14.275
REMARK INTRA:                  -4.722
REMARK UNBOUND:                -5.138
REMARK SMILES CCCCCCCCCCCCCCCCCCCCCCCCCCCCCC(=O)[O-]
REMARK SMILES IDX 16 1 17 2 18 3 19 4 20 5 21 6 22 7 23 8 24 9 25 10 26 11
REMARK SMILES IDX 27 12 28 13 29 14 30 15 31 16 32 17 15 18 14 19 13 20 12 21
REMARK SMILES IDX 11 22 10 23 9 24 8 25 7 26 6 27 5 28 4 29 3 30 2 31 1 32
REMARK H PARENT
REMARK Flexibility Score: inf
ROOT
ATOM      1  C   UNL     1      12.752  16.374 -19.115  1.00  0.00     0.000 C 
ENDROOT
BRANCH   1   2
ATOM      2  C   UNL     1      12.381  14.879 -19.068  1.00  0.00     0.000 C 
BRANCH   2   3
ATOM      3  C   UNL     1      10.927  14.539 -19.440  1.00  0.00     0.000 C 
BRANCH   3   4
ATOM      4  C   UNL     1      10.421  13.247 -18.773  1.00  0.00     0.000 C 
BRANCH   4   5
ATOM      5  C   UNL     1      11.436  12.091 -18.843  1.00  0.00     0.000 C 
BRANCH   5   6
ATOM      6  C   UNL     1      11.616  11.452 -20.234  1.00  0.00     0.000 C 
BRANCH   6   7
ATOM      7  C   UNL     1      13.076  11.237 -20.680  1.00  0.00     0.000 C 
BRANCH   7   8
ATOM      8  C   UNL     1      13.609  12.317 -21.646  1.00  0.00     0.000 C 
BRANCH   8   9
ATOM      9  C   UNL     1      15.113  12.586 -21.470  1.00  0.00     0.000 C 
BRANCH   9  10
ATOM     10  C   UNL     1      15.415  13.474 -20.252  1.00  0.00     0.000 C 
BRANCH  10  11
ATOM     11  C   UNL     1      16.877  13.364 -19.765  1.00  0.00     0.000 C 
BRANCH  11  12
ATOM     12  C   UNL     1      17.455  14.728 -19.348  1.00  0.00     0.000 C 
BRANCH  12  13
ATOM     13  C   UNL     1      16.996  15.162 -17.946  1.00  0.00     0.006 C 
BRANCH  13  14
ATOM     14  C   UNL     1      17.056  14.021 -16.920  1.00  0.00     0.053 C 
BRANCH  14  15
ATOM     15  C   UNL     1      15.740  13.863 -16.225  1.00  0.00     0.041 C 
ATOM     16  O   UNL     1      14.811  14.690 -16.434  1.00  0.00    -0.550 OA
ATOM     17  O   UNL     1      15.546  12.816 -15.328  1.00  0.00    -0.550 OA
ENDBRANCH  14  15
ENDBRANCH  13  14
ENDBRANCH  12  13
ENDBRANCH  11  12
ENDBRANCH  10  11
ENDBRANCH   9  10
ENDBRANCH   8   9
ENDBRANCH   7   8
ENDBRANCH   6   7
ENDBRANCH   5   6
ENDBRANCH   4   5
ENDBRANCH   3   4
ENDBRANCH   2   3
ENDBRANCH   1   2
BRANCH   1  18
ATOM     18  C   UNL     1      11.598  17.336 -18.764  1.00  0.00     0.000 C 
BRANCH  18  19
ATOM     19  C   UNL     1      11.665  17.880 -17.322  1.00  0.00     0.000 C 
BRANCH  19  20
ATOM     20  C   UNL     1      11.144  16.872 -16.283  1.00  0.00     0.000 C 
BRANCH  20  21
ATOM     21  C   UNL     1       9.679  16.467 -16.527  1.00  0.00     0.000 C 
BRANCH  21  22
ATOM     22  C   UNL     1       8.718  17.666 -16.524  1.00  0.00     0.000 C 
BRANCH  22  23
ATOM     23  C   UNL     1       7.994  17.842 -17.870  1.00  0.00     0.000 C 
BRANCH  23  24
ATOM     24  C   UNL     1       7.899  16.535 -18.679  1.00  0.00    -0.000 C 
BRANCH  24  25
ATOM     25  C   UNL     1       7.838  16.707 -20.213  1.00  0.00    -0.000 C 
BRANCH  25  26
ATOM     26  C   UNL     1       7.517  15.427 -21.008  1.00  0.00    -0.000 C 
BRANCH  26  27
ATOM     27  C   UNL     1       7.674  15.609 -22.527  1.00  0.00    -0.000 C 
BRANCH  27  28
ATOM     28  C   UNL     1       8.241  16.988 -22.902  1.00  0.00    -0.000 C 
BRANCH  28  29
ATOM     29  C   UNL     1       9.670  16.903 -23.468  1.00  0.00    -0.000 C 
BRANCH  29  30
ATOM     30  C   UNL     1      10.733  16.667 -22.378  1.00  0.00    -0.000 C 
BRANCH  30  31
ATOM     31  C   UNL     1      12.103  16.197 -22.898  1.00  0.00    -0.003 C 
ATOM     32  C   UNL     1      12.107  15.915 -24.400  1.00  0.00     0.004 C 
ENDBRANCH  30  31
ENDBRANCH  29  30
ENDBRANCH  28  29
ENDBRANCH  27  28
ENDBRANCH  26  27
ENDBRANCH  25  26
ENDBRANCH  24  25
ENDBRANCH  23  24
ENDBRANCH  22  23
ENDBRANCH  21  22
ENDBRANCH  20  21
ENDBRANCH  19  20
ENDBRANCH  18  19
ENDBRANCH   1  18
TORSDOF 28
ENDMDL
MODEL 7
REMARK VINA RESULT:    -5.232      1.439      3.283
REMARK INTER + INTRA:         -18.935
REMARK INTER:                 -14.628
REMARK INTRA:                  -4.307
REMARK UNBOUND:                -5.138
REMARK SMILES CCCCCCCCCCCCCCCCCCCCCCCCCCCCCC(=O)[O-]
REMARK SMILES IDX 16 1 17 2 18 3 19 4 20 5 21 6 22 7 23 8 24 9 25 10 26 11
REMARK SMILES IDX 27 12 28 13 29 14 30 15 31 16 32 17 15 18 14 19 13 20 12 21
REMARK SMILES IDX 11 22 10 23 9 24 8 25 7 26 6 27 5 28 4 29 3 30 2 31 1 32
REMARK H PARENT
REMARK Flexibility Score: inf
ROOT
ATOM      1  C   UNL     1      12.650  11.007 -20.256  1.00  0.00     0.000 C 
ENDROOT
BRANCH   1   2
ATOM      2  C   UNL     1      11.513  11.795 -19.578  1.00  0.00     0.000 C 
BRANCH   2   3
ATOM      3  C   UNL     1      11.733  12.145 -18.096  1.00  0.00     0.000 C 
BRANCH   3   4
ATOM      4  C   UNL     1      10.691  13.140 -17.550  1.00  0.00     0.000 C 
BRANCH   4   5
ATOM      5  C   UNL     1      10.216  14.158 -18.604  1.00  0.00     0.000 C 
BRANCH   5   6
ATOM      6  C   UNL     1       9.833  15.546 -18.056  1.00  0.00     0.000 C 
BRANCH   6   7
ATOM      7  C   UNL     1      10.301  15.842 -16.618  1.00  0.00     0.000 C 
BRANCH   7   8
ATOM      8  C   UNL     1      11.360  16.961 -16.512  1.00  0.00     0.000 C 
BRANCH   8   9
ATOM      9  C   UNL     1      12.620  16.520 -15.749  1.00  0.00     0.000 C 
BRANCH   9  10
ATOM     10  C   UNL     1      13.703  17.612 -15.718  1.00  0.00     0.000 C 
BRANCH  10  11
ATOM     11  C   UNL     1      14.592  17.624 -16.981  1.00  0.00     0.000 C 
BRANCH  11  12
ATOM     12  C   UNL     1      15.991  17.041 -16.712  1.00  0.00     0.000 C 
BRANCH  12  13
ATOM     13  C   UNL     1      16.420  16.017 -17.777  1.00  0.00     0.006 C 
BRANCH  13  14
ATOM     14  C   UNL     1      17.080  14.770 -17.172  1.00  0.00     0.053 C 
BRANCH  14  15
ATOM     15  C   UNL     1      16.064  13.914 -16.482  1.00  0.00     0.041 C 
ATOM     16  O   UNL     1      16.417  13.131 -15.559  1.00  0.00    -0.550 OA
ATOM     17  O   UNL     1      14.729  13.964 -16.875  1.00  0.00    -0.550 OA
ENDBRANCH  14  15
ENDBRANCH  13  14
ENDBRANCH  12  13
ENDBRANCH  11  12
ENDBRANCH  10  11
ENDBRANCH   9  10
ENDBRANCH   8   9
ENDBRANCH   7   8
ENDBRANCH   6   7
ENDBRANCH   5   6
ENDBRANCH   4   5
ENDBRANCH   3   4
ENDBRANCH   2   3
ENDBRANCH   1   2
BRANCH   1  18
ATOM     18  C   UNL     1      13.001  11.480 -21.681  1.00  0.00     0.000 C 
BRANCH  18  19
ATOM     19  C   UNL     1      14.407  12.106 -21.795  1.00  0.00     0.000 C 
BRANCH  19  20
ATOM     20  C   UNL     1      14.616  13.276 -20.820  1.00  0.00     0.000 C 
BRANCH  20  21
ATOM     21  C   UNL     1      13.596  14.411 -21.021  1.00  0.00     0.000 C 
BRANCH  21  22
ATOM     22  C   UNL     1      13.616  15.441 -19.881  1.00  0.00     0.000 C 
BRANCH  22  23
ATOM     23  C   UNL     1      12.501  16.493 -20.019  1.00  0.00     0.000 C 
BRANCH  23  24
ATOM     24  C   UNL     1      13.011  17.845 -20.552  1.00  0.00    -0.000 C 
BRANCH  24  25
ATOM     25  C   UNL     1      13.086  17.966 -22.091  1.00  0.00    -0.000 C 
BRANCH  25  26
ATOM     26  C   UNL     1      12.031  17.155 -22.867  1.00  0.00    -0.000 C 
BRANCH  26  27
ATOM     27  C   UNL     1      10.595  17.647 -22.620  1.00  0.00    -0.000 C 
BRANCH  27  28
ATOM     28  C   UNL     1       9.547  16.819 -23.380  1.00  0.00    -0.000 C 
BRANCH  28  29
ATOM     29  C   UNL     1       8.110  17.117 -22.914  1.00  0.00    -0.000 C 
BRANCH  29  30
ATOM     30  C   UNL     1       7.913  16.895 -21.403  1.00  0.00    -0.000 C 
BRANCH  30  31
ATOM     31  C   UNL     1       7.572  15.451 -20.997  1.00  0.00    -0.003 C 
ATOM     32  C   UNL     1       6.919  14.652 -22.125  1.00  0.00     0.004 C 
ENDBRANCH  30  31
ENDBRANCH  29  30
ENDBRANCH  28  29
ENDBRANCH  27  28
ENDBRANCH  26  27
ENDBRANCH  25  26
ENDBRANCH  24  25
ENDBRANCH  23  24
ENDBRANCH  22  23
ENDBRANCH  21  22
ENDBRANCH  20  21
ENDBRANCH  19  20
ENDBRANCH  18  19
ENDBRANCH   1  18
TORSDOF 28
ENDMDL
MODEL 8
REMARK VINA RESULT:    -5.200      1.113      2.469
REMARK INTER + INTRA:         -18.850
REMARK INTER:                 -13.420
REMARK INTRA:                  -5.430
REMARK UNBOUND:                -5.138
REMARK SMILES CCCCCCCCCCCCCCCCCCCCCCCCCCCCCC(=O)[O-]
REMARK SMILES IDX 16 1 17 2 18 3 19 4 20 5 21 6 22 7 23 8 24 9 25 10 26 11
REMARK SMILES IDX 27 12 28 13 29 14 30 15 31 16 32 17 15 18 14 19 13 20 12 21
REMARK SMILES IDX 11 22 10 23 9 24 8 25 7 26 6 27 5 28 4 29 3 30 2 31 1 32
REMARK H PARENT
REMARK Flexibility Score: inf
ROOT
ATOM      1  C   UNL     1      11.599  12.140 -18.088  1.00  0.00     0.000 C 
ENDROOT
BRANCH   1   2
ATOM      2  C   UNL     1      11.454  13.604 -18.547  1.00  0.00     0.000 C 
BRANCH   2   3
ATOM      3  C   UNL     1      10.018  14.154 -18.585  1.00  0.00     0.000 C 
BRANCH   3   4
ATOM      4  C   UNL     1       9.771  15.112 -19.766  1.00  0.00     0.000 C 
BRANCH   4   5
ATOM      5  C   UNL     1       8.694  16.173 -19.470  1.00  0.00     0.000 C 
BRANCH   5   6
ATOM      6  C   UNL     1       8.609  16.636 -18.002  1.00  0.00     0.000 C 
BRANCH   6   7
ATOM      7  C   UNL     1       9.345  17.951 -17.679  1.00  0.00     0.000 C 
BRANCH   7   8
ATOM      8  C   UNL     1      10.790  17.760 -17.170  1.00  0.00     0.000 C 
BRANCH   8   9
ATOM      9  C   UNL     1      10.892  16.726 -16.037  1.00  0.00     0.000 C 
BRANCH   9  10
ATOM     10  C   UNL     1      12.345  16.322 -15.736  1.00  0.00     0.000 C 
BRANCH  10  11
ATOM     11  C   UNL     1      13.280  16.458 -16.957  1.00  0.00     0.000 C 
BRANCH  11  12
ATOM     12  C   UNL     1      14.424  15.427 -16.930  1.00  0.00     0.000 C 
BRANCH  12  13
ATOM     13  C   UNL     1      15.784  16.060 -16.592  1.00  0.00     0.006 C 
BRANCH  13  14
ATOM     14  C   UNL     1      16.719  16.148 -17.808  1.00  0.00     0.053 C 
BRANCH  14  15
ATOM     15  C   UNL     1      17.225  14.791 -18.186  1.00  0.00     0.041 C 
ATOM     16  O   UNL     1      17.568  13.971 -17.291  1.00  0.00    -0.550 OA
ATOM     17  O   UNL     1      17.340  14.439 -19.528  1.00  0.00    -0.550 OA
ENDBRANCH  14  15
ENDBRANCH  13  14
ENDBRANCH  12  13
ENDBRANCH  11  12
ENDBRANCH  10  11
ENDBRANCH   9  10
ENDBRANCH   8   9
ENDBRANCH   7   8
ENDBRANCH   6   7
ENDBRANCH   5   6
ENDBRANCH   4   5
ENDBRANCH   3   4
ENDBRANCH   2   3
ENDBRANCH   1   2
BRANCH   1  18
ATOM     18  C   UNL     1      12.255  11.202 -19.122  1.00  0.00     0.000 C 
BRANCH  18  19
ATOM     19  C   UNL     1      12.082  11.675 -20.580  1.00  0.00     0.000 C 
BRANCH  19  20
ATOM     20  C   UNL     1      13.393  11.614 -21.382  1.00  0.00     0.000 C 
BRANCH  20  21
ATOM     21  C   UNL     1      14.202  12.922 -21.303  1.00  0.00     0.000 C 
BRANCH  21  22
ATOM     22  C   UNL     1      13.356  14.168 -21.608  1.00  0.00     0.000 C 
BRANCH  22  23
ATOM     23  C   UNL     1      13.479  15.243 -20.514  1.00  0.00     0.000 C 
BRANCH  23  24
ATOM     24  C   UNL     1      13.467  16.677 -21.074  1.00  0.00    -0.000 C 
BRANCH  24  25
ATOM     25  C   UNL     1      12.271  17.551 -20.635  1.00  0.00    -0.000 C 
BRANCH  25  26
ATOM     26  C   UNL     1      11.293  17.942 -21.759  1.00  0.00    -0.000 C 
BRANCH  26  27
ATOM     27  C   UNL     1      11.215  16.890 -22.879  1.00  0.00    -0.000 C 
BRANCH  27  28
ATOM     28  C   UNL     1       9.794  16.731 -23.443  1.00  0.00    -0.000 C 
BRANCH  28  29
ATOM     29  C   UNL     1       8.788  17.695 -22.787  1.00  0.00    -0.000 C 
BRANCH  29  30
ATOM     30  C   UNL     1       7.376  17.092 -22.660  1.00  0.00    -0.000 C 
BRANCH  30  31
ATOM     31  C   UNL     1       7.246  15.636 -23.140  1.00  0.00    -0.003 C 
ATOM     32  C   UNL     1       6.867  14.669 -22.018  1.00  0.00     0.004 C 
ENDBRANCH  30  31
ENDBRANCH  29  30
ENDBRANCH  28  29
ENDBRANCH  27  28
ENDBRANCH  26  27
ENDBRANCH  25  26
ENDBRANCH  24  25
ENDBRANCH  23  24
ENDBRANCH  22  23
ENDBRANCH  21  22
ENDBRANCH  20  21
ENDBRANCH  19  20
ENDBRANCH  18  19
ENDBRANCH   1  18
TORSDOF 28
ENDMDL
MODEL 9
REMARK VINA RESULT:    -5.177      1.475      4.184
REMARK INTER + INTRA:         -18.790
REMARK INTER:                 -13.529
REMARK INTRA:                  -5.261
REMARK UNBOUND:                -5.138
REMARK SMILES CCCCCCCCCCCCCCCCCCCCCCCCCCCCCC(=O)[O-]
REMARK SMILES IDX 16 1 17 2 18 3 19 4 20 5 21 6 22 7 23 8 24 9 25 10 26 11
REMARK SMILES IDX 27 12 28 13 29 14 30 15 31 16 32 17 15 18 14 19 13 20 12 21
REMARK SMILES IDX 11 22 10 23 9 24 8 25 7 26 6 27 5 28 4 29 3 30 2 31 1 32
REMARK H PARENT
REMARK Flexibility Score: inf
ROOT
ATOM      1  C   UNL     1       8.734  15.751 -20.066  1.00  0.00     0.000 C 
ENDROOT
BRANCH   1   2
ATOM      2  C   UNL     1       8.117  16.666 -18.990  1.00  0.00     0.000 C 
BRANCH   2   3
ATOM      3  C   UNL     1       8.898  17.954 -18.681  1.00  0.00     0.000 C 
BRANCH   3   4
ATOM      4  C   UNL     1       9.744  17.853 -17.398  1.00  0.00     0.000 C 
BRANCH   4   5
ATOM      5  C   UNL     1      11.234  17.576 -17.675  1.00  0.00     0.000 C 
BRANCH   5   6
ATOM      6  C   UNL     1      11.792  16.282 -17.051  1.00  0.00     0.000 C 
BRANCH   6   7
ATOM      7  C   UNL     1      12.557  16.463 -15.725  1.00  0.00     0.000 C 
BRANCH   7   8
ATOM      8  C   UNL     1      13.512  17.676 -15.705  1.00  0.00     0.000 C 
BRANCH   8   9
ATOM      9  C   UNL     1      14.988  17.278 -15.865  1.00  0.00     0.000 C 
BRANCH   9  10
ATOM     10  C   UNL     1      15.583  17.742 -17.205  1.00  0.00     0.000 C 
BRANCH  10  11
ATOM     11  C   UNL     1      15.248  16.797 -18.380  1.00  0.00     0.000 C 
BRANCH  11  12
ATOM     12  C   UNL     1      16.458  15.946 -18.804  1.00  0.00     0.000 C 
BRANCH  12  13
ATOM     13  C   UNL     1      16.247  14.445 -18.543  1.00  0.00     0.006 C 
BRANCH  13  14
ATOM     14  C   UNL     1      15.055  14.163 -17.617  1.00  0.00     0.053 C 
BRANCH  14  15
ATOM     15  C   UNL     1      15.523  13.640 -16.295  1.00  0.00     0.041 C 
ATOM     16  O   UNL     1      16.752  13.641 -16.013  1.00  0.00    -0.550 OA
ATOM     17  O   UNL     1      14.604  13.130 -15.382  1.00  0.00    -0.550 OA
ENDBRANCH  14  15
ENDBRANCH  13  14
ENDBRANCH  12  13
ENDBRANCH  11  12
ENDBRANCH  10  11
ENDBRANCH   9  10
ENDBRANCH   8   9
ENDBRANCH   7   8
ENDBRANCH   6   7
ENDBRANCH   5   6
ENDBRANCH   4   5
ENDBRANCH   3   4
ENDBRANCH   2   3
ENDBRANCH   1   2
BRANCH   1  18
ATOM     18  C   UNL     1       7.810  15.450 -21.263  1.00  0.00     0.000 C 
BRANCH  18  19
ATOM     19  C   UNL     1       7.762  16.585 -22.306  1.00  0.00     0.000 C 
BRANCH  19  20
ATOM     20  C   UNL     1       9.006  16.614 -23.210  1.00  0.00     0.000 C 
BRANCH  20  21
ATOM     21  C   UNL     1      10.091  17.580 -22.702  1.00  0.00     0.000 C 
BRANCH  21  22
ATOM     22  C   UNL     1      11.487  16.939 -22.653  1.00  0.00     0.000 C 
BRANCH  22  23
ATOM     23  C   UNL     1      12.145  17.069 -21.268  1.00  0.00     0.000 C 
BRANCH  23  24
ATOM     24  C   UNL     1      12.546  15.711 -20.662  1.00  0.00    -0.000 C 
BRANCH  24  25
ATOM     25  C   UNL     1      12.971  14.629 -21.681  1.00  0.00    -0.000 C 
BRANCH  25  26
ATOM     26  C   UNL     1      14.024  13.625 -21.175  1.00  0.00    -0.000 C 
BRANCH  26  27
ATOM     27  C   UNL     1      14.172  12.399 -22.092  1.00  0.00    -0.000 C 
BRANCH  27  28
ATOM     28  C   UNL     1      13.092  11.336 -21.837  1.00  0.00    -0.000 C 
BRANCH  28  29
ATOM     29  C   UNL     1      12.643  11.294 -20.365  1.00  0.00    -0.000 C 
BRANCH  29  30
ATOM     30  C   UNL     1      11.147  11.618 -20.185  1.00  0.00    -0.000 C 
BRANCH  30  31
ATOM     31  C   UNL     1      10.838  12.697 -19.133  1.00  0.00    -0.003 C 
ATOM     32  C   UNL     1      11.584  12.479 -17.817  1.00  0.00     0.004 C 
ENDBRANCH  30  31
ENDBRANCH  29  30
ENDBRANCH  28  29
ENDBRANCH  27  28
ENDBRANCH  26  27
ENDBRANCH  25  26
ENDBRANCH  24  25
ENDBRANCH  23  24
ENDBRANCH  22  23
ENDBRANCH  21  22
ENDBRANCH  20  21
ENDBRANCH  19  20
ENDBRANCH  18  19
ENDBRANCH   1  18
TORSDOF 28
ENDMDL
