MODEL 1
REMARK VINA RESULT:    -4.591      0.000      0.000
REMARK INTER + INTRA:          -9.299
REMARK INTER:                  -7.811
REMARK INTRA:                  -1.488
REMARK UNBOUND:                -1.488
REMARK SMILES CCCCCCCCCCCCCC(=O)[O-]
REMARK SMILES IDX 8 1 9 2 10 3 11 4 12 5 13 6 14 7 15 8 16 9 7 10 6 11 5 12
REMARK SMILES IDX 4 13 3 14 2 15 1 16
REMARK H PARENT
REMARK Flexibility Score: inf
ROOT
ATOM      1  C   UNL     1      15.193  74.889  72.168  1.00  0.00     0.000 C 
ENDROOT
BRANCH   1   2
ATOM      2  C   UNL     1      16.260  74.469  71.142  1.00  0.00     0.000 C 
BRANCH   2   3
ATOM      3  C   UNL     1      15.679  73.647  69.977  1.00  0.00     0.000 C 
BRANCH   3   4
ATOM      4  C   UNL     1      14.208  73.944  69.639  1.00  0.00     0.000 C 
BRANCH   4   5
ATOM      5  C   UNL     1      14.039  74.701  68.310  1.00  0.00     0.006 C 
BRANCH   5   6
ATOM      6  C   UNL     1      13.179  75.961  68.465  1.00  0.00     0.053 C 
BRANCH   6   7
ATOM      7  C   UNL     1      13.702  76.861  69.543  1.00  0.00     0.041 C 
ATOM      8  O   UNL     1      14.817  77.429  69.409  1.00  0.00    -0.550 OA
ATOM      9  O   UNL     1      12.973  77.042  70.712  1.00  0.00    -0.550 OA
ENDBRANCH   6   7
ENDBRANCH   5   6
ENDBRANCH   4   5
ENDBRANCH   3   4
ENDBRANCH   2   3
ENDBRANCH   1   2
BRANCH   1  10
ATOM     10  C   UNL     1      15.536  76.220  72.859  1.00  0.00     0.000 C 
BRANCH  10  11
ATOM     11  C   UNL     1      16.705  76.952  72.176  1.00  0.00    -0.000 C 
BRANCH  11  12
ATOM     12  C   UNL     1      17.678  77.595  73.181  1.00  0.00    -0.000 C 
BRANCH  12  13
ATOM     13  C   UNL     1      18.713  76.636  73.798  1.00  0.00    -0.000 C 
BRANCH  13  14
ATOM     14  C   UNL     1      19.051  75.448  72.881  1.00  0.00    -0.000 C 
BRANCH  14  15
ATOM     15  C   UNL     1      19.125  74.118  73.647  1.00  0.00    -0.003 C 
ATOM     16  C   UNL     1      19.071  72.899  72.726  1.00  0.00     0.004 C 
ENDBRANCH  14  15
ENDBRANCH  13  14
ENDBRANCH  12  13
ENDBRANCH  11  12
ENDBRANCH  10  11
ENDBRANCH   1  10
TORSDOF 12
ENDMDL
MODEL 2
REMARK VINA RESULT:    -4.352      1.957      3.271
REMARK INTER + INTRA:          -8.893
REMARK INTER:                  -7.525
REMARK INTRA:                  -1.368
REMARK UNBOUND:                -1.488
REMARK SMILES CCCCCCCCCCCCCC(=O)[O-]
REMARK SMILES IDX 8 1 9 2 10 3 11 4 12 5 13 6 14 7 15 8 16 9 7 10 6 11 5 12
REMARK SMILES IDX 4 13 3 14 2 15 1 16
REMARK H PARENT
REMARK Flexibility Score: inf
ROOT
ATOM      1  C   UNL     1      15.610  77.137  71.564  1.00  0.00     0.000 C 
ENDROOT
BRANCH   1   2
ATOM      2  C   UNL     1      15.089  77.272  70.122  1.00  0.00     0.000 C 
BRANCH   2   3
ATOM      3  C   UNL     1      13.601  76.902  69.986  1.00  0.00     0.000 C 
BRANCH   3   4
ATOM      4  C   UNL     1      13.161  76.479  68.573  1.00  0.00     0.000 C 
BRANCH   4   5
ATOM      5  C   UNL     1      13.173  74.953  68.374  1.00  0.00     0.006 C 
BRANCH   5   6
ATOM      6  C   UNL     1      14.580  74.419  68.078  1.00  0.00     0.053 C 
BRANCH   6   7
ATOM      7  C   UNL     1      14.918  73.239  68.937  1.00  0.00     0.041 C 
ATOM      8  O   UNL     1      14.479  73.166  70.114  1.00  0.00    -0.550 OA
ATOM      9  O   UNL     1      15.747  72.237  68.448  1.00  0.00    -0.550 OA
ENDBRANCH   6   7
ENDBRANCH   5   6
ENDBRANCH   4   5
ENDBRANCH   3   4
ENDBRANCH   2   3
ENDBRANCH   1   2
BRANCH   1  10
ATOM     10  C   UNL     1      14.841  76.075  72.368  1.00  0.00     0.000 C 
BRANCH  10  11
ATOM     11  C   UNL     1      15.757  74.950  72.880  1.00  0.00    -0.000 C 
BRANCH  11  12
ATOM     12  C   UNL     1      17.050  74.808  72.056  1.00  0.00    -0.000 C 
BRANCH  12  13
ATOM     13  C   UNL     1      18.271  74.286  72.835  1.00  0.00    -0.000 C 
BRANCH  13  14
ATOM     14  C   UNL     1      18.967  75.380  73.663  1.00  0.00    -0.000 C 
BRANCH  14  15
ATOM     15  C   UNL     1      18.994  76.736  72.941  1.00  0.00    -0.003 C 
ATOM     16  C   UNL     1      18.778  77.917  73.887  1.00  0.00     0.004 C 
ENDBRANCH  14  15
ENDBRANCH  13  14
ENDBRANCH  12  13
ENDBRANCH  11  12
ENDBRANCH  10  11
ENDBRANCH   1  10
TORSDOF 12
ENDMDL
MODEL 3
REMARK VINA RESULT:    -4.103     10.697     13.223
REMARK INTER + INTRA:          -8.469
REMARK INTER:                  -7.071
REMARK INTRA:                  -1.398
REMARK UNBOUND:                -1.488
REMARK SMILES CCCCCCCCCCCCCC(=O)[O-]
REMARK SMILES IDX 8 1 9 2 10 3 11 4 12 5 13 6 14 7 15 8 16 9 7 10 6 11 5 12
REMARK SMILES IDX 4 13 3 14 2 15 1 16
REMARK H PARENT
REMARK Flexibility Score: inf
ROOT
ATOM      1  C   UNL     1       4.405  75.611  67.687  1.00  0.00     0.000 C 
ENDROOT
BRANCH   1   2
ATOM      2  C   UNL     1       5.533  76.196  68.555  1.00  0.00     0.000 C 
BRANCH   2   3
ATOM      3  C   UNL     1       6.807  76.511  67.749  1.00  0.00     0.000 C 
BRANCH   3   4
ATOM      4  C   UNL     1       6.869  77.928  67.155  1.00  0.00     0.000 C 
BRANCH   4   5
ATOM      5  C   UNL     1       7.335  77.944  65.689  1.00  0.00     0.006 C 
BRANCH   5   6
ATOM      6  C   UNL     1       6.223  77.512  64.724  1.00  0.00     0.053 C 
BRANCH   6   7
ATOM      7  C   UNL     1       5.662  78.675  63.965  1.00  0.00     0.041 C 
ATOM      8  O   UNL     1       4.489  79.072  64.190  1.00  0.00    -0.550 OA
ATOM      9  O   UNL     1       6.424  79.297  62.984  1.00  0.00    -0.550 OA
ENDBRANCH   6   7
ENDBRANCH   5   6
ENDBRANCH   4   5
ENDBRANCH   3   4
ENDBRANCH   2   3
ENDBRANCH   1   2
BRANCH   1  10
ATOM     10  C   UNL     1       3.495  74.654  68.475  1.00  0.00     0.000 C 
BRANCH  10  11
ATOM     11  C   UNL     1       2.003  74.991  68.307  1.00  0.00    -0.000 C 
BRANCH  11  12
ATOM     12  C   UNL     1       1.737  76.505  68.213  1.00  0.00    -0.000 C 
BRANCH  12  13
ATOM     13  C   UNL     1       1.603  77.233  69.562  1.00  0.00    -0.000 C 
BRANCH  13  14
ATOM     14  C   UNL     1       2.151  78.670  69.526  1.00  0.00    -0.000 C 
BRANCH  14  15
ATOM     15  C   UNL     1       3.041  78.929  68.301  1.00  0.00    -0.003 C 
ATOM     16  C   UNL     1       4.189  79.895  68.595  1.00  0.00     0.004 C 
ENDBRANCH  14  15
ENDBRANCH  13  14
ENDBRANCH  12  13
ENDBRANCH  11  12
ENDBRANCH  10  11
ENDBRANCH   1  10
TORSDOF 12
ENDMDL
MODEL 4
REMARK VINA RESULT:    -4.057     10.756     12.645
REMARK INTER + INTRA:          -8.391
REMARK INTER:                  -6.991
REMARK INTRA:                  -1.400
REMARK UNBOUND:                -1.488
REMARK SMILES CCCCCCCCCCCCCC(=O)[O-]
REMARK SMILES IDX 8 1 9 2 10 3 11 4 12 5 13 6 14 7 15 8 16 9 7 10 6 11 5 12
REMARK SMILES IDX 4 13 3 14 2 15 1 16
REMARK H PARENT
REMARK Flexibility Score: inf
ROOT
ATOM      1  C   UNL     1       5.145  78.907  67.401  1.00  0.00     0.000 C 
ENDROOT
BRANCH   1   2
ATOM      2  C   UNL     1       6.592  78.521  67.753  1.00  0.00     0.000 C 
BRANCH   2   3
ATOM      3  C   UNL     1       7.272  77.682  66.655  1.00  0.00     0.000 C 
BRANCH   3   4
ATOM      4  C   UNL     1       6.326  77.140  65.569  1.00  0.00     0.000 C 
BRANCH   4   5
ATOM      5  C   UNL     1       6.480  77.867  64.223  1.00  0.00     0.006 C 
BRANCH   5   6
ATOM      6  C   UNL     1       7.850  78.543  64.083  1.00  0.00     0.053 C 
BRANCH   6   7
ATOM      7  C   UNL     1       8.084  79.040  62.689  1.00  0.00     0.041 C 
ATOM      8  O   UNL     1       7.166  78.976  61.831  1.00  0.00    -0.550 OA
ATOM      9  O   UNL     1       9.330  79.540  62.329  1.00  0.00    -0.550 OA
ENDBRANCH   6   7
ENDBRANCH   5   6
ENDBRANCH   4   5
ENDBRANCH   3   4
ENDBRANCH   2   3
ENDBRANCH   1   2
BRANCH   1  10
ATOM     10  C   UNL     1       4.445  79.663  68.543  1.00  0.00     0.000 C 
BRANCH  10  11
ATOM     11  C   UNL     1       2.925  79.428  68.559  1.00  0.00    -0.000 C 
BRANCH  11  12
ATOM     12  C   UNL     1       2.527  78.129  69.285  1.00  0.00    -0.000 C 
BRANCH  12  13
ATOM     13  C   UNL     1       2.001  77.004  68.375  1.00  0.00    -0.000 C 
BRANCH  13  14
ATOM     14  C   UNL     1       2.641  75.639  68.679  1.00  0.00    -0.000 C 
BRANCH  14  15
ATOM     15  C   UNL     1       3.987  75.448  67.963  1.00  0.00    -0.003 C 
ATOM     16  C   UNL     1       5.173  75.411  68.927  1.00  0.00     0.004 C 
ENDBRANCH  14  15
ENDBRANCH  13  14
ENDBRANCH  12  13
ENDBRANCH  11  12
ENDBRANCH  10  11
ENDBRANCH   1  10
TORSDOF 12
ENDMDL
MODEL 5
REMARK VINA RESULT:    -3.820     11.127     13.608
REMARK INTER + INTRA:          -7.987
REMARK INTER:                  -6.630
REMARK INTRA:                  -1.356
REMARK UNBOUND:                -1.488
REMARK SMILES CCCCCCCCCCCCCC(=O)[O-]
REMARK SMILES IDX 8 1 9 2 10 3 11 4 12 5 13 6 14 7 15 8 16 9 7 10 6 11 5 12
REMARK SMILES IDX 4 13 3 14 2 15 1 16
REMARK H PARENT
REMARK Flexibility Score: inf
ROOT
ATOM      1  C   UNL     1       5.522  78.642  68.625  1.00  0.00     0.000 C 
ENDROOT
BRANCH   1   2
ATOM      2  C   UNL     1       4.570  79.604  67.892  1.00  0.00     0.000 C 
BRANCH   2   3
ATOM      3  C   UNL     1       3.289  78.912  67.390  1.00  0.00     0.000 C 
BRANCH   3   4
ATOM      4  C   UNL     1       2.323  78.448  68.493  1.00  0.00     0.000 C 
BRANCH   4   5
ATOM      5  C   UNL     1       1.843  77.000  68.300  1.00  0.00     0.006 C 
BRANCH   5   6
ATOM      6  C   UNL     1       2.995  75.991  68.387  1.00  0.00     0.053 C 
BRANCH   6   7
ATOM      7  C   UNL     1       2.523  74.587  68.159  1.00  0.00     0.041 C 
ATOM      8  O   UNL     1       3.306  73.619  68.339  1.00  0.00    -0.550 OA
ATOM      9  O   UNL     1       1.229  74.353  67.712  1.00  0.00    -0.550 OA
ENDBRANCH   6   7
ENDBRANCH   5   6
ENDBRANCH   4   5
ENDBRANCH   3   4
ENDBRANCH   2   3
ENDBRANCH   1   2
BRANCH   1  10
ATOM     10  C   UNL     1       6.691  78.184  67.736  1.00  0.00     0.000 C 
BRANCH  10  11
ATOM     11  C   UNL     1       6.474  76.773  67.162  1.00  0.00    -0.000 C 
BRANCH  11  12
ATOM     12  C   UNL     1       6.034  76.787  65.687  1.00  0.00    -0.000 C 
BRANCH  12  13
ATOM     13  C   UNL     1       6.466  78.028  64.885  1.00  0.00    -0.000 C 
BRANCH  13  14
ATOM     14  C   UNL     1       5.340  78.597  64.005  1.00  0.00    -0.000 C 
BRANCH  14  15
ATOM     15  C   UNL     1       5.789  78.836  62.556  1.00  0.00    -0.003 C 
ATOM     16  C   UNL     1       4.680  78.571  61.538  1.00  0.00     0.004 C 
ENDBRANCH  14  15
ENDBRANCH  13  14
ENDBRANCH  12  13
ENDBRANCH  11  12
ENDBRANCH  10  11
ENDBRANCH   1  10
TORSDOF 12
ENDMDL
MODEL 6
REMARK VINA RESULT:    -3.807     11.122     13.884
REMARK INTER + INTRA:          -7.965
REMARK INTER:                  -6.211
REMARK INTRA:                  -1.754
REMARK UNBOUND:                -1.488
REMARK SMILES CCCCCCCCCCCCCC(=O)[O-]
REMARK SMILES IDX 8 1 9 2 10 3 11 4 12 5 13 6 14 7 15 8 16 9 7 10 6 11 5 12
REMARK SMILES IDX 4 13 3 14 2 15 1 16
REMARK H PARENT
REMARK Flexibility Score: inf
ROOT
ATOM      1  C   UNL     1       6.585  76.522  67.151  1.00  0.00     0.000 C 
ENDROOT
BRANCH   1   2
ATOM      2  C   UNL     1       5.793  76.860  68.426  1.00  0.00     0.000 C 
BRANCH   2   3
ATOM      3  C   UNL     1       5.197  78.280  68.403  1.00  0.00     0.000 C 
BRANCH   3   4
ATOM      4  C   UNL     1       3.955  78.451  67.511  1.00  0.00     0.000 C 
BRANCH   4   5
ATOM      5  C   UNL     1       4.004  79.729  66.656  1.00  0.00     0.006 C 
BRANCH   5   6
ATOM      6  C   UNL     1       2.635  80.078  66.058  1.00  0.00     0.053 C 
BRANCH   6   7
ATOM      7  C   UNL     1       1.633  80.411  67.122  1.00  0.00     0.041 C 
ATOM      8  O   UNL     1       0.743  79.578  67.436  1.00  0.00    -0.550 OA
ATOM      9  O   UNL     1       1.661  81.656  67.738  1.00  0.00    -0.550 OA
ENDBRANCH   6   7
ENDBRANCH   5   6
ENDBRANCH   4   5
ENDBRANCH   3   4
ENDBRANCH   2   3
ENDBRANCH   1   2
BRANCH   1  10
ATOM     10  C   UNL     1       7.460  77.694  66.677  1.00  0.00     0.000 C 
BRANCH  10  11
ATOM     11  C   UNL     1       7.187  78.076  65.211  1.00  0.00    -0.000 C 
BRANCH  11  12
ATOM     12  C   UNL     1       6.081  77.220  64.565  1.00  0.00    -0.000 C 
BRANCH  12  13
ATOM     13  C   UNL     1       5.223  77.944  63.512  1.00  0.00    -0.000 C 
BRANCH  13  14
ATOM     14  C   UNL     1       5.645  79.407  63.295  1.00  0.00    -0.000 C 
BRANCH  14  15
ATOM     15  C   UNL     1       4.630  80.194  62.452  1.00  0.00    -0.003 C 
ATOM     16  C   UNL     1       3.247  79.544  62.429  1.00  0.00     0.004 C 
ENDBRANCH  14  15
ENDBRANCH  13  14
ENDBRANCH  12  13
ENDBRANCH  11  12
ENDBRANCH  10  11
ENDBRANCH   1  10
TORSDOF 12
ENDMDL
MODEL 7
REMARK VINA RESULT:    -3.751     10.766     14.024
REMARK INTER + INTRA:          -7.869
REMARK INTER:                  -6.402
REMARK INTRA:                  -1.467
REMARK UNBOUND:                -1.488
REMARK SMILES CCCCCCCCCCCCCC(=O)[O-]
REMARK SMILES IDX 8 1 9 2 10 3 11 4 12 5 13 6 14 7 15 8 16 9 7 10 6 11 5 12
REMARK SMILES IDX 4 13 3 14 2 15 1 16
REMARK H PARENT
REMARK Flexibility Score: inf
ROOT
ATOM      1  C   UNL     1       6.254  77.311  65.374  1.00  0.00     0.000 C 
ENDROOT
BRANCH   1   2
ATOM      2  C   UNL     1       7.336  77.752  66.374  1.00  0.00     0.000 C 
BRANCH   2   3
ATOM      3  C   UNL     1       6.749  78.379  67.653  1.00  0.00     0.000 C 
BRANCH   3   4
ATOM      4  C   UNL     1       5.269  78.786  67.560  1.00  0.00     0.000 C 
BRANCH   4   5
ATOM      5  C   UNL     1       4.400  78.139  68.652  1.00  0.00     0.006 C 
BRANCH   5   6
ATOM      6  C   UNL     1       3.497  77.031  68.094  1.00  0.00     0.053 C 
BRANCH   6   7
ATOM      7  C   UNL     1       4.018  75.667  68.430  1.00  0.00     0.041 C 
ATOM      8  O   UNL     1       3.267  74.662  68.337  1.00  0.00    -0.550 OA
ATOM      9  O   UNL     1       5.323  75.514  68.882  1.00  0.00    -0.550 OA
ENDBRANCH   6   7
ENDBRANCH   5   6
ENDBRANCH   4   5
ENDBRANCH   3   4
ENDBRANCH   2   3
ENDBRANCH   1   2
BRANCH   1  10
ATOM     10  C   UNL     1       6.366  78.043  64.026  1.00  0.00     0.000 C 
BRANCH  10  11
ATOM     11  C   UNL     1       4.992  78.319  63.391  1.00  0.00    -0.000 C 
BRANCH  11  12
ATOM     12  C   UNL     1       4.257  79.504  64.044  1.00  0.00    -0.000 C 
BRANCH  12  13
ATOM     13  C   UNL     1       2.904  79.869  63.406  1.00  0.00    -0.000 C 
BRANCH  13  14
ATOM     14  C   UNL     1       1.755  79.928  64.428  1.00  0.00    -0.000 C 
BRANCH  14  15
ATOM     15  C   UNL     1       2.253  79.844  65.879  1.00  0.00    -0.003 C 
ATOM     16  C   UNL     1       1.901  81.084  66.700  1.00  0.00     0.004 C 
ENDBRANCH  14  15
ENDBRANCH  13  14
ENDBRANCH  12  13
ENDBRANCH  11  12
ENDBRANCH  10  11
ENDBRANCH   1  10
TORSDOF 12
ENDMDL
