MODEL 1
REMARK VINA RESULT:    -5.406      0.000      0.000
REMARK INTER + INTRA:          -6.864
REMARK INTER:                  -6.512
REMARK INTRA:                  -0.352
REMARK UNBOUND:                -0.352
REMARK SMILES Oc1cc(O)c2cc(O)c(-c3ccc(O)c(O)c3)[o+]c2c1
REMARK SMILES IDX 10 1 19 2 20 3 21 4 2 5 3 6 4 7 6 8 7 9 8 10 11 11 12 12
REMARK SMILES IDX 13 13 14 14 18 15 16 16 15 17 17 19 9 21 1 23 5 25
REMARK H PARENT 15 18 17 20 9 22 1 24 5 26
REMARK Flexibility Score: inf
ROOT
ATOM      1  C   UNL     1      -4.205  88.168  -8.352  1.00  0.00     0.402 A 
ATOM      2  O   UNL     1      -4.849  87.210  -9.015  1.00  0.00    -0.202 OA
ATOM      3  C   UNL     1      -4.475  85.935  -9.000  1.00  0.00     0.368 A 
ATOM      4  C   UNL     1      -5.217  85.000  -9.727  1.00  0.00     0.162 A 
ATOM      5  C   UNL     1      -4.850  83.655  -9.727  1.00  0.00     0.128 A 
ATOM      6  C   UNL     1      -3.733  83.236  -8.994  1.00  0.00     0.093 A 
ATOM      7  C   UNL     1      -2.974  84.153  -8.257  1.00  0.00     0.136 A 
ATOM      8  C   UNL     1      -3.342  85.524  -8.257  1.00  0.00     0.125 A 
ATOM      9  C   UNL     1      -2.632  86.515  -7.559  1.00  0.00     0.078 A 
ATOM     10  C   UNL     1      -3.054  87.847  -7.610  1.00  0.00     0.223 A 
ENDROOT
BRANCH   1  11
ATOM     11  C   UNL     1      -4.726  89.551  -8.441  1.00  0.00     0.087 A 
ATOM     12  C   UNL     1      -5.580  90.077  -7.455  1.00  0.00     0.022 A 
ATOM     13  C   UNL     1      -6.077  91.377  -7.571  1.00  0.00     0.051 A 
ATOM     14  C   UNL     1      -5.742  92.167  -8.680  1.00  0.00     0.157 A 
ATOM     15  C   UNL     1      -4.409  90.339  -9.559  1.00  0.00     0.068 A 
ATOM     16  C   UNL     1      -4.905  91.642  -9.680  1.00  0.00     0.158 A 
BRANCH  14  17
ATOM     17  O   UNL     1      -6.238  93.464  -8.792  1.00  0.00    -0.504 OA
ATOM     18  H   UNL     1      -7.066  93.670  -9.340  1.00  0.00     0.293 HD
ENDBRANCH  14  17
BRANCH  16  19
ATOM     19  O   UNL     1      -4.558  92.399 -10.798  1.00  0.00    -0.504 OA
ATOM     20  H   UNL     1      -5.254  92.764 -11.438  1.00  0.00     0.293 HD
ENDBRANCH  16  19
ENDBRANCH   1  11
BRANCH  10  21
ATOM     21  O   UNL     1      -2.320  88.838  -6.959  1.00  0.00    -0.500 OA
ATOM     22  H   UNL     1      -2.527  89.116  -6.006  1.00  0.00     0.294 HD
ENDBRANCH  10  21
BRANCH   5  23
ATOM     23  O   UNL     1      -5.603  82.738 -10.458  1.00  0.00    -0.507 OA
ATOM     24  H   UNL     1      -6.149  82.017 -10.000  1.00  0.00     0.293 HD
ENDBRANCH   5  23
BRANCH   7  25
ATOM     25  O   UNL     1      -1.875  83.657  -7.549  1.00  0.00    -0.507 OA
ATOM     26  H   UNL     1      -1.942  83.110  -6.703  1.00  0.00     0.293 HD
ENDBRANCH   7  25
TORSDOF 6
ENDMDL
MODEL 2
REMARK VINA RESULT:    -5.211      6.679      8.558
REMARK INTER + INTRA:          -6.629
REMARK INTER:                  -6.332
REMARK INTRA:                  -0.298
REMARK UNBOUND:                -0.352
REMARK SMILES Oc1cc(O)c2cc(O)c(-c3ccc(O)c(O)c3)[o+]c2c1
REMARK SMILES IDX 10 1 19 2 20 3 21 4 2 5 3 6 4 7 6 8 7 9 8 10 11 11 12 12
REMARK SMILES IDX 13 13 14 14 18 15 16 16 15 17 17 19 9 21 1 23 5 25
REMARK H PARENT 15 18 17 20 9 22 1 24 5 26
REMARK Flexibility Score: inf
ROOT
ATOM      1  C   UNL     1      -8.454  91.356 -13.454  1.00  0.00     0.402 A 
ATOM      2  O   UNL     1      -7.806  91.113 -14.590  1.00  0.00    -0.202 OA
ATOM      3  C   UNL     1      -6.481  91.121 -14.690  1.00  0.00     0.368 A 
ATOM      4  C   UNL     1      -5.890  90.850 -15.927  1.00  0.00     0.162 A 
ATOM      5  C   UNL     1      -4.502  90.849 -16.060  1.00  0.00     0.128 A 
ATOM      6  C   UNL     1      -3.694  91.117 -14.950  1.00  0.00     0.093 A 
ATOM      7  C   UNL     1      -4.262  91.390 -13.699  1.00  0.00     0.136 A 
ATOM      8  C   UNL     1      -5.674  91.397 -13.560  1.00  0.00     0.125 A 
ATOM      9  C   UNL     1      -6.330  91.673 -12.349  1.00  0.00     0.078 A 
ATOM     10  C   UNL     1      -7.726  91.664 -12.290  1.00  0.00     0.223 A 
ENDROOT
BRANCH   1  11
ATOM     11  C   UNL     1      -9.934  91.308 -13.469  1.00  0.00     0.087 A 
ATOM     12  C   UNL     1     -10.705  92.485 -13.470  1.00  0.00     0.022 A 
ATOM     13  C   UNL     1     -12.100  92.415 -13.463  1.00  0.00     0.051 A 
ATOM     14  C   UNL     1     -12.747  91.172 -13.438  1.00  0.00     0.157 A 
ATOM     15  C   UNL     1     -10.587  90.066 -13.425  1.00  0.00     0.068 A 
ATOM     16  C   UNL     1     -11.985  89.992 -13.416  1.00  0.00     0.158 A 
BRANCH  14  17
ATOM     17  O   UNL     1     -14.139  91.106 -13.432  1.00  0.00    -0.504 OA
ATOM     18  H   UNL     1     -14.634  90.371 -12.938  1.00  0.00     0.293 HD
ENDBRANCH  14  17
BRANCH  16  19
ATOM     19  O   UNL     1     -12.597  88.739 -13.385  1.00  0.00    -0.504 OA
ATOM     20  H   UNL     1     -13.504  88.574 -13.804  1.00  0.00     0.293 HD
ENDBRANCH  16  19
ENDBRANCH   1  11
BRANCH  10  21
ATOM     21  O   UNL     1      -8.378  91.988 -11.100  1.00  0.00    -0.500 OA
ATOM     22  H   UNL     1      -8.065  91.630 -10.206  1.00  0.00     0.294 HD
ENDBRANCH  10  21
BRANCH   5  23
ATOM     23  O   UNL     1      -3.933  90.576 -17.303  1.00  0.00    -0.507 OA
ATOM     24  H   UNL     1      -3.106  91.066 -17.625  1.00  0.00     0.293 HD
ENDBRANCH   5  23
BRANCH   7  25
ATOM     25  O   UNL     1      -3.387  91.646 -12.638  1.00  0.00    -0.507 OA
ATOM     26  H   UNL     1      -3.103  90.959 -11.955  1.00  0.00     0.293 HD
ENDBRANCH   7  25
TORSDOF 6
ENDMDL
MODEL 3
REMARK VINA RESULT:    -5.073      5.919      8.085
REMARK INTER + INTRA:          -6.462
REMARK INTER:                  -6.176
REMARK INTRA:                  -0.286
REMARK UNBOUND:                -0.352
REMARK SMILES Oc1cc(O)c2cc(O)c(-c3ccc(O)c(O)c3)[o+]c2c1
REMARK SMILES IDX 10 1 19 2 20 3 21 4 2 5 3 6 4 7 6 8 7 9 8 10 11 11 12 12
REMARK SMILES IDX 13 13 14 14 18 15 16 16 15 17 17 19 9 21 1 23 5 25
REMARK H PARENT 15 18 17 20 9 22 1 24 5 26
REMARK Flexibility Score: inf
ROOT
ATOM      1  C   UNL     1      -6.110  92.085 -14.670  1.00  0.00     0.402 A 
ATOM      2  O   UNL     1      -6.811  91.031 -14.262  1.00  0.00    -0.202 OA
ATOM      3  C   UNL     1      -6.619  90.438 -13.087  1.00  0.00     0.368 A 
ATOM      4  C   UNL     1      -7.408  89.337 -12.745  1.00  0.00     0.162 A 
ATOM      5  C   UNL     1      -7.231  88.698 -11.518  1.00  0.00     0.128 A 
ATOM      6  C   UNL     1      -6.261  89.161 -10.623  1.00  0.00     0.093 A 
ATOM      7  C   UNL     1      -5.458  90.263 -10.943  1.00  0.00     0.136 A 
ATOM      8  C   UNL     1      -5.632  90.914 -12.192  1.00  0.00     0.125 A 
ATOM      9  C   UNL     1      -4.864  92.017 -12.601  1.00  0.00     0.078 A 
ATOM     10  C   UNL     1      -5.092  92.604 -13.850  1.00  0.00     0.223 A 
ENDROOT
BRANCH   1  11
ATOM     11  C   UNL     1      -6.424  92.662 -15.997  1.00  0.00     0.087 A 
ATOM     12  C   UNL     1      -7.064  93.908 -16.122  1.00  0.00     0.022 A 
ATOM     13  C   UNL     1      -7.370  94.422 -17.384  1.00  0.00     0.051 A 
ATOM     14  C   UNL     1      -7.056  93.694 -18.540  1.00  0.00     0.157 A 
ATOM     15  C   UNL     1      -6.129  91.928 -17.158  1.00  0.00     0.068 A 
ATOM     16  C   UNL     1      -6.435  92.439 -18.424  1.00  0.00     0.158 A 
BRANCH  14  17
ATOM     17  O   UNL     1      -7.363  94.211 -19.798  1.00  0.00    -0.504 OA
ATOM     18  H   UNL     1      -7.248  95.196 -20.010  1.00  0.00     0.293 HD
ENDBRANCH  14  17
BRANCH  16  19
ATOM     19  O   UNL     1      -6.116  91.687 -19.554  1.00  0.00    -0.504 OA
ATOM     20  H   UNL     1      -5.576  90.831 -19.496  1.00  0.00     0.293 HD
ENDBRANCH  16  19
ENDBRANCH   1  11
BRANCH  10  21
ATOM     21  O   UNL     1      -4.295  93.666 -14.278  1.00  0.00    -0.500 OA
ATOM     22  H   UNL     1      -3.698  93.590 -15.094  1.00  0.00     0.294 HD
ENDBRANCH  10  21
BRANCH   5  23
ATOM     23  O   UNL     1      -8.028  87.601 -11.195  1.00  0.00    -0.507 OA
ATOM     24  H   UNL     1      -7.623  86.704 -10.954  1.00  0.00     0.293 HD
ENDBRANCH   5  23
BRANCH   7  25
ATOM     25  O   UNL     1      -4.513  90.667  -9.995  1.00  0.00    -0.507 OA
ATOM     26  H   UNL     1      -4.579  91.513  -9.447  1.00  0.00     0.293 HD
ENDBRANCH   7  25
TORSDOF 6
ENDMDL
MODEL 4
REMARK VINA RESULT:    -5.032      4.276      6.571
REMARK INTER + INTRA:          -6.413
REMARK INTER:                  -6.072
REMARK INTRA:                  -0.341
REMARK UNBOUND:                -0.352
REMARK SMILES Oc1cc(O)c2cc(O)c(-c3ccc(O)c(O)c3)[o+]c2c1
REMARK SMILES IDX 10 1 19 2 20 3 21 4 2 5 3 6 4 7 6 8 7 9 8 10 11 11 12 12
REMARK SMILES IDX 13 13 14 14 18 15 16 16 15 17 17 19 9 21 1 23 5 25
REMARK H PARENT 15 18 17 20 9 22 1 24 5 26
REMARK Flexibility Score: inf
ROOT
ATOM      1  C   UNL     1      -6.161  90.191 -12.475  1.00  0.00     0.402 A 
ATOM      2  O   UNL     1      -5.332  90.718 -11.578  1.00  0.00    -0.202 OA
ATOM      3  C   UNL     1      -5.220  90.265 -10.334  1.00  0.00     0.368 A 
ATOM      4  C   UNL     1      -4.317  90.882  -9.464  1.00  0.00     0.162 A 
ATOM      5  C   UNL     1      -4.177  90.426  -8.154  1.00  0.00     0.128 A 
ATOM      6  C   UNL     1      -4.941  89.343  -7.706  1.00  0.00     0.093 A 
ATOM      7  C   UNL     1      -5.852  88.706  -8.559  1.00  0.00     0.136 A 
ATOM      8  C   UNL     1      -6.001  89.170  -9.892  1.00  0.00     0.125 A 
ATOM      9  C   UNL     1      -6.898  88.602 -10.811  1.00  0.00     0.078 A 
ATOM     10  C   UNL     1      -6.991  89.116 -12.108  1.00  0.00     0.223 A 
ENDROOT
BRANCH   1  11
ATOM     11  C   UNL     1      -6.187  90.779 -13.834  1.00  0.00     0.087 A 
ATOM     12  C   UNL     1      -7.126  91.765 -14.187  1.00  0.00     0.022 A 
ATOM     13  C   UNL     1      -7.145  92.290 -15.482  1.00  0.00     0.051 A 
ATOM     14  C   UNL     1      -6.240  91.828 -16.447  1.00  0.00     0.157 A 
ATOM     15  C   UNL     1      -5.295  90.306 -14.810  1.00  0.00     0.068 A 
ATOM     16  C   UNL     1      -5.313  90.829 -16.108  1.00  0.00     0.158 A 
BRANCH  14  17
ATOM     17  O   UNL     1      -6.262  92.355 -17.737  1.00  0.00    -0.504 OA
ATOM     18  H   UNL     1      -6.541  93.314 -17.915  1.00  0.00     0.293 HD
ENDBRANCH  14  17
BRANCH  16  19
ATOM     19  O   UNL     1      -4.403  90.343 -17.047  1.00  0.00    -0.504 OA
ATOM     20  H   UNL     1      -4.337  90.728 -17.982  1.00  0.00     0.293 HD
ENDBRANCH  16  19
ENDBRANCH   1  11
BRANCH  10  21
ATOM     21  O   UNL     1      -7.918  88.585 -13.006  1.00  0.00    -0.500 OA
ATOM     22  H   UNL     1      -8.882  88.419 -12.741  1.00  0.00     0.294 HD
ENDBRANCH  10  21
BRANCH   5  23
ATOM     23  O   UNL     1      -3.272  91.055  -7.302  1.00  0.00    -0.507 OA
ATOM     24  H   UNL     1      -2.859  91.952  -7.535  1.00  0.00     0.293 HD
ENDBRANCH   5  23
BRANCH   7  25
ATOM     25  O   UNL     1      -6.577  87.630  -8.038  1.00  0.00    -0.507 OA
ATOM     26  H   UNL     1      -7.561  87.475  -8.198  1.00  0.00     0.293 HD
ENDBRANCH   7  25
TORSDOF 6
ENDMDL
MODEL 5
REMARK VINA RESULT:    -5.006      7.276     10.129
REMARK INTER + INTRA:          -6.382
REMARK INTER:                  -6.044
REMARK INTRA:                  -0.338
REMARK UNBOUND:                -0.352
REMARK SMILES Oc1cc(O)c2cc(O)c(-c3ccc(O)c(O)c3)[o+]c2c1
REMARK SMILES IDX 10 1 19 2 20 3 21 4 2 5 3 6 4 7 6 8 7 9 8 10 11 11 12 12
REMARK SMILES IDX 13 13 14 14 18 15 16 16 15 17 17 19 9 21 1 23 5 25
REMARK H PARENT 15 18 17 20 9 22 1 24 5 26
REMARK Flexibility Score: inf
ROOT
ATOM      1  C   UNL     1      -4.042  91.806 -15.839  1.00  0.00     0.402 A 
ATOM      2  O   UNL     1      -4.887  92.409 -16.671  1.00  0.00    -0.202 OA
ATOM      3  C   UNL     1      -4.642  92.571 -17.967  1.00  0.00     0.368 A 
ATOM      4  C   UNL     1      -5.593  93.215 -18.763  1.00  0.00     0.162 A 
ATOM      5  C   UNL     1      -5.365  93.396 -20.127  1.00  0.00     0.128 A 
ATOM      6  C   UNL     1      -4.178  92.929 -20.704  1.00  0.00     0.093 A 
ATOM      7  C   UNL     1      -3.210  92.280 -19.928  1.00  0.00     0.136 A 
ATOM      8  C   UNL     1      -3.437  92.097 -18.539  1.00  0.00     0.125 A 
ATOM      9  C   UNL     1      -2.517  91.470 -17.682  1.00  0.00     0.078 A 
ATOM     10  C   UNL     1      -2.810  91.329 -16.322  1.00  0.00     0.223 A 
ENDROOT
BRANCH   1  11
ATOM     11  C   UNL     1      -4.433  91.678 -14.416  1.00  0.00     0.087 A 
ATOM     12  C   UNL     1      -4.007  92.610 -13.453  1.00  0.00     0.022 A 
ATOM     13  C   UNL     1      -4.370  92.457 -12.112  1.00  0.00     0.051 A 
ATOM     14  C   UNL     1      -5.151  91.364 -11.711  1.00  0.00     0.157 A 
ATOM     15  C   UNL     1      -5.199  90.575 -14.006  1.00  0.00     0.068 A 
ATOM     16  C   UNL     1      -5.564  90.418 -12.664  1.00  0.00     0.158 A 
BRANCH  14  17
ATOM     17  O   UNL     1      -5.513  91.215 -10.373  1.00  0.00    -0.504 OA
ATOM     18  H   UNL     1      -4.824  91.250  -9.630  1.00  0.00     0.293 HD
ENDBRANCH  14  17
BRANCH  16  19
ATOM     19  O   UNL     1      -6.337  89.316 -12.296  1.00  0.00    -0.504 OA
ATOM     20  H   UNL     1      -5.983  88.593 -11.680  1.00  0.00     0.293 HD
ENDBRANCH  16  19
ENDBRANCH   1  11
BRANCH  10  21
ATOM     21  O   UNL     1      -1.875  90.752 -15.462  1.00  0.00    -0.500 OA
ATOM     22  H   UNL     1      -1.586  91.209 -14.605  1.00  0.00     0.294 HD
ENDBRANCH  10  21
BRANCH   5  23
ATOM     23  O   UNL     1      -6.326  94.040 -20.904  1.00  0.00    -0.507 OA
ATOM     24  H   UNL     1      -7.034  94.634 -20.486  1.00  0.00     0.293 HD
ENDBRANCH   5  23
BRANCH   7  25
ATOM     25  O   UNL     1      -2.053  91.841 -20.578  1.00  0.00    -0.507 OA
ATOM     26  H   UNL     1      -1.368  92.452 -20.998  1.00  0.00     0.293 HD
ENDBRANCH   7  25
TORSDOF 6
ENDMDL
MODEL 6
REMARK VINA RESULT:    -4.992      8.909     11.835
REMARK INTER + INTRA:          -6.365
REMARK INTER:                  -6.039
REMARK INTRA:                  -0.326
REMARK UNBOUND:                -0.352
REMARK SMILES Oc1cc(O)c2cc(O)c(-c3ccc(O)c(O)c3)[o+]c2c1
REMARK SMILES IDX 10 1 19 2 20 3 21 4 2 5 3 6 4 7 6 8 7 9 8 10 11 11 12 12
REMARK SMILES IDX 13 13 14 14 18 15 16 16 15 17 17 19 9 21 1 23 5 25
REMARK H PARENT 15 18 17 20 9 22 1 24 5 26
REMARK Flexibility Score: inf
ROOT
ATOM      1  C   UNL     1      -4.026  91.895 -17.813  1.00  0.00     0.402 A 
ATOM      2  O   UNL     1      -4.876  92.684 -18.466  1.00  0.00    -0.202 OA
ATOM      3  C   UNL     1      -4.670  93.107 -19.709  1.00  0.00     0.368 A 
ATOM      4  C   UNL     1      -5.624  93.931 -20.313  1.00  0.00     0.162 A 
ATOM      5  C   UNL     1      -5.436  94.388 -21.617  1.00  0.00     0.128 A 
ATOM      6  C   UNL     1      -4.288  94.019 -22.327  1.00  0.00     0.093 A 
ATOM      7  C   UNL     1      -3.318  93.193 -21.744  1.00  0.00     0.136 A 
ATOM      8  C   UNL     1      -3.504  92.730 -20.415  1.00  0.00     0.125 A 
ATOM      9  C   UNL     1      -2.579  91.910 -19.747  1.00  0.00     0.078 A 
ATOM     10  C   UNL     1      -2.830  91.496 -18.436  1.00  0.00     0.223 A 
ENDROOT
BRANCH   1  11
ATOM     11  C   UNL     1      -4.373  91.484 -16.433  1.00  0.00     0.087 A 
ATOM     12  C   UNL     1      -5.263  90.423 -16.187  1.00  0.00     0.022 A 
ATOM     13  C   UNL     1      -5.593  90.067 -14.877  1.00  0.00     0.051 A 
ATOM     14  C   UNL     1      -5.051  90.772 -13.794  1.00  0.00     0.157 A 
ATOM     15  C   UNL     1      -3.848  92.200 -15.345  1.00  0.00     0.068 A 
ATOM     16  C   UNL     1      -4.176  91.846 -14.031  1.00  0.00     0.158 A 
BRANCH  14  17
ATOM     17  O   UNL     1      -5.381  90.413 -12.488  1.00  0.00    -0.504 OA
ATOM     18  H   UNL     1      -5.330  91.080 -11.726  1.00  0.00     0.293 HD
ENDBRANCH  14  17
BRANCH  16  19
ATOM     19  O   UNL     1      -3.625  92.573 -12.976  1.00  0.00    -0.504 OA
ATOM     20  H   UNL     1      -4.198  93.113 -12.338  1.00  0.00     0.293 HD
ENDBRANCH  16  19
ENDBRANCH   1  11
BRANCH  10  21
ATOM     21  O   UNL     1      -1.888  90.725 -17.754  1.00  0.00    -0.500 OA
ATOM     22  H   UNL     1      -0.979  91.094 -17.501  1.00  0.00     0.294 HD
ENDBRANCH  10  21
BRANCH   5  23
ATOM     23  O   UNL     1      -6.398  95.208 -22.202  1.00  0.00    -0.507 OA
ATOM     24  H   UNL     1      -7.369  95.177 -21.911  1.00  0.00     0.293 HD
ENDBRANCH   5  23
BRANCH   7  25
ATOM     25  O   UNL     1      -2.201  92.867 -22.519  1.00  0.00    -0.507 OA
ATOM     26  H   UNL     1      -2.055  93.177 -23.468  1.00  0.00     0.293 HD
ENDBRANCH   7  25
TORSDOF 6
ENDMDL
MODEL 7
REMARK VINA RESULT:    -4.946      4.665      7.720
REMARK INTER + INTRA:          -6.310
REMARK INTER:                  -6.109
REMARK INTRA:                  -0.201
REMARK UNBOUND:                -0.352
REMARK SMILES Oc1cc(O)c2cc(O)c(-c3ccc(O)c(O)c3)[o+]c2c1
REMARK SMILES IDX 10 1 19 2 20 3 21 4 2 5 3 6 4 7 6 8 7 9 8 10 11 11 12 12
REMARK SMILES IDX 13 13 14 14 18 15 16 16 15 17 17 19 9 21 1 23 5 25
REMARK H PARENT 15 18 17 20 9 22 1 24 5 26
REMARK Flexibility Score: inf
ROOT
ATOM      1  C   UNL     1      -7.515  84.008  -8.795  1.00  0.00     0.402 A 
ATOM      2  O   UNL     1      -8.379  83.028  -9.047  1.00  0.00    -0.202 OA
ATOM      3  C   UNL     1      -9.690  83.221  -9.151  1.00  0.00     0.368 A 
ATOM      4  C   UNL     1     -10.518  82.129  -9.422  1.00  0.00     0.162 A 
ATOM      5  C   UNL     1     -11.897  82.302  -9.540  1.00  0.00     0.128 A 
ATOM      6  C   UNL     1     -12.456  83.576  -9.388  1.00  0.00     0.093 A 
ATOM      7  C   UNL     1     -11.647  84.687  -9.117  1.00  0.00     0.136 A 
ATOM      8  C   UNL     1     -10.244  84.514  -8.993  1.00  0.00     0.125 A 
ATOM      9  C   UNL     1      -9.359  85.567  -8.709  1.00  0.00     0.078 A 
ATOM     10  C   UNL     1      -7.987  85.318  -8.598  1.00  0.00     0.223 A 
ENDROOT
BRANCH   1  11
ATOM     11  C   UNL     1      -6.076  83.667  -8.712  1.00  0.00     0.087 A 
ATOM     12  C   UNL     1      -5.362  83.792  -7.507  1.00  0.00     0.022 A 
ATOM     13  C   UNL     1      -4.000  83.486  -7.458  1.00  0.00     0.051 A 
ATOM     14  C   UNL     1      -3.327  83.065  -8.613  1.00  0.00     0.157 A 
ATOM     15  C   UNL     1      -5.393  83.265  -9.871  1.00  0.00     0.068 A 
ATOM     16  C   UNL     1      -4.028  82.958  -9.826  1.00  0.00     0.158 A 
BRANCH  14  17
ATOM     17  O   UNL     1      -1.968  82.759  -8.560  1.00  0.00    -0.504 OA
ATOM     18  H   UNL     1      -1.278  83.453  -8.294  1.00  0.00     0.293 HD
ENDBRANCH  14  17
BRANCH  16  19
ATOM     19  O   UNL     1      -3.387  82.549 -10.995  1.00  0.00    -0.504 OA
ATOM     20  H   UNL     1      -3.902  82.275 -11.823  1.00  0.00     0.293 HD
ENDBRANCH  16  19
ENDBRANCH   1  11
BRANCH  10  21
ATOM     21  O   UNL     1      -7.114  86.354  -8.266  1.00  0.00    -0.500 OA
ATOM     22  H   UNL     1      -6.766  86.477  -7.322  1.00  0.00     0.294 HD
ENDBRANCH  10  21
BRANCH   5  23
ATOM     23  O   UNL     1     -12.706  81.200  -9.811  1.00  0.00    -0.507 OA
ATOM     24  H   UNL     1     -12.634  80.692 -10.685  1.00  0.00     0.293 HD
ENDBRANCH   5  23
BRANCH   7  25
ATOM     25  O   UNL     1     -12.280  85.926  -8.982  1.00  0.00    -0.507 OA
ATOM     26  H   UNL     1     -12.838  86.363  -9.701  1.00  0.00     0.293 HD
ENDBRANCH   7  25
TORSDOF 6
ENDMDL
MODEL 8
REMARK VINA RESULT:    -4.868      4.972      7.370
REMARK INTER + INTRA:          -6.216
REMARK INTER:                  -5.952
REMARK INTRA:                  -0.264
REMARK UNBOUND:                -0.352
REMARK SMILES Oc1cc(O)c2cc(O)c(-c3ccc(O)c(O)c3)[o+]c2c1
REMARK SMILES IDX 10 1 19 2 20 3 21 4 2 5 3 6 4 7 6 8 7 9 8 10 11 11 12 12
REMARK SMILES IDX 13 13 14 14 18 15 16 16 15 17 17 19 9 21 1 23 5 25
REMARK H PARENT 15 18 17 20 9 22 1 24 5 26
REMARK Flexibility Score: inf
ROOT
ATOM      1  C   UNL     1      -4.566  91.815 -13.603  1.00  0.00     0.402 A 
ATOM      2  O   UNL     1      -5.323  90.729 -13.463  1.00  0.00    -0.202 OA
ATOM      3  C   UNL     1      -5.803  90.322 -12.292  1.00  0.00     0.368 A 
ATOM      4  C   UNL     1      -6.592  89.169 -12.246  1.00  0.00     0.162 A 
ATOM      5  C   UNL     1      -7.112  88.720 -11.032  1.00  0.00     0.128 A 
ATOM      6  C   UNL     1      -6.845  89.426  -9.854  1.00  0.00     0.093 A 
ATOM      7  C   UNL     1      -6.057  90.584  -9.875  1.00  0.00     0.136 A 
ATOM      8  C   UNL     1      -5.523  91.043 -11.107  1.00  0.00     0.125 A 
ATOM      9  C   UNL     1      -4.713  92.185 -11.220  1.00  0.00     0.078 A 
ATOM     10  C   UNL     1      -4.220  92.573 -12.470  1.00  0.00     0.223 A 
ENDROOT
BRANCH   1  11
ATOM     11  C   UNL     1      -4.099  92.171 -14.962  1.00  0.00     0.087 A 
ATOM     12  C   UNL     1      -4.571  93.320 -15.621  1.00  0.00     0.022 A 
ATOM     13  C   UNL     1      -4.132  93.624 -16.913  1.00  0.00     0.051 A 
ATOM     14  C   UNL     1      -3.230  92.778 -17.571  1.00  0.00     0.157 A 
ATOM     15  C   UNL     1      -3.210  91.316 -15.634  1.00  0.00     0.068 A 
ATOM     16  C   UNL     1      -2.769  91.617 -16.928  1.00  0.00     0.158 A 
BRANCH  14  17
ATOM     17  O   UNL     1      -2.794  93.085 -18.859  1.00  0.00    -0.504 OA
ATOM     18  H   UNL     1      -2.987  92.473 -19.645  1.00  0.00     0.293 HD
ENDBRANCH  14  17
BRANCH  16  19
ATOM     19  O   UNL     1      -1.876  90.751 -17.558  1.00  0.00    -0.504 OA
ATOM     20  H   UNL     1      -0.878  90.788 -17.384  1.00  0.00     0.293 HD
ENDBRANCH  16  19
ENDBRANCH   1  11
BRANCH  10  21
ATOM     21  O   UNL     1      -3.375  93.678 -12.575  1.00  0.00    -0.500 OA
ATOM     22  H   UNL     1      -3.189  94.284 -11.785  1.00  0.00     0.294 HD
ENDBRANCH  10  21
BRANCH   5  23
ATOM     23  O   UNL     1      -7.897  87.569 -11.007  1.00  0.00    -0.507 OA
ATOM     24  H   UNL     1      -7.494  86.649 -11.148  1.00  0.00     0.293 HD
ENDBRANCH   5  23
BRANCH   7  25
ATOM     25  O   UNL     1      -5.838  91.235  -8.656  1.00  0.00    -0.507 OA
ATOM     26  H   UNL     1      -5.841  92.237  -8.537  1.00  0.00     0.293 HD
ENDBRANCH   7  25
TORSDOF 6
ENDMDL
