MODEL 1
REMARK VINA RESULT:    -4.925      0.000      0.000
REMARK INTER + INTRA:         -10.950
REMARK INTER:                  -8.956
REMARK INTRA:                  -1.994
REMARK UNBOUND:                -1.994
REMARK SMILES CCCCCCCCCCCCCCCC(=O)[O-]
REMARK SMILES IDX 9 1 10 2 11 3 12 4 13 5 14 6 15 7 16 8 17 9 18 10 8 11 7 12
REMARK SMILES IDX 6 13 5 14 4 15 3 16 2 17 1 18
REMARK H PARENT
REMARK Flexibility Score: inf
ROOT
ATOM      1  C   UNL     1      25.889  11.313  34.739  1.00  0.00     0.000 C 
ENDROOT
BRANCH   1   2
ATOM      2  C   UNL     1      25.163  12.271  35.702  1.00  0.00     0.000 C 
BRANCH   2   3
ATOM      3  C   UNL     1      23.750  12.643  35.220  1.00  0.00     0.000 C 
BRANCH   3   4
ATOM      4  C   UNL     1      23.495  12.224  33.763  1.00  0.00     0.000 C 
BRANCH   4   5
ATOM      5  C   UNL     1      22.213  12.844  33.182  1.00  0.00     0.000 C 
BRANCH   5   6
ATOM      6  C   UNL     1      21.390  13.608  34.237  1.00  0.00     0.006 C 
BRANCH   6   7
ATOM      7  C   UNL     1      19.948  13.102  34.398  1.00  0.00     0.053 C 
BRANCH   7   8
ATOM      8  C   UNL     1      19.796  12.206  35.588  1.00  0.00     0.041 C 
ATOM      9  O   UNL     1      20.572  11.227  35.747  1.00  0.00    -0.550 OA
ATOM     10  O   UNL     1      18.822  12.475  36.542  1.00  0.00    -0.550 OA
ENDBRANCH   7   8
ENDBRANCH   6   7
ENDBRANCH   5   6
ENDBRANCH   4   5
ENDBRANCH   3   4
ENDBRANCH   2   3
ENDBRANCH   1   2
BRANCH   1  11
ATOM     11  C   UNL     1      27.418  11.496  34.656  1.00  0.00     0.000 C 
BRANCH  11  12
ATOM     12  C   UNL     1      27.904  12.957  34.622  1.00  0.00    -0.000 C 
BRANCH  12  13
ATOM     13  C   UNL     1      27.644  13.641  33.269  1.00  0.00    -0.000 C 
BRANCH  13  14
ATOM     14  C   UNL     1      28.503  13.055  32.137  1.00  0.00    -0.000 C 
BRANCH  14  15
ATOM     15  C   UNL     1      27.664  12.303  31.089  1.00  0.00    -0.000 C 
BRANCH  15  16
ATOM     16  C   UNL     1      26.170  12.663  31.159  1.00  0.00    -0.000 C 
BRANCH  16  17
ATOM     17  C   UNL     1      25.259  11.490  30.769  1.00  0.00    -0.003 C 
ATOM     18  C   UNL     1      25.836  10.163  31.253  1.00  0.00     0.004 C 
ENDBRANCH  16  17
ENDBRANCH  15  16
ENDBRANCH  14  15
ENDBRANCH  13  14
ENDBRANCH  12  13
ENDBRANCH  11  12
ENDBRANCH   1  11
TORSDOF 14
ENDMDL
MODEL 2
REMARK VINA RESULT:    -4.865      1.188      3.432
REMARK INTER + INTRA:         -10.840
REMARK INTER:                  -8.791
REMARK INTRA:                  -2.049
REMARK UNBOUND:                -1.994
REMARK SMILES CCCCCCCCCCCCCCCC(=O)[O-]
REMARK SMILES IDX 9 1 10 2 11 3 12 4 13 5 14 6 15 7 16 8 17 9 18 10 8 11 7 12
REMARK SMILES IDX 6 13 5 14 4 15 3 16 2 17 1 18
REMARK H PARENT
REMARK Flexibility Score: inf
ROOT
ATOM      1  C   UNL     1      27.407  10.747  30.765  1.00  0.00     0.000 C 
ENDROOT
BRANCH   1   2
ATOM      2  C   UNL     1      25.937  10.779  31.221  1.00  0.00     0.000 C 
BRANCH   2   3
ATOM      3  C   UNL     1      25.201  12.054  30.775  1.00  0.00     0.000 C 
BRANCH   3   4
ATOM      4  C   UNL     1      24.038  12.421  31.712  1.00  0.00     0.000 C 
BRANCH   4   5
ATOM      5  C   UNL     1      22.971  11.316  31.795  1.00  0.00     0.000 C 
BRANCH   5   6
ATOM      6  C   UNL     1      21.802  11.687  32.727  1.00  0.00     0.006 C 
BRANCH   6   7
ATOM      7  C   UNL     1      22.048  12.943  33.577  1.00  0.00     0.053 C 
BRANCH   7   8
ATOM      8  C   UNL     1      21.251  12.928  34.846  1.00  0.00     0.041 C 
ATOM      9  O   UNL     1      20.436  13.855  35.093  1.00  0.00    -0.550 OA
ATOM     10  O   UNL     1      21.382  11.869  35.737  1.00  0.00    -0.550 OA
ENDBRANCH   7   8
ENDBRANCH   6   7
ENDBRANCH   5   6
ENDBRANCH   4   5
ENDBRANCH   3   4
ENDBRANCH   2   3
ENDBRANCH   1   2
BRANCH   1  11
ATOM     11  C   UNL     1      27.898  12.014  30.035  1.00  0.00     0.000 C 
BRANCH  11  12
ATOM     12  C   UNL     1      28.735  12.982  30.891  1.00  0.00    -0.000 C 
BRANCH  12  13
ATOM     13  C   UNL     1      28.682  12.650  32.392  1.00  0.00    -0.000 C 
BRANCH  13  14
ATOM     14  C   UNL     1      27.822  13.647  33.186  1.00  0.00    -0.000 C 
BRANCH  14  15
ATOM     15  C   UNL     1      27.593  13.200  34.641  1.00  0.00    -0.000 C 
BRANCH  15  16
ATOM     16  C   UNL     1      27.544  11.671  34.789  1.00  0.00    -0.000 C 
BRANCH  16  17
ATOM     17  C   UNL     1      26.109  11.126  34.843  1.00  0.00    -0.003 C 
ATOM     18  C   UNL     1      25.143  12.177  35.383  1.00  0.00     0.004 C 
ENDBRANCH  16  17
ENDBRANCH  15  16
ENDBRANCH  14  15
ENDBRANCH  13  14
ENDBRANCH  12  13
ENDBRANCH  11  12
ENDBRANCH   1  11
TORSDOF 14
ENDMDL
MODEL 3
REMARK VINA RESULT:    -4.683      0.897      3.054
REMARK INTER + INTRA:         -10.509
REMARK INTER:                  -8.787
REMARK INTRA:                  -1.722
REMARK UNBOUND:                -1.994
REMARK SMILES CCCCCCCCCCCCCCCC(=O)[O-]
REMARK SMILES IDX 9 1 10 2 11 3 12 4 13 5 14 6 15 7 16 8 17 9 18 10 8 11 7 12
REMARK SMILES IDX 6 13 5 14 4 15 3 16 2 17 1 18
REMARK H PARENT
REMARK Flexibility Score: inf
ROOT
ATOM      1  C   UNL     1      25.267  10.982  30.541  1.00  0.00     0.000 C 
ENDROOT
BRANCH   1   2
ATOM      2  C   UNL     1      24.113  10.872  31.555  1.00  0.00     0.000 C 
BRANCH   2   3
ATOM      3  C   UNL     1      23.611  12.243  32.038  1.00  0.00     0.000 C 
BRANCH   3   4
ATOM      4  C   UNL     1      22.381  12.130  32.953  1.00  0.00     0.000 C 
BRANCH   4   5
ATOM      5  C   UNL     1      21.496  13.388  32.918  1.00  0.00     0.000 C 
BRANCH   5   6
ATOM      6  C   UNL     1      20.935  13.760  34.303  1.00  0.00     0.006 C 
BRANCH   6   7
ATOM      7  C   UNL     1      21.170  12.694  35.385  1.00  0.00     0.053 C 
BRANCH   7   8
ATOM      8  C   UNL     1      19.913  11.956  35.730  1.00  0.00     0.041 C 
ATOM      9  O   UNL     1      18.998  12.531  36.374  1.00  0.00    -0.550 OA
ATOM     10  O   UNL     1      19.738  10.644  35.305  1.00  0.00    -0.550 OA
ENDBRANCH   7   8
ENDBRANCH   6   7
ENDBRANCH   5   6
ENDBRANCH   4   5
ENDBRANCH   3   4
ENDBRANCH   2   3
ENDBRANCH   1   2
BRANCH   1  11
ATOM     11  C   UNL     1      26.607  10.371  30.999  1.00  0.00     0.000 C 
BRANCH  11  12
ATOM     12  C   UNL     1      27.865  11.142  30.559  1.00  0.00    -0.000 C 
BRANCH  12  13
ATOM     13  C   UNL     1      27.828  12.626  30.966  1.00  0.00    -0.000 C 
BRANCH  13  14
ATOM     14  C   UNL     1      28.386  12.864  32.378  1.00  0.00    -0.000 C 
BRANCH  14  15
ATOM     15  C   UNL     1      27.322  13.410  33.347  1.00  0.00    -0.000 C 
BRANCH  15  16
ATOM     16  C   UNL     1      27.259  12.616  34.662  1.00  0.00    -0.000 C 
BRANCH  16  17
ATOM     17  C   UNL     1      25.996  11.749  34.772  1.00  0.00    -0.003 C 
ATOM     18  C   UNL     1      24.931  12.437  35.621  1.00  0.00     0.004 C 
ENDBRANCH  16  17
ENDBRANCH  15  16
ENDBRANCH  14  15
ENDBRANCH  13  14
ENDBRANCH  12  13
ENDBRANCH  11  12
ENDBRANCH   1  11
TORSDOF 14
ENDMDL
MODEL 4
REMARK VINA RESULT:    -4.637      2.476      6.545
REMARK INTER + INTRA:         -10.426
REMARK INTER:                  -9.180
REMARK INTRA:                  -1.246
REMARK UNBOUND:                -1.994
REMARK SMILES CCCCCCCCCCCCCCCC(=O)[O-]
REMARK SMILES IDX 9 1 10 2 11 3 12 4 13 5 14 6 15 7 16 8 17 9 18 10 8 11 7 12
REMARK SMILES IDX 6 13 5 14 4 15 3 16 2 17 1 18
REMARK H PARENT
REMARK Flexibility Score: inf
ROOT
ATOM      1  C   UNL     1      24.737  12.625  35.953  1.00  0.00     0.000 C 
ENDROOT
BRANCH   1   2
ATOM      2  C   UNL     1      25.730  12.337  34.812  1.00  0.00     0.000 C 
BRANCH   2   3
ATOM      3  C   UNL     1      27.058  13.098  34.971  1.00  0.00     0.000 C 
BRANCH   3   4
ATOM      4  C   UNL     1      27.605  13.613  33.630  1.00  0.00     0.000 C 
BRANCH   4   5
ATOM      5  C   UNL     1      28.251  12.501  32.786  1.00  0.00     0.000 C 
BRANCH   5   6
ATOM      6  C   UNL     1      27.708  12.456  31.345  1.00  0.00     0.006 C 
BRANCH   6   7
ATOM      7  C   UNL     1      26.179  12.331  31.252  1.00  0.00     0.053 C 
BRANCH   7   8
ATOM      8  C   UNL     1      25.728  10.903  31.292  1.00  0.00     0.041 C 
ATOM      9  O   UNL     1      26.554   9.973  31.100  1.00  0.00    -0.550 OA
ATOM     10  O   UNL     1      24.402  10.600  31.579  1.00  0.00    -0.550 OA
ENDBRANCH   7   8
ENDBRANCH   6   7
ENDBRANCH   5   6
ENDBRANCH   4   5
ENDBRANCH   3   4
ENDBRANCH   2   3
ENDBRANCH   1   2
BRANCH   1  11
ATOM     11  C   UNL     1      23.247  12.477  35.583  1.00  0.00     0.000 C 
BRANCH  11  12
ATOM     12  C   UNL     1      22.924  12.633  34.086  1.00  0.00    -0.000 C 
BRANCH  12  13
ATOM     13  C   UNL     1      21.595  13.368  33.835  1.00  0.00    -0.000 C 
BRANCH  13  14
ATOM     14  C   UNL     1      20.813  13.631  35.132  1.00  0.00    -0.000 C 
BRANCH  14  15
ATOM     15  C   UNL     1      19.383  13.065  35.084  1.00  0.00    -0.000 C 
BRANCH  15  16
ATOM     16  C   UNL     1      19.188  11.871  36.033  1.00  0.00    -0.000 C 
BRANCH  16  17
ATOM     17  C   UNL     1      20.012  10.644  35.618  1.00  0.00    -0.003 C 
ATOM     18  C   UNL     1      19.408   9.361  36.183  1.00  0.00     0.004 C 
ENDBRANCH  16  17
ENDBRANCH  15  16
ENDBRANCH  14  15
ENDBRANCH  13  14
ENDBRANCH  12  13
ENDBRANCH  11  12
ENDBRANCH   1  11
TORSDOF 14
ENDMDL
MODEL 5
REMARK VINA RESULT:    -4.580      2.418      6.617
REMARK INTER + INTRA:         -10.322
REMARK INTER:                  -9.000
REMARK INTRA:                  -1.323
REMARK UNBOUND:                -1.994
REMARK SMILES CCCCCCCCCCCCCCCC(=O)[O-]
REMARK SMILES IDX 9 1 10 2 11 3 12 4 13 5 14 6 15 7 16 8 17 9 18 10 8 11 7 12
REMARK SMILES IDX 6 13 5 14 4 15 3 16 2 17 1 18
REMARK H PARENT
REMARK Flexibility Score: inf
ROOT
ATOM      1  C   UNL     1      25.258  10.716  31.872  1.00  0.00     0.000 C 
ENDROOT
BRANCH   1   2
ATOM      2  C   UNL     1      26.154  10.393  30.663  1.00  0.00     0.000 C 
BRANCH   2   3
ATOM      3  C   UNL     1      27.629  10.767  30.896  1.00  0.00     0.000 C 
BRANCH   3   4
ATOM      4  C   UNL     1      27.970  12.169  30.366  1.00  0.00     0.000 C 
BRANCH   4   5
ATOM      5  C   UNL     1      28.585  13.078  31.445  1.00  0.00     0.000 C 
BRANCH   5   6
ATOM      6  C   UNL     1      28.388  12.527  32.870  1.00  0.00     0.006 C 
BRANCH   6   7
ATOM      7  C   UNL     1      27.353  13.298  33.706  1.00  0.00     0.053 C 
BRANCH   7   8
ATOM      8  C   UNL     1      26.700  12.426  34.734  1.00  0.00     0.041 C 
ATOM      9  O   UNL     1      27.055  11.226  34.864  1.00  0.00    -0.550 OA
ATOM     10  O   UNL     1      25.726  12.952  35.574  1.00  0.00    -0.550 OA
ENDBRANCH   7   8
ENDBRANCH   6   7
ENDBRANCH   5   6
ENDBRANCH   4   5
ENDBRANCH   3   4
ENDBRANCH   2   3
ENDBRANCH   1   2
BRANCH   1  11
ATOM     11  C   UNL     1      24.082  11.671  31.585  1.00  0.00     0.000 C 
BRANCH  11  12
ATOM     12  C   UNL     1      23.469  12.350  32.823  1.00  0.00    -0.000 C 
BRANCH  12  13
ATOM     13  C   UNL     1      21.956  12.102  32.952  1.00  0.00    -0.000 C 
BRANCH  13  14
ATOM     14  C   UNL     1      21.234  13.237  33.695  1.00  0.00    -0.000 C 
BRANCH  14  15
ATOM     15  C   UNL     1      21.196  13.015  35.218  1.00  0.00    -0.000 C 
BRANCH  15  16
ATOM     16  C   UNL     1      20.754  11.592  35.596  1.00  0.00    -0.000 C 
BRANCH  16  17
ATOM     17  C   UNL     1      19.233  11.470  35.770  1.00  0.00    -0.003 C 
ATOM     18  C   UNL     1      18.642  12.753  36.347  1.00  0.00     0.004 C 
ENDBRANCH  16  17
ENDBRANCH  15  16
ENDBRANCH  14  15
ENDBRANCH  13  14
ENDBRANCH  12  13
ENDBRANCH  11  12
ENDBRANCH   1  11
TORSDOF 14
ENDMDL
MODEL 6
REMARK VINA RESULT:    -4.539      2.793      6.518
REMARK INTER + INTRA:         -10.247
REMARK INTER:                  -8.990
REMARK INTRA:                  -1.258
REMARK UNBOUND:                -1.994
REMARK SMILES CCCCCCCCCCCCCCCC(=O)[O-]
REMARK SMILES IDX 9 1 10 2 11 3 12 4 13 5 14 6 15 7 16 8 17 9 18 10 8 11 7 12
REMARK SMILES IDX 6 13 5 14 4 15 3 16 2 17 1 18
REMARK H PARENT
REMARK Flexibility Score: inf
ROOT
ATOM      1  C   UNL     1      26.460  11.231  34.312  1.00  0.00     0.000 C 
ENDROOT
BRANCH   1   2
ATOM      2  C   UNL     1      27.540  12.176  34.869  1.00  0.00     0.000 C 
BRANCH   2   3
ATOM      3  C   UNL     1      28.614  12.535  33.828  1.00  0.00     0.000 C 
BRANCH   3   4
ATOM      4  C   UNL     1      28.046  13.347  32.653  1.00  0.00     0.000 C 
BRANCH   4   5
ATOM      5  C   UNL     1      28.547  12.846  31.287  1.00  0.00     0.000 C 
BRANCH   5   6
ATOM      6  C   UNL     1      27.727  11.656  30.753  1.00  0.00     0.006 C 
BRANCH   6   7
ATOM      7  C   UNL     1      26.857  11.988  29.530  1.00  0.00     0.053 C 
BRANCH   7   8
ATOM      8  C   UNL     1      25.779  12.975  29.860  1.00  0.00     0.041 C 
ATOM      9  O   UNL     1      24.875  12.673  30.682  1.00  0.00    -0.550 OA
ATOM     10  O   UNL     1      25.795  14.241  29.287  1.00  0.00    -0.550 OA
ENDBRANCH   7   8
ENDBRANCH   6   7
ENDBRANCH   5   6
ENDBRANCH   4   5
ENDBRANCH   3   4
ENDBRANCH   2   3
ENDBRANCH   1   2
BRANCH   1  11
ATOM     11  C   UNL     1      25.062  11.857  34.137  1.00  0.00     0.000 C 
BRANCH  11  12
ATOM     12  C   UNL     1      24.485  12.537  35.393  1.00  0.00    -0.000 C 
BRANCH  12  13
ATOM     13  C   UNL     1      22.949  12.610  35.380  1.00  0.00    -0.000 C 
BRANCH  13  14
ATOM     14  C   UNL     1      22.370  12.603  33.956  1.00  0.00    -0.000 C 
BRANCH  14  15
ATOM     15  C   UNL     1      21.303  13.692  33.747  1.00  0.00    -0.000 C 
BRANCH  15  16
ATOM     16  C   UNL     1      20.466  13.950  35.010  1.00  0.00    -0.000 C 
BRANCH  16  17
ATOM     17  C   UNL     1      19.156  13.148  35.028  1.00  0.00    -0.003 C 
ATOM     18  C   UNL     1      19.139  12.152  36.183  1.00  0.00     0.004 C 
ENDBRANCH  16  17
ENDBRANCH  15  16
ENDBRANCH  14  15
ENDBRANCH  13  14
ENDBRANCH  12  13
ENDBRANCH  11  12
ENDBRANCH   1  11
TORSDOF 14
ENDMDL
MODEL 7
REMARK VINA RESULT:    -4.483      1.431      2.488
REMARK INTER + INTRA:         -10.146
REMARK INTER:                  -8.446
REMARK INTRA:                  -1.701
REMARK UNBOUND:                -1.994
REMARK SMILES CCCCCCCCCCCCCCCC(=O)[O-]
REMARK SMILES IDX 9 1 10 2 11 3 12 4 13 5 14 6 15 7 16 8 17 9 18 10 8 11 7 12
REMARK SMILES IDX 6 13 5 14 4 15 3 16 2 17 1 18
REMARK H PARENT
REMARK Flexibility Score: inf
ROOT
ATOM      1  C   UNL     1      28.069  12.588  34.346  1.00  0.00     0.000 C 
ENDROOT
BRANCH   1   2
ATOM      2  C   UNL     1      27.176  11.359  34.596  1.00  0.00     0.000 C 
BRANCH   2   3
ATOM      3  C   UNL     1      25.676  11.671  34.449  1.00  0.00     0.000 C 
BRANCH   3   4
ATOM      4  C   UNL     1      25.022  12.055  35.786  1.00  0.00     0.000 C 
BRANCH   4   5
ATOM      5  C   UNL     1      23.579  12.563  35.616  1.00  0.00     0.000 C 
BRANCH   5   6
ATOM      6  C   UNL     1      23.172  12.716  34.139  1.00  0.00     0.006 C 
BRANCH   6   7
ATOM      7  C   UNL     1      21.673  12.504  33.873  1.00  0.00     0.053 C 
BRANCH   7   8
ATOM      8  C   UNL     1      20.875  13.744  34.136  1.00  0.00     0.041 C 
ATOM      9  O   UNL     1      20.772  14.631  33.248  1.00  0.00    -0.550 OA
ATOM     10  O   UNL     1      20.215  13.903  35.349  1.00  0.00    -0.550 OA
ENDBRANCH   7   8
ENDBRANCH   6   7
ENDBRANCH   5   6
ENDBRANCH   4   5
ENDBRANCH   3   4
ENDBRANCH   2   3
ENDBRANCH   1   2
BRANCH   1  11
ATOM     11  C   UNL     1      27.724  13.408  33.087  1.00  0.00     0.000 C 
BRANCH  11  12
ATOM     12  C   UNL     1      28.558  13.075  31.837  1.00  0.00    -0.000 C 
BRANCH  12  13
ATOM     13  C   UNL     1      28.076  11.803  31.119  1.00  0.00    -0.000 C 
BRANCH  13  14
ATOM     14  C   UNL     1      27.591  12.081  29.687  1.00  0.00    -0.000 C 
BRANCH  14  15
ATOM     15  C   UNL     1      26.502  13.166  29.633  1.00  0.00    -0.000 C 
BRANCH  15  16
ATOM     16  C   UNL     1      25.093  12.580  29.446  1.00  0.00    -0.000 C 
BRANCH  16  17
ATOM     17  C   UNL     1      24.371  12.334  30.779  1.00  0.00    -0.003 C 
ATOM     18  C   UNL     1      24.412  10.856  31.159  1.00  0.00     0.004 C 
ENDBRANCH  16  17
ENDBRANCH  15  16
ENDBRANCH  14  15
ENDBRANCH  13  14
ENDBRANCH  12  13
ENDBRANCH  11  12
ENDBRANCH   1  11
TORSDOF 14
ENDMDL
MODEL 8
REMARK VINA RESULT:    -4.404      3.086      7.123
REMARK INTER + INTRA:         -10.001
REMARK INTER:                  -8.526
REMARK INTRA:                  -1.475
REMARK UNBOUND:                -1.994
REMARK SMILES CCCCCCCCCCCCCCCC(=O)[O-]
REMARK SMILES IDX 9 1 10 2 11 3 12 4 13 5 14 6 15 7 16 8 17 9 18 10 8 11 7 12
REMARK SMILES IDX 6 13 5 14 4 15 3 16 2 17 1 18
REMARK H PARENT
REMARK Flexibility Score: inf
ROOT
ATOM      1  C   UNL     1      22.323  11.968  32.966  1.00  0.00     0.000 C 
ENDROOT
BRANCH   1   2
ATOM      2  C   UNL     1      23.751  12.247  33.470  1.00  0.00     0.000 C 
BRANCH   2   3
ATOM      3  C   UNL     1      23.797  12.606  34.965  1.00  0.00     0.000 C 
BRANCH   3   4
ATOM      4  C   UNL     1      25.122  12.196  35.628  1.00  0.00     0.000 C 
BRANCH   4   5
ATOM      5  C   UNL     1      26.120  11.581  34.631  1.00  0.00     0.000 C 
BRANCH   5   6
ATOM      6  C   UNL     1      27.484  12.296  34.637  1.00  0.00     0.006 C 
BRANCH   6   7
ATOM      7  C   UNL     1      27.683  13.284  33.475  1.00  0.00     0.053 C 
BRANCH   7   8
ATOM      8  C   UNL     1      27.380  12.658  32.148  1.00  0.00     0.041 C 
ATOM      9  O   UNL     1      26.504  13.160  31.397  1.00  0.00    -0.550 OA
ATOM     10  O   UNL     1      28.093  11.542  31.726  1.00  0.00    -0.550 OA
ENDBRANCH   7   8
ENDBRANCH   6   7
ENDBRANCH   5   6
ENDBRANCH   4   5
ENDBRANCH   3   4
ENDBRANCH   2   3
ENDBRANCH   1   2
BRANCH   1  11
ATOM     11  C   UNL     1      21.645  13.139  32.227  1.00  0.00     0.000 C 
BRANCH  11  12
ATOM     12  C   UNL     1      20.831  14.095  33.119  1.00  0.00    -0.000 C 
BRANCH  12  13
ATOM     13  C   UNL     1      19.691  13.385  33.869  1.00  0.00    -0.000 C 
BRANCH  13  14
ATOM     14  C   UNL     1      19.863  13.443  35.395  1.00  0.00    -0.000 C 
BRANCH  14  15
ATOM     15  C   UNL     1      19.369  12.164  36.094  1.00  0.00    -0.000 C 
BRANCH  15  16
ATOM     16  C   UNL     1      20.198  10.926  35.713  1.00  0.00    -0.000 C 
BRANCH  16  17
ATOM     17  C   UNL     1      19.470   9.609  36.017  1.00  0.00    -0.003 C 
ATOM     18  C   UNL     1      18.658   9.140  34.813  1.00  0.00     0.004 C 
ENDBRANCH  16  17
ENDBRANCH  15  16
ENDBRANCH  14  15
ENDBRANCH  13  14
ENDBRANCH  12  13
ENDBRANCH  11  12
ENDBRANCH   1  11
TORSDOF 14
ENDMDL
MODEL 9
REMARK VINA RESULT:    -4.397      2.011      6.152
REMARK INTER + INTRA:          -9.990
REMARK INTER:                  -8.319
REMARK INTRA:                  -1.671
REMARK UNBOUND:                -1.994
REMARK SMILES CCCCCCCCCCCCCCCC(=O)[O-]
REMARK SMILES IDX 9 1 10 2 11 3 12 4 13 5 14 6 15 7 16 8 17 9 18 10 8 11 7 12
REMARK SMILES IDX 6 13 5 14 4 15 3 16 2 17 1 18
REMARK H PARENT
REMARK Flexibility Score: inf
ROOT
ATOM      1  C   UNL     1      24.842  10.884  31.789  1.00  0.00     0.000 C 
ENDROOT
BRANCH   1   2
ATOM      2  C   UNL     1      26.337  11.129  31.517  1.00  0.00     0.000 C 
BRANCH   2   3
ATOM      3  C   UNL     1      26.641  12.587  31.129  1.00  0.00     0.000 C 
BRANCH   3   4
ATOM      4  C   UNL     1      27.522  13.300  32.168  1.00  0.00     0.000 C 
BRANCH   4   5
ATOM      5  C   UNL     1      28.409  12.327  32.963  1.00  0.00     0.000 C 
BRANCH   5   6
ATOM      6  C   UNL     1      28.121  12.359  34.475  1.00  0.00     0.006 C 
BRANCH   6   7
ATOM      7  C   UNL     1      26.896  13.203  34.866  1.00  0.00     0.053 C 
BRANCH   7   8
ATOM      8  C   UNL     1      25.732  12.350  35.268  1.00  0.00     0.041 C 
ATOM      9  O   UNL     1      24.676  12.882  35.700  1.00  0.00    -0.550 OA
ATOM     10  O   UNL     1      25.801  10.968  35.129  1.00  0.00    -0.550 OA
ENDBRANCH   7   8
ENDBRANCH   6   7
ENDBRANCH   5   6
ENDBRANCH   4   5
ENDBRANCH   3   4
ENDBRANCH   2   3
ENDBRANCH   1   2
BRANCH   1  11
ATOM     11  C   UNL     1      24.000  12.152  32.038  1.00  0.00     0.000 C 
BRANCH  11  12
ATOM     12  C   UNL     1      22.685  11.926  32.807  1.00  0.00    -0.000 C 
BRANCH  12  13
ATOM     13  C   UNL     1      21.466  12.541  32.098  1.00  0.00    -0.000 C 
BRANCH  13  14
ATOM     14  C   UNL     1      21.217  14.000  32.510  1.00  0.00    -0.000 C 
BRANCH  14  15
ATOM     15  C   UNL     1      20.859  14.140  34.000  1.00  0.00    -0.000 C 
BRANCH  15  16
ATOM     16  C   UNL     1      19.623  13.313  34.390  1.00  0.00    -0.000 C 
BRANCH  16  17
ATOM     17  C   UNL     1      19.771  12.636  35.760  1.00  0.00    -0.003 C 
ATOM     18  C   UNL     1      20.342  11.229  35.618  1.00  0.00     0.004 C 
ENDBRANCH  16  17
ENDBRANCH  15  16
ENDBRANCH  14  15
ENDBRANCH  13  14
ENDBRANCH  12  13
ENDBRANCH  11  12
ENDBRANCH   1  11
TORSDOF 14
ENDMDL
