MODEL 1
REMARK VINA RESULT:    -3.055      0.000      0.000
REMARK INTER + INTRA:          -6.135
REMARK INTER:                  -4.841
REMARK INTRA:                  -1.294
REMARK UNBOUND:                -1.294
REMARK SMILES CCCCCCCCCCCC(=O)[O-]
REMARK SMILES IDX 7 1 8 2 9 3 10 4 11 5 12 6 13 7 14 8 6 9 5 10 4 11 3 12 2 13
REMARK SMILES IDX 1 14
REMARK H PARENT
REMARK Flexibility Score: inf
ROOT
ATOM      1  C   UNL     1     -18.203 -13.306  26.638  1.00  0.00     0.000 C 
ENDROOT
BRANCH   1   2
ATOM      2  C   UNL     1     -17.212 -14.315  27.240  1.00  0.00     0.000 C 
BRANCH   2   3
ATOM      3  C   UNL     1     -16.028 -14.612  26.307  1.00  0.00     0.000 C 
BRANCH   3   4
ATOM      4  C   UNL     1     -15.629 -16.093  26.382  1.00  0.00     0.006 C 
BRANCH   4   5
ATOM      5  C   UNL     1     -16.142 -16.769  27.660  1.00  0.00     0.053 C 
BRANCH   5   6
ATOM      6  C   UNL     1     -15.018 -17.205  28.548  1.00  0.00     0.041 C 
ATOM      7  O   UNL     1     -13.908 -16.612  28.506  1.00  0.00    -0.550 OA
ATOM      8  O   UNL     1     -15.185 -18.290  29.400  1.00  0.00    -0.550 OA
ENDBRANCH   5   6
ENDBRANCH   4   5
ENDBRANCH   3   4
ENDBRANCH   2   3
ENDBRANCH   1   2
BRANCH   1   9
ATOM      9  C   UNL     1     -17.568 -12.429  25.548  1.00  0.00     0.000 C 
BRANCH   9  10
ATOM     10  C   UNL     1     -18.314 -12.585  24.215  1.00  0.00    -0.000 C 
BRANCH  10  11
ATOM     11  C   UNL     1     -17.525 -13.413  23.187  1.00  0.00    -0.000 C 
BRANCH  11  12
ATOM     12  C   UNL     1     -18.375 -14.512  22.532  1.00  0.00    -0.000 C 
BRANCH  12  13
ATOM     13  C   UNL     1     -19.043 -15.394  23.594  1.00  0.00    -0.003 C 
ATOM     14  C   UNL     1     -18.204 -16.634  23.887  1.00  0.00     0.004 C 
ENDBRANCH  12  13
ENDBRANCH  11  12
ENDBRANCH  10  11
ENDBRANCH   9  10
ENDBRANCH   1   9
TORSDOF 10
ENDMDL
MODEL 2
REMARK VINA RESULT:    -2.977      3.391      6.578
REMARK INTER + INTRA:          -6.012
REMARK INTER:                  -5.035
REMARK INTRA:                  -0.978
REMARK UNBOUND:                -1.294
REMARK SMILES CCCCCCCCCCCC(=O)[O-]
REMARK SMILES IDX 7 1 8 2 9 3 10 4 11 5 12 6 13 7 14 8 6 9 5 10 4 11 3 12 2 13
REMARK SMILES IDX 1 14
REMARK H PARENT
REMARK Flexibility Score: inf
ROOT
ATOM      1  C   UNL     1     -15.506 -17.050  28.315  1.00  0.00     0.000 C 
ENDROOT
BRANCH   1   2
ATOM      2  C   UNL     1     -15.068 -16.331  27.029  1.00  0.00     0.000 C 
BRANCH   2   3
ATOM      3  C   UNL     1     -16.199 -16.226  25.995  1.00  0.00     0.000 C 
BRANCH   3   4
ATOM      4  C   UNL     1     -16.521 -14.757  25.682  1.00  0.00     0.006 C 
BRANCH   4   5
ATOM      5  C   UNL     1     -17.202 -14.047  26.859  1.00  0.00     0.053 C 
BRANCH   5   6
ATOM      6  C   UNL     1     -18.442 -13.325  26.430  1.00  0.00     0.041 C 
ATOM      7  O   UNL     1     -19.574 -13.846  26.607  1.00  0.00    -0.550 OA
ATOM      8  O   UNL     1     -18.345 -12.089  25.803  1.00  0.00    -0.550 OA
ENDBRANCH   5   6
ENDBRANCH   4   5
ENDBRANCH   3   4
ENDBRANCH   2   3
ENDBRANCH   1   2
BRANCH   1   9
ATOM      9  C   UNL     1     -14.929 -16.400  29.583  1.00  0.00     0.000 C 
BRANCH   9  10
ATOM     10  C   UNL     1     -14.483 -14.957  29.305  1.00  0.00    -0.000 C 
BRANCH  10  11
ATOM     11  C   UNL     1     -13.054 -14.674  29.795  1.00  0.00    -0.000 C 
BRANCH  11  12
ATOM     12  C   UNL     1     -11.981 -15.299  28.891  1.00  0.00    -0.000 C 
BRANCH  12  13
ATOM     13  C   UNL     1     -10.920 -16.030  29.722  1.00  0.00    -0.003 C 
ATOM     14  C   UNL     1     -11.381 -17.437  30.090  1.00  0.00     0.004 C 
ENDBRANCH  12  13
ENDBRANCH  11  12
ENDBRANCH  10  11
ENDBRANCH   9  10
ENDBRANCH   1   9
TORSDOF 10
ENDMDL
MODEL 3
REMARK VINA RESULT:    -2.970      1.239      2.773
REMARK INTER + INTRA:          -6.000
REMARK INTER:                  -5.073
REMARK INTRA:                  -0.927
REMARK UNBOUND:                -1.294
REMARK SMILES CCCCCCCCCCCC(=O)[O-]
REMARK SMILES IDX 7 1 8 2 9 3 10 4 11 5 12 6 13 7 14 8 6 9 5 10 4 11 3 12 2 13
REMARK SMILES IDX 1 14
REMARK H PARENT
REMARK Flexibility Score: inf
ROOT
ATOM      1  C   UNL     1     -17.127 -16.401  26.128  1.00  0.00     0.000 C 
ENDROOT
BRANCH   1   2
ATOM      2  C   UNL     1     -15.680 -15.995  26.447  1.00  0.00     0.000 C 
BRANCH   2   3
ATOM      3  C   UNL     1     -15.597 -14.741  27.329  1.00  0.00     0.000 C 
BRANCH   3   4
ATOM      4  C   UNL     1     -14.516 -14.900  28.409  1.00  0.00     0.006 C 
BRANCH   4   5
ATOM      5  C   UNL     1     -13.808 -16.259  28.326  1.00  0.00     0.053 C 
BRANCH   5   6
ATOM      6  C   UNL     1     -14.125 -17.123  29.508  1.00  0.00     0.041 C 
ATOM      7  O   UNL     1     -14.881 -18.121  29.380  1.00  0.00    -0.550 OA
ATOM      8  O   UNL     1     -13.611 -16.806  30.759  1.00  0.00    -0.550 OA
ENDBRANCH   5   6
ENDBRANCH   4   5
ENDBRANCH   3   4
ENDBRANCH   2   3
ENDBRANCH   1   2
BRANCH   1   9
ATOM      9  C   UNL     1     -17.358 -16.647  24.629  1.00  0.00     0.000 C 
BRANCH   9  10
ATOM     10  C   UNL     1     -18.620 -15.921  24.142  1.00  0.00    -0.000 C 
BRANCH  10  11
ATOM     11  C   UNL     1     -18.329 -14.919  23.013  1.00  0.00    -0.000 C 
BRANCH  11  12
ATOM     12  C   UNL     1     -17.435 -13.756  23.468  1.00  0.00    -0.000 C 
BRANCH  12  13
ATOM     13  C   UNL     1     -18.274 -12.617  24.060  1.00  0.00    -0.003 C 
ATOM     14  C   UNL     1     -17.941 -12.395  25.532  1.00  0.00     0.004 C 
ENDBRANCH  12  13
ENDBRANCH  11  12
ENDBRANCH  10  11
ENDBRANCH   9  10
ENDBRANCH   1   9
TORSDOF 10
ENDMDL
MODEL 4
REMARK VINA RESULT:    -2.950      3.516      6.647
REMARK INTER + INTRA:          -5.969
REMARK INTER:                  -5.201
REMARK INTRA:                  -0.768
REMARK UNBOUND:                -1.294
REMARK SMILES CCCCCCCCCCCC(=O)[O-]
REMARK SMILES IDX 7 1 8 2 9 3 10 4 11 5 12 6 13 7 14 8 6 9 5 10 4 11 3 12 2 13
REMARK SMILES IDX 1 14
REMARK H PARENT
REMARK Flexibility Score: inf
ROOT
ATOM      1  C   UNL     1     -15.562 -15.722  26.645  1.00  0.00     0.000 C 
ENDROOT
BRANCH   1   2
ATOM      2  C   UNL     1     -16.424 -16.298  25.509  1.00  0.00     0.000 C 
BRANCH   2   3
ATOM      3  C   UNL     1     -17.575 -15.363  25.108  1.00  0.00     0.000 C 
BRANCH   3   4
ATOM      4  C   UNL     1     -17.051 -13.957  24.782  1.00  0.00     0.006 C 
BRANCH   4   5
ATOM      5  C   UNL     1     -17.650 -13.400  23.483  1.00  0.00     0.053 C 
BRANCH   5   6
ATOM      6  C   UNL     1     -18.706 -12.373  23.754  1.00  0.00     0.041 C 
ATOM      7  O   UNL     1     -18.567 -11.554  24.700  1.00  0.00    -0.550 OA
ATOM      8  O   UNL     1     -19.861 -12.343  22.982  1.00  0.00    -0.550 OA
ENDBRANCH   5   6
ENDBRANCH   4   5
ENDBRANCH   3   4
ENDBRANCH   2   3
ENDBRANCH   1   2
BRANCH   1   9
ATOM      9  C   UNL     1     -16.217 -15.883  28.026  1.00  0.00     0.000 C 
BRANCH   9  10
ATOM     10  C   UNL     1     -16.491 -17.363  28.333  1.00  0.00    -0.000 C 
BRANCH  10  11
ATOM     11  C   UNL     1     -15.473 -17.962  29.318  1.00  0.00    -0.000 C 
BRANCH  11  12
ATOM     12  C   UNL     1     -14.559 -16.900  29.946  1.00  0.00    -0.000 C 
BRANCH  12  13
ATOM     13  C   UNL     1     -13.089 -17.169  29.601  1.00  0.00    -0.003 C 
ATOM     14  C   UNL     1     -12.471 -15.985  28.862  1.00  0.00     0.004 C 
ENDBRANCH  12  13
ENDBRANCH  11  12
ENDBRANCH  10  11
ENDBRANCH   9  10
ENDBRANCH   1   9
TORSDOF 10
ENDMDL
MODEL 5
REMARK VINA RESULT:    -2.949      8.914     10.792
REMARK INTER + INTRA:          -5.968
REMARK INTER:                  -4.471
REMARK INTRA:                  -1.496
REMARK UNBOUND:                -1.294
REMARK SMILES CCCCCCCCCCCC(=O)[O-]
REMARK SMILES IDX 7 1 8 2 9 3 10 4 11 5 12 6 13 7 14 8 6 9 5 10 4 11 3 12 2 13
REMARK SMILES IDX 1 14
REMARK H PARENT
REMARK Flexibility Score: inf
ROOT
ATOM      1  C   UNL     1     -10.673 -21.325  19.535  1.00  0.00     0.000 C 
ENDROOT
BRANCH   1   2
ATOM      2  C   UNL     1     -10.364 -20.113  20.428  1.00  0.00     0.000 C 
BRANCH   2   3
ATOM      3  C   UNL     1     -11.608 -19.260  20.721  1.00  0.00     0.000 C 
BRANCH   3   4
ATOM      4  C   UNL     1     -12.634 -19.380  19.584  1.00  0.00     0.006 C 
BRANCH   4   5
ATOM      5  C   UNL     1     -12.942 -18.025  18.933  1.00  0.00     0.053 C 
BRANCH   5   6
ATOM      6  C   UNL     1     -12.282 -17.888  17.596  1.00  0.00     0.041 C 
ATOM      7  O   UNL     1     -12.949 -17.522  16.593  1.00  0.00    -0.550 OA
ATOM      8  O   UNL     1     -10.935 -18.199  17.450  1.00  0.00    -0.550 OA
ENDBRANCH   5   6
ENDBRANCH   4   5
ENDBRANCH   3   4
ENDBRANCH   2   3
ENDBRANCH   1   2
BRANCH   1   9
ATOM      9  C   UNL     1     -10.833 -22.627  20.336  1.00  0.00     0.000 C 
BRANCH   9  10
ATOM     10  C   UNL     1     -12.280 -23.137  20.270  1.00  0.00    -0.000 C 
BRANCH  10  11
ATOM     11  C   UNL     1     -12.993 -23.077  21.631  1.00  0.00    -0.000 C 
BRANCH  11  12
ATOM     12  C   UNL     1     -12.084 -22.556  22.754  1.00  0.00    -0.000 C 
BRANCH  12  13
ATOM     13  C   UNL     1     -12.753 -21.401  23.510  1.00  0.00    -0.003 C 
ATOM     14  C   UNL     1     -14.049 -20.973  22.827  1.00  0.00     0.004 C 
ENDBRANCH  12  13
ENDBRANCH  11  12
ENDBRANCH  10  11
ENDBRANCH   9  10
ENDBRANCH   1   9
TORSDOF 10
ENDMDL
MODEL 6
REMARK VINA RESULT:    -2.948      8.923     10.750
REMARK INTER + INTRA:          -5.966
REMARK INTER:                  -4.515
REMARK INTRA:                  -1.451
REMARK UNBOUND:                -1.294
REMARK SMILES CCCCCCCCCCCC(=O)[O-]
REMARK SMILES IDX 7 1 8 2 9 3 10 4 11 5 12 6 13 7 14 8 6 9 5 10 4 11 3 12 2 13
REMARK SMILES IDX 1 14
REMARK H PARENT
REMARK Flexibility Score: inf
ROOT
ATOM      1  C   UNL     1     -11.527 -24.487  21.421  1.00  0.00     0.000 C 
ENDROOT
BRANCH   1   2
ATOM      2  C   UNL     1     -11.860 -23.352  20.440  1.00  0.00     0.000 C 
BRANCH   2   3
ATOM      3  C   UNL     1     -10.733 -22.315  20.328  1.00  0.00     0.000 C 
BRANCH   3   4
ATOM      4  C   UNL     1     -11.296 -20.925  19.998  1.00  0.00     0.006 C 
BRANCH   4   5
ATOM      5  C   UNL     1     -10.531 -19.803  20.712  1.00  0.00     0.053 C 
BRANCH   5   6
ATOM      6  C   UNL     1      -9.277 -19.433  19.979  1.00  0.00     0.041 C 
ATOM      7  O   UNL     1      -9.243 -19.467  18.722  1.00  0.00    -0.550 OA
ATOM      8  O   UNL     1      -8.135 -19.083  20.689  1.00  0.00    -0.550 OA
ENDBRANCH   5   6
ENDBRANCH   4   5
ENDBRANCH   3   4
ENDBRANCH   2   3
ENDBRANCH   1   2
BRANCH   1   9
ATOM      9  C   UNL     1     -12.443 -24.493  22.655  1.00  0.00     0.000 C 
BRANCH   9  10
ATOM     10  C   UNL     1     -11.997 -23.434  23.674  1.00  0.00    -0.000 C 
BRANCH  10  11
ATOM     11  C   UNL     1     -13.104 -22.415  23.991  1.00  0.00    -0.000 C 
BRANCH  11  12
ATOM     12  C   UNL     1     -12.873 -21.058  23.309  1.00  0.00    -0.000 C 
BRANCH  12  13
ATOM     13  C   UNL     1     -14.145 -20.577  22.601  1.00  0.00    -0.003 C 
ATOM     14  C   UNL     1     -14.831 -21.722  21.862  1.00  0.00     0.004 C 
ENDBRANCH  12  13
ENDBRANCH  11  12
ENDBRANCH  10  11
ENDBRANCH   9  10
ENDBRANCH   1   9
TORSDOF 10
ENDMDL
MODEL 7
REMARK VINA RESULT:    -2.941      8.304      9.820
REMARK INTER + INTRA:          -5.955
REMARK INTER:                  -4.361
REMARK INTRA:                  -1.594
REMARK UNBOUND:                -1.294
REMARK SMILES CCCCCCCCCCCC(=O)[O-]
REMARK SMILES IDX 7 1 8 2 9 3 10 4 11 5 12 6 13 7 14 8 6 9 5 10 4 11 3 12 2 13
REMARK SMILES IDX 1 14
REMARK H PARENT
REMARK Flexibility Score: inf
ROOT
ATOM      1  C   UNL     1     -11.512 -23.047  19.363  1.00  0.00     0.000 C 
ENDROOT
BRANCH   1   2
ATOM      2  C   UNL     1     -11.159 -23.290  20.839  1.00  0.00     0.000 C 
BRANCH   2   3
ATOM      3  C   UNL     1     -12.393 -23.281  21.753  1.00  0.00     0.000 C 
BRANCH   3   4
ATOM      4  C   UNL     1     -12.059 -22.668  23.121  1.00  0.00     0.006 C 
BRANCH   4   5
ATOM      5  C   UNL     1     -12.994 -21.506  23.482  1.00  0.00     0.053 C 
BRANCH   5   6
ATOM      6  C   UNL     1     -14.435 -21.893  23.353  1.00  0.00     0.041 C 
ATOM      7  O   UNL     1     -15.196 -21.259  22.576  1.00  0.00    -0.550 OA
ATOM      8  O   UNL     1     -14.947 -22.934  24.119  1.00  0.00    -0.550 OA
ENDBRANCH   5   6
ENDBRANCH   4   5
ENDBRANCH   3   4
ENDBRANCH   2   3
ENDBRANCH   1   2
BRANCH   1   9
ATOM      9  C   UNL     1     -12.921 -22.461  19.179  1.00  0.00     0.000 C 
BRANCH   9  10
ATOM     10  C   UNL     1     -12.851 -20.980  18.780  1.00  0.00    -0.000 C 
BRANCH  10  11
ATOM     11  C   UNL     1     -13.224 -20.037  19.935  1.00  0.00    -0.000 C 
BRANCH  11  12
ATOM     12  C   UNL     1     -12.111 -19.030  20.262  1.00  0.00    -0.000 C 
BRANCH  12  13
ATOM     13  C   UNL     1     -10.964 -19.709  21.020  1.00  0.00    -0.003 C 
ATOM     14  C   UNL     1      -9.672 -19.678  20.208  1.00  0.00     0.004 C 
ENDBRANCH  12  13
ENDBRANCH  11  12
ENDBRANCH  10  11
ENDBRANCH   9  10
ENDBRANCH   1   9
TORSDOF 10
ENDMDL
MODEL 8
REMARK VINA RESULT:    -2.917      8.275     10.060
REMARK INTER + INTRA:          -5.917
REMARK INTER:                  -4.727
REMARK INTRA:                  -1.190
REMARK UNBOUND:                -1.294
REMARK SMILES CCCCCCCCCCCC(=O)[O-]
REMARK SMILES IDX 7 1 8 2 9 3 10 4 11 5 12 6 13 7 14 8 6 9 5 10 4 11 3 12 2 13
REMARK SMILES IDX 1 14
REMARK H PARENT
REMARK Flexibility Score: inf
ROOT
ATOM      1  C   UNL     1     -14.481 -21.332  21.522  1.00  0.00     0.000 C 
ENDROOT
BRANCH   1   2
ATOM      2  C   UNL     1     -13.236 -21.312  20.621  1.00  0.00     0.000 C 
BRANCH   2   3
ATOM      3  C   UNL     1     -13.183 -20.074  19.713  1.00  0.00     0.000 C 
BRANCH   3   4
ATOM      4  C   UNL     1     -12.192 -19.036  20.258  1.00  0.00     0.006 C 
BRANCH   4   5
ATOM      5  C   UNL     1     -10.880 -19.677  20.730  1.00  0.00     0.053 C 
BRANCH   5   6
ATOM      6  C   UNL     1      -9.743 -19.361  19.806  1.00  0.00     0.041 C 
ATOM      7  O   UNL     1      -9.959 -19.143  18.586  1.00  0.00    -0.550 OA
ATOM      8  O   UNL     1      -8.440 -19.343  20.288  1.00  0.00    -0.550 OA
ENDBRANCH   5   6
ENDBRANCH   4   5
ENDBRANCH   3   4
ENDBRANCH   2   3
ENDBRANCH   1   2
BRANCH   1   9
ATOM      9  C   UNL     1     -14.187 -20.847  22.950  1.00  0.00     0.000 C 
BRANCH   9  10
ATOM     10  C   UNL     1     -12.729 -21.135  23.338  1.00  0.00    -0.000 C 
BRANCH  10  11
ATOM     11  C   UNL     1     -12.581 -22.414  24.178  1.00  0.00    -0.000 C 
BRANCH  11  12
ATOM     12  C   UNL     1     -12.089 -23.613  23.353  1.00  0.00    -0.000 C 
BRANCH  12  13
ATOM     13  C   UNL     1     -13.244 -24.567  23.030  1.00  0.00    -0.003 C 
ATOM     14  C   UNL     1     -14.250 -24.623  24.176  1.00  0.00     0.004 C 
ENDBRANCH  12  13
ENDBRANCH  11  12
ENDBRANCH  10  11
ENDBRANCH   9  10
ENDBRANCH   1   9
TORSDOF 10
ENDMDL
MODEL 9
REMARK VINA RESULT:    -2.899      8.197     10.007
REMARK INTER + INTRA:          -5.888
REMARK INTER:                  -4.425
REMARK INTRA:                  -1.463
REMARK UNBOUND:                -1.294
REMARK SMILES CCCCCCCCCCCC(=O)[O-]
REMARK SMILES IDX 7 1 8 2 9 3 10 4 11 5 12 6 13 7 14 8 6 9 5 10 4 11 3 12 2 13
REMARK SMILES IDX 1 14
REMARK H PARENT
REMARK Flexibility Score: inf
ROOT
ATOM      1  C   UNL     1     -13.776 -22.343  19.947  1.00  0.00     0.000 C 
ENDROOT
BRANCH   1   2
ATOM      2  C   UNL     1     -12.562 -21.455  19.631  1.00  0.00     0.000 C 
BRANCH   2   3
ATOM      3  C   UNL     1     -12.922 -19.964  19.560  1.00  0.00     0.000 C 
BRANCH   3   4
ATOM      4  C   UNL     1     -11.884 -19.113  20.306  1.00  0.00     0.006 C 
BRANCH   4   5
ATOM      5  C   UNL     1     -10.652 -19.930  20.720  1.00  0.00     0.053 C 
BRANCH   5   6
ATOM      6  C   UNL     1      -9.428 -19.509  19.966  1.00  0.00     0.041 C 
ATOM      7  O   UNL     1      -8.417 -19.083  20.583  1.00  0.00    -0.550 OA
ATOM      8  O   UNL     1      -9.416 -19.557  18.577  1.00  0.00    -0.550 OA
ENDBRANCH   5   6
ENDBRANCH   4   5
ENDBRANCH   3   4
ENDBRANCH   2   3
ENDBRANCH   1   2
BRANCH   1   9
ATOM      9  C   UNL     1     -14.915 -21.570  20.630  1.00  0.00     0.000 C 
BRANCH   9  10
ATOM     10  C   UNL     1     -14.927 -21.835  22.142  1.00  0.00    -0.000 C 
BRANCH  10  11
ATOM     11  C   UNL     1     -14.227 -20.725  22.944  1.00  0.00    -0.000 C 
BRANCH  11  12
ATOM     12  C   UNL     1     -12.799 -21.106  23.363  1.00  0.00    -0.000 C 
BRANCH  12  13
ATOM     13  C   UNL     1     -12.769 -22.499  24.002  1.00  0.00    -0.003 C 
ATOM     14  C   UNL     1     -11.980 -23.483  23.142  1.00  0.00     0.004 C 
ENDBRANCH  12  13
ENDBRANCH  11  12
ENDBRANCH  10  11
ENDBRANCH   9  10
ENDBRANCH   1   9
TORSDOF 10
ENDMDL
