MODEL 1
REMARK VINA RESULT:    -7.020      0.000      0.000
REMARK INTER + INTRA:          -8.483
REMARK INTER:                  -8.456
REMARK INTRA:                  -0.027
REMARK UNBOUND:                -0.027
REMARK SMILES O=c1c(O)c(-c2ccc(O)c(O)c2)oc2cc(O)cc(O)c12
REMARK SMILES IDX 5 1 3 2 2 3 1 4 22 5 20 6 19 7 17 8 16 9 15 10 14 11 6 12
REMARK SMILES IDX 7 13 8 14 9 15 13 16 11 17 10 18 12 20 4 22 21 24 18 26
REMARK H PARENT 10 19 12 21 4 23 21 25 18 27
REMARK Flexibility Score: inf
ROOT
ATOM      1  C   UNL     1     140.780 133.489 155.634  1.00  0.00     0.180 A 
ATOM      2  C   UNL     1     140.310 134.813 155.661  1.00  0.00     0.208 A 
ATOM      3  C   UNL     1     140.680 135.689 154.628  1.00  0.00     0.238 A 
ATOM      4  O   UNL     1     140.300 136.887 154.687  1.00  0.00    -0.285 OA
ATOM      5  C   UNL     1     141.503 135.226 153.573  1.00  0.00     0.111 A 
ATOM      6  C   UNL     1     141.907 136.015 152.455  1.00  0.00     0.134 A 
ATOM      7  C   UNL     1     142.828 135.493 151.538  1.00  0.00     0.093 A 
ATOM      8  C   UNL     1     143.309 134.190 151.662  1.00  0.00     0.123 A 
ATOM      9  C   UNL     1     142.874 133.388 152.719  1.00  0.00     0.094 A 
ATOM     10  C   UNL     1     141.984 133.894 153.670  1.00  0.00     0.146 A 
ATOM     11  O   UNL     1     141.604 133.103 154.666  1.00  0.00    -0.452 OA
ENDROOT
BRANCH   1  12
ATOM     12  C   UNL     1     140.412 132.500 156.674  1.00  0.00     0.025 A 
ATOM     13  C   UNL     1     139.856 131.257 156.336  1.00  0.00     0.016 A 
ATOM     14  C   UNL     1     139.540 130.332 157.332  1.00  0.00     0.051 A 
ATOM     15  C   UNL     1     139.782 130.620 158.680  1.00  0.00     0.157 A 
ATOM     16  C   UNL     1     140.677 132.784 158.022  1.00  0.00     0.062 A 
ATOM     17  C   UNL     1     140.362 131.863 159.029  1.00  0.00     0.158 A 
BRANCH  15  18
ATOM     18  O   UNL     1     139.438 129.654 159.626  1.00  0.00    -0.504 OA
ATOM     19  H   UNL     1     139.998 128.838 159.829  1.00  0.00     0.293 HD
ENDBRANCH  15  18
BRANCH  17  20
ATOM     20  O   UNL     1     140.643 132.219 160.350  1.00  0.00    -0.504 OA
ATOM     21  H   UNL     1     141.377 131.800 160.903  1.00  0.00     0.293 HD
ENDBRANCH  17  20
ENDBRANCH   1  12
BRANCH   2  22
ATOM     22  O   UNL     1     139.516 135.255 156.723  1.00  0.00    -0.502 OA
ATOM     23  H   UNL     1     138.554 134.962 156.843  1.00  0.00     0.293 HD
ENDBRANCH   2  22
BRANCH   6  24
ATOM     24  O   UNL     1     141.416 137.296 152.185  1.00  0.00    -0.507 OA
ATOM     25  H   UNL     1     141.633 138.120 152.724  1.00  0.00     0.293 HD
ENDBRANCH   6  24
BRANCH   8  26
ATOM     26  O   UNL     1     144.212 133.698 150.723  1.00  0.00    -0.508 OA
ATOM     27  H   UNL     1     143.898 133.216 149.888  1.00  0.00     0.293 HD
ENDBRANCH   8  26
TORSDOF 6
ENDMDL
MODEL 2
REMARK VINA RESULT:    -6.884      5.730      8.880
REMARK INTER + INTRA:          -8.319
REMARK INTER:                  -8.033
REMARK INTRA:                  -0.286
REMARK UNBOUND:                -0.027
REMARK SMILES O=c1c(O)c(-c2ccc(O)c(O)c2)oc2cc(O)cc(O)c12
REMARK SMILES IDX 5 1 3 2 2 3 1 4 22 5 20 6 19 7 17 8 16 9 15 10 14 11 6 12
REMARK SMILES IDX 7 13 8 14 9 15 13 16 11 17 10 18 12 20 4 22 21 24 18 26
REMARK H PARENT 10 19 12 21 4 23 21 25 18 27
REMARK Flexibility Score: inf
ROOT
ATOM      1  C   UNL     1     143.764 133.093 148.620  1.00  0.00     0.180 A 
ATOM      2  C   UNL     1     143.596 132.829 149.990  1.00  0.00     0.208 A 
ATOM      3  C   UNL     1     143.450 133.905 150.879  1.00  0.00     0.238 A 
ATOM      4  O   UNL     1     143.354 133.664 152.111  1.00  0.00    -0.285 OA
ATOM      5  C   UNL     1     143.460 135.233 150.386  1.00  0.00     0.111 A 
ATOM      6  C   UNL     1     143.280 136.397 151.191  1.00  0.00     0.134 A 
ATOM      7  C   UNL     1     143.438 137.664 150.616  1.00  0.00     0.093 A 
ATOM      8  C   UNL     1     143.703 137.811 149.255  1.00  0.00     0.123 A 
ATOM      9  C   UNL     1     143.821 136.679 148.446  1.00  0.00     0.094 A 
ATOM     10  C   UNL     1     143.705 135.401 148.998  1.00  0.00     0.146 A 
ATOM     11  O   UNL     1     143.835 134.350 148.197  1.00  0.00    -0.452 OA
ENDROOT
BRANCH   1  12
ATOM     12  C   UNL     1     143.899 132.010 147.619  1.00  0.00     0.025 A 
ATOM     13  C   UNL     1     145.109 131.321 147.446  1.00  0.00     0.016 A 
ATOM     14  C   UNL     1     145.204 130.288 146.512  1.00  0.00     0.051 A 
ATOM     15  C   UNL     1     144.096 129.913 145.744  1.00  0.00     0.157 A 
ATOM     16  C   UNL     1     142.780 131.622 146.866  1.00  0.00     0.062 A 
ATOM     17  C   UNL     1     142.866 130.588 145.926  1.00  0.00     0.158 A 
BRANCH  15  18
ATOM     18  O   UNL     1     144.260 128.875 144.825  1.00  0.00    -0.504 OA
ATOM     19  H   UNL     1     144.613 127.959 145.065  1.00  0.00     0.293 HD
ENDBRANCH  15  18
BRANCH  17  20
ATOM     20  O   UNL     1     141.714 130.264 145.204  1.00  0.00    -0.504 OA
ATOM     21  H   UNL     1     141.696 130.127 144.204  1.00  0.00     0.293 HD
ENDBRANCH  17  20
ENDBRANCH   1  12
BRANCH   2  22
ATOM     22  O   UNL     1     143.611 131.512 150.459  1.00  0.00    -0.502 OA
ATOM     23  H   UNL     1     142.822 131.095 150.938  1.00  0.00     0.293 HD
ENDBRANCH   2  22
BRANCH   6  24
ATOM     24  O   UNL     1     142.922 136.365 152.542  1.00  0.00    -0.507 OA
ATOM     25  H   UNL     1     142.088 136.782 152.926  1.00  0.00     0.293 HD
ENDBRANCH   6  24
BRANCH   8  26
ATOM     26  O   UNL     1     143.838 139.087 148.714  1.00  0.00    -0.508 OA
ATOM     27  H   UNL     1     144.239 139.849 149.248  1.00  0.00     0.293 HD
ENDBRANCH   8  26
TORSDOF 6
ENDMDL
MODEL 3
REMARK VINA RESULT:    -6.663      1.784      2.467
REMARK INTER + INTRA:          -8.053
REMARK INTER:                  -7.828
REMARK INTRA:                  -0.225
REMARK UNBOUND:                -0.027
REMARK SMILES O=c1c(O)c(-c2ccc(O)c(O)c2)oc2cc(O)cc(O)c12
REMARK SMILES IDX 5 1 3 2 2 3 1 4 22 5 20 6 19 7 17 8 16 9 15 10 14 11 6 12
REMARK SMILES IDX 7 13 8 14 9 15 13 16 11 17 10 18 12 20 4 22 21 24 18 26
REMARK H PARENT 10 19 12 21 4 23 21 25 18 27
REMARK Flexibility Score: inf
ROOT
ATOM      1  C   UNL     1     139.843 132.510 156.465  1.00  0.00     0.180 A 
ATOM      2  C   UNL     1     138.651 133.182 156.145  1.00  0.00     0.208 A 
ATOM      3  C   UNL     1     138.631 134.045 155.038  1.00  0.00     0.238 A 
ATOM      4  O   UNL     1     137.576 134.685 154.790  1.00  0.00    -0.285 OA
ATOM      5  C   UNL     1     139.800 134.214 154.256  1.00  0.00     0.111 A 
ATOM      6  C   UNL     1     139.881 135.032 153.089  1.00  0.00     0.134 A 
ATOM      7  C   UNL     1     141.121 135.228 152.469  1.00  0.00     0.093 A 
ATOM      8  C   UNL     1     142.268 134.584 152.932  1.00  0.00     0.123 A 
ATOM      9  C   UNL     1     142.188 133.733 154.036  1.00  0.00     0.094 A 
ATOM     10  C   UNL     1     140.972 133.547 154.699  1.00  0.00     0.146 A 
ATOM     11  O   UNL     1     140.940 132.740 155.751  1.00  0.00    -0.452 OA
ENDROOT
BRANCH   1  12
ATOM     12  C   UNL     1     139.935 131.564 157.602  1.00  0.00     0.025 A 
ATOM     13  C   UNL     1     139.902 132.013 158.931  1.00  0.00     0.016 A 
ATOM     14  C   UNL     1     139.966 131.101 159.985  1.00  0.00     0.051 A 
ATOM     15  C   UNL     1     140.051 129.726 159.738  1.00  0.00     0.157 A 
ATOM     16  C   UNL     1     139.998 130.185 157.350  1.00  0.00     0.062 A 
ATOM     17  C   UNL     1     140.063 129.262 158.401  1.00  0.00     0.158 A 
BRANCH  15  18
ATOM     18  O   UNL     1     140.116 128.868 160.836  1.00  0.00    -0.504 OA
ATOM     19  H   UNL     1     139.956 127.872 160.785  1.00  0.00     0.293 HD
ENDBRANCH  15  18
BRANCH  17  20
ATOM     20  O   UNL     1     140.136 127.906 158.074  1.00  0.00    -0.504 OA
ATOM     21  H   UNL     1     139.342 127.352 157.784  1.00  0.00     0.293 HD
ENDBRANCH  17  20
ENDBRANCH   1  12
BRANCH   2  22
ATOM     22  O   UNL     1     137.516 133.017 156.944  1.00  0.00    -0.502 OA
ATOM     23  H   UNL     1     137.407 132.237 157.581  1.00  0.00     0.293 HD
ENDBRANCH   2  22
BRANCH   6  24
ATOM     24  O   UNL     1     138.779 135.648 152.489  1.00  0.00    -0.507 OA
ATOM     25  H   UNL     1     138.421 136.556 152.740  1.00  0.00     0.293 HD
ENDBRANCH   6  24
BRANCH   8  26
ATOM     26  O   UNL     1     143.483 134.788 152.281  1.00  0.00    -0.508 OA
ATOM     27  H   UNL     1     143.845 135.720 152.117  1.00  0.00     0.293 HD
ENDBRANCH   8  26
TORSDOF 6
ENDMDL
MODEL 4
REMARK VINA RESULT:    -6.658      1.528      7.235
REMARK INTER + INTRA:          -8.047
REMARK INTER:                  -8.061
REMARK INTRA:                   0.014
REMARK UNBOUND:                -0.027
REMARK SMILES O=c1c(O)c(-c2ccc(O)c(O)c2)oc2cc(O)cc(O)c12
REMARK SMILES IDX 5 1 3 2 2 3 1 4 22 5 20 6 19 7 17 8 16 9 15 10 14 11 6 12
REMARK SMILES IDX 7 13 8 14 9 15 13 16 11 17 10 18 12 20 4 22 21 24 18 26
REMARK H PARENT 10 19 12 21 4 23 21 25 18 27
REMARK Flexibility Score: inf
ROOT
ATOM      1  C   UNL     1     141.257 133.025 154.252  1.00  0.00     0.180 A 
ATOM      2  C   UNL     1     140.600 131.842 153.874  1.00  0.00     0.208 A 
ATOM      3  C   UNL     1     140.043 131.023 154.869  1.00  0.00     0.238 A 
ATOM      4  O   UNL     1     139.503 129.939 154.528  1.00  0.00    -0.285 OA
ATOM      5  C   UNL     1     140.137 131.405 156.229  1.00  0.00     0.111 A 
ATOM      6  C   UNL     1     139.574 130.673 157.317  1.00  0.00     0.134 A 
ATOM      7  C   UNL     1     139.841 131.075 158.632  1.00  0.00     0.093 A 
ATOM      8  C   UNL     1     140.593 132.219 158.897  1.00  0.00     0.123 A 
ATOM      9  C   UNL     1     141.098 132.977 157.839  1.00  0.00     0.094 A 
ATOM     10  C   UNL     1     140.880 132.580 156.517  1.00  0.00     0.146 A 
ATOM     11  O   UNL     1     141.387 133.322 155.540  1.00  0.00    -0.452 OA
ENDROOT
BRANCH   1  12
ATOM     12  C   UNL     1     141.847 133.951 153.258  1.00  0.00     0.025 A 
ATOM     13  C   UNL     1     141.570 135.327 153.287  1.00  0.00     0.016 A 
ATOM     14  C   UNL     1     142.157 136.183 152.355  1.00  0.00     0.051 A 
ATOM     15  C   UNL     1     143.039 135.691 151.386  1.00  0.00     0.157 A 
ATOM     16  C   UNL     1     142.748 133.457 152.302  1.00  0.00     0.062 A 
ATOM     17  C   UNL     1     143.341 134.309 151.362  1.00  0.00     0.158 A 
BRANCH  15  18
ATOM     18  O   UNL     1     143.588 136.601 150.480  1.00  0.00    -0.504 OA
ATOM     19  H   UNL     1     143.524 137.604 150.579  1.00  0.00     0.293 HD
ENDBRANCH  15  18
BRANCH  17  20
ATOM     20  O   UNL     1     144.219 133.745 150.433  1.00  0.00    -0.504 OA
ATOM     21  H   UNL     1     144.773 134.283 149.783  1.00  0.00     0.293 HD
ENDBRANCH  17  20
ENDBRANCH   1  12
BRANCH   2  22
ATOM     22  O   UNL     1     140.537 131.473 152.527  1.00  0.00    -0.502 OA
ATOM     23  H   UNL     1     141.255 130.914 152.082  1.00  0.00     0.293 HD
ENDBRANCH   2  22
BRANCH   6  24
ATOM     24  O   UNL     1     138.731 129.568 157.162  1.00  0.00    -0.507 OA
ATOM     25  H   UNL     1     138.900 128.656 157.557  1.00  0.00     0.293 HD
ENDBRANCH   6  24
BRANCH   8  26
ATOM     26  O   UNL     1     140.825 132.599 160.217  1.00  0.00    -0.508 OA
ATOM     27  H   UNL     1     140.311 133.359 160.647  1.00  0.00     0.293 HD
ENDBRANCH   8  26
TORSDOF 6
ENDMDL
MODEL 5
REMARK VINA RESULT:    -6.657      4.310      8.890
REMARK INTER + INTRA:          -8.046
REMARK INTER:                  -7.715
REMARK INTRA:                  -0.331
REMARK UNBOUND:                -0.027
REMARK SMILES O=c1c(O)c(-c2ccc(O)c(O)c2)oc2cc(O)cc(O)c12
REMARK SMILES IDX 5 1 3 2 2 3 1 4 22 5 20 6 19 7 17 8 16 9 15 10 14 11 6 12
REMARK SMILES IDX 7 13 8 14 9 15 13 16 11 17 10 18 12 20 4 22 21 24 18 26
REMARK H PARENT 10 19 12 21 4 23 21 25 18 27
REMARK Flexibility Score: inf
ROOT
ATOM      1  C   UNL     1     143.604 132.693 148.744  1.00  0.00     0.180 A 
ATOM      2  C   UNL     1     143.888 134.061 148.593  1.00  0.00     0.208 A 
ATOM      3  C   UNL     1     143.665 134.927 149.674  1.00  0.00     0.238 A 
ATOM      4  O   UNL     1     143.870 136.159 149.514  1.00  0.00    -0.285 OA
ATOM      5  C   UNL     1     143.176 134.413 150.899  1.00  0.00     0.111 A 
ATOM      6  C   UNL     1     142.952 135.193 152.074  1.00  0.00     0.134 A 
ATOM      7  C   UNL     1     142.343 134.603 153.188  1.00  0.00     0.093 A 
ATOM      8  C   UNL     1     142.010 133.249 153.195  1.00  0.00     0.123 A 
ATOM      9  C   UNL     1     142.281 132.463 152.074  1.00  0.00     0.094 A 
ATOM     10  C   UNL     1     142.854 133.031 150.933  1.00  0.00     0.146 A 
ATOM     11  O   UNL     1     143.084 132.252 149.884  1.00  0.00    -0.452 OA
ENDROOT
BRANCH   1  12
ATOM     12  C   UNL     1     143.837 131.714 147.657  1.00  0.00     0.025 A 
ATOM     13  C   UNL     1     145.090 131.109 147.474  1.00  0.00     0.016 A 
ATOM     14  C   UNL     1     145.278 130.171 146.458  1.00  0.00     0.051 A 
ATOM     15  C   UNL     1     144.223 129.809 145.613  1.00  0.00     0.157 A 
ATOM     16  C   UNL     1     142.771 131.337 146.826  1.00  0.00     0.062 A 
ATOM     17  C   UNL     1     142.950 130.398 145.803  1.00  0.00     0.158 A 
BRANCH  15  18
ATOM     18  O   UNL     1     144.479 128.869 144.614  1.00  0.00    -0.504 OA
ATOM     19  H   UNL     1     144.352 129.045 143.628  1.00  0.00     0.293 HD
ENDBRANCH  15  18
BRANCH  17  20
ATOM     20  O   UNL     1     141.847 130.081 145.007  1.00  0.00    -0.504 OA
ATOM     21  H   UNL     1     141.016 130.651 144.943  1.00  0.00     0.293 HD
ENDBRANCH  17  20
ENDBRANCH   1  12
BRANCH   2  22
ATOM     22  O   UNL     1     144.350 134.551 147.368  1.00  0.00    -0.502 OA
ATOM     23  H   UNL     1     143.741 135.010 146.701  1.00  0.00     0.293 HD
ENDBRANCH   2  22
BRANCH   6  24
ATOM     24  O   UNL     1     143.330 136.532 152.205  1.00  0.00    -0.507 OA
ATOM     25  H   UNL     1     143.582 137.136 151.438  1.00  0.00     0.293 HD
ENDBRANCH   6  24
BRANCH   8  26
ATOM     26  O   UNL     1     141.420 132.691 154.327  1.00  0.00    -0.508 OA
ATOM     27  H   UNL     1     140.439 132.438 154.343  1.00  0.00     0.293 HD
ENDBRANCH   8  26
TORSDOF 6
ENDMDL
MODEL 6
REMARK VINA RESULT:    -6.638      2.355      7.043
REMARK INTER + INTRA:          -8.024
REMARK INTER:                  -7.875
REMARK INTRA:                  -0.149
REMARK UNBOUND:                -0.027
REMARK SMILES O=c1c(O)c(-c2ccc(O)c(O)c2)oc2cc(O)cc(O)c12
REMARK SMILES IDX 5 1 3 2 2 3 1 4 22 5 20 6 19 7 17 8 16 9 15 10 14 11 6 12
REMARK SMILES IDX 7 13 8 14 9 15 13 16 11 17 10 18 12 20 4 22 21 24 18 26
REMARK H PARENT 10 19 12 21 4 23 21 25 18 27
REMARK Flexibility Score: inf
ROOT
ATOM      1  C   UNL     1     140.175 131.528 156.518  1.00  0.00     0.180 A 
ATOM      2  C   UNL     1     140.288 131.336 157.906  1.00  0.00     0.208 A 
ATOM      3  C   UNL     1     140.221 130.031 158.421  1.00  0.00     0.238 A 
ATOM      4  O   UNL     1     140.268 129.871 159.668  1.00  0.00    -0.285 OA
ATOM      5  C   UNL     1     140.055 128.934 157.541  1.00  0.00     0.111 A 
ATOM      6  C   UNL     1     140.014 127.568 157.950  1.00  0.00     0.134 A 
ATOM      7  C   UNL     1     139.715 126.575 157.009  1.00  0.00     0.093 A 
ATOM      8  C   UNL     1     139.522 126.890 155.664  1.00  0.00     0.123 A 
ATOM      9  C   UNL     1     139.621 128.218 155.243  1.00  0.00     0.094 A 
ATOM     10  C   UNL     1     139.880 129.235 156.165  1.00  0.00     0.146 A 
ATOM     11  O   UNL     1     139.954 130.485 155.726  1.00  0.00    -0.452 OA
ENDROOT
BRANCH   1  12
ATOM     12  C   UNL     1     140.262 132.871 155.898  1.00  0.00     0.025 A 
ATOM     13  C   UNL     1     141.290 133.195 155.001  1.00  0.00     0.016 A 
ATOM     14  C   UNL     1     141.338 134.459 154.411  1.00  0.00     0.051 A 
ATOM     15  C   UNL     1     140.359 135.418 154.693  1.00  0.00     0.157 A 
ATOM     16  C   UNL     1     139.266 133.822 156.167  1.00  0.00     0.062 A 
ATOM     17  C   UNL     1     139.306 135.093 155.581  1.00  0.00     0.158 A 
BRANCH  15  18
ATOM     18  O   UNL     1     140.467 136.664 154.073  1.00  0.00    -0.504 OA
ATOM     19  H   UNL     1     139.930 137.477 154.341  1.00  0.00     0.293 HD
ENDBRANCH  15  18
BRANCH  17  20
ATOM     20  O   UNL     1     138.287 135.992 155.903  1.00  0.00    -0.504 OA
ATOM     21  H   UNL     1     138.123 136.859 155.411  1.00  0.00     0.293 HD
ENDBRANCH  17  20
ENDBRANCH   1  12
BRANCH   2  22
ATOM     22  O   UNL     1     140.429 132.434 158.758  1.00  0.00    -0.502 OA
ATOM     23  H   UNL     1     139.687 132.746 159.372  1.00  0.00     0.293 HD
ENDBRANCH   2  22
BRANCH   6  24
ATOM     24  O   UNL     1     140.282 127.134 159.251  1.00  0.00    -0.507 OA
ATOM     25  H   UNL     1     139.588 127.016 159.973  1.00  0.00     0.293 HD
ENDBRANCH   6  24
BRANCH   8  26
ATOM     26  O   UNL     1     139.243 125.875 154.752  1.00  0.00    -0.508 OA
ATOM     27  H   UNL     1     139.497 125.957 153.775  1.00  0.00     0.293 HD
ENDBRANCH   8  26
TORSDOF 6
ENDMDL
MODEL 7
REMARK VINA RESULT:    -6.545      4.626      7.131
REMARK INTER + INTRA:          -7.911
REMARK INTER:                  -7.582
REMARK INTRA:                  -0.329
REMARK UNBOUND:                -0.027
REMARK SMILES O=c1c(O)c(-c2ccc(O)c(O)c2)oc2cc(O)cc(O)c12
REMARK SMILES IDX 5 1 3 2 2 3 1 4 22 5 20 6 19 7 17 8 16 9 15 10 14 11 6 12
REMARK SMILES IDX 7 13 8 14 9 15 13 16 11 17 10 18 12 20 4 22 21 24 18 26
REMARK H PARENT 10 19 12 21 4 23 21 25 18 27
REMARK Flexibility Score: inf
ROOT
ATOM      1  C   UNL     1     136.282 130.765 156.149  1.00  0.00     0.180 A 
ATOM      2  C   UNL     1     136.501 132.080 155.706  1.00  0.00     0.208 A 
ATOM      3  C   UNL     1     137.583 132.806 156.231  1.00  0.00     0.238 A 
ATOM      4  O   UNL     1     137.740 134.001 155.871  1.00  0.00    -0.285 OA
ATOM      5  C   UNL     1     138.441 132.201 157.182  1.00  0.00     0.111 A 
ATOM      6  C   UNL     1     139.590 132.828 157.750  1.00  0.00     0.134 A 
ATOM      7  C   UNL     1     140.290 132.184 158.777  1.00  0.00     0.093 A 
ATOM      8  C   UNL     1     139.925 130.910 159.210  1.00  0.00     0.123 A 
ATOM      9  C   UNL     1     138.839 130.262 158.619  1.00  0.00     0.094 A 
ATOM     10  C   UNL     1     138.098 130.894 157.618  1.00  0.00     0.146 A 
ATOM     11  O   UNL     1     137.065 130.248 157.089  1.00  0.00    -0.452 OA
ENDROOT
BRANCH   1  12
ATOM     12  C   UNL     1     135.178 129.929 155.622  1.00  0.00     0.025 A 
ATOM     13  C   UNL     1     135.323 129.187 154.440  1.00  0.00     0.016 A 
ATOM     14  C   UNL     1     134.277 128.388 153.977  1.00  0.00     0.051 A 
ATOM     15  C   UNL     1     133.074 128.302 154.686  1.00  0.00     0.157 A 
ATOM     16  C   UNL     1     133.981 129.829 156.347  1.00  0.00     0.062 A 
ATOM     17  C   UNL     1     132.925 129.030 155.890  1.00  0.00     0.158 A 
BRANCH  15  18
ATOM     18  O   UNL     1     132.066 127.488 154.166  1.00  0.00    -0.504 OA
ATOM     19  H   UNL     1     131.907 127.348 153.178  1.00  0.00     0.293 HD
ENDBRANCH  15  18
BRANCH  17  20
ATOM     20  O   UNL     1     131.759 128.988 156.658  1.00  0.00    -0.504 OA
ATOM     21  H   UNL     1     131.750 128.965 157.667  1.00  0.00     0.293 HD
ENDBRANCH  17  20
ENDBRANCH   1  12
BRANCH   2  22
ATOM     22  O   UNL     1     135.629 132.666 154.784  1.00  0.00    -0.502 OA
ATOM     23  H   UNL     1     135.520 133.669 154.698  1.00  0.00     0.293 HD
ENDBRANCH   2  22
BRANCH   6  24
ATOM     24  O   UNL     1     140.096 134.060 157.327  1.00  0.00    -0.507 OA
ATOM     25  H   UNL     1     139.533 134.862 157.089  1.00  0.00     0.293 HD
ENDBRANCH   6  24
BRANCH   8  26
ATOM     26  O   UNL     1     140.654 130.292 160.223  1.00  0.00    -0.508 OA
ATOM     27  H   UNL     1     140.244 129.575 160.810  1.00  0.00     0.293 HD
ENDBRANCH   8  26
TORSDOF 6
ENDMDL
MODEL 8
REMARK VINA RESULT:    -6.469      5.524      8.233
REMARK INTER + INTRA:          -7.819
REMARK INTER:                  -7.501
REMARK INTRA:                  -0.318
REMARK UNBOUND:                -0.027
REMARK SMILES O=c1c(O)c(-c2ccc(O)c(O)c2)oc2cc(O)cc(O)c12
REMARK SMILES IDX 5 1 3 2 2 3 1 4 22 5 20 6 19 7 17 8 16 9 15 10 14 11 6 12
REMARK SMILES IDX 7 13 8 14 9 15 13 16 11 17 10 18 12 20 4 22 21 24 18 26
REMARK H PARENT 10 19 12 21 4 23 21 25 18 27
REMARK Flexibility Score: inf
ROOT
ATOM      1  C   UNL     1     136.009 129.946 155.967  1.00  0.00     0.180 A 
ATOM      2  C   UNL     1     136.911 128.892 155.744  1.00  0.00     0.208 A 
ATOM      3  C   UNL     1     138.154 128.907 156.397  1.00  0.00     0.238 A 
ATOM      4  O   UNL     1     138.978 127.989 156.150  1.00  0.00    -0.285 OA
ATOM      5  C   UNL     1     138.473 129.970 157.278  1.00  0.00     0.111 A 
ATOM      6  C   UNL     1     139.686 130.066 158.024  1.00  0.00     0.134 A 
ATOM      7  C   UNL     1     139.951 131.225 158.763  1.00  0.00     0.093 A 
ATOM      8  C   UNL     1     139.020 132.261 158.838  1.00  0.00     0.123 A 
ATOM      9  C   UNL     1     137.804 132.150 158.161  1.00  0.00     0.094 A 
ATOM     10  C   UNL     1     137.527 131.022 157.385  1.00  0.00     0.146 A 
ATOM     11  O   UNL     1     136.364 130.961 156.748  1.00  0.00    -0.452 OA
ENDROOT
BRANCH   1  12
ATOM     12  C   UNL     1     134.671 129.986 155.335  1.00  0.00     0.025 A 
ATOM     13  C   UNL     1     134.485 130.523 154.052  1.00  0.00     0.016 A 
ATOM     14  C   UNL     1     133.218 130.528 153.467  1.00  0.00     0.051 A 
ATOM     15  C   UNL     1     132.116 129.989 154.140  1.00  0.00     0.157 A 
ATOM     16  C   UNL     1     133.573 129.424 156.004  1.00  0.00     0.062 A 
ATOM     17  C   UNL     1     132.297 129.425 155.425  1.00  0.00     0.158 A 
BRANCH  15  18
ATOM     18  O   UNL     1     130.876 130.029 153.501  1.00  0.00    -0.504 OA
ATOM     19  H   UNL     1     130.014 130.292 153.957  1.00  0.00     0.293 HD
ENDBRANCH  15  18
BRANCH  17  20
ATOM     20  O   UNL     1     131.249 128.859 156.155  1.00  0.00    -0.504 OA
ATOM     21  H   UNL     1     130.975 129.165 157.077  1.00  0.00     0.293 HD
ENDBRANCH  17  20
ENDBRANCH   1  12
BRANCH   2  22
ATOM     22  O   UNL     1     136.585 127.865 154.854  1.00  0.00    -0.502 OA
ATOM     23  H   UNL     1     137.218 127.552 154.128  1.00  0.00     0.293 HD
ENDBRANCH   2  22
BRANCH   6  24
ATOM     24  O   UNL     1     140.643 129.050 158.092  1.00  0.00    -0.507 OA
ATOM     25  H   UNL     1     141.005 128.658 158.948  1.00  0.00     0.293 HD
ENDBRANCH   6  24
BRANCH   8  26
ATOM     26  O   UNL     1     139.309 133.393 159.597  1.00  0.00    -0.508 OA
ATOM     27  H   UNL     1     139.990 134.077 159.289  1.00  0.00     0.293 HD
ENDBRANCH   8  26
TORSDOF 6
ENDMDL
MODEL 9
REMARK VINA RESULT:    -6.404      4.955      8.208
REMARK INTER + INTRA:          -7.742
REMARK INTER:                  -7.432
REMARK INTRA:                  -0.309
REMARK UNBOUND:                -0.027
REMARK SMILES O=c1c(O)c(-c2ccc(O)c(O)c2)oc2cc(O)cc(O)c12
REMARK SMILES IDX 5 1 3 2 2 3 1 4 22 5 20 6 19 7 17 8 16 9 15 10 14 11 6 12
REMARK SMILES IDX 7 13 8 14 9 15 13 16 11 17 10 18 12 20 4 22 21 24 18 26
REMARK H PARENT 10 19 12 21 4 23 21 25 18 27
REMARK Flexibility Score: inf
ROOT
ATOM      1  C   UNL     1     138.922 128.496 155.747  1.00  0.00     0.180 A 
ATOM      2  C   UNL     1     139.378 127.502 156.631  1.00  0.00     0.208 A 
ATOM      3  C   UNL     1     139.738 127.866 157.938  1.00  0.00     0.238 A 
ATOM      4  O   UNL     1     140.197 126.981 158.706  1.00  0.00    -0.285 OA
ATOM      5  C   UNL     1     139.624 129.216 158.350  1.00  0.00     0.111 A 
ATOM      6  C   UNL     1     139.922 129.690 159.663  1.00  0.00     0.134 A 
ATOM      7  C   UNL     1     139.898 131.065 159.922  1.00  0.00     0.093 A 
ATOM      8  C   UNL     1     139.522 131.978 158.937  1.00  0.00     0.123 A 
ATOM      9  C   UNL     1     139.169 131.520 157.667  1.00  0.00     0.094 A 
ATOM     10  C   UNL     1     139.220 130.156 157.367  1.00  0.00     0.146 A 
ATOM     11  O   UNL     1     138.887 129.763 156.143  1.00  0.00    -0.452 OA
ENDROOT
BRANCH   1  12
ATOM     12  C   UNL     1     138.499 128.185 154.362  1.00  0.00     0.025 A 
ATOM     13  C   UNL     1     137.146 128.014 154.031  1.00  0.00     0.016 A 
ATOM     14  C   UNL     1     136.771 127.746 152.714  1.00  0.00     0.051 A 
ATOM     15  C   UNL     1     137.731 127.656 151.700  1.00  0.00     0.157 A 
ATOM     16  C   UNL     1     139.463 128.118 153.344  1.00  0.00     0.062 A 
ATOM     17  C   UNL     1     139.096 127.848 152.020  1.00  0.00     0.158 A 
BRANCH  15  18
ATOM     18  O   UNL     1     137.290 127.381 150.405  1.00  0.00    -0.504 OA
ATOM     19  H   UNL     1     137.579 127.899 149.588  1.00  0.00     0.293 HD
ENDBRANCH  15  18
BRANCH  17  20
ATOM     20  O   UNL     1     140.111 127.784 151.062  1.00  0.00    -0.504 OA
ATOM     21  H   UNL     1     140.667 126.960 150.884  1.00  0.00     0.293 HD
ENDBRANCH  17  20
ENDBRANCH   1  12
BRANCH   2  22
ATOM     22  O   UNL     1     139.504 126.180 156.196  1.00  0.00    -0.502 OA
ATOM     23  H   UNL     1     138.746 125.679 155.749  1.00  0.00     0.293 HD
ENDBRANCH   2  22
BRANCH   6  24
ATOM     24  O   UNL     1     140.220 128.856 160.745  1.00  0.00    -0.507 OA
ATOM     25  H   UNL     1     140.485 129.177 161.663  1.00  0.00     0.293 HD
ENDBRANCH   6  24
BRANCH   8  26
ATOM     26  O   UNL     1     139.493 133.338 159.235  1.00  0.00    -0.508 OA
ATOM     27  H   UNL     1     139.849 134.030 158.586  1.00  0.00     0.293 HD
ENDBRANCH   8  26
TORSDOF 6
ENDMDL
