MODEL 1
REMARK VINA RESULT:    -3.806      0.000      0.000
REMARK INTER + INTRA:          -7.494
REMARK INTER:                  -6.031
REMARK INTRA:                  -1.463
REMARK UNBOUND:                -1.463
REMARK SMILES CCCCCCCCCCCC(=O)[O-]
REMARK SMILES IDX 7 1 8 2 9 3 10 4 11 5 12 6 13 7 14 8 6 9 5 10 4 11 3 12 2 13
REMARK SMILES IDX 1 14
REMARK H PARENT
REMARK Flexibility Score: inf
ROOT
ATOM      1  C   UNL     1     162.576 179.355 181.934  1.00  0.00     0.000 C 
ENDROOT
BRANCH   1   2
ATOM      2  C   UNL     1     161.676 180.028 180.888  1.00  0.00     0.000 C 
BRANCH   2   3
ATOM      3  C   UNL     1     162.239 179.929 179.459  1.00  0.00     0.000 C 
BRANCH   3   4
ATOM      4  C   UNL     1     161.431 179.033 178.499  1.00  0.00     0.006 C 
BRANCH   4   5
ATOM      5  C   UNL     1     162.266 178.365 177.395  1.00  0.00     0.053 C 
BRANCH   5   6
ATOM      6  C   UNL     1     161.818 176.962 177.124  1.00  0.00     0.041 C 
ATOM      7  O   UNL     1     160.596 176.709 176.953  1.00  0.00    -0.550 OA
ATOM      8  O   UNL     1     162.752 175.939 177.027  1.00  0.00    -0.550 OA
ENDBRANCH   5   6
ENDBRANCH   4   5
ENDBRANCH   3   4
ENDBRANCH   2   3
ENDBRANCH   1   2
BRANCH   1   9
ATOM      9  C   UNL     1     163.959 179.041 181.350  1.00  0.00     0.000 C 
BRANCH   9  10
ATOM     10  C   UNL     1     164.314 177.562 181.537  1.00  0.00    -0.000 C 
BRANCH  10  11
ATOM     11  C   UNL     1     163.679 176.701 180.434  1.00  0.00    -0.000 C 
BRANCH  11  12
ATOM     12  C   UNL     1     162.683 175.670 180.990  1.00  0.00    -0.000 C 
BRANCH  12  13
ATOM     13  C   UNL     1     161.254 175.891 180.472  1.00  0.00    -0.003 C 
ATOM     14  C   UNL     1     160.223 175.576 181.553  1.00  0.00     0.004 C 
ENDBRANCH  12  13
ENDBRANCH  11  12
ENDBRANCH  10  11
ENDBRANCH   9  10
ENDBRANCH   1   9
TORSDOF 10
ENDMDL
MODEL 2
REMARK VINA RESULT:    -3.784      1.779      3.982
REMARK INTER + INTRA:          -7.459
REMARK INTER:                  -6.306
REMARK INTRA:                  -1.153
REMARK UNBOUND:                -1.463
REMARK SMILES CCCCCCCCCCCC(=O)[O-]
REMARK SMILES IDX 7 1 8 2 9 3 10 4 11 5 12 6 13 7 14 8 6 9 5 10 4 11 3 12 2 13
REMARK SMILES IDX 1 14
REMARK H PARENT
REMARK Flexibility Score: inf
ROOT
ATOM      1  C   UNL     1     164.252 176.881 180.915  1.00  0.00     0.000 C 
ENDROOT
BRANCH   1   2
ATOM      2  C   UNL     1     163.125 175.860 181.127  1.00  0.00     0.000 C 
BRANCH   2   3
ATOM      3  C   UNL     1     161.723 176.463 180.932  1.00  0.00     0.000 C 
BRANCH   3   4
ATOM      4  C   UNL     1     160.552 175.509 181.242  1.00  0.00     0.006 C 
BRANCH   4   5
ATOM      5  C   UNL     1     160.879 174.018 181.066  1.00  0.00     0.053 C 
BRANCH   5   6
ATOM      6  C   UNL     1     160.726 173.574 179.643  1.00  0.00     0.041 C 
ATOM      7  O   UNL     1     159.876 174.125 178.896  1.00  0.00    -0.550 OA
ATOM      8  O   UNL     1     161.547 172.576 179.134  1.00  0.00    -0.550 OA
ENDBRANCH   5   6
ENDBRANCH   4   5
ENDBRANCH   3   4
ENDBRANCH   2   3
ENDBRANCH   1   2
BRANCH   1   9
ATOM      9  C   UNL     1     163.943 178.198 181.637  1.00  0.00     0.000 C 
BRANCH   9  10
ATOM     10  C   UNL     1     164.588 179.387 180.915  1.00  0.00    -0.000 C 
BRANCH  10  11
ATOM     11  C   UNL     1     163.792 179.764 179.658  1.00  0.00    -0.000 C 
BRANCH  11  12
ATOM     12  C   UNL     1     162.314 180.062 179.961  1.00  0.00    -0.000 C 
BRANCH  12  13
ATOM     13  C   UNL     1     161.375 179.597 178.839  1.00  0.00    -0.003 C 
ATOM     14  C   UNL     1     162.018 178.492 178.006  1.00  0.00     0.004 C 
ENDBRANCH  12  13
ENDBRANCH  11  12
ENDBRANCH  10  11
ENDBRANCH   9  10
ENDBRANCH   1   9
TORSDOF 10
ENDMDL
MODEL 3
REMARK VINA RESULT:    -3.740      1.702      3.881
REMARK INTER + INTRA:          -7.389
REMARK INTER:                  -6.002
REMARK INTRA:                  -1.388
REMARK UNBOUND:                -1.463
REMARK SMILES CCCCCCCCCCCC(=O)[O-]
REMARK SMILES IDX 7 1 8 2 9 3 10 4 11 5 12 6 13 7 14 8 6 9 5 10 4 11 3 12 2 13
REMARK SMILES IDX 1 14
REMARK H PARENT
REMARK Flexibility Score: inf
ROOT
ATOM      1  C   UNL     1     162.775 178.824 181.854  1.00  0.00     0.000 C 
ENDROOT
BRANCH   1   2
ATOM      2  C   UNL     1     163.620 177.750 181.154  1.00  0.00     0.000 C 
BRANCH   2   3
ATOM      3  C   UNL     1     162.931 176.374 181.118  1.00  0.00     0.000 C 
BRANCH   3   4
ATOM      4  C   UNL     1     161.393 176.415 181.015  1.00  0.00     0.006 C 
BRANCH   4   5
ATOM      5  C   UNL     1     160.693 175.092 181.364  1.00  0.00     0.053 C 
BRANCH   5   6
ATOM      6  C   UNL     1     160.641 174.159 180.193  1.00  0.00     0.041 C 
ATOM      7  O   UNL     1     161.257 173.062 180.230  1.00  0.00    -0.550 OA
ATOM      8  O   UNL     1     159.886 174.488 179.075  1.00  0.00    -0.550 OA
ENDBRANCH   5   6
ENDBRANCH   4   5
ENDBRANCH   3   4
ENDBRANCH   2   3
ENDBRANCH   1   2
BRANCH   1   9
ATOM      9  C   UNL     1     162.354 179.921 180.868  1.00  0.00     0.000 C 
BRANCH   9  10
ATOM     10  C   UNL     1     163.059 179.749 179.517  1.00  0.00    -0.000 C 
BRANCH  10  11
ATOM     11  C   UNL     1     162.038 179.619 178.378  1.00  0.00    -0.000 C 
BRANCH  11  12
ATOM     12  C   UNL     1     162.463 178.590 177.318  1.00  0.00    -0.000 C 
BRANCH  12  13
ATOM     13  C   UNL     1     161.685 177.270 177.430  1.00  0.00    -0.003 C 
ATOM     14  C   UNL     1     162.631 176.073 177.440  1.00  0.00     0.004 C 
ENDBRANCH  12  13
ENDBRANCH  11  12
ENDBRANCH  10  11
ENDBRANCH   9  10
ENDBRANCH   1   9
TORSDOF 10
ENDMDL
MODEL 4
REMARK VINA RESULT:    -3.720      2.055      3.557
REMARK INTER + INTRA:          -7.358
REMARK INTER:                  -6.373
REMARK INTRA:                  -0.985
REMARK UNBOUND:                -1.463
REMARK SMILES CCCCCCCCCCCC(=O)[O-]
REMARK SMILES IDX 7 1 8 2 9 3 10 4 11 5 12 6 13 7 14 8 6 9 5 10 4 11 3 12 2 13
REMARK SMILES IDX 1 14
REMARK H PARENT
REMARK Flexibility Score: inf
ROOT
ATOM      1  C   UNL     1     162.816 176.272 180.698  1.00  0.00     0.000 C 
ENDROOT
BRANCH   1   2
ATOM      2  C   UNL     1     163.605 177.463 181.261  1.00  0.00     0.000 C 
BRANCH   2   3
ATOM      3  C   UNL     1     162.706 178.652 181.642  1.00  0.00     0.000 C 
BRANCH   3   4
ATOM      4  C   UNL     1     162.798 179.869 180.699  1.00  0.00     0.006 C 
BRANCH   4   5
ATOM      5  C   UNL     1     161.547 180.105 179.838  1.00  0.00     0.053 C 
BRANCH   5   6
ATOM      6  C   UNL     1     161.688 179.511 178.470  1.00  0.00     0.041 C 
ATOM      7  O   UNL     1     162.376 180.096 177.593  1.00  0.00    -0.550 OA
ATOM      8  O   UNL     1     161.087 178.294 178.175  1.00  0.00    -0.550 OA
ENDBRANCH   5   6
ENDBRANCH   4   5
ENDBRANCH   3   4
ENDBRANCH   2   3
ENDBRANCH   1   2
BRANCH   1   9
ATOM      9  C   UNL     1     161.327 176.383 181.050  1.00  0.00     0.000 C 
BRANCH   9  10
ATOM     10  C   UNL     1     160.590 175.073 180.748  1.00  0.00    -0.000 C 
BRANCH  10  11
ATOM     11  C   UNL     1     160.686 174.103 181.934  1.00  0.00    -0.000 C 
BRANCH  11  12
ATOM     12  C   UNL     1     161.462 172.821 181.588  1.00  0.00    -0.000 C 
BRANCH  12  13
ATOM     13  C   UNL     1     162.465 172.424 182.680  1.00  0.00    -0.003 C 
ATOM     14  C   UNL     1     163.663 173.368 182.697  1.00  0.00     0.004 C 
ENDBRANCH  12  13
ENDBRANCH  11  12
ENDBRANCH  10  11
ENDBRANCH   9  10
ENDBRANCH   1   9
TORSDOF 10
ENDMDL
MODEL 5
REMARK VINA RESULT:    -3.680     10.970     12.857
REMARK INTER + INTRA:          -7.294
REMARK INTER:                  -6.007
REMARK INTRA:                  -1.287
REMARK UNBOUND:                -1.463
REMARK SMILES CCCCCCCCCCCC(=O)[O-]
REMARK SMILES IDX 7 1 8 2 9 3 10 4 11 5 12 6 13 7 14 8 6 9 5 10 4 11 3 12 2 13
REMARK SMILES IDX 1 14
REMARK H PARENT
REMARK Flexibility Score: inf
ROOT
ATOM      1  C   UNL     1     176.322 178.158 182.143  1.00  0.00     0.000 C 
ENDROOT
BRANCH   1   2
ATOM      2  C   UNL     1     175.575 177.299 181.112  1.00  0.00     0.000 C 
BRANCH   2   3
ATOM      3  C   UNL     1     174.044 177.407 181.237  1.00  0.00     0.000 C 
BRANCH   3   4
ATOM      4  C   UNL     1     173.454 178.783 180.871  1.00  0.00     0.006 C 
BRANCH   4   5
ATOM      5  C   UNL     1     171.936 178.903 181.080  1.00  0.00     0.053 C 
BRANCH   5   6
ATOM      6  C   UNL     1     171.231 179.346 179.834  1.00  0.00     0.041 C 
ATOM      7  O   UNL     1     171.889 179.803 178.863  1.00  0.00    -0.550 OA
ATOM      8  O   UNL     1     169.852 179.222 179.733  1.00  0.00    -0.550 OA
ENDBRANCH   5   6
ENDBRANCH   4   5
ENDBRANCH   3   4
ENDBRANCH   2   3
ENDBRANCH   1   2
BRANCH   1   9
ATOM      9  C   UNL     1     177.041 179.330 181.464  1.00  0.00     0.000 C 
BRANCH   9  10
ATOM     10  C   UNL     1     177.469 178.963 180.038  1.00  0.00    -0.000 C 
BRANCH  10  11
ATOM     11  C   UNL     1     177.080 180.070 179.047  1.00  0.00    -0.000 C 
BRANCH  11  12
ATOM     12  C   UNL     1     176.638 179.514 177.684  1.00  0.00    -0.000 C 
BRANCH  12  13
ATOM     13  C   UNL     1     175.112 179.381 177.567  1.00  0.00    -0.003 C 
ATOM     14  C   UNL     1     174.693 177.916 177.478  1.00  0.00     0.004 C 
ENDBRANCH  12  13
ENDBRANCH  11  12
ENDBRANCH  10  11
ENDBRANCH   9  10
ENDBRANCH   1   9
TORSDOF 10
ENDMDL
MODEL 6
REMARK VINA RESULT:    -3.675      2.348      4.676
REMARK INTER + INTRA:          -7.286
REMARK INTER:                  -6.133
REMARK INTRA:                  -1.154
REMARK UNBOUND:                -1.463
REMARK SMILES CCCCCCCCCCCC(=O)[O-]
REMARK SMILES IDX 7 1 8 2 9 3 10 4 11 5 12 6 13 7 14 8 6 9 5 10 4 11 3 12 2 13
REMARK SMILES IDX 1 14
REMARK H PARENT
REMARK Flexibility Score: inf
ROOT
ATOM      1  C   UNL     1     162.318 177.401 178.304  1.00  0.00     0.000 C 
ENDROOT
BRANCH   1   2
ATOM      2  C   UNL     1     161.751 176.135 178.962  1.00  0.00     0.000 C 
BRANCH   2   3
ATOM      3  C   UNL     1     161.326 176.356 180.425  1.00  0.00     0.000 C 
BRANCH   3   4
ATOM      4  C   UNL     1     160.636 175.151 181.095  1.00  0.00     0.006 C 
BRANCH   4   5
ATOM      5  C   UNL     1     161.496 173.880 181.164  1.00  0.00     0.053 C 
BRANCH   5   6
ATOM      6  C   UNL     1     160.872 172.739 180.419  1.00  0.00     0.041 C 
ATOM      7  O   UNL     1     160.983 171.563 180.854  1.00  0.00    -0.550 OA
ATOM      8  O   UNL     1     160.141 172.980 179.263  1.00  0.00    -0.550 OA
ENDBRANCH   5   6
ENDBRANCH   4   5
ENDBRANCH   3   4
ENDBRANCH   2   3
ENDBRANCH   1   2
BRANCH   1   9
ATOM      9  C   UNL     1     161.387 178.599 178.524  1.00  0.00     0.000 C 
BRANCH   9  10
ATOM     10  C   UNL     1     162.163 179.812 179.051  1.00  0.00    -0.000 C 
BRANCH  10  11
ATOM     11  C   UNL     1     161.772 180.125 180.503  1.00  0.00    -0.000 C 
BRANCH  11  12
ATOM     12  C   UNL     1     162.621 179.349 181.524  1.00  0.00    -0.000 C 
BRANCH  12  13
ATOM     13  C   UNL     1     164.117 179.364 181.181  1.00  0.00    -0.003 C 
ATOM     14  C   UNL     1     164.682 177.947 181.120  1.00  0.00     0.004 C 
ENDBRANCH  12  13
ENDBRANCH  11  12
ENDBRANCH  10  11
ENDBRANCH   9  10
ENDBRANCH   1   9
TORSDOF 10
ENDMDL
MODEL 7
REMARK VINA RESULT:    -3.658      1.998      3.546
REMARK INTER + INTRA:          -7.260
REMARK INTER:                  -5.839
REMARK INTRA:                  -1.421
REMARK UNBOUND:                -1.463
REMARK SMILES CCCCCCCCCCCC(=O)[O-]
REMARK SMILES IDX 7 1 8 2 9 3 10 4 11 5 12 6 13 7 14 8 6 9 5 10 4 11 3 12 2 13
REMARK SMILES IDX 1 14
REMARK H PARENT
REMARK Flexibility Score: inf
ROOT
ATOM      1  C   UNL     1     162.373 179.897 179.570  1.00  0.00     0.000 C 
ENDROOT
BRANCH   1   2
ATOM      2  C   UNL     1     161.473 178.841 178.914  1.00  0.00     0.000 C 
BRANCH   2   3
ATOM      3  C   UNL     1     162.269 177.728 178.209  1.00  0.00     0.000 C 
BRANCH   3   4
ATOM      4  C   UNL     1     162.074 176.314 178.794  1.00  0.00     0.006 C 
BRANCH   4   5
ATOM      5  C   UNL     1     161.449 176.285 180.198  1.00  0.00     0.053 C 
BRANCH   5   6
ATOM      6  C   UNL     1     160.642 175.043 180.427  1.00  0.00     0.041 C 
ATOM      7  O   UNL     1     160.551 174.551 181.581  1.00  0.00    -0.550 OA
ATOM      8  O   UNL     1     159.962 174.451 179.370  1.00  0.00    -0.550 OA
ENDBRANCH   5   6
ENDBRANCH   4   5
ENDBRANCH   3   4
ENDBRANCH   2   3
ENDBRANCH   1   2
BRANCH   1   9
ATOM      9  C   UNL     1     162.296 179.811 181.100  1.00  0.00     0.000 C 
BRANCH   9  10
ATOM     10  C   UNL     1     163.568 179.181 181.681  1.00  0.00    -0.000 C 
BRANCH  10  11
ATOM     11  C   UNL     1     164.796 179.540 180.832  1.00  0.00    -0.000 C 
BRANCH  11  12
ATOM     12  C   UNL     1     165.559 178.298 180.343  1.00  0.00    -0.000 C 
BRANCH  12  13
ATOM     13  C   UNL     1     164.961 176.988 180.877  1.00  0.00    -0.003 C 
ATOM     14  C   UNL     1     165.917 175.819 180.658  1.00  0.00     0.004 C 
ENDBRANCH  12  13
ENDBRANCH  11  12
ENDBRANCH  10  11
ENDBRANCH   9  10
ENDBRANCH   1   9
TORSDOF 10
ENDMDL
MODEL 8
REMARK VINA RESULT:    -3.612      2.713      4.142
REMARK INTER + INTRA:          -7.186
REMARK INTER:                  -5.831
REMARK INTRA:                  -1.356
REMARK UNBOUND:                -1.463
REMARK SMILES CCCCCCCCCCCC(=O)[O-]
REMARK SMILES IDX 7 1 8 2 9 3 10 4 11 5 12 6 13 7 14 8 6 9 5 10 4 11 3 12 2 13
REMARK SMILES IDX 1 14
REMARK H PARENT
REMARK Flexibility Score: inf
ROOT
ATOM      1  C   UNL     1     162.314 179.897 179.233  1.00  0.00     0.000 C 
ENDROOT
BRANCH   1   2
ATOM      2  C   UNL     1     162.170 179.775 180.756  1.00  0.00     0.000 C 
BRANCH   2   3
ATOM      3  C   UNL     1     163.468 179.323 181.448  1.00  0.00     0.000 C 
BRANCH   3   4
ATOM      4  C   UNL     1     164.599 178.887 180.495  1.00  0.00     0.006 C 
BRANCH   4   5
ATOM      5  C   UNL     1     165.847 179.784 180.533  1.00  0.00     0.053 C 
BRANCH   5   6
ATOM      6  C   UNL     1     167.057 179.084 179.993  1.00  0.00     0.041 C 
ATOM      7  O   UNL     1     168.127 179.068 180.655  1.00  0.00    -0.550 OA
ATOM      8  O   UNL     1     166.991 178.421 178.775  1.00  0.00    -0.550 OA
ENDBRANCH   5   6
ENDBRANCH   4   5
ENDBRANCH   3   4
ENDBRANCH   2   3
ENDBRANCH   1   2
BRANCH   1   9
ATOM      9  C   UNL     1     161.362 178.934 178.512  1.00  0.00     0.000 C 
BRANCH   9  10
ATOM     10  C   UNL     1     162.127 177.752 177.906  1.00  0.00    -0.000 C 
BRANCH  10  11
ATOM     11  C   UNL     1     161.693 176.428 178.551  1.00  0.00    -0.000 C 
BRANCH  11  12
ATOM     12  C   UNL     1     162.734 175.884 179.543  1.00  0.00    -0.000 C 
BRANCH  12  13
ATOM     13  C   UNL     1     162.227 175.881 180.992  1.00  0.00    -0.003 C 
ATOM     14  C   UNL     1     160.708 175.739 181.043  1.00  0.00     0.004 C 
ENDBRANCH  12  13
ENDBRANCH  11  12
ENDBRANCH  10  11
ENDBRANCH   9  10
ENDBRANCH   1   9
TORSDOF 10
ENDMDL
