MODEL 1
REMARK VINA RESULT:    -6.349      0.000      0.000
REMARK INTER + INTRA:          -7.668
REMARK INTER:                  -7.462
REMARK INTRA:                  -0.206
REMARK UNBOUND:                -0.206
REMARK SMILES O=C([O-])C=Cc1ccc(O)c(O)c1
REMARK SMILES IDX 6 1 13 2 7 3 11 4 8 5 9 6 5 7 4 8 2 9 1 10 3 11 12 12 10 14
REMARK H PARENT 12 13 10 15
REMARK Flexibility Score: inf
ROOT
ATOM      1  C   UNL     1     -24.665 -22.214 -13.098  1.00  0.00    -0.022 A 
ATOM      2  C   UNL     1     -25.696 -22.575 -13.976  1.00  0.00     0.058 A 
ATOM      3  C   UNL     1     -23.591 -23.099 -12.897  1.00  0.00     0.012 A 
ATOM      4  C   UNL     1     -25.637 -23.778 -14.688  1.00  0.00     0.157 A 
ATOM      5  C   UNL     1     -23.528 -24.301 -13.606  1.00  0.00     0.051 A 
ATOM      6  C   UNL     1     -24.546 -24.645 -14.506  1.00  0.00     0.157 A 
ENDROOT
BRANCH   1   7
ATOM      7  C   UNL     1     -24.780 -20.963 -12.320  1.00  0.00     0.010 C 
ATOM      8  C   UNL     1     -24.054 -19.853 -12.523  1.00  0.00     0.025 C 
BRANCH   8   9
ATOM      9  C   UNL     1     -23.153 -19.616 -13.667  1.00  0.00     0.064 C 
ATOM     10  O   UNL     1     -21.990 -20.095 -13.645  1.00  0.00    -0.545 OA
ATOM     11  O   UNL     1     -23.535 -18.815 -14.737  1.00  0.00    -0.545 OA
ENDBRANCH   8   9
ENDBRANCH   1   7
BRANCH   4  12
ATOM     12  O   UNL     1     -26.671 -24.096 -15.568  1.00  0.00    -0.504 OA
ATOM     13  H   UNL     1     -27.590 -23.677 -15.492  1.00  0.00     0.293 HD
ENDBRANCH   4  12
BRANCH   6  14
ATOM     14  O   UNL     1     -24.479 -25.844 -15.214  1.00  0.00    -0.504 OA
ATOM     15  H   UNL     1     -25.025 -26.653 -14.941  1.00  0.00     0.293 HD
ENDBRANCH   6  14
TORSDOF 4
ENDMDL
MODEL 2
REMARK VINA RESULT:    -6.270      1.751      1.932
REMARK INTER + INTRA:          -7.576
REMARK INTER:                  -7.411
REMARK INTRA:                  -0.165
REMARK UNBOUND:                -0.206
REMARK SMILES O=C([O-])C=Cc1ccc(O)c(O)c1
REMARK SMILES IDX 6 1 13 2 7 3 11 4 8 5 9 6 5 7 4 8 2 9 1 10 3 11 12 12 10 14
REMARK H PARENT 12 13 10 15
REMARK Flexibility Score: inf
ROOT
ATOM      1  C   UNL     1     -23.493 -22.091 -13.827  1.00  0.00    -0.022 A 
ATOM      2  C   UNL     1     -24.532 -22.179 -14.765  1.00  0.00     0.058 A 
ATOM      3  C   UNL     1     -23.123 -23.235 -13.101  1.00  0.00     0.012 A 
ATOM      4  C   UNL     1     -25.161 -23.403 -15.017  1.00  0.00     0.157 A 
ATOM      5  C   UNL     1     -23.748 -24.460 -13.349  1.00  0.00     0.051 A 
ATOM      6  C   UNL     1     -24.766 -24.552 -14.309  1.00  0.00     0.157 A 
ENDROOT
BRANCH   1   7
ATOM      7  C   UNL     1     -22.883 -20.775 -13.544  1.00  0.00     0.010 C 
ATOM      8  C   UNL     1     -23.312 -19.903 -12.619  1.00  0.00     0.025 C 
BRANCH   8   9
ATOM      9  C   UNL     1     -24.340 -20.176 -11.597  1.00  0.00     0.064 C 
ATOM     10  O   UNL     1     -24.010 -20.204 -10.383  1.00  0.00    -0.545 OA
ATOM     11  O   UNL     1     -25.652 -20.473 -11.949  1.00  0.00    -0.545 OA
ENDBRANCH   8   9
ENDBRANCH   1   7
BRANCH   4  12
ATOM     12  O   UNL     1     -26.177 -23.459 -15.970  1.00  0.00    -0.504 OA
ATOM     13  H   UNL     1     -26.613 -22.623 -16.342  1.00  0.00     0.293 HD
ENDBRANCH   4  12
BRANCH   6  14
ATOM     14  O   UNL     1     -25.387 -25.774 -14.558  1.00  0.00    -0.504 OA
ATOM     15  H   UNL     1     -25.836 -25.971 -15.444  1.00  0.00     0.293 HD
ENDBRANCH   6  14
TORSDOF 4
ENDMDL
MODEL 3
REMARK VINA RESULT:    -5.925      1.377      5.119
REMARK INTER + INTRA:          -7.170
REMARK INTER:                  -6.880
REMARK INTRA:                  -0.289
REMARK UNBOUND:                -0.206
REMARK SMILES O=C([O-])C=Cc1ccc(O)c(O)c1
REMARK SMILES IDX 6 1 13 2 7 3 11 4 8 5 9 6 5 7 4 8 2 9 1 10 3 11 12 12 10 14
REMARK H PARENT 12 13 10 15
REMARK Flexibility Score: inf
ROOT
ATOM      1  C   UNL     1     -23.424 -21.508 -13.032  1.00  0.00    -0.022 A 
ATOM      2  C   UNL     1     -22.736 -20.548 -13.788  1.00  0.00     0.058 A 
ATOM      3  C   UNL     1     -24.320 -21.086 -12.035  1.00  0.00     0.012 A 
ATOM      4  C   UNL     1     -22.973 -19.183 -13.590  1.00  0.00     0.157 A 
ATOM      5  C   UNL     1     -24.560 -19.724 -11.834  1.00  0.00     0.051 A 
ATOM      6  C   UNL     1     -23.893 -18.767 -12.612  1.00  0.00     0.157 A 
ENDROOT
BRANCH   1   7
ATOM      7  C   UNL     1     -23.115 -22.939 -13.226  1.00  0.00     0.010 C 
ATOM      8  C   UNL     1     -23.816 -23.789 -13.991  1.00  0.00     0.025 C 
BRANCH   8   9
ATOM      9  C   UNL     1     -24.898 -23.411 -14.920  1.00  0.00     0.064 C 
ATOM     10  O   UNL     1     -24.633 -23.243 -16.139  1.00  0.00    -0.545 OA
ATOM     11  O   UNL     1     -26.189 -23.166 -14.468  1.00  0.00    -0.545 OA
ENDBRANCH   8   9
ENDBRANCH   1   7
BRANCH   4  12
ATOM     12  O   UNL     1     -22.286 -18.255 -14.372  1.00  0.00    -0.504 OA
ATOM     13  H   UNL     1     -22.646 -17.929 -15.261  1.00  0.00     0.293 HD
ENDBRANCH   4  12
BRANCH   6  14
ATOM     14  O   UNL     1     -24.136 -17.409 -12.413  1.00  0.00    -0.504 OA
ATOM     15  H   UNL     1     -24.825 -16.907 -12.961  1.00  0.00     0.293 HD
ENDBRANCH   6  14
TORSDOF 4
ENDMDL
MODEL 4
REMARK VINA RESULT:    -5.905      0.995      1.992
REMARK INTER + INTRA:          -7.147
REMARK INTER:                  -7.133
REMARK INTRA:                  -0.014
REMARK UNBOUND:                -0.206
REMARK SMILES O=C([O-])C=Cc1ccc(O)c(O)c1
REMARK SMILES IDX 6 1 13 2 7 3 11 4 8 5 9 6 5 7 4 8 2 9 1 10 3 11 12 12 10 14
REMARK H PARENT 12 13 10 15
REMARK Flexibility Score: inf
ROOT
ATOM      1  C   UNL     1     -24.233 -22.115 -12.896  1.00  0.00    -0.022 A 
ATOM      2  C   UNL     1     -23.478 -23.208 -13.344  1.00  0.00     0.058 A 
ATOM      3  C   UNL     1     -25.559 -21.967 -13.337  1.00  0.00     0.012 A 
ATOM      4  C   UNL     1     -24.049 -24.173 -14.181  1.00  0.00     0.157 A 
ATOM      5  C   UNL     1     -26.134 -22.928 -14.172  1.00  0.00     0.051 A 
ATOM      6  C   UNL     1     -25.386 -24.036 -14.595  1.00  0.00     0.157 A 
ENDROOT
BRANCH   1   7
ATOM      7  C   UNL     1     -23.588 -21.085 -12.056  1.00  0.00     0.010 C 
ATOM      8  C   UNL     1     -23.386 -19.807 -12.413  1.00  0.00     0.025 C 
BRANCH   8   9
ATOM      9  C   UNL     1     -23.936 -19.157 -13.617  1.00  0.00     0.064 C 
ATOM     10  O   UNL     1     -23.226 -19.079 -14.654  1.00  0.00    -0.545 OA
ATOM     11  O   UNL     1     -25.193 -18.565 -13.612  1.00  0.00    -0.545 OA
ENDBRANCH   8   9
ENDBRANCH   1   7
BRANCH   4  12
ATOM     12  O   UNL     1     -23.275 -25.257 -14.592  1.00  0.00    -0.504 OA
ATOM     13  H   UNL     1     -23.675 -26.047 -15.084  1.00  0.00     0.293 HD
ENDBRANCH   4  12
BRANCH   6  14
ATOM     14  O   UNL     1     -25.962 -24.995 -15.426  1.00  0.00    -0.504 OA
ATOM     15  H   UNL     1     -25.401 -25.565 -16.048  1.00  0.00     0.293 HD
ENDBRANCH   6  14
TORSDOF 4
ENDMDL
MODEL 5
REMARK VINA RESULT:    -5.903      1.651      2.582
REMARK INTER + INTRA:          -7.144
REMARK INTER:                  -7.259
REMARK INTRA:                   0.115
REMARK UNBOUND:                -0.206
REMARK SMILES O=C([O-])C=Cc1ccc(O)c(O)c1
REMARK SMILES IDX 6 1 13 2 7 3 11 4 8 5 9 6 5 7 4 8 2 9 1 10 3 11 12 12 10 14
REMARK H PARENT 12 13 10 15
REMARK Flexibility Score: inf
ROOT
ATOM      1  C   UNL     1     -23.759 -22.192 -14.064  1.00  0.00    -0.022 A 
ATOM      2  C   UNL     1     -23.287 -23.513 -14.033  1.00  0.00     0.058 A 
ATOM      3  C   UNL     1     -24.996 -21.917 -14.672  1.00  0.00     0.012 A 
ATOM      4  C   UNL     1     -24.060 -24.556 -14.555  1.00  0.00     0.157 A 
ATOM      5  C   UNL     1     -25.771 -22.957 -15.193  1.00  0.00     0.051 A 
ATOM      6  C   UNL     1     -25.311 -24.280 -15.134  1.00  0.00     0.157 A 
ENDROOT
BRANCH   1   7
ATOM      7  C   UNL     1     -22.899 -21.105 -13.554  1.00  0.00     0.010 C 
ATOM      8  C   UNL     1     -23.328 -20.027 -12.880  1.00  0.00     0.025 C 
BRANCH   8   9
ATOM      9  C   UNL     1     -24.695 -19.827 -12.365  1.00  0.00     0.064 C 
ATOM     10  O   UNL     1     -25.401 -18.897 -12.834  1.00  0.00    -0.545 OA
ATOM     11  O   UNL     1     -25.197 -20.597 -11.322  1.00  0.00    -0.545 OA
ENDBRANCH   8   9
ENDBRANCH   1   7
BRANCH   4  12
ATOM     12  O   UNL     1     -23.569 -25.860 -14.491  1.00  0.00    -0.504 OA
ATOM     13  H   UNL     1     -23.952 -26.608 -15.056  1.00  0.00     0.293 HD
ENDBRANCH   4  12
BRANCH   6  14
ATOM     14  O   UNL     1     -26.086 -25.315 -15.652  1.00  0.00    -0.504 OA
ATOM     15  H   UNL     1     -26.563 -25.227 -16.542  1.00  0.00     0.293 HD
ENDBRANCH   6  14
TORSDOF 4
ENDMDL
MODEL 6
REMARK VINA RESULT:    -5.827      1.642      2.082
REMARK INTER + INTRA:          -7.055
REMARK INTER:                  -6.774
REMARK INTRA:                  -0.280
REMARK UNBOUND:                -0.206
REMARK SMILES O=C([O-])C=Cc1ccc(O)c(O)c1
REMARK SMILES IDX 6 1 13 2 7 3 11 4 8 5 9 6 5 7 4 8 2 9 1 10 3 11 12 12 10 14
REMARK H PARENT 12 13 10 15
REMARK Flexibility Score: inf
ROOT
ATOM      1  C   UNL     1     -24.129 -20.636 -12.638  1.00  0.00    -0.022 A 
ATOM      2  C   UNL     1     -25.371 -21.287 -12.631  1.00  0.00     0.058 A 
ATOM      3  C   UNL     1     -23.026 -21.265 -13.239  1.00  0.00     0.012 A 
ATOM      4  C   UNL     1     -25.528 -22.528 -13.259  1.00  0.00     0.157 A 
ATOM      5  C   UNL     1     -23.178 -22.504 -13.868  1.00  0.00     0.051 A 
ATOM      6  C   UNL     1     -24.428 -23.139 -13.886  1.00  0.00     0.157 A 
ENDROOT
BRANCH   1   7
ATOM      7  C   UNL     1     -23.981 -19.353 -11.921  1.00  0.00     0.010 C 
ATOM      8  C   UNL     1     -24.022 -18.137 -12.488  1.00  0.00     0.025 C 
BRANCH   8   9
ATOM      9  C   UNL     1     -24.411 -17.856 -13.883  1.00  0.00     0.064 C 
ATOM     10  O   UNL     1     -23.540 -17.444 -14.693  1.00  0.00    -0.545 OA
ATOM     11  O   UNL     1     -25.730 -17.965 -14.305  1.00  0.00    -0.545 OA
ENDBRANCH   8   9
ENDBRANCH   1   7
BRANCH   4  12
ATOM     12  O   UNL     1     -26.782 -23.138 -13.250  1.00  0.00    -0.504 OA
ATOM     13  H   UNL     1     -27.454 -22.977 -12.509  1.00  0.00     0.293 HD
ENDBRANCH   4  12
BRANCH   6  14
ATOM     14  O   UNL     1     -24.578 -24.372 -14.516  1.00  0.00    -0.504 OA
ATOM     15  H   UNL     1     -23.862 -25.087 -14.462  1.00  0.00     0.293 HD
ENDBRANCH   6  14
TORSDOF 4
ENDMDL
MODEL 7
REMARK VINA RESULT:    -5.768      1.575      4.786
REMARK INTER + INTRA:          -6.985
REMARK INTER:                  -6.875
REMARK INTRA:                  -0.110
REMARK UNBOUND:                -0.206
REMARK SMILES O=C([O-])C=Cc1ccc(O)c(O)c1
REMARK SMILES IDX 6 1 13 2 7 3 11 4 8 5 9 6 5 7 4 8 2 9 1 10 3 11 12 12 10 14
REMARK H PARENT 12 13 10 15
REMARK Flexibility Score: inf
ROOT
ATOM      1  C   UNL     1     -24.640 -20.960 -13.266  1.00  0.00    -0.022 A 
ATOM      2  C   UNL     1     -25.275 -19.819 -13.777  1.00  0.00     0.058 A 
ATOM      3  C   UNL     1     -23.238 -20.989 -13.185  1.00  0.00     0.012 A 
ATOM      4  C   UNL     1     -24.527 -18.698 -14.155  1.00  0.00     0.157 A 
ATOM      5  C   UNL     1     -22.487 -19.872 -13.561  1.00  0.00     0.051 A 
ATOM      6  C   UNL     1     -23.126 -18.721 -14.043  1.00  0.00     0.157 A 
ENDROOT
BRANCH   1   7
ATOM      7  C   UNL     1     -25.450 -22.147 -12.925  1.00  0.00     0.010 C 
ATOM      8  C   UNL     1     -25.455 -23.305 -13.602  1.00  0.00     0.025 C 
BRANCH   8   9
ATOM      9  C   UNL     1     -24.521 -23.667 -14.685  1.00  0.00     0.064 C 
ATOM     10  O   UNL     1     -23.517 -24.379 -14.421  1.00  0.00    -0.545 OA
ATOM     11  O   UNL     1     -24.685 -23.180 -15.977  1.00  0.00    -0.545 OA
ENDBRANCH   8   9
ENDBRANCH   1   7
BRANCH   4  12
ATOM     12  O   UNL     1     -25.192 -17.572 -14.641  1.00  0.00    -0.504 OA
ATOM     13  H   UNL     1     -25.082 -17.253 -15.596  1.00  0.00     0.293 HD
ENDBRANCH   4  12
BRANCH   6  14
ATOM     14  O   UNL     1     -22.376 -17.607 -14.415  1.00  0.00    -0.504 OA
ATOM     15  H   UNL     1     -21.773 -17.129 -13.755  1.00  0.00     0.293 HD
ENDBRANCH   6  14
TORSDOF 4
ENDMDL
MODEL 8
REMARK VINA RESULT:    -5.508      1.921      4.912
REMARK INTER + INTRA:          -6.680
REMARK INTER:                  -6.593
REMARK INTRA:                  -0.087
REMARK UNBOUND:                -0.206
REMARK SMILES O=C([O-])C=Cc1ccc(O)c(O)c1
REMARK SMILES IDX 6 1 13 2 7 3 11 4 8 5 9 6 5 7 4 8 2 9 1 10 3 11 12 12 10 14
REMARK H PARENT 12 13 10 15
REMARK Flexibility Score: inf
ROOT
ATOM      1  C   UNL     1     -25.018 -21.976 -13.715  1.00  0.00    -0.022 A 
ATOM      2  C   UNL     1     -25.727 -21.463 -12.620  1.00  0.00     0.058 A 
ATOM      3  C   UNL     1     -23.695 -21.557 -13.935  1.00  0.00     0.012 A 
ATOM      4  C   UNL     1     -25.112 -20.583 -11.722  1.00  0.00     0.157 A 
ATOM      5  C   UNL     1     -23.076 -20.680 -13.041  1.00  0.00     0.051 A 
ATOM      6  C   UNL     1     -23.777 -20.192 -11.929  1.00  0.00     0.157 A 
ENDROOT
BRANCH   1   7
ATOM      7  C   UNL     1     -25.709 -22.860 -14.675  1.00  0.00     0.010 C 
ATOM      8  C   UNL     1     -25.403 -24.146 -14.906  1.00  0.00     0.025 C 
BRANCH   8   9
ATOM      9  C   UNL     1     -24.456 -24.956 -14.117  1.00  0.00     0.064 C 
ATOM     10  O   UNL     1     -24.638 -25.081 -12.878  1.00  0.00    -0.545 OA
ATOM     11  O   UNL     1     -23.329 -25.524 -14.697  1.00  0.00    -0.545 OA
ENDBRANCH   8   9
ENDBRANCH   1   7
BRANCH   4  12
ATOM     12  O   UNL     1     -25.840 -20.107 -10.633  1.00  0.00    -0.504 OA
ATOM     13  H   UNL     1     -25.734 -20.495  -9.703  1.00  0.00     0.293 HD
ENDBRANCH   4  12
BRANCH   6  14
ATOM     14  O   UNL     1     -23.158 -19.319 -11.038  1.00  0.00    -0.504 OA
ATOM     15  H   UNL     1     -23.692 -18.666 -10.476  1.00  0.00     0.293 HD
ENDBRANCH   6  14
TORSDOF 4
ENDMDL
MODEL 9
REMARK VINA RESULT:    -5.439      2.327      5.517
REMARK INTER + INTRA:          -6.598
REMARK INTER:                  -6.350
REMARK INTRA:                  -0.248
REMARK UNBOUND:                -0.206
REMARK SMILES O=C([O-])C=Cc1ccc(O)c(O)c1
REMARK SMILES IDX 6 1 13 2 7 3 11 4 8 5 9 6 5 7 4 8 2 9 1 10 3 11 12 12 10 14
REMARK H PARENT 12 13 10 15
REMARK Flexibility Score: inf
ROOT
ATOM      1  C   UNL     1     -24.752 -19.097 -13.168  1.00  0.00    -0.022 A 
ATOM      2  C   UNL     1     -25.626 -18.325 -13.946  1.00  0.00     0.058 A 
ATOM      3  C   UNL     1     -23.375 -18.820 -13.200  1.00  0.00     0.012 A 
ATOM      4  C   UNL     1     -25.144 -17.254 -14.707  1.00  0.00     0.157 A 
ATOM      5  C   UNL     1     -22.889 -17.751 -13.958  1.00  0.00     0.051 A 
ATOM      6  C   UNL     1     -23.769 -16.961 -14.711  1.00  0.00     0.157 A 
ENDROOT
BRANCH   1   7
ATOM      7  C   UNL     1     -25.281 -20.254 -12.417  1.00  0.00     0.010 C 
ATOM      8  C   UNL     1     -25.316 -21.519 -12.862  1.00  0.00     0.025 C 
BRANCH   8   9
ATOM      9  C   UNL     1     -24.665 -22.013 -14.090  1.00  0.00     0.064 C 
ATOM     10  O   UNL     1     -25.312 -22.018 -15.170  1.00  0.00    -0.545 OA
ATOM     11  O   UNL     1     -23.379 -22.540 -14.069  1.00  0.00    -0.545 OA
ENDBRANCH   8   9
ENDBRANCH   1   7
BRANCH   4  12
ATOM     12  O   UNL     1     -26.044 -16.495 -15.454  1.00  0.00    -0.504 OA
ATOM     13  H   UNL     1     -26.030 -16.487 -16.467  1.00  0.00     0.293 HD
ENDBRANCH   4  12
BRANCH   6  14
ATOM     14  O   UNL     1     -23.283 -15.894 -15.464  1.00  0.00    -0.504 OA
ATOM     15  H   UNL     1     -22.493 -15.341 -15.153  1.00  0.00     0.293 HD
ENDBRANCH   6  14
TORSDOF 4
ENDMDL
