MODEL 1
REMARK VINA RESULT:    -3.405      0.000      0.000
REMARK INTER + INTRA:          -6.451
REMARK INTER:                  -5.395
REMARK INTRA:                  -1.055
REMARK UNBOUND:                -1.055
REMARK SMILES CCCCCCCCCCCC(=O)[O-]
REMARK SMILES IDX 7 1 8 2 9 3 10 4 11 5 12 6 13 7 14 8 6 9 5 10 4 11 3 12 2 13
REMARK SMILES IDX 1 14
REMARK H PARENT
REMARK Flexibility Score: inf
ROOT
ATOM      1  C   UNL     1      -0.443  -9.295  39.253  1.00  0.00     0.000 C 
ENDROOT
BRANCH   1   2
ATOM      2  C   UNL     1      -0.609 -10.683  39.906  1.00  0.00     0.000 C 
BRANCH   2   3
ATOM      3  C   UNL     1      -1.401 -10.693  41.226  1.00  0.00     0.000 C 
BRANCH   3   4
ATOM      4  C   UNL     1      -2.224 -11.975  41.418  1.00  0.00     0.006 C 
BRANCH   4   5
ATOM      5  C   UNL     1      -1.664 -12.820  42.565  1.00  0.00     0.053 C 
BRANCH   5   6
ATOM      6  C   UNL     1      -2.266 -14.188  42.553  1.00  0.00     0.041 C 
ATOM      7  O   UNL     1      -2.002 -15.006  43.473  1.00  0.00    -0.550 OA
ATOM      8  O   UNL     1      -3.083 -14.579  41.498  1.00  0.00    -0.550 OA
ENDBRANCH   5   6
ENDBRANCH   4   5
ENDBRANCH   3   4
ENDBRANCH   2   3
ENDBRANCH   1   2
BRANCH   1   9
ATOM      9  C   UNL     1      -1.398  -8.207  39.778  1.00  0.00     0.000 C 
BRANCH   9  10
ATOM     10  C   UNL     1      -2.505  -7.849  38.776  1.00  0.00    -0.000 C 
BRANCH  10  11
ATOM     11  C   UNL     1      -3.685  -8.824  38.889  1.00  0.00    -0.000 C 
BRANCH  11  12
ATOM     12  C   UNL     1      -4.532  -8.596  40.154  1.00  0.00    -0.000 C 
BRANCH  12  13
ATOM     13  C   UNL     1      -5.007  -9.882  40.857  1.00  0.00    -0.003 C 
ATOM     14  C   UNL     1      -5.275  -9.685  42.348  1.00  0.00     0.004 C 
ENDBRANCH  12  13
ENDBRANCH  11  12
ENDBRANCH  10  11
ENDBRANCH   9  10
ENDBRANCH   1   9
TORSDOF 10
ENDMDL
MODEL 2
REMARK VINA RESULT:    -3.379      4.188      6.298
REMARK INTER + INTRA:          -6.411
REMARK INTER:                  -5.299
REMARK INTRA:                  -1.111
REMARK UNBOUND:                -1.055
REMARK SMILES CCCCCCCCCCCC(=O)[O-]
REMARK SMILES IDX 7 1 8 2 9 3 10 4 11 5 12 6 13 7 14 8 6 9 5 10 4 11 3 12 2 13
REMARK SMILES IDX 1 14
REMARK H PARENT
REMARK Flexibility Score: inf
ROOT
ATOM      1  C   UNL     1      -4.132  -7.407  36.870  1.00  0.00     0.000 C 
ENDROOT
BRANCH   1   2
ATOM      2  C   UNL     1      -2.863  -6.678  37.356  1.00  0.00     0.000 C 
BRANCH   2   3
ATOM      3  C   UNL     1      -1.541  -7.421  37.090  1.00  0.00     0.000 C 
BRANCH   3   4
ATOM      4  C   UNL     1      -1.126  -8.335  38.253  1.00  0.00     0.006 C 
BRANCH   4   5
ATOM      5  C   UNL     1      -1.755  -7.868  39.568  1.00  0.00     0.053 C 
BRANCH   5   6
ATOM      6  C   UNL     1      -2.434  -9.007  40.258  1.00  0.00     0.041 C 
ATOM      7  O   UNL     1      -2.010  -9.419  41.369  1.00  0.00    -0.550 OA
ATOM      8  O   UNL     1      -3.508  -9.647  39.651  1.00  0.00    -0.550 OA
ENDBRANCH   5   6
ENDBRANCH   4   5
ENDBRANCH   3   4
ENDBRANCH   2   3
ENDBRANCH   1   2
BRANCH   1   9
ATOM      9  C   UNL     1      -5.210  -6.498  36.249  1.00  0.00     0.000 C 
BRANCH   9  10
ATOM     10  C   UNL     1      -4.885  -5.004  36.389  1.00  0.00    -0.000 C 
BRANCH  10  11
ATOM     11  C   UNL     1      -5.025  -4.284  35.040  1.00  0.00    -0.000 C 
BRANCH  11  12
ATOM     12  C   UNL     1      -3.680  -4.103  34.314  1.00  0.00    -0.000 C 
BRANCH  12  13
ATOM     13  C   UNL     1      -3.399  -5.134  33.205  1.00  0.00    -0.003 C 
ATOM     14  C   UNL     1      -2.322  -6.148  33.588  1.00  0.00     0.004 C 
ENDBRANCH  12  13
ENDBRANCH  11  12
ENDBRANCH  10  11
ENDBRANCH   9  10
ENDBRANCH   1   9
TORSDOF 10
ENDMDL
MODEL 3
REMARK VINA RESULT:    -3.353      3.005      4.991
REMARK INTER + INTRA:          -6.369
REMARK INTER:                  -4.885
REMARK INTRA:                  -1.484
REMARK UNBOUND:                -1.055
REMARK SMILES CCCCCCCCCCCC(=O)[O-]
REMARK SMILES IDX 7 1 8 2 9 3 10 4 11 5 12 6 13 7 14 8 6 9 5 10 4 11 3 12 2 13
REMARK SMILES IDX 1 14
REMARK H PARENT
REMARK Flexibility Score: inf
ROOT
ATOM      1  C   UNL     1      -3.268 -13.140  41.229  1.00  0.00     0.000 C 
ENDROOT
BRANCH   1   2
ATOM      2  C   UNL     1      -2.142 -13.007  42.275  1.00  0.00     0.000 C 
BRANCH   2   3
ATOM      3  C   UNL     1      -1.437 -11.639  42.307  1.00  0.00     0.000 C 
BRANCH   3   4
ATOM      4  C   UNL     1      -1.568 -10.870  40.983  1.00  0.00     0.006 C 
BRANCH   4   5
ATOM      5  C   UNL     1      -1.797  -9.378  41.237  1.00  0.00     0.053 C 
BRANCH   5   6
ATOM      6  C   UNL     1      -1.474  -8.582  40.013  1.00  0.00     0.041 C 
ATOM      7  O   UNL     1      -2.327  -7.795  39.525  1.00  0.00    -0.550 OA
ATOM      8  O   UNL     1      -0.247  -8.746  39.380  1.00  0.00    -0.550 OA
ENDBRANCH   5   6
ENDBRANCH   4   5
ENDBRANCH   3   4
ENDBRANCH   2   3
ENDBRANCH   1   2
BRANCH   1   9
ATOM      9  C   UNL     1      -4.637 -13.562  41.792  1.00  0.00     0.000 C 
BRANCH   9  10
ATOM     10  C   UNL     1      -4.985 -12.856  43.110  1.00  0.00    -0.000 C 
BRANCH  10  11
ATOM     11  C   UNL     1      -5.895 -11.645  42.861  1.00  0.00    -0.000 C 
BRANCH  11  12
ATOM     12  C   UNL     1      -5.166 -10.300  43.030  1.00  0.00    -0.000 C 
BRANCH  12  13
ATOM     13  C   UNL     1      -5.292  -9.340  41.833  1.00  0.00    -0.003 C 
ATOM     14  C   UNL     1      -5.335 -10.062  40.487  1.00  0.00     0.004 C 
ENDBRANCH  12  13
ENDBRANCH  11  12
ENDBRANCH  10  11
ENDBRANCH   9  10
ENDBRANCH   1   9
TORSDOF 10
ENDMDL
MODEL 4
REMARK VINA RESULT:    -3.287      5.532      7.794
REMARK INTER + INTRA:          -6.263
REMARK INTER:                  -5.264
REMARK INTRA:                  -1.000
REMARK UNBOUND:                -1.055
REMARK SMILES CCCCCCCCCCCC(=O)[O-]
REMARK SMILES IDX 7 1 8 2 9 3 10 4 11 5 12 6 13 7 14 8 6 9 5 10 4 11 3 12 2 13
REMARK SMILES IDX 1 14
REMARK H PARENT
REMARK Flexibility Score: inf
ROOT
ATOM      1  C   UNL     1      -1.748  -7.936  35.938  1.00  0.00     0.000 C 
ENDROOT
BRANCH   1   2
ATOM      2  C   UNL     1      -3.270  -7.851  36.175  1.00  0.00     0.000 C 
BRANCH   2   3
ATOM      3  C   UNL     1      -3.706  -6.864  37.273  1.00  0.00     0.000 C 
BRANCH   3   4
ATOM      4  C   UNL     1      -4.033  -5.467  36.725  1.00  0.00     0.006 C 
BRANCH   4   5
ATOM      5  C   UNL     1      -4.595  -5.554  35.304  1.00  0.00     0.053 C 
BRANCH   5   6
ATOM      6  C   UNL     1      -3.871  -4.613  34.395  1.00  0.00     0.041 C 
ATOM      7  O   UNL     1      -4.113  -3.378  34.438  1.00  0.00    -0.550 OA
ATOM      8  O   UNL     1      -2.964  -5.105  33.465  1.00  0.00    -0.550 OA
ENDBRANCH   5   6
ENDBRANCH   4   5
ENDBRANCH   3   4
ENDBRANCH   2   3
ENDBRANCH   1   2
BRANCH   1   9
ATOM      9  C   UNL     1      -0.878  -7.723  37.191  1.00  0.00     0.000 C 
BRANCH   9  10
ATOM     10  C   UNL     1      -0.240  -9.023  37.702  1.00  0.00    -0.000 C 
BRANCH  10  11
ATOM     11  C   UNL     1      -0.288  -9.092  39.235  1.00  0.00    -0.000 C 
BRANCH  11  12
ATOM     12  C   UNL     1      -1.367  -8.178  39.844  1.00  0.00    -0.000 C 
BRANCH  12  13
ATOM     13  C   UNL     1      -2.632  -8.906  40.334  1.00  0.00    -0.003 C 
ATOM     14  C   UNL     1      -2.349  -9.919  41.442  1.00  0.00     0.004 C 
ENDBRANCH  12  13
ENDBRANCH  11  12
ENDBRANCH  10  11
ENDBRANCH   9  10
ENDBRANCH   1   9
TORSDOF 10
ENDMDL
MODEL 5
REMARK VINA RESULT:    -3.282      3.790      5.403
REMARK INTER + INTRA:          -6.256
REMARK INTER:                  -5.024
REMARK INTRA:                  -1.232
REMARK UNBOUND:                -1.055
REMARK SMILES CCCCCCCCCCCC(=O)[O-]
REMARK SMILES IDX 7 1 8 2 9 3 10 4 11 5 12 6 13 7 14 8 6 9 5 10 4 11 3 12 2 13
REMARK SMILES IDX 1 14
REMARK H PARENT
REMARK Flexibility Score: inf
ROOT
ATOM      1  C   UNL     1      -1.107 -10.749  40.007  1.00  0.00     0.000 C 
ENDROOT
BRANCH   1   2
ATOM      2  C   UNL     1      -0.643  -9.325  39.640  1.00  0.00     0.000 C 
BRANCH   2   3
ATOM      3  C   UNL     1      -1.581  -8.193  40.099  1.00  0.00     0.000 C 
BRANCH   3   4
ATOM      4  C   UNL     1      -3.021  -8.371  39.597  1.00  0.00     0.006 C 
BRANCH   4   5
ATOM      5  C   UNL     1      -3.061  -8.456  38.069  1.00  0.00     0.053 C 
BRANCH   5   6
ATOM      6  C   UNL     1      -2.539  -7.195  37.459  1.00  0.00     0.041 C 
ATOM      7  O   UNL     1      -3.226  -6.141  37.496  1.00  0.00    -0.550 OA
ATOM      8  O   UNL     1      -1.312  -7.195  36.805  1.00  0.00    -0.550 OA
ENDBRANCH   5   6
ENDBRANCH   4   5
ENDBRANCH   3   4
ENDBRANCH   2   3
ENDBRANCH   1   2
BRANCH   1   9
ATOM      9  C   UNL     1      -1.067 -11.083  41.510  1.00  0.00     0.000 C 
BRANCH   9  10
ATOM     10  C   UNL     1      -2.228 -11.985  41.952  1.00  0.00    -0.000 C 
BRANCH  10  11
ATOM     11  C   UNL     1      -3.227 -12.196  40.806  1.00  0.00    -0.000 C 
BRANCH  11  12
ATOM     12  C   UNL     1      -4.607 -11.575  41.090  1.00  0.00    -0.000 C 
BRANCH  12  13
ATOM     13  C   UNL     1      -4.754 -10.933  42.482  1.00  0.00    -0.003 C 
ATOM     14  C   UNL     1      -5.230  -9.482  42.424  1.00  0.00     0.004 C 
ENDBRANCH  12  13
ENDBRANCH  11  12
ENDBRANCH  10  11
ENDBRANCH   9  10
ENDBRANCH   1   9
TORSDOF 10
ENDMDL
MODEL 6
REMARK VINA RESULT:    -3.255      3.623      5.475
REMARK INTER + INTRA:          -6.213
REMARK INTER:                  -5.239
REMARK INTRA:                  -0.974
REMARK UNBOUND:                -1.055
REMARK SMILES CCCCCCCCCCCC(=O)[O-]
REMARK SMILES IDX 7 1 8 2 9 3 10 4 11 5 12 6 13 7 14 8 6 9 5 10 4 11 3 12 2 13
REMARK SMILES IDX 1 14
REMARK H PARENT
REMARK Flexibility Score: inf
ROOT
ATOM      1  C   UNL     1      -2.190  -8.336  36.431  1.00  0.00     0.000 C 
ENDROOT
BRANCH   1   2
ATOM      2  C   UNL     1      -1.095  -7.745  37.341  1.00  0.00     0.000 C 
BRANCH   2   3
ATOM      3  C   UNL     1      -0.719  -8.609  38.559  1.00  0.00     0.000 C 
BRANCH   3   4
ATOM      4  C   UNL     1      -1.383  -8.130  39.858  1.00  0.00     0.006 C 
BRANCH   4   5
ATOM      5  C   UNL     1      -2.790  -8.715  40.003  1.00  0.00     0.053 C 
BRANCH   5   6
ATOM      6  C   UNL     1      -2.869  -9.603  41.204  1.00  0.00     0.041 C 
ATOM      7  O   UNL     1      -3.929  -9.664  41.879  1.00  0.00    -0.550 OA
ATOM      8  O   UNL     1      -1.753 -10.327  41.607  1.00  0.00    -0.550 OA
ENDBRANCH   5   6
ENDBRANCH   4   5
ENDBRANCH   3   4
ENDBRANCH   2   3
ENDBRANCH   1   2
BRANCH   1   9
ATOM      9  C   UNL     1      -3.533  -7.582  36.449  1.00  0.00     0.000 C 
BRANCH   9  10
ATOM     10  C   UNL     1      -3.458  -6.248  37.205  1.00  0.00    -0.000 C 
BRANCH  10  11
ATOM     11  C   UNL     1      -4.375  -5.199  36.559  1.00  0.00    -0.000 C 
BRANCH  11  12
ATOM     12  C   UNL     1      -4.580  -5.428  35.051  1.00  0.00    -0.000 C 
BRANCH  12  13
ATOM     13  C   UNL     1      -3.638  -4.620  34.140  1.00  0.00    -0.003 C 
ATOM     14  C   UNL     1      -2.876  -5.492  33.143  1.00  0.00     0.004 C 
ENDBRANCH  12  13
ENDBRANCH  11  12
ENDBRANCH  10  11
ENDBRANCH   9  10
ENDBRANCH   1   9
TORSDOF 10
ENDMDL
MODEL 7
REMARK VINA RESULT:    -3.244      1.979      3.982
REMARK INTER + INTRA:          -6.196
REMARK INTER:                  -5.019
REMARK INTRA:                  -1.177
REMARK UNBOUND:                -1.055
REMARK SMILES CCCCCCCCCCCC(=O)[O-]
REMARK SMILES IDX 7 1 8 2 9 3 10 4 11 5 12 6 13 7 14 8 6 9 5 10 4 11 3 12 2 13
REMARK SMILES IDX 1 14
REMARK H PARENT
REMARK Flexibility Score: inf
ROOT
ATOM      1  C   UNL     1      -3.870  -8.775  38.745  1.00  0.00     0.000 C 
ENDROOT
BRANCH   1   2
ATOM      2  C   UNL     1      -5.020  -8.509  39.738  1.00  0.00     0.000 C 
BRANCH   2   3
ATOM      3  C   UNL     1      -5.347  -9.677  40.687  1.00  0.00     0.000 C 
BRANCH   3   4
ATOM      4  C   UNL     1      -5.332  -9.265  42.167  1.00  0.00     0.006 C 
BRANCH   4   5
ATOM      5  C   UNL     1      -4.703 -10.359  43.033  1.00  0.00     0.053 C 
BRANCH   5   6
ATOM      6  C   UNL     1      -5.735 -11.358  43.450  1.00  0.00     0.041 C 
ATOM      7  O   UNL     1      -5.415 -12.561  43.633  1.00  0.00    -0.550 OA
ATOM      8  O   UNL     1      -7.062 -10.969  43.588  1.00  0.00    -0.550 OA
ENDBRANCH   5   6
ENDBRANCH   4   5
ENDBRANCH   3   4
ENDBRANCH   2   3
ENDBRANCH   1   2
BRANCH   1   9
ATOM      9  C   UNL     1      -2.689  -7.791  38.835  1.00  0.00     0.000 C 
BRANCH   9  10
ATOM     10  C   UNL     1      -1.709  -8.136  39.965  1.00  0.00    -0.000 C 
BRANCH  10  11
ATOM     11  C   UNL     1      -0.502  -8.918  39.427  1.00  0.00    -0.000 C 
BRANCH  11  12
ATOM     12  C   UNL     1      -0.633 -10.438  39.631  1.00  0.00    -0.000 C 
BRANCH  12  13
ATOM     13  C   UNL     1      -1.342 -10.858  40.932  1.00  0.00    -0.003 C 
ATOM     14  C   UNL     1      -2.472 -11.862  40.701  1.00  0.00     0.004 C 
ENDBRANCH  12  13
ENDBRANCH  11  12
ENDBRANCH  10  11
ENDBRANCH   9  10
ENDBRANCH   1   9
TORSDOF 10
ENDMDL
MODEL 8
REMARK VINA RESULT:    -3.224      2.141      3.257
REMARK INTER + INTRA:          -6.165
REMARK INTER:                  -5.230
REMARK INTRA:                  -0.935
REMARK UNBOUND:                -1.055
REMARK SMILES CCCCCCCCCCCC(=O)[O-]
REMARK SMILES IDX 7 1 8 2 9 3 10 4 11 5 12 6 13 7 14 8 6 9 5 10 4 11 3 12 2 13
REMARK SMILES IDX 1 14
REMARK H PARENT
REMARK Flexibility Score: inf
ROOT
ATOM      1  C   UNL     1      -1.584 -10.612  41.167  1.00  0.00     0.000 C 
ENDROOT
BRANCH   1   2
ATOM      2  C   UNL     1      -1.356 -11.629  42.303  1.00  0.00     0.000 C 
BRANCH   2   3
ATOM      3  C   UNL     1      -2.170 -12.931  42.188  1.00  0.00     0.000 C 
BRANCH   3   4
ATOM      4  C   UNL     1      -3.606 -12.695  41.698  1.00  0.00     0.006 C 
BRANCH   4   5
ATOM      5  C   UNL     1      -4.622 -13.060  42.784  1.00  0.00     0.053 C 
BRANCH   5   6
ATOM      6  C   UNL     1      -5.265 -11.828  43.337  1.00  0.00     0.041 C 
ATOM      7  O   UNL     1      -4.722 -10.704  43.178  1.00  0.00    -0.550 OA
ATOM      8  O   UNL     1      -6.441 -11.928  44.070  1.00  0.00    -0.550 OA
ENDBRANCH   5   6
ENDBRANCH   4   5
ENDBRANCH   3   4
ENDBRANCH   2   3
ENDBRANCH   1   2
BRANCH   1   9
ATOM      9  C   UNL     1      -0.554 -10.666  40.024  1.00  0.00     0.000 C 
BRANCH   9  10
ATOM     10  C   UNL     1      -0.377  -9.316  39.315  1.00  0.00    -0.000 C 
BRANCH  10  11
ATOM     11  C   UNL     1      -1.304  -8.252  39.920  1.00  0.00    -0.000 C 
BRANCH  11  12
ATOM     12  C   UNL     1      -2.360  -7.740  38.924  1.00  0.00    -0.000 C 
BRANCH  12  13
ATOM     13  C   UNL     1      -3.788  -8.261  39.169  1.00  0.00    -0.003 C 
ATOM     14  C   UNL     1      -4.032  -9.645  38.566  1.00  0.00     0.004 C 
ENDBRANCH  12  13
ENDBRANCH  11  12
ENDBRANCH  10  11
ENDBRANCH   9  10
ENDBRANCH   1   9
TORSDOF 10
ENDMDL
MODEL 9
REMARK VINA RESULT:    -3.185      4.325      6.063
REMARK INTER + INTRA:          -6.102
REMARK INTER:                  -5.142
REMARK INTRA:                  -0.960
REMARK UNBOUND:                -1.055
REMARK SMILES CCCCCCCCCCCC(=O)[O-]
REMARK SMILES IDX 7 1 8 2 9 3 10 4 11 5 12 6 13 7 14 8 6 9 5 10 4 11 3 12 2 13
REMARK SMILES IDX 1 14
REMARK H PARENT
REMARK Flexibility Score: inf
ROOT
ATOM      1  C   UNL     1      -3.053  -7.834  35.300  1.00  0.00     0.000 C 
ENDROOT
BRANCH   1   2
ATOM      2  C   UNL     1      -2.262  -6.982  36.313  1.00  0.00     0.000 C 
BRANCH   2   3
ATOM      3  C   UNL     1      -2.502  -7.336  37.792  1.00  0.00     0.000 C 
BRANCH   3   4
ATOM      4  C   UNL     1      -1.304  -8.050  38.436  1.00  0.00     0.006 C 
BRANCH   4   5
ATOM      5  C   UNL     1      -1.416  -8.039  39.963  1.00  0.00     0.053 C 
BRANCH   5   6
ATOM      6  C   UNL     1      -1.798  -9.392  40.472  1.00  0.00     0.041 C 
ATOM      7  O   UNL     1      -2.274  -9.523  41.629  1.00  0.00    -0.550 OA
ATOM      8  O   UNL     1      -1.582 -10.517  39.684  1.00  0.00    -0.550 OA
ENDBRANCH   5   6
ENDBRANCH   4   5
ENDBRANCH   3   4
ENDBRANCH   2   3
ENDBRANCH   1   2
BRANCH   1   9
ATOM      9  C   UNL     1      -2.842  -7.455  33.822  1.00  0.00     0.000 C 
BRANCH   9  10
ATOM     10  C   UNL     1      -2.458  -5.981  33.633  1.00  0.00    -0.000 C 
BRANCH  10  11
ATOM     11  C   UNL     1      -3.697  -5.124  33.334  1.00  0.00    -0.000 C 
BRANCH  11  12
ATOM     12  C   UNL     1      -3.922  -4.011  34.373  1.00  0.00    -0.000 C 
BRANCH  12  13
ATOM     13  C   UNL     1      -4.925  -4.359  35.488  1.00  0.00    -0.003 C 
ATOM     14  C   UNL     1      -5.943  -5.418  35.069  1.00  0.00     0.004 C 
ENDBRANCH  12  13
ENDBRANCH  11  12
ENDBRANCH  10  11
ENDBRANCH   9  10
ENDBRANCH   1   9
TORSDOF 10
ENDMDL
