MODEL 1
REMARK VINA RESULT:    -4.642      0.000      0.000
REMARK INTER + INTRA:         -11.477
REMARK INTER:                  -8.712
REMARK INTRA:                  -2.765
REMARK UNBOUND:                -2.765
REMARK SMILES CCCCCCCCC=CCCCCCCCC(=O)[O-]
REMARK SMILES IDX 10 1 9 2 11 3 12 4 13 5 14 6 15 7 16 8 17 9 18 10 19 11
REMARK SMILES IDX 20 12 8 13 7 14 6 15 5 16 4 17 3 18 2 19 1 20
REMARK H PARENT
REMARK Flexibility Score: inf
ROOT
ATOM      1  C   UNL     1      17.784 -21.296  -6.825  1.00  0.00    -0.031 C 
ATOM      2  C   UNL     1      18.530 -21.452  -7.933  1.00  0.00    -0.031 C 
ENDROOT
BRANCH   1   3
ATOM      3  C   UNL     1      16.452 -21.973  -6.612  1.00  0.00     0.027 C 
BRANCH   3   4
ATOM      4  C   UNL     1      16.604 -23.229  -5.745  1.00  0.00     0.004 C 
BRANCH   4   5
ATOM      5  C   UNL     1      16.205 -24.488  -6.525  1.00  0.00     0.000 C 
BRANCH   5   6
ATOM      6  C   UNL     1      15.194 -24.153  -7.631  1.00  0.00     0.000 C 
BRANCH   6   7
ATOM      7  C   UNL     1      13.820 -24.797  -7.390  1.00  0.00     0.000 C 
BRANCH   7   8
ATOM      8  C   UNL     1      12.887 -23.904  -6.552  1.00  0.00     0.006 C 
BRANCH   8   9
ATOM      9  C   UNL     1      12.864 -22.456  -7.059  1.00  0.00     0.053 C 
BRANCH   9  10
ATOM     10  C   UNL     1      12.837 -21.474  -5.929  1.00  0.00     0.041 C 
ATOM     11  O   UNL     1      13.368 -21.763  -4.824  1.00  0.00    -0.550 OA
ATOM     12  O   UNL     1      12.196 -20.251  -6.085  1.00  0.00    -0.550 OA
ENDBRANCH   9  10
ENDBRANCH   8   9
ENDBRANCH   7   8
ENDBRANCH   6   7
ENDBRANCH   5   6
ENDBRANCH   4   5
ENDBRANCH   3   4
ENDBRANCH   1   3
BRANCH   2  13
ATOM     13  C   UNL     1      18.159 -22.350  -9.090  1.00  0.00     0.027 C 
BRANCH  13  14
ATOM     14  C   UNL     1      18.904 -23.700  -9.048  1.00  0.00     0.004 C 
BRANCH  14  15
ATOM     15  C   UNL     1      20.432 -23.561  -8.927  1.00  0.00     0.000 C 
BRANCH  15  16
ATOM     16  C   UNL     1      21.001 -24.299  -7.703  1.00  0.00     0.000 C 
BRANCH  16  17
ATOM     17  C   UNL     1      20.102 -24.160  -6.462  1.00  0.00    -0.000 C 
BRANCH  17  18
ATOM     18  C   UNL     1      20.768 -23.340  -5.344  1.00  0.00    -0.000 C 
BRANCH  18  19
ATOM     19  C   UNL     1      21.973 -22.531  -5.847  1.00  0.00    -0.003 C 
ATOM     20  C   UNL     1      21.651 -21.049  -6.048  1.00  0.00     0.004 C 
ENDBRANCH  18  19
ENDBRANCH  17  18
ENDBRANCH  16  17
ENDBRANCH  15  16
ENDBRANCH  14  15
ENDBRANCH  13  14
ENDBRANCH   2  13
TORSDOF 15
ENDMDL
MODEL 2
REMARK VINA RESULT:    -4.510      2.226      3.758
REMARK INTER + INTRA:         -11.230
REMARK INTER:                  -8.648
REMARK INTRA:                  -2.582
REMARK UNBOUND:                -2.765
REMARK SMILES CCCCCCCCC=CCCCCCCCC(=O)[O-]
REMARK SMILES IDX 10 1 9 2 11 3 12 4 13 5 14 6 15 7 16 8 17 9 18 10 19 11
REMARK SMILES IDX 20 12 8 13 7 14 6 15 5 16 4 17 3 18 2 19 1 20
REMARK H PARENT
REMARK Flexibility Score: inf
ROOT
ATOM      1  C   UNL     1      17.514 -23.200  -9.338  1.00  0.00    -0.031 C 
ATOM      2  C   UNL     1      18.780 -22.747  -9.370  1.00  0.00    -0.031 C 
ENDROOT
BRANCH   1   3
ATOM      3  C   UNL     1      17.140 -24.611  -8.954  1.00  0.00     0.027 C 
BRANCH   3   4
ATOM      4  C   UNL     1      16.221 -24.624  -7.727  1.00  0.00     0.004 C 
BRANCH   4   5
ATOM      5  C   UNL     1      14.875 -23.959  -8.040  1.00  0.00     0.000 C 
BRANCH   5   6
ATOM      6  C   UNL     1      13.718 -24.722  -7.380  1.00  0.00     0.000 C 
BRANCH   6   7
ATOM      7  C   UNL     1      12.896 -23.840  -6.427  1.00  0.00     0.000 C 
BRANCH   7   8
ATOM      8  C   UNL     1      13.290 -24.034  -4.953  1.00  0.00     0.006 C 
BRANCH   8   9
ATOM      9  C   UNL     1      13.853 -25.436  -4.685  1.00  0.00     0.053 C 
BRANCH   9  10
ATOM     10  C   UNL     1      12.824 -26.339  -4.075  1.00  0.00     0.041 C 
ATOM     11  O   UNL     1      12.178 -25.969  -3.060  1.00  0.00    -0.550 OA
ATOM     12  O   UNL     1      12.604 -27.602  -4.608  1.00  0.00    -0.550 OA
ENDBRANCH   9  10
ENDBRANCH   8   9
ENDBRANCH   7   8
ENDBRANCH   6   7
ENDBRANCH   5   6
ENDBRANCH   4   5
ENDBRANCH   3   4
ENDBRANCH   1   3
BRANCH   2  13
ATOM     13  C   UNL     1      19.988 -23.571  -8.991  1.00  0.00     0.027 C 
BRANCH  13  14
ATOM     14  C   UNL     1      20.601 -23.129  -7.647  1.00  0.00     0.004 C 
BRANCH  14  15
ATOM     15  C   UNL     1      20.012 -23.856  -6.426  1.00  0.00     0.000 C 
BRANCH  15  16
ATOM     16  C   UNL     1      18.954 -23.018  -5.688  1.00  0.00     0.000 C 
BRANCH  16  17
ATOM     17  C   UNL     1      19.157 -21.507  -5.888  1.00  0.00    -0.000 C 
BRANCH  17  18
ATOM     18  C   UNL     1      17.863 -20.794  -6.321  1.00  0.00    -0.000 C 
BRANCH  18  19
ATOM     19  C   UNL     1      16.606 -21.625  -6.023  1.00  0.00    -0.003 C 
ATOM     20  C   UNL     1      15.778 -21.055  -4.871  1.00  0.00     0.004 C 
ENDBRANCH  18  19
ENDBRANCH  17  18
ENDBRANCH  16  17
ENDBRANCH  15  16
ENDBRANCH  14  15
ENDBRANCH  13  14
ENDBRANCH   2  13
TORSDOF 15
ENDMDL
MODEL 3
REMARK VINA RESULT:    -4.483      3.109      6.777
REMARK INTER + INTRA:         -11.179
REMARK INTER:                  -8.555
REMARK INTRA:                  -2.624
REMARK UNBOUND:                -2.765
REMARK SMILES CCCCCCCCC=CCCCCCCCC(=O)[O-]
REMARK SMILES IDX 10 1 9 2 11 3 12 4 13 5 14 6 15 7 16 8 17 9 18 10 19 11
REMARK SMILES IDX 20 12 8 13 7 14 6 15 5 16 4 17 3 18 2 19 1 20
REMARK H PARENT
REMARK Flexibility Score: inf
ROOT
ATOM      1  C   UNL     1      18.619 -21.561  -8.128  1.00  0.00    -0.031 C 
ATOM      2  C   UNL     1      17.987 -21.443  -6.947  1.00  0.00    -0.031 C 
ENDROOT
BRANCH   1   3
ATOM      3  C   UNL     1      18.059 -22.326  -9.303  1.00  0.00     0.027 C 
BRANCH   3   4
ATOM      4  C   UNL     1      18.634 -23.745  -9.363  1.00  0.00     0.004 C 
BRANCH   4   5
ATOM      5  C   UNL     1      20.026 -23.803  -8.719  1.00  0.00     0.000 C 
BRANCH   5   6
ATOM      6  C   UNL     1      20.010 -24.672  -7.453  1.00  0.00     0.000 C 
BRANCH   6   7
ATOM      7  C   UNL     1      21.101 -24.271  -6.448  1.00  0.00     0.000 C 
BRANCH   7   8
ATOM      8  C   UNL     1      20.553 -23.418  -5.290  1.00  0.00     0.006 C 
BRANCH   8   9
ATOM      9  C   UNL     1      21.623 -22.490  -4.700  1.00  0.00     0.053 C 
BRANCH   9  10
ATOM     10  C   UNL     1      22.289 -21.668  -5.760  1.00  0.00     0.041 C 
ATOM     11  O   UNL     1      21.629 -20.816  -6.411  1.00  0.00    -0.550 OA
ATOM     12  O   UNL     1      23.633 -21.866  -6.052  1.00  0.00    -0.550 OA
ENDBRANCH   9  10
ENDBRANCH   8   9
ENDBRANCH   7   8
ENDBRANCH   6   7
ENDBRANCH   5   6
ENDBRANCH   4   5
ENDBRANCH   3   4
ENDBRANCH   1   3
BRANCH   2  13
ATOM     13  C   UNL     1      16.624 -22.022  -6.649  1.00  0.00     0.027 C 
BRANCH  13  14
ATOM     14  C   UNL     1      16.709 -23.425  -6.014  1.00  0.00     0.004 C 
BRANCH  14  15
ATOM     15  C   UNL     1      16.046 -24.528  -6.856  1.00  0.00     0.000 C 
BRANCH  15  16
ATOM     16  C   UNL     1      15.034 -23.974  -7.873  1.00  0.00     0.000 C 
BRANCH  16  17
ATOM     17  C   UNL     1      13.621 -23.832  -7.280  1.00  0.00    -0.000 C 
BRANCH  17  18
ATOM     18  C   UNL     1      13.255 -25.003  -6.351  1.00  0.00    -0.000 C 
BRANCH  18  19
ATOM     19  C   UNL     1      12.916 -24.539  -4.927  1.00  0.00    -0.003 C 
ATOM     20  C   UNL     1      13.037 -23.024  -4.752  1.00  0.00     0.004 C 
ENDBRANCH  18  19
ENDBRANCH  17  18
ENDBRANCH  16  17
ENDBRANCH  15  16
ENDBRANCH  14  15
ENDBRANCH  13  14
ENDBRANCH   2  13
TORSDOF 15
ENDMDL
MODEL 4
REMARK VINA RESULT:    -4.480      2.534      6.829
REMARK INTER + INTRA:         -11.174
REMARK INTER:                  -8.492
REMARK INTRA:                  -2.681
REMARK UNBOUND:                -2.765
REMARK SMILES CCCCCCCCC=CCCCCCCCC(=O)[O-]
REMARK SMILES IDX 10 1 9 2 11 3 12 4 13 5 14 6 15 7 16 8 17 9 18 10 19 11
REMARK SMILES IDX 20 12 8 13 7 14 6 15 5 16 4 17 3 18 2 19 1 20
REMARK H PARENT
REMARK Flexibility Score: inf
ROOT
ATOM      1  C   UNL     1      16.236 -24.416  -6.767  1.00  0.00    -0.031 C 
ATOM      2  C   UNL     1      16.364 -23.486  -5.803  1.00  0.00    -0.031 C 
ENDROOT
BRANCH   1   3
ATOM      3  C   UNL     1      15.959 -24.089  -8.214  1.00  0.00     0.027 C 
BRANCH   3   4
ATOM      4  C   UNL     1      17.168 -24.419  -9.096  1.00  0.00     0.004 C 
BRANCH   4   5
ATOM      5  C   UNL     1      17.767 -23.147  -9.709  1.00  0.00     0.000 C 
BRANCH   5   6
ATOM      6  C   UNL     1      18.976 -22.661  -8.896  1.00  0.00     0.000 C 
BRANCH   6   7
ATOM      7  C   UNL     1      20.170 -23.625  -8.981  1.00  0.00     0.000 C 
BRANCH   7   8
ATOM      8  C   UNL     1      20.921 -23.755  -7.644  1.00  0.00     0.006 C 
BRANCH   8   9
ATOM      9  C   UNL     1      19.970 -24.027  -6.472  1.00  0.00     0.053 C 
BRANCH   9  10
ATOM     10  C   UNL     1      20.152 -23.031  -5.368  1.00  0.00     0.041 C 
ATOM     11  O   UNL     1      20.622 -23.394  -4.257  1.00  0.00    -0.550 OA
ATOM     12  O   UNL     1      19.771 -21.709  -5.554  1.00  0.00    -0.550 OA
ENDBRANCH   9  10
ENDBRANCH   8   9
ENDBRANCH   7   8
ENDBRANCH   6   7
ENDBRANCH   5   6
ENDBRANCH   4   5
ENDBRANCH   3   4
ENDBRANCH   1   3
BRANCH   2  13
ATOM     13  C   UNL     1      16.287 -21.997  -6.043  1.00  0.00     0.027 C 
BRANCH  13  14
ATOM     14  C   UNL     1      15.384 -21.283  -5.016  1.00  0.00     0.004 C 
BRANCH  14  15
ATOM     15  C   UNL     1      14.579 -22.244  -4.125  1.00  0.00     0.000 C 
BRANCH  15  16
ATOM     16  C   UNL     1      13.072 -22.220  -4.435  1.00  0.00     0.000 C 
BRANCH  16  17
ATOM     17  C   UNL     1      12.596 -23.504  -5.137  1.00  0.00    -0.000 C 
BRANCH  17  18
ATOM     18  C   UNL     1      12.673 -23.397  -6.670  1.00  0.00    -0.000 C 
BRANCH  18  19
ATOM     19  C   UNL     1      12.443 -21.963  -7.171  1.00  0.00    -0.003 C 
ATOM     20  C   UNL     1      10.973 -21.670  -7.477  1.00  0.00     0.004 C 
ENDBRANCH  18  19
ENDBRANCH  17  18
ENDBRANCH  16  17
ENDBRANCH  15  16
ENDBRANCH  14  15
ENDBRANCH  13  14
ENDBRANCH   2  13
TORSDOF 15
ENDMDL
MODEL 5
REMARK VINA RESULT:    -4.459      3.185      6.523
REMARK INTER + INTRA:         -11.135
REMARK INTER:                  -8.679
REMARK INTRA:                  -2.456
REMARK UNBOUND:                -2.765
REMARK SMILES CCCCCCCCC=CCCCCCCCC(=O)[O-]
REMARK SMILES IDX 10 1 9 2 11 3 12 4 13 5 14 6 15 7 16 8 17 9 18 10 19 11
REMARK SMILES IDX 20 12 8 13 7 14 6 15 5 16 4 17 3 18 2 19 1 20
REMARK H PARENT
REMARK Flexibility Score: inf
ROOT
ATOM      1  C   UNL     1      14.513 -24.679  -7.477  1.00  0.00    -0.031 C 
ATOM      2  C   UNL     1      13.319 -24.385  -6.930  1.00  0.00    -0.031 C 
ENDROOT
BRANCH   1   3
ATOM      3  C   UNL     1      15.348 -23.685  -8.246  1.00  0.00     0.027 C 
BRANCH   3   4
ATOM      4  C   UNL     1      16.752 -24.236  -8.517  1.00  0.00     0.004 C 
BRANCH   4   5
ATOM      5  C   UNL     1      17.387 -23.552  -9.735  1.00  0.00     0.000 C 
BRANCH   5   6
ATOM      6  C   UNL     1      18.691 -22.841  -9.349  1.00  0.00     0.000 C 
BRANCH   6   7
ATOM      7  C   UNL     1      19.837 -23.823  -9.063  1.00  0.00     0.000 C 
BRANCH   7   8
ATOM      8  C   UNL     1      20.779 -23.326  -7.952  1.00  0.00     0.006 C 
BRANCH   8   9
ATOM      9  C   UNL     1      21.083 -24.420  -6.920  1.00  0.00     0.053 C 
BRANCH   9  10
ATOM     10  C   UNL     1      21.971 -23.915  -5.823  1.00  0.00     0.041 C 
ATOM     11  O   UNL     1      23.170 -24.293  -5.754  1.00  0.00    -0.550 OA
ATOM     12  O   UNL     1      21.464 -23.054  -4.859  1.00  0.00    -0.550 OA
ENDBRANCH   9  10
ENDBRANCH   8   9
ENDBRANCH   7   8
ENDBRANCH   6   7
ENDBRANCH   5   6
ENDBRANCH   4   5
ENDBRANCH   3   4
ENDBRANCH   1   3
BRANCH   2  13
ATOM     13  C   UNL     1      12.675 -23.019  -6.979  1.00  0.00     0.027 C 
BRANCH  13  14
ATOM     14  C   UNL     1      12.993 -22.176  -5.727  1.00  0.00     0.004 C 
BRANCH  14  15
ATOM     15  C   UNL     1      13.374 -23.014  -4.495  1.00  0.00     0.000 C 
BRANCH  15  16
ATOM     16  C   UNL     1      14.672 -22.531  -3.825  1.00  0.00     0.000 C 
BRANCH  16  17
ATOM     17  C   UNL     1      15.717 -22.052  -4.847  1.00  0.00    -0.000 C 
BRANCH  17  18
ATOM     18  C   UNL     1      16.945 -22.978  -4.909  1.00  0.00    -0.000 C 
BRANCH  18  19
ATOM     19  C   UNL     1      18.119 -22.347  -5.672  1.00  0.00    -0.003 C 
ATOM     20  C   UNL     1      17.748 -21.022  -6.341  1.00  0.00     0.004 C 
ENDBRANCH  18  19
ENDBRANCH  17  18
ENDBRANCH  16  17
ENDBRANCH  15  16
ENDBRANCH  14  15
ENDBRANCH  13  14
ENDBRANCH   2  13
TORSDOF 15
ENDMDL
MODEL 6
REMARK VINA RESULT:    -4.408      2.067      2.521
REMARK INTER + INTRA:         -11.038
REMARK INTER:                  -8.877
REMARK INTRA:                  -2.161
REMARK UNBOUND:                -2.765
REMARK SMILES CCCCCCCCC=CCCCCCCCC(=O)[O-]
REMARK SMILES IDX 10 1 9 2 11 3 12 4 13 5 14 6 15 7 16 8 17 9 18 10 19 11
REMARK SMILES IDX 20 12 8 13 7 14 6 15 5 16 4 17 3 18 2 19 1 20
REMARK H PARENT
REMARK Flexibility Score: inf
ROOT
ATOM      1  C   UNL     1      17.855 -21.281  -7.095  1.00  0.00    -0.031 C 
ATOM      2  C   UNL     1      18.539 -21.473  -8.237  1.00  0.00    -0.031 C 
ENDROOT
BRANCH   1   3
ATOM      3  C   UNL     1      16.603 -22.043  -6.732  1.00  0.00     0.027 C 
BRANCH   3   4
ATOM      4  C   UNL     1      16.945 -23.394  -6.094  1.00  0.00     0.004 C 
BRANCH   4   5
ATOM      5  C   UNL     1      16.148 -24.530  -6.750  1.00  0.00     0.000 C 
BRANCH   5   6
ATOM      6  C   UNL     1      15.167 -23.981  -7.795  1.00  0.00     0.000 C 
BRANCH   6   7
ATOM      7  C   UNL     1      13.708 -24.017  -7.311  1.00  0.00     0.000 C 
BRANCH   7   8
ATOM      8  C   UNL     1      13.394 -25.269  -6.474  1.00  0.00     0.006 C 
BRANCH   8   9
ATOM      9  C   UNL     1      12.928 -24.914  -5.056  1.00  0.00     0.053 C 
BRANCH   9  10
ATOM     10  C   UNL     1      12.674 -26.140  -4.233  1.00  0.00     0.041 C 
ATOM     11  O   UNL     1      12.555 -27.263  -4.788  1.00  0.00    -0.550 OA
ATOM     12  O   UNL     1      12.536 -26.035  -2.855  1.00  0.00    -0.550 OA
ENDBRANCH   9  10
ENDBRANCH   8   9
ENDBRANCH   7   8
ENDBRANCH   6   7
ENDBRANCH   5   6
ENDBRANCH   4   5
ENDBRANCH   3   4
ENDBRANCH   1   3
BRANCH   2  13
ATOM     13  C   UNL     1      18.173 -22.496  -9.287  1.00  0.00     0.027 C 
BRANCH  13  14
ATOM     14  C   UNL     1      19.030 -23.774  -9.185  1.00  0.00     0.004 C 
BRANCH  14  15
ATOM     15  C   UNL     1      20.447 -23.529  -8.638  1.00  0.00     0.000 C 
BRANCH  15  16
ATOM     16  C   UNL     1      20.746 -24.350  -7.373  1.00  0.00     0.000 C 
BRANCH  16  17
ATOM     17  C   UNL     1      20.713 -23.495  -6.095  1.00  0.00    -0.000 C 
BRANCH  17  18
ATOM     18  C   UNL     1      21.480 -22.171  -6.255  1.00  0.00    -0.000 C 
BRANCH  18  19
ATOM     19  C   UNL     1      22.996 -22.344  -6.072  1.00  0.00    -0.003 C 
ATOM     20  C   UNL     1      23.352 -23.231  -4.878  1.00  0.00     0.004 C 
ENDBRANCH  18  19
ENDBRANCH  17  18
ENDBRANCH  16  17
ENDBRANCH  15  16
ENDBRANCH  14  15
ENDBRANCH  13  14
ENDBRANCH   2  13
TORSDOF 15
ENDMDL
MODEL 7
REMARK VINA RESULT:    -4.402      2.003      3.273
REMARK INTER + INTRA:         -11.027
REMARK INTER:                  -8.795
REMARK INTRA:                  -2.232
REMARK UNBOUND:                -2.765
REMARK SMILES CCCCCCCCC=CCCCCCCCC(=O)[O-]
REMARK SMILES IDX 10 1 9 2 11 3 12 4 13 5 14 6 15 7 16 8 17 9 18 10 19 11
REMARK SMILES IDX 20 12 8 13 7 14 6 15 5 16 4 17 3 18 2 19 1 20
REMARK H PARENT
REMARK Flexibility Score: inf
ROOT
ATOM      1  C   UNL     1      16.865 -23.599  -9.317  1.00  0.00    -0.031 C 
ATOM      2  C   UNL     1      18.188 -23.563  -9.557  1.00  0.00    -0.031 C 
ENDROOT
BRANCH   1   3
ATOM      3  C   UNL     1      16.240 -24.393  -8.196  1.00  0.00     0.027 C 
BRANCH   3   4
ATOM      4  C   UNL     1      14.893 -23.792  -7.779  1.00  0.00     0.004 C 
BRANCH   4   5
ATOM      5  C   UNL     1      13.875 -24.895  -7.456  1.00  0.00     0.000 C 
BRANCH   5   6
ATOM      6  C   UNL     1      13.090 -24.562  -6.180  1.00  0.00     0.000 C 
BRANCH   6   7
ATOM      7  C   UNL     1      13.443 -25.493  -5.009  1.00  0.00     0.000 C 
BRANCH   7   8
ATOM      8  C   UNL     1      13.862 -24.722  -3.746  1.00  0.00     0.006 C 
BRANCH   8   9
ATOM      9  C   UNL     1      15.078 -23.820  -3.996  1.00  0.00     0.053 C 
BRANCH   9  10
ATOM     10  C   UNL     1      15.647 -23.288  -2.716  1.00  0.00     0.041 C 
ATOM     11  O   UNL     1      16.877 -23.400  -2.474  1.00  0.00    -0.550 OA
ATOM     12  O   UNL     1      14.811 -22.700  -1.776  1.00  0.00    -0.550 OA
ENDBRANCH   9  10
ENDBRANCH   8   9
ENDBRANCH   7   8
ENDBRANCH   6   7
ENDBRANCH   5   6
ENDBRANCH   4   5
ENDBRANCH   3   4
ENDBRANCH   1   3
BRANCH   2  13
ATOM     13  C   UNL     1      19.225 -24.276  -8.721  1.00  0.00     0.027 C 
BRANCH  13  14
ATOM     14  C   UNL     1      20.547 -23.489  -8.629  1.00  0.00     0.004 C 
BRANCH  14  15
ATOM     15  C   UNL     1      21.157 -23.462  -7.217  1.00  0.00     0.000 C 
BRANCH  15  16
ATOM     16  C   UNL     1      21.482 -22.037  -6.737  1.00  0.00     0.000 C 
BRANCH  16  17
ATOM     17  C   UNL     1      20.317 -21.397  -5.963  1.00  0.00    -0.000 C 
BRANCH  17  18
ATOM     18  C   UNL     1      19.408 -22.445  -5.298  1.00  0.00    -0.000 C 
BRANCH  18  19
ATOM     19  C   UNL     1      17.944 -22.324  -5.749  1.00  0.00    -0.003 C 
ATOM     20  C   UNL     1      17.718 -21.171  -6.728  1.00  0.00     0.004 C 
ENDBRANCH  18  19
ENDBRANCH  17  18
ENDBRANCH  16  17
ENDBRANCH  15  16
ENDBRANCH  14  15
ENDBRANCH  13  14
ENDBRANCH   2  13
TORSDOF 15
ENDMDL
MODEL 8
REMARK VINA RESULT:    -4.390      1.966      3.079
REMARK INTER + INTRA:         -11.004
REMARK INTER:                  -8.437
REMARK INTRA:                  -2.567
REMARK UNBOUND:                -2.765
REMARK SMILES CCCCCCCCC=CCCCCCCCC(=O)[O-]
REMARK SMILES IDX 10 1 9 2 11 3 12 4 13 5 14 6 15 7 16 8 17 9 18 10 19 11
REMARK SMILES IDX 20 12 8 13 7 14 6 15 5 16 4 17 3 18 2 19 1 20
REMARK H PARENT
REMARK Flexibility Score: inf
ROOT
ATOM      1  C   UNL     1      16.571 -23.330  -5.910  1.00  0.00    -0.031 C 
ATOM      2  C   UNL     1      16.703 -24.373  -6.749  1.00  0.00    -0.031 C 
ENDROOT
BRANCH   1   3
ATOM      3  C   UNL     1      15.949 -22.012  -6.305  1.00  0.00     0.027 C 
BRANCH   3   4
ATOM      4  C   UNL     1      14.528 -21.883  -5.745  1.00  0.00     0.004 C 
BRANCH   4   5
ATOM      5  C   UNL     1      13.488 -22.352  -6.771  1.00  0.00     0.000 C 
BRANCH   5   6
ATOM      6  C   UNL     1      12.533 -23.383  -6.154  1.00  0.00     0.000 C 
BRANCH   6   7
ATOM      7  C   UNL     1      13.039 -24.825  -6.312  1.00  0.00     0.000 C 
BRANCH   7   8
ATOM      8  C   UNL     1      13.660 -25.379  -5.017  1.00  0.00     0.006 C 
BRANCH   8   9
ATOM      9  C   UNL     1      13.012 -24.779  -3.763  1.00  0.00     0.053 C 
BRANCH   9  10
ATOM     10  C   UNL     1      14.023 -24.512  -2.690  1.00  0.00     0.041 C 
ATOM     11  O   UNL     1      15.116 -23.955  -2.973  1.00  0.00    -0.550 OA
ATOM     12  O   UNL     1      13.772 -24.911  -1.384  1.00  0.00    -0.550 OA
ENDBRANCH   9  10
ENDBRANCH   8   9
ENDBRANCH   7   8
ENDBRANCH   6   7
ENDBRANCH   5   6
ENDBRANCH   4   5
ENDBRANCH   3   4
ENDBRANCH   1   3
BRANCH   2  13
ATOM     13  C   UNL     1      16.217 -24.380  -8.180  1.00  0.00     0.027 C 
BRANCH  13  14
ATOM     14  C   UNL     1      17.376 -24.478  -9.192  1.00  0.00     0.004 C 
BRANCH  14  15
ATOM     15  C   UNL     1      17.964 -23.115  -9.596  1.00  0.00     0.000 C 
BRANCH  15  16
ATOM     16  C   UNL     1      19.175 -22.711  -8.738  1.00  0.00     0.000 C 
BRANCH  16  17
ATOM     17  C   UNL     1      20.238 -23.820  -8.662  1.00  0.00    -0.000 C 
BRANCH  17  18
ATOM     18  C   UNL     1      20.439 -24.344  -7.230  1.00  0.00    -0.000 C 
BRANCH  18  19
ATOM     19  C   UNL     1      20.528 -23.211  -6.197  1.00  0.00    -0.003 C 
ATOM     20  C   UNL     1      21.843 -22.433  -6.281  1.00  0.00     0.004 C 
ENDBRANCH  18  19
ENDBRANCH  17  18
ENDBRANCH  16  17
ENDBRANCH  15  16
ENDBRANCH  14  15
ENDBRANCH  13  14
ENDBRANCH   2  13
TORSDOF 15
ENDMDL
MODEL 9
REMARK VINA RESULT:    -4.374      1.932      5.602
REMARK INTER + INTRA:         -10.974
REMARK INTER:                  -8.433
REMARK INTRA:                  -2.540
REMARK UNBOUND:                -2.765
REMARK SMILES CCCCCCCCC=CCCCCCCCC(=O)[O-]
REMARK SMILES IDX 10 1 9 2 11 3 12 4 13 5 14 6 15 7 16 8 17 9 18 10 19 11
REMARK SMILES IDX 20 12 8 13 7 14 6 15 5 16 4 17 3 18 2 19 1 20
REMARK H PARENT
REMARK Flexibility Score: inf
ROOT
ATOM      1  C   UNL     1      18.262 -23.516  -9.527  1.00  0.00    -0.031 C 
ATOM      2  C   UNL     1      16.932 -23.576  -9.336  1.00  0.00    -0.031 C 
ENDROOT
BRANCH   1   3
ATOM      3  C   UNL     1      19.266 -24.222  -8.648  1.00  0.00     0.027 C 
BRANCH   3   4
ATOM      4  C   UNL     1      20.622 -23.508  -8.673  1.00  0.00     0.004 C 
BRANCH   4   5
ATOM      5  C   UNL     1      20.877 -22.765  -7.356  1.00  0.00     0.000 C 
BRANCH   5   6
ATOM      6  C   UNL     1      20.338 -23.564  -6.161  1.00  0.00     0.000 C 
BRANCH   6   7
ATOM      7  C   UNL     1      19.479 -22.707  -5.217  1.00  0.00     0.000 C 
BRANCH   7   8
ATOM      8  C   UNL     1      17.973 -22.845  -5.500  1.00  0.00     0.006 C 
BRANCH   8   9
ATOM      9  C   UNL     1      17.352 -21.526  -5.978  1.00  0.00     0.053 C 
BRANCH   9  10
ATOM     10  C   UNL     1      17.212 -20.542  -4.858  1.00  0.00     0.041 C 
ATOM     11  O   UNL     1      16.791 -20.917  -3.732  1.00  0.00    -0.550 OA
ATOM     12  O   UNL     1      17.515 -19.202  -5.067  1.00  0.00    -0.550 OA
ENDBRANCH   9  10
ENDBRANCH   8   9
ENDBRANCH   7   8
ENDBRANCH   6   7
ENDBRANCH   5   6
ENDBRANCH   4   5
ENDBRANCH   3   4
ENDBRANCH   1   3
BRANCH   2  13
ATOM     13  C   UNL     1      16.264 -24.383  -8.248  1.00  0.00     0.027 C 
BRANCH  13  14
ATOM     14  C   UNL     1      14.854 -23.857  -7.910  1.00  0.00     0.004 C 
BRANCH  14  15
ATOM     15  C   UNL     1      13.852 -24.963  -7.537  1.00  0.00     0.000 C 
BRANCH  15  16
ATOM     16  C   UNL     1      13.259 -24.779  -6.130  1.00  0.00     0.000 C 
BRANCH  16  17
ATOM     17  C   UNL     1      14.333 -24.807  -5.030  1.00  0.00    -0.000 C 
BRANCH  17  18
ATOM     18  C   UNL     1      14.518 -23.436  -4.356  1.00  0.00    -0.000 C 
BRANCH  18  19
ATOM     19  C   UNL     1      13.308 -22.512  -4.562  1.00  0.00    -0.003 C 
ATOM     20  C   UNL     1      13.643 -21.273  -5.393  1.00  0.00     0.004 C 
ENDBRANCH  18  19
ENDBRANCH  17  18
ENDBRANCH  16  17
ENDBRANCH  15  16
ENDBRANCH  14  15
ENDBRANCH  13  14
ENDBRANCH   2  13
TORSDOF 15
ENDMDL
