MODEL 1
REMARK VINA RESULT:    -4.559      0.000      0.000
REMARK INTER + INTRA:          -8.733
REMARK INTER:                  -7.757
REMARK INTRA:                  -0.977
REMARK UNBOUND:                -0.977
REMARK SMILES CCCCCCCCCCCCCC(=O)[O-]
REMARK SMILES IDX 8 1 9 2 10 3 11 4 12 5 13 6 14 7 15 8 16 9 7 10 6 11 5 12
REMARK SMILES IDX 4 13 3 14 2 15 1 16
REMARK H PARENT
REMARK Flexibility Score: inf
ROOT
ATOM      1  C   UNL     1      52.990  -4.104  12.927  1.00  0.00     0.000 C 
ENDROOT
BRANCH   1   2
ATOM      2  C   UNL     1      51.887  -3.431  12.093  1.00  0.00     0.000 C 
BRANCH   2   3
ATOM      3  C   UNL     1      51.885  -3.901  10.627  1.00  0.00     0.000 C 
BRANCH   3   4
ATOM      4  C   UNL     1      51.926  -2.731   9.630  1.00  0.00     0.000 C 
BRANCH   4   5
ATOM      5  C   UNL     1      53.174  -2.762   8.731  1.00  0.00     0.006 C 
BRANCH   5   6
ATOM      6  C   UNL     1      54.121  -3.915   9.091  1.00  0.00     0.053 C 
BRANCH   6   7
ATOM      7  C   UNL     1      54.899  -4.390   7.903  1.00  0.00     0.041 C 
ATOM      8  O   UNL     1      54.330  -4.530   6.788  1.00  0.00    -0.550 OA
ATOM      9  O   UNL     1      56.259  -4.649   8.019  1.00  0.00    -0.550 OA
ENDBRANCH   6   7
ENDBRANCH   5   6
ENDBRANCH   4   5
ENDBRANCH   3   4
ENDBRANCH   2   3
ENDBRANCH   1   2
BRANCH   1  10
ATOM     10  C   UNL     1      54.299  -3.296  12.936  1.00  0.00     0.000 C 
BRANCH  10  11
ATOM     11  C   UNL     1      55.328  -3.839  13.943  1.00  0.00    -0.000 C 
BRANCH  11  12
ATOM     12  C   UNL     1      56.793  -3.445  13.664  1.00  0.00    -0.000 C 
BRANCH  12  13
ATOM     13  C   UNL     1      57.299  -2.219  14.445  1.00  0.00    -0.000 C 
BRANCH  13  14
ATOM     14  C   UNL     1      56.175  -1.496  15.208  1.00  0.00    -0.000 C 
BRANCH  14  15
ATOM     15  C   UNL     1      55.990  -0.044  14.743  1.00  0.00    -0.003 C 
ATOM     16  C   UNL     1      54.598   0.217  14.166  1.00  0.00     0.004 C 
ENDBRANCH  14  15
ENDBRANCH  13  14
ENDBRANCH  12  13
ENDBRANCH  11  12
ENDBRANCH  10  11
ENDBRANCH   1  10
TORSDOF 12
ENDMDL
MODEL 2
REMARK VINA RESULT:    -4.502      3.896      6.553
REMARK INTER + INTRA:          -8.636
REMARK INTER:                  -7.434
REMARK INTRA:                  -1.203
REMARK UNBOUND:                -0.977
REMARK SMILES CCCCCCCCCCCCCC(=O)[O-]
REMARK SMILES IDX 8 1 9 2 10 3 11 4 12 5 13 6 14 7 15 8 16 9 7 10 6 11 5 12
REMARK SMILES IDX 4 13 3 14 2 15 1 16
REMARK H PARENT
REMARK Flexibility Score: inf
ROOT
ATOM      1  C   UNL     1      52.412  -3.331  13.096  1.00  0.00     0.000 C 
ENDROOT
BRANCH   1   2
ATOM      2  C   UNL     1      53.822  -3.936  13.198  1.00  0.00     0.000 C 
BRANCH   2   3
ATOM      3  C   UNL     1      54.914  -2.863  13.360  1.00  0.00     0.000 C 
BRANCH   3   4
ATOM      4  C   UNL     1      56.285  -3.464  13.710  1.00  0.00     0.000 C 
BRANCH   4   5
ATOM      5  C   UNL     1      57.206  -2.462  14.428  1.00  0.00     0.006 C 
BRANCH   5   6
ATOM      6  C   UNL     1      56.446  -1.219  14.911  1.00  0.00     0.053 C 
BRANCH   6   7
ATOM      7  C   UNL     1      57.118  -0.574  16.084  1.00  0.00     0.041 C 
ATOM      8  O   UNL     1      57.676  -1.284  16.962  1.00  0.00    -0.550 OA
ATOM      9  O   UNL     1      57.157   0.810  16.191  1.00  0.00    -0.550 OA
ENDBRANCH   6   7
ENDBRANCH   5   6
ENDBRANCH   4   5
ENDBRANCH   3   4
ENDBRANCH   2   3
ENDBRANCH   1   2
BRANCH   1  10
ATOM     10  C   UNL     1      51.619  -3.882  11.898  1.00  0.00     0.000 C 
BRANCH  10  11
ATOM     11  C   UNL     1      52.498  -4.672  10.914  1.00  0.00    -0.000 C 
BRANCH  11  12
ATOM     12  C   UNL     1      52.580  -4.089   9.488  1.00  0.00    -0.000 C 
BRANCH  12  13
ATOM     13  C   UNL     1      53.115  -2.648   9.403  1.00  0.00    -0.000 C 
BRANCH  13  14
ATOM     14  C   UNL     1      52.120  -1.683   8.735  1.00  0.00    -0.000 C 
BRANCH  14  15
ATOM     15  C   UNL     1      51.801  -0.466   9.616  1.00  0.00    -0.003 C 
ATOM     16  C   UNL     1      52.618  -0.443  10.908  1.00  0.00     0.004 C 
ENDBRANCH  14  15
ENDBRANCH  13  14
ENDBRANCH  12  13
ENDBRANCH  11  12
ENDBRANCH  10  11
ENDBRANCH   1  10
TORSDOF 12
ENDMDL
MODEL 3
REMARK VINA RESULT:    -4.448      4.396      6.699
REMARK INTER + INTRA:          -8.545
REMARK INTER:                  -7.859
REMARK INTRA:                  -0.686
REMARK UNBOUND:                -0.977
REMARK SMILES CCCCCCCCCCCCCC(=O)[O-]
REMARK SMILES IDX 8 1 9 2 10 3 11 4 12 5 13 6 14 7 15 8 16 9 7 10 6 11 5 12
REMARK SMILES IDX 4 13 3 14 2 15 1 16
REMARK H PARENT
REMARK Flexibility Score: inf
ROOT
ATOM      1  C   UNL     1      57.160  -0.774  17.274  1.00  0.00     0.000 C 
ENDROOT
BRANCH   1   2
ATOM      2  C   UNL     1      56.826  -0.587  15.785  1.00  0.00     0.000 C 
BRANCH   2   3
ATOM      3  C   UNL     1      57.716  -1.446  14.868  1.00  0.00     0.000 C 
BRANCH   3   4
ATOM      4  C   UNL     1      56.994  -2.701  14.350  1.00  0.00     0.000 C 
BRANCH   4   5
ATOM      5  C   UNL     1      55.472  -2.508  14.242  1.00  0.00     0.006 C 
BRANCH   5   6
ATOM      6  C   UNL     1      54.810  -3.593  13.382  1.00  0.00     0.053 C 
BRANCH   6   7
ATOM      7  C   UNL     1      53.447  -3.182  12.916  1.00  0.00     0.041 C 
ATOM      8  O   UNL     1      53.167  -1.962  12.776  1.00  0.00    -0.550 OA
ATOM      9  O   UNL     1      52.496  -4.145  12.607  1.00  0.00    -0.550 OA
ENDBRANCH   6   7
ENDBRANCH   5   6
ENDBRANCH   4   5
ENDBRANCH   3   4
ENDBRANCH   2   3
ENDBRANCH   1   2
BRANCH   1  10
ATOM     10  C   UNL     1      55.904  -0.970  18.140  1.00  0.00     0.000 C 
BRANCH  10  11
ATOM     11  C   UNL     1      56.190  -0.831  19.646  1.00  0.00    -0.000 C 
BRANCH  11  12
ATOM     12  C   UNL     1      56.106  -2.141  20.456  1.00  0.00    -0.000 C 
BRANCH  12  13
ATOM     13  C   UNL     1      57.399  -2.535  21.193  1.00  0.00    -0.000 C 
BRANCH  13  14
ATOM     14  C   UNL     1      57.941  -3.904  20.749  1.00  0.00    -0.000 C 
BRANCH  14  15
ATOM     15  C   UNL     1      59.199  -3.783  19.876  1.00  0.00    -0.003 C 
ATOM     16  C   UNL     1      60.491  -3.909  20.682  1.00  0.00     0.004 C 
ENDBRANCH  14  15
ENDBRANCH  13  14
ENDBRANCH  12  13
ENDBRANCH  11  12
ENDBRANCH  10  11
ENDBRANCH   1  10
TORSDOF 12
ENDMDL
MODEL 4
REMARK VINA RESULT:    -4.428      3.258      6.615
REMARK INTER + INTRA:          -8.510
REMARK INTER:                  -7.345
REMARK INTRA:                  -1.166
REMARK UNBOUND:                -0.977
REMARK SMILES CCCCCCCCCCCCCC(=O)[O-]
REMARK SMILES IDX 8 1 9 2 10 3 11 4 12 5 13 6 14 7 15 8 16 9 7 10 6 11 5 12
REMARK SMILES IDX 4 13 3 14 2 15 1 16
REMARK H PARENT
REMARK Flexibility Score: inf
ROOT
ATOM      1  C   UNL     1      54.486  -3.388  12.666  1.00  0.00     0.000 C 
ENDROOT
BRANCH   1   2
ATOM      2  C   UNL     1      55.356  -3.720  13.890  1.00  0.00     0.000 C 
BRANCH   2   3
ATOM      3  C   UNL     1      56.818  -3.274  13.713  1.00  0.00     0.000 C 
BRANCH   3   4
ATOM      4  C   UNL     1      57.229  -2.182  14.715  1.00  0.00     0.000 C 
BRANCH   4   5
ATOM      5  C   UNL     1      56.027  -1.389  15.255  1.00  0.00     0.006 C 
BRANCH   5   6
ATOM      6  C   UNL     1      55.810  -0.075  14.493  1.00  0.00     0.053 C 
BRANCH   6   7
ATOM      7  C   UNL     1      54.421   0.455  14.677  1.00  0.00     0.041 C 
ATOM      8  O   UNL     1      54.036   0.841  15.812  1.00  0.00    -0.550 OA
ATOM      9  O   UNL     1      53.563   0.551  13.589  1.00  0.00    -0.550 OA
ENDBRANCH   6   7
ENDBRANCH   5   6
ENDBRANCH   4   5
ENDBRANCH   3   4
ENDBRANCH   2   3
ENDBRANCH   1   2
BRANCH   1  10
ATOM     10  C   UNL     1      53.214  -4.250  12.595  1.00  0.00     0.000 C 
BRANCH  10  11
ATOM     11  C   UNL     1      51.923  -3.417  12.684  1.00  0.00    -0.000 C 
BRANCH  11  12
ATOM     12  C   UNL     1      51.935  -2.096  11.886  1.00  0.00    -0.000 C 
BRANCH  12  13
ATOM     13  C   UNL     1      51.596  -2.234  10.391  1.00  0.00    -0.000 C 
BRANCH  13  14
ATOM     14  C   UNL     1      52.824  -2.049   9.484  1.00  0.00    -0.000 C 
BRANCH  14  15
ATOM     15  C   UNL     1      53.051  -3.249   8.551  1.00  0.00    -0.003 C 
ATOM     16  C   UNL     1      52.300  -4.500   9.007  1.00  0.00     0.004 C 
ENDBRANCH  14  15
ENDBRANCH  13  14
ENDBRANCH  12  13
ENDBRANCH  11  12
ENDBRANCH  10  11
ENDBRANCH   1  10
TORSDOF 12
ENDMDL
MODEL 5
REMARK VINA RESULT:    -4.391      6.622     10.028
REMARK INTER + INTRA:          -8.448
REMARK INTER:                  -7.603
REMARK INTRA:                  -0.845
REMARK UNBOUND:                -0.977
REMARK SMILES CCCCCCCCCCCCCC(=O)[O-]
REMARK SMILES IDX 8 1 9 2 10 3 11 4 12 5 13 6 14 7 15 8 16 9 7 10 6 11 5 12
REMARK SMILES IDX 4 13 3 14 2 15 1 16
REMARK H PARENT
REMARK Flexibility Score: inf
ROOT
ATOM      1  C   UNL     1      56.989  -0.687  19.470  1.00  0.00     0.000 C 
ENDROOT
BRANCH   1   2
ATOM      2  C   UNL     1      57.458  -0.578  20.931  1.00  0.00     0.000 C 
BRANCH   2   3
ATOM      3  C   UNL     1      57.392  -1.925  21.674  1.00  0.00     0.000 C 
BRANCH   3   4
ATOM      4  C   UNL     1      57.160  -3.113  20.727  1.00  0.00     0.000 C 
BRANCH   4   5
ATOM      5  C   UNL     1      58.227  -4.210  20.878  1.00  0.00     0.006 C 
BRANCH   5   6
ATOM      6  C   UNL     1      59.470  -3.931  20.021  1.00  0.00     0.053 C 
BRANCH   6   7
ATOM      7  C   UNL     1      60.711  -3.832  20.854  1.00  0.00     0.041 C 
ATOM      8  O   UNL     1      60.693  -3.201  21.944  1.00  0.00    -0.550 OA
ATOM      9  O   UNL     1      61.878  -4.461  20.442  1.00  0.00    -0.550 OA
ENDBRANCH   6   7
ENDBRANCH   5   6
ENDBRANCH   4   5
ENDBRANCH   3   4
ENDBRANCH   2   3
ENDBRANCH   1   2
BRANCH   1  10
ATOM     10  C   UNL     1      57.734   0.283  18.537  1.00  0.00     0.000 C 
BRANCH  10  11
ATOM     11  C   UNL     1      57.303   0.145  17.067  1.00  0.00    -0.000 C 
BRANCH  11  12
ATOM     12  C   UNL     1      57.596  -1.224  16.420  1.00  0.00    -0.000 C 
BRANCH  12  13
ATOM     13  C   UNL     1      57.261  -1.322  14.920  1.00  0.00    -0.000 C 
BRANCH  13  14
ATOM     14  C   UNL     1      55.796  -1.716  14.664  1.00  0.00    -0.000 C 
BRANCH  14  15
ATOM     15  C   UNL     1      55.670  -2.993  13.821  1.00  0.00    -0.003 C 
ATOM     16  C   UNL     1      57.007  -3.710  13.634  1.00  0.00     0.004 C 
ENDBRANCH  14  15
ENDBRANCH  13  14
ENDBRANCH  12  13
ENDBRANCH  11  12
ENDBRANCH  10  11
ENDBRANCH   1  10
TORSDOF 12
ENDMDL
MODEL 6
REMARK VINA RESULT:    -4.388      3.388      6.953
REMARK INTER + INTRA:          -8.443
REMARK INTER:                  -7.556
REMARK INTRA:                  -0.887
REMARK UNBOUND:                -0.977
REMARK SMILES CCCCCCCCCCCCCC(=O)[O-]
REMARK SMILES IDX 8 1 9 2 10 3 11 4 12 5 13 6 14 7 15 8 16 9 7 10 6 11 5 12
REMARK SMILES IDX 4 13 3 14 2 15 1 16
REMARK H PARENT
REMARK Flexibility Score: inf
ROOT
ATOM      1  C   UNL     1      52.837  -3.545  13.301  1.00  0.00     0.000 C 
ENDROOT
BRANCH   1   2
ATOM      2  C   UNL     1      54.335  -3.883  13.227  1.00  0.00     0.000 C 
BRANCH   2   3
ATOM      3  C   UNL     1      55.231  -2.676  13.558  1.00  0.00     0.000 C 
BRANCH   3   4
ATOM      4  C   UNL     1      56.641  -3.091  14.007  1.00  0.00     0.000 C 
BRANCH   4   5
ATOM      5  C   UNL     1      57.362  -1.985  14.796  1.00  0.00     0.006 C 
BRANCH   5   6
ATOM      6  C   UNL     1      56.381  -1.073  15.545  1.00  0.00     0.053 C 
BRANCH   6   7
ATOM      7  C   UNL     1      56.597   0.372  15.213  1.00  0.00     0.041 C 
ATOM      8  O   UNL     1      56.123   0.855  14.151  1.00  0.00    -0.550 OA
ATOM      9  O   UNL     1      57.294   1.192  16.091  1.00  0.00    -0.550 OA
ENDBRANCH   6   7
ENDBRANCH   5   6
ENDBRANCH   4   5
ENDBRANCH   3   4
ENDBRANCH   2   3
ENDBRANCH   1   2
BRANCH   1  10
ATOM     10  C   UNL     1      52.070  -3.983  12.042  1.00  0.00     0.000 C 
BRANCH  10  11
ATOM     11  C   UNL     1      51.800  -2.819  11.072  1.00  0.00    -0.000 C 
BRANCH  11  12
ATOM     12  C   UNL     1      52.905  -2.564  10.025  1.00  0.00    -0.000 C 
BRANCH  12  13
ATOM     13  C   UNL     1      53.563  -3.832   9.452  1.00  0.00    -0.000 C 
BRANCH  13  14
ATOM     14  C   UNL     1      52.658  -4.570   8.452  1.00  0.00    -0.000 C 
BRANCH  14  15
ATOM     15  C   UNL     1      53.121  -4.392   6.998  1.00  0.00    -0.003 C 
ATOM     16  C   UNL     1      54.643  -4.336   6.866  1.00  0.00     0.004 C 
ENDBRANCH  14  15
ENDBRANCH  13  14
ENDBRANCH  12  13
ENDBRANCH  11  12
ENDBRANCH  10  11
ENDBRANCH   1  10
TORSDOF 12
ENDMDL
MODEL 7
REMARK VINA RESULT:    -4.336      5.785      8.314
REMARK INTER + INTRA:          -8.354
REMARK INTER:                  -7.682
REMARK INTRA:                  -0.672
REMARK UNBOUND:                -0.977
REMARK SMILES CCCCCCCCCCCCCC(=O)[O-]
REMARK SMILES IDX 8 1 9 2 10 3 11 4 12 5 13 6 14 7 15 8 16 9 7 10 6 11 5 12
REMARK SMILES IDX 4 13 3 14 2 15 1 16
REMARK H PARENT
REMARK Flexibility Score: inf
ROOT
ATOM      1  C   UNL     1      58.570  -1.549  19.443  1.00  0.00     0.000 C 
ENDROOT
BRANCH   1   2
ATOM      2  C   UNL     1      58.317  -1.647  17.930  1.00  0.00     0.000 C 
BRANCH   2   3
ATOM      3  C   UNL     1      57.067  -0.863  17.488  1.00  0.00     0.000 C 
BRANCH   3   4
ATOM      4  C   UNL     1      57.233  -0.218  16.103  1.00  0.00     0.000 C 
BRANCH   4   5
ATOM      5  C   UNL     1      57.264  -1.254  14.966  1.00  0.00     0.006 C 
BRANCH   5   6
ATOM      6  C   UNL     1      55.920  -1.976  14.802  1.00  0.00     0.053 C 
BRANCH   6   7
ATOM      7  C   UNL     1      56.058  -3.242  14.013  1.00  0.00     0.041 C 
ATOM      8  O   UNL     1      55.036  -3.908  13.700  1.00  0.00    -0.550 OA
ATOM      9  O   UNL     1      57.312  -3.670  13.597  1.00  0.00    -0.550 OA
ENDBRANCH   6   7
ENDBRANCH   5   6
ENDBRANCH   4   5
ENDBRANCH   3   4
ENDBRANCH   2   3
ENDBRANCH   1   2
BRANCH   1  10
ATOM     10  C   UNL     1      57.281  -1.708  20.269  1.00  0.00     0.000 C 
BRANCH  10  11
ATOM     11  C   UNL     1      57.100  -3.132  20.823  1.00  0.00    -0.000 C 
BRANCH  11  12
ATOM     12  C   UNL     1      58.327  -4.057  20.677  1.00  0.00    -0.000 C 
BRANCH  12  13
ATOM     13  C   UNL     1      59.320  -4.013  21.853  1.00  0.00    -0.000 C 
BRANCH  13  14
ATOM     14  C   UNL     1      60.784  -3.922  21.390  1.00  0.00    -0.000 C 
BRANCH  14  15
ATOM     15  C   UNL     1      61.750  -3.639  22.551  1.00  0.00    -0.003 C 
ATOM     16  C   UNL     1      62.728  -4.789  22.796  1.00  0.00     0.004 C 
ENDBRANCH  14  15
ENDBRANCH  13  14
ENDBRANCH  12  13
ENDBRANCH  11  12
ENDBRANCH  10  11
ENDBRANCH   1  10
TORSDOF 12
ENDMDL
MODEL 8
REMARK VINA RESULT:    -4.320      2.286      4.295
REMARK INTER + INTRA:          -8.328
REMARK INTER:                  -6.949
REMARK INTRA:                  -1.379
REMARK UNBOUND:                -0.977
REMARK SMILES CCCCCCCCCCCCCC(=O)[O-]
REMARK SMILES IDX 8 1 9 2 10 3 11 4 12 5 13 6 14 7 15 8 16 9 7 10 6 11 5 12
REMARK SMILES IDX 4 13 3 14 2 15 1 16
REMARK H PARENT
REMARK Flexibility Score: inf
ROOT
ATOM      1  C   UNL     1      56.861  -1.581  14.562  1.00  0.00     0.000 C 
ENDROOT
BRANCH   1   2
ATOM      2  C   UNL     1      56.838  -3.083  14.233  1.00  0.00     0.000 C 
BRANCH   2   3
ATOM      3  C   UNL     1      55.490  -3.538  13.647  1.00  0.00     0.000 C 
BRANCH   3   4
ATOM      4  C   UNL     1      54.535  -2.364  13.377  1.00  0.00     0.000 C 
BRANCH   4   5
ATOM      5  C   UNL     1      53.102  -2.825  13.062  1.00  0.00     0.006 C 
BRANCH   5   6
ATOM      6  C   UNL     1      53.062  -4.254  12.505  1.00  0.00     0.053 C 
BRANCH   6   7
ATOM      7  C   UNL     1      52.391  -4.313  11.167  1.00  0.00     0.041 C 
ATOM      8  O   UNL     1      51.620  -3.385  10.804  1.00  0.00    -0.550 OA
ATOM      9  O   UNL     1      52.641  -5.375  10.308  1.00  0.00    -0.550 OA
ENDBRANCH   6   7
ENDBRANCH   5   6
ENDBRANCH   4   5
ENDBRANCH   3   4
ENDBRANCH   2   3
ENDBRANCH   1   2
BRANCH   1  10
ATOM     10  C   UNL     1      57.471  -1.289  15.944  1.00  0.00     0.000 C 
BRANCH  10  11
ATOM     11  C   UNL     1      56.423  -0.836  16.976  1.00  0.00    -0.000 C 
BRANCH  11  12
ATOM     12  C   UNL     1      54.975  -0.755  16.450  1.00  0.00    -0.000 C 
BRANCH  12  13
ATOM     13  C   UNL     1      54.149   0.425  16.995  1.00  0.00    -0.000 C 
BRANCH  13  14
ATOM     14  C   UNL     1      54.045   1.589  15.995  1.00  0.00    -0.000 C 
BRANCH  14  15
ATOM     15  C   UNL     1      54.351   1.154  14.554  1.00  0.00    -0.003 C 
ATOM     16  C   UNL     1      53.110   1.156  13.661  1.00  0.00     0.004 C 
ENDBRANCH  14  15
ENDBRANCH  13  14
ENDBRANCH  12  13
ENDBRANCH  11  12
ENDBRANCH  10  11
ENDBRANCH   1  10
TORSDOF 12
ENDMDL
MODEL 9
REMARK VINA RESULT:    -4.298      1.305      2.494
REMARK INTER + INTRA:          -8.290
REMARK INTER:                  -7.058
REMARK INTRA:                  -1.232
REMARK UNBOUND:                -0.977
REMARK SMILES CCCCCCCCCCCCCC(=O)[O-]
REMARK SMILES IDX 8 1 9 2 10 3 11 4 12 5 13 6 14 7 15 8 16 9 7 10 6 11 5 12
REMARK SMILES IDX 4 13 3 14 2 15 1 16
REMARK H PARENT
REMARK Flexibility Score: inf
ROOT
ATOM      1  C   UNL     1      55.009  -2.737  13.710  1.00  0.00     0.000 C 
ENDROOT
BRANCH   1   2
ATOM      2  C   UNL     1      54.127  -3.948  13.363  1.00  0.00     0.000 C 
BRANCH   2   3
ATOM      3  C   UNL     1      52.696  -3.543  12.968  1.00  0.00     0.000 C 
BRANCH   3   4
ATOM      4  C   UNL     1      52.662  -2.305  12.056  1.00  0.00     0.000 C 
BRANCH   4   5
ATOM      5  C   UNL     1      52.092  -2.612  10.661  1.00  0.00     0.006 C 
BRANCH   5   6
ATOM      6  C   UNL     1      53.189  -2.689   9.591  1.00  0.00     0.053 C 
BRANCH   6   7
ATOM      7  C   UNL     1      53.415  -4.094   9.122  1.00  0.00     0.041 C 
ATOM      8  O   UNL     1      52.912  -5.060   9.755  1.00  0.00    -0.550 OA
ATOM      9  O   UNL     1      54.152  -4.335   7.971  1.00  0.00    -0.550 OA
ENDBRANCH   6   7
ENDBRANCH   5   6
ENDBRANCH   4   5
ENDBRANCH   3   4
ENDBRANCH   2   3
ENDBRANCH   1   2
BRANCH   1  10
ATOM     10  C   UNL     1      56.474  -3.128  13.968  1.00  0.00     0.000 C 
BRANCH  10  11
ATOM     11  C   UNL     1      57.245  -2.060  14.763  1.00  0.00    -0.000 C 
BRANCH  11  12
ATOM     12  C   UNL     1      56.405  -0.853  15.231  1.00  0.00    -0.000 C 
BRANCH  12  13
ATOM     13  C   UNL     1      56.996   0.526  14.884  1.00  0.00    -0.000 C 
BRANCH  13  14
ATOM     14  C   UNL     1      55.983   1.445  14.179  1.00  0.00    -0.000 C 
BRANCH  14  15
ATOM     15  C   UNL     1      54.549   0.897  14.243  1.00  0.00    -0.003 C 
ATOM     16  C   UNL     1      53.828   0.976  12.898  1.00  0.00     0.004 C 
ENDBRANCH  14  15
ENDBRANCH  13  14
ENDBRANCH  12  13
ENDBRANCH  11  12
ENDBRANCH  10  11
ENDBRANCH   1  10
TORSDOF 12
ENDMDL
