MODEL 1
REMARK VINA RESULT:    -3.401      0.000      0.000
REMARK INTER + INTRA:          -7.966
REMARK INTER:                  -6.184
REMARK INTRA:                  -1.782
REMARK UNBOUND:                -1.782
REMARK SMILES CCCCCCCCCCCCCCCC(=O)[O-]
REMARK SMILES IDX 9 1 10 2 11 3 12 4 13 5 14 6 15 7 16 8 17 9 18 10 8 11 7 12
REMARK SMILES IDX 6 13 5 14 4 15 3 16 2 17 1 18
REMARK H PARENT
REMARK Flexibility Score: inf
ROOT
ATOM      1  C   UNL     1      48.453  33.356  86.355  1.00  0.00     0.000 C 
ENDROOT
BRANCH   1   2
ATOM      2  C   UNL     1      48.061  33.152  87.826  1.00  0.00     0.000 C 
BRANCH   2   3
ATOM      3  C   UNL     1      47.329  31.818  88.020  1.00  0.00     0.000 C 
BRANCH   3   4
ATOM      4  C   UNL     1      47.887  31.054  89.230  1.00  0.00     0.000 C 
BRANCH   4   5
ATOM      5  C   UNL     1      47.083  31.306  90.514  1.00  0.00     0.000 C 
BRANCH   5   6
ATOM      6  C   UNL     1      45.581  31.502  90.244  1.00  0.00     0.006 C 
BRANCH   6   7
ATOM      7  C   UNL     1      44.779  31.697  91.538  1.00  0.00     0.053 C 
BRANCH   7   8
ATOM      8  C   UNL     1      44.158  30.415  92.005  1.00  0.00     0.041 C 
ATOM      9  O   UNL     1      44.886  29.448  92.353  1.00  0.00    -0.550 OA
ATOM     10  O   UNL     1      42.776  30.281  92.030  1.00  0.00    -0.550 OA
ENDBRANCH   7   8
ENDBRANCH   6   7
ENDBRANCH   5   6
ENDBRANCH   4   5
ENDBRANCH   3   4
ENDBRANCH   2   3
ENDBRANCH   1   2
BRANCH   1  11
ATOM     11  C   UNL     1      49.023  34.758  86.078  1.00  0.00     0.000 C 
BRANCH  11  12
ATOM     12  C   UNL     1      49.442  35.551  87.332  1.00  0.00    -0.000 C 
BRANCH  12  13
ATOM     13  C   UNL     1      50.960  35.766  87.491  1.00  0.00    -0.000 C 
BRANCH  13  14
ATOM     14  C   UNL     1      51.838  34.975  86.500  1.00  0.00    -0.000 C 
BRANCH  14  15
ATOM     15  C   UNL     1      52.640  33.821  87.126  1.00  0.00    -0.000 C 
BRANCH  15  16
ATOM     16  C   UNL     1      52.267  33.563  88.596  1.00  0.00    -0.000 C 
BRANCH  16  17
ATOM     17  C   UNL     1      51.437  32.283  88.777  1.00  0.00    -0.003 C 
ATOM     18  C   UNL     1      51.414  31.413  87.521  1.00  0.00     0.004 C 
ENDBRANCH  16  17
ENDBRANCH  15  16
ENDBRANCH  14  15
ENDBRANCH  13  14
ENDBRANCH  12  13
ENDBRANCH  11  12
ENDBRANCH   1  11
TORSDOF 14
ENDMDL
MODEL 2
REMARK VINA RESULT:    -3.320      1.706      3.341
REMARK INTER + INTRA:          -7.819
REMARK INTER:                  -6.395
REMARK INTRA:                  -1.424
REMARK UNBOUND:                -1.782
REMARK SMILES CCCCCCCCCCCCCCCC(=O)[O-]
REMARK SMILES IDX 9 1 10 2 11 3 12 4 13 5 14 6 15 7 16 8 17 9 18 10 8 11 7 12
REMARK SMILES IDX 6 13 5 14 4 15 3 16 2 17 1 18
REMARK H PARENT
REMARK Flexibility Score: inf
ROOT
ATOM      1  C   UNL     1      51.065  32.445  87.949  1.00  0.00     0.000 C 
ENDROOT
BRANCH   1   2
ATOM      2  C   UNL     1      49.957  32.106  88.957  1.00  0.00     0.000 C 
BRANCH   2   3
ATOM      3  C   UNL     1      48.747  31.478  88.254  1.00  0.00     0.000 C 
BRANCH   3   4
ATOM      4  C   UNL     1      47.505  32.370  88.396  1.00  0.00     0.000 C 
BRANCH   4   5
ATOM      5  C   UNL     1      46.307  31.628  89.008  1.00  0.00     0.000 C 
BRANCH   5   6
ATOM      6  C   UNL     1      46.465  31.393  90.520  1.00  0.00     0.006 C 
BRANCH   6   7
ATOM      7  C   UNL     1      45.455  30.369  91.056  1.00  0.00     0.053 C 
BRANCH   7   8
ATOM      8  C   UNL     1      44.343  31.029  91.812  1.00  0.00     0.041 C 
ATOM      9  O   UNL     1      44.484  32.200  92.255  1.00  0.00    -0.550 OA
ATOM     10  O   UNL     1      43.160  30.341  92.052  1.00  0.00    -0.550 OA
ENDBRANCH   7   8
ENDBRANCH   6   7
ENDBRANCH   5   6
ENDBRANCH   4   5
ENDBRANCH   3   4
ENDBRANCH   2   3
ENDBRANCH   1   2
BRANCH   1  11
ATOM     11  C   UNL     1      51.607  33.875  88.116  1.00  0.00     0.000 C 
BRANCH  11  12
ATOM     12  C   UNL     1      51.118  34.885  87.058  1.00  0.00    -0.000 C 
BRANCH  12  13
ATOM     13  C   UNL     1      49.860  35.684  87.451  1.00  0.00    -0.000 C 
BRANCH  13  14
ATOM     14  C   UNL     1      48.604  35.376  86.612  1.00  0.00    -0.000 C 
BRANCH  14  15
ATOM     15  C   UNL     1      48.802  34.315  85.516  1.00  0.00    -0.000 C 
BRANCH  15  16
ATOM     16  C   UNL     1      48.656  34.889  84.096  1.00  0.00    -0.000 C 
BRANCH  16  17
ATOM     17  C   UNL     1      49.914  34.671  83.241  1.00  0.00    -0.003 C 
ATOM     18  C   UNL     1      49.618  34.691  81.742  1.00  0.00     0.004 C 
ENDBRANCH  16  17
ENDBRANCH  15  16
ENDBRANCH  14  15
ENDBRANCH  13  14
ENDBRANCH  12  13
ENDBRANCH  11  12
ENDBRANCH   1  11
TORSDOF 14
ENDMDL
MODEL 3
REMARK VINA RESULT:    -3.318     15.886     17.127
REMARK INTER + INTRA:          -7.815
REMARK INTER:                  -5.715
REMARK INTRA:                  -2.101
REMARK UNBOUND:                -1.782
REMARK SMILES CCCCCCCCCCCCCCCC(=O)[O-]
REMARK SMILES IDX 9 1 10 2 11 3 12 4 13 5 14 6 15 7 16 8 17 9 18 10 8 11 7 12
REMARK SMILES IDX 6 13 5 14 4 15 3 16 2 17 1 18
REMARK H PARENT
REMARK Flexibility Score: inf
ROOT
ATOM      1  C   UNL     1      44.237  21.012  75.362  1.00  0.00     0.000 C 
ENDROOT
BRANCH   1   2
ATOM      2  C   UNL     1      44.683  22.255  76.146  1.00  0.00     0.000 C 
BRANCH   2   3
ATOM      3  C   UNL     1      44.040  22.286  77.539  1.00  0.00     0.000 C 
BRANCH   3   4
ATOM      4  C   UNL     1      43.069  21.111  77.722  1.00  0.00     0.000 C 
BRANCH   4   5
ATOM      5  C   UNL     1      42.889  20.714  79.195  1.00  0.00     0.000 C 
BRANCH   5   6
ATOM      6  C   UNL     1      41.540  20.023  79.462  1.00  0.00     0.006 C 
BRANCH   6   7
ATOM      7  C   UNL     1      40.450  20.483  78.484  1.00  0.00     0.053 C 
BRANCH   7   8
ATOM      8  C   UNL     1      39.596  21.564  79.073  1.00  0.00     0.041 C 
ATOM      9  O   UNL     1      38.471  21.286  79.566  1.00  0.00    -0.550 OA
ATOM     10  O   UNL     1      40.030  22.883  79.051  1.00  0.00    -0.550 OA
ENDBRANCH   7   8
ENDBRANCH   6   7
ENDBRANCH   5   6
ENDBRANCH   4   5
ENDBRANCH   3   4
ENDBRANCH   2   3
ENDBRANCH   1   2
BRANCH   1  11
ATOM     11  C   UNL     1      45.400  20.321  74.628  1.00  0.00     0.000 C 
BRANCH  11  12
ATOM     12  C   UNL     1      46.317  19.462  75.523  1.00  0.00    -0.000 C 
BRANCH  12  13
ATOM     13  C   UNL     1      45.583  18.507  76.483  1.00  0.00    -0.000 C 
BRANCH  13  14
ATOM     14  C   UNL     1      45.991  18.631  77.965  1.00  0.00    -0.000 C 
BRANCH  14  15
ATOM     15  C   UNL     1      46.685  19.953  78.337  1.00  0.00    -0.000 C 
BRANCH  15  16
ATOM     16  C   UNL     1      48.083  19.743  78.942  1.00  0.00    -0.000 C 
BRANCH  16  17
ATOM     17  C   UNL     1      49.165  20.563  78.224  1.00  0.00    -0.003 C 
ATOM     18  C   UNL     1      48.580  21.643  77.314  1.00  0.00     0.004 C 
ENDBRANCH  16  17
ENDBRANCH  15  16
ENDBRANCH  14  15
ENDBRANCH  13  14
ENDBRANCH  12  13
ENDBRANCH  11  12
ENDBRANCH   1  11
TORSDOF 14
ENDMDL
MODEL 4
REMARK VINA RESULT:    -3.293      4.323      7.404
REMARK INTER + INTRA:          -7.770
REMARK INTER:                  -6.157
REMARK INTRA:                  -1.613
REMARK UNBOUND:                -1.782
REMARK SMILES CCCCCCCCCCCCCCCC(=O)[O-]
REMARK SMILES IDX 9 1 10 2 11 3 12 4 13 5 14 6 15 7 16 8 17 9 18 10 8 11 7 12
REMARK SMILES IDX 6 13 5 14 4 15 3 16 2 17 1 18
REMARK H PARENT
REMARK Flexibility Score: inf
ROOT
ATOM      1  C   UNL     1      51.044  33.938  87.885  1.00  0.00     0.000 C 
ENDROOT
BRANCH   1   2
ATOM      2  C   UNL     1      52.431  33.977  87.226  1.00  0.00     0.000 C 
BRANCH   2   3
ATOM      3  C   UNL     1      52.441  34.929  86.023  1.00  0.00     0.000 C 
BRANCH   3   4
ATOM      4  C   UNL     1      52.969  34.221  84.767  1.00  0.00     0.000 C 
BRANCH   4   5
ATOM      5  C   UNL     1      51.990  34.300  83.585  1.00  0.00     0.000 C 
BRANCH   5   6
ATOM      6  C   UNL     1      50.578  33.811  83.952  1.00  0.00     0.006 C 
BRANCH   6   7
ATOM      7  C   UNL     1      49.488  34.789  83.493  1.00  0.00     0.053 C 
BRANCH   7   8
ATOM      8  C   UNL     1      48.697  34.240  82.345  1.00  0.00     0.041 C 
ATOM      9  O   UNL     1      49.066  34.455  81.160  1.00  0.00    -0.550 OA
ATOM     10  O   UNL     1      47.537  33.514  82.583  1.00  0.00    -0.550 OA
ENDBRANCH   7   8
ENDBRANCH   6   7
ENDBRANCH   5   6
ENDBRANCH   4   5
ENDBRANCH   3   4
ENDBRANCH   2   3
ENDBRANCH   1   2
BRANCH   1  11
ATOM     11  C   UNL     1      50.137  35.098  87.437  1.00  0.00     0.000 C 
BRANCH  11  12
ATOM     12  C   UNL     1      48.671  34.710  87.158  1.00  0.00    -0.000 C 
BRANCH  12  13
ATOM     13  C   UNL     1      48.412  33.198  87.017  1.00  0.00    -0.000 C 
BRANCH  13  14
ATOM     14  C   UNL     1      47.496  32.589  88.098  1.00  0.00    -0.000 C 
BRANCH  14  15
ATOM     15  C   UNL     1      48.199  31.638  89.081  1.00  0.00    -0.000 C 
BRANCH  15  16
ATOM     16  C   UNL     1      47.279  31.174  90.223  1.00  0.00    -0.000 C 
BRANCH  16  17
ATOM     17  C   UNL     1      45.819  31.607  90.017  1.00  0.00    -0.003 C 
ATOM     18  C   UNL     1      45.012  31.598  91.314  1.00  0.00     0.004 C 
ENDBRANCH  16  17
ENDBRANCH  15  16
ENDBRANCH  14  15
ENDBRANCH  13  14
ENDBRANCH  12  13
ENDBRANCH  11  12
ENDBRANCH   1  11
TORSDOF 14
ENDMDL
MODEL 5
REMARK VINA RESULT:    -3.254      2.278      4.186
REMARK INTER + INTRA:          -7.700
REMARK INTER:                  -5.920
REMARK INTRA:                  -1.780
REMARK UNBOUND:                -1.782
REMARK SMILES CCCCCCCCCCCCCCCC(=O)[O-]
REMARK SMILES IDX 9 1 10 2 11 3 12 4 13 5 14 6 15 7 16 8 17 9 18 10 8 11 7 12
REMARK SMILES IDX 6 13 5 14 4 15 3 16 2 17 1 18
REMARK H PARENT
REMARK Flexibility Score: inf
ROOT
ATOM      1  C   UNL     1      50.958  34.895  87.600  1.00  0.00     0.000 C 
ENDROOT
BRANCH   1   2
ATOM      2  C   UNL     1      49.792  35.800  87.174  1.00  0.00     0.000 C 
BRANCH   2   3
ATOM      3  C   UNL     1      48.467  35.028  87.179  1.00  0.00     0.000 C 
BRANCH   3   4
ATOM      4  C   UNL     1      48.713  33.513  87.148  1.00  0.00     0.000 C 
BRANCH   4   5
ATOM      5  C   UNL     1      47.771  32.738  88.083  1.00  0.00     0.000 C 
BRANCH   5   6
ATOM      6  C   UNL     1      48.470  31.561  88.784  1.00  0.00     0.006 C 
BRANCH   6   7
ATOM      7  C   UNL     1      47.909  31.309  90.191  1.00  0.00     0.053 C 
BRANCH   7   8
ATOM      8  C   UNL     1      46.434  31.043  90.161  1.00  0.00     0.041 C 
ATOM      9  O   UNL     1      45.644  31.778  90.811  1.00  0.00    -0.550 OA
ATOM     10  O   UNL     1      45.936  29.967  89.438  1.00  0.00    -0.550 OA
ENDBRANCH   7   8
ENDBRANCH   6   7
ENDBRANCH   5   6
ENDBRANCH   4   5
ENDBRANCH   3   4
ENDBRANCH   2   3
ENDBRANCH   1   2
BRANCH   1  11
ATOM     11  C   UNL     1      52.307  35.342  87.009  1.00  0.00     0.000 C 
BRANCH  11  12
ATOM     12  C   UNL     1      52.788  34.525  85.793  1.00  0.00    -0.000 C 
BRANCH  12  13
ATOM     13  C   UNL     1      52.113  33.150  85.622  1.00  0.00    -0.000 C 
BRANCH  13  14
ATOM     14  C   UNL     1      51.247  33.002  84.355  1.00  0.00    -0.000 C 
BRANCH  14  15
ATOM     15  C   UNL     1      50.938  34.321  83.625  1.00  0.00    -0.000 C 
BRANCH  15  16
ATOM     16  C   UNL     1      49.438  34.665  83.625  1.00  0.00    -0.000 C 
BRANCH  16  17
ATOM     17  C   UNL     1      48.768  34.375  82.273  1.00  0.00    -0.003 C 
ATOM     18  C   UNL     1      49.616  34.829  81.085  1.00  0.00     0.004 C 
ENDBRANCH  16  17
ENDBRANCH  15  16
ENDBRANCH  14  15
ENDBRANCH  13  14
ENDBRANCH  12  13
ENDBRANCH  11  12
ENDBRANCH   1  11
TORSDOF 14
ENDMDL
MODEL 6
REMARK VINA RESULT:    -3.251      3.830      6.472
REMARK INTER + INTRA:          -7.693
REMARK INTER:                  -5.264
REMARK INTRA:                  -2.430
REMARK UNBOUND:                -1.782
REMARK SMILES CCCCCCCCCCCCCCCC(=O)[O-]
REMARK SMILES IDX 9 1 10 2 11 3 12 4 13 5 14 6 15 7 16 8 17 9 18 10 8 11 7 12
REMARK SMILES IDX 6 13 5 14 4 15 3 16 2 17 1 18
REMARK H PARENT
REMARK Flexibility Score: inf
ROOT
ATOM      1  C   UNL     1      51.305  34.986  87.584  1.00  0.00     0.000 C 
ENDROOT
BRANCH   1   2
ATOM      2  C   UNL     1      52.444  35.358  86.624  1.00  0.00     0.000 C 
BRANCH   2   3
ATOM      3  C   UNL     1      52.756  34.200  85.667  1.00  0.00     0.000 C 
BRANCH   3   4
ATOM      4  C   UNL     1      52.570  32.845  86.365  1.00  0.00     0.000 C 
BRANCH   4   5
ATOM      5  C   UNL     1      53.897  32.104  86.589  1.00  0.00     0.000 C 
BRANCH   5   6
ATOM      6  C   UNL     1      54.631  32.575  87.855  1.00  0.00     0.006 C 
BRANCH   6   7
ATOM      7  C   UNL     1      54.005  32.004  89.135  1.00  0.00     0.053 C 
BRANCH   7   8
ATOM      8  C   UNL     1      53.555  33.089  90.065  1.00  0.00     0.041 C 
ATOM      9  O   UNL     1      52.761  32.828  91.007  1.00  0.00    -0.550 OA
ATOM     10  O   UNL     1      53.991  34.394  89.874  1.00  0.00    -0.550 OA
ENDBRANCH   7   8
ENDBRANCH   6   7
ENDBRANCH   5   6
ENDBRANCH   4   5
ENDBRANCH   3   4
ENDBRANCH   2   3
ENDBRANCH   1   2
BRANCH   1  11
ATOM     11  C   UNL     1      50.122  35.968  87.517  1.00  0.00     0.000 C 
BRANCH  11  12
ATOM     12  C   UNL     1      48.783  35.347  87.070  1.00  0.00    -0.000 C 
BRANCH  12  13
ATOM     13  C   UNL     1      48.903  34.221  86.025  1.00  0.00    -0.000 C 
BRANCH  13  14
ATOM     14  C   UNL     1      48.409  32.838  86.496  1.00  0.00    -0.000 C 
BRANCH  14  15
ATOM     15  C   UNL     1      47.829  32.810  87.921  1.00  0.00    -0.000 C 
BRANCH  15  16
ATOM     16  C   UNL     1      48.443  31.702  88.793  1.00  0.00    -0.000 C 
BRANCH  16  17
ATOM     17  C   UNL     1      49.975  31.789  88.864  1.00  0.00    -0.003 C 
ATOM     18  C   UNL     1      50.659  30.473  88.492  1.00  0.00     0.004 C 
ENDBRANCH  16  17
ENDBRANCH  15  16
ENDBRANCH  14  15
ENDBRANCH  13  14
ENDBRANCH  12  13
ENDBRANCH  11  12
ENDBRANCH   1  11
TORSDOF 14
ENDMDL
MODEL 7
REMARK VINA RESULT:    -3.199      4.035      5.989
REMARK INTER + INTRA:          -7.599
REMARK INTER:                  -5.772
REMARK INTRA:                  -1.827
REMARK UNBOUND:                -1.782
REMARK SMILES CCCCCCCCCCCCCCCC(=O)[O-]
REMARK SMILES IDX 9 1 10 2 11 3 12 4 13 5 14 6 15 7 16 8 17 9 18 10 8 11 7 12
REMARK SMILES IDX 6 13 5 14 4 15 3 16 2 17 1 18
REMARK H PARENT
REMARK Flexibility Score: inf
ROOT
ATOM      1  C   UNL     1      46.872  31.987  89.273  1.00  0.00     0.000 C 
ENDROOT
BRANCH   1   2
ATOM      2  C   UNL     1      47.091  30.958  90.392  1.00  0.00     0.000 C 
BRANCH   2   3
ATOM      3  C   UNL     1      48.456  30.273  90.249  1.00  0.00     0.000 C 
BRANCH   3   4
ATOM      4  C   UNL     1      49.599  31.263  90.514  1.00  0.00     0.000 C 
BRANCH   4   5
ATOM      5  C   UNL     1      50.640  31.284  89.385  1.00  0.00     0.000 C 
BRANCH   5   6
ATOM      6  C   UNL     1      51.194  32.694  89.116  1.00  0.00     0.006 C 
BRANCH   6   7
ATOM      7  C   UNL     1      52.494  32.661  88.300  1.00  0.00     0.053 C 
BRANCH   7   8
ATOM      8  C   UNL     1      53.557  33.520  88.915  1.00  0.00     0.041 C 
ATOM      9  O   UNL     1      54.309  33.054  89.811  1.00  0.00    -0.550 OA
ATOM     10  O   UNL     1      53.698  34.843  88.517  1.00  0.00    -0.550 OA
ENDBRANCH   7   8
ENDBRANCH   6   7
ENDBRANCH   5   6
ENDBRANCH   4   5
ENDBRANCH   3   4
ENDBRANCH   2   3
ENDBRANCH   1   2
BRANCH   1  11
ATOM     11  C   UNL     1      47.160  31.417  87.873  1.00  0.00     0.000 C 
BRANCH  11  12
ATOM     12  C   UNL     1      47.960  32.348  86.941  1.00  0.00    -0.000 C 
BRANCH  12  13
ATOM     13  C   UNL     1      48.196  33.771  87.486  1.00  0.00    -0.000 C 
BRANCH  13  14
ATOM     14  C   UNL     1      48.668  34.800  86.439  1.00  0.00    -0.000 C 
BRANCH  14  15
ATOM     15  C   UNL     1      50.185  35.056  86.422  1.00  0.00    -0.000 C 
BRANCH  15  16
ATOM     16  C   UNL     1      50.868  34.506  85.157  1.00  0.00    -0.000 C 
BRANCH  16  17
ATOM     17  C   UNL     1      52.388  34.726  85.166  1.00  0.00    -0.003 C 
ATOM     18  C   UNL     1      53.043  34.370  83.832  1.00  0.00     0.004 C 
ENDBRANCH  16  17
ENDBRANCH  15  16
ENDBRANCH  14  15
ENDBRANCH  13  14
ENDBRANCH  12  13
ENDBRANCH  11  12
ENDBRANCH   1  11
TORSDOF 14
ENDMDL
MODEL 8
REMARK VINA RESULT:    -3.193      4.477      5.956
REMARK INTER + INTRA:          -7.589
REMARK INTER:                  -5.432
REMARK INTRA:                  -2.157
REMARK UNBOUND:                -1.782
REMARK SMILES CCCCCCCCCCCCCCCC(=O)[O-]
REMARK SMILES IDX 9 1 10 2 11 3 12 4 13 5 14 6 15 7 16 8 17 9 18 10 8 11 7 12
REMARK SMILES IDX 6 13 5 14 4 15 3 16 2 17 1 18
REMARK H PARENT
REMARK Flexibility Score: inf
ROOT
ATOM      1  C   UNL     1      48.828  33.478  86.880  1.00  0.00     0.000 C 
ENDROOT
BRANCH   1   2
ATOM      2  C   UNL     1      48.028  32.596  87.850  1.00  0.00     0.000 C 
BRANCH   2   3
ATOM      3  C   UNL     1      48.876  31.420  88.350  1.00  0.00     0.000 C 
BRANCH   3   4
ATOM      4  C   UNL     1      49.989  31.904  89.290  1.00  0.00     0.000 C 
BRANCH   4   5
ATOM      5  C   UNL     1      51.395  31.584  88.762  1.00  0.00     0.000 C 
BRANCH   5   6
ATOM      6  C   UNL     1      52.501  31.924  89.776  1.00  0.00     0.006 C 
BRANCH   6   7
ATOM      7  C   UNL     1      53.787  32.406  89.091  1.00  0.00     0.053 C 
BRANCH   7   8
ATOM      8  C   UNL     1      54.500  33.437  89.912  1.00  0.00     0.041 C 
ATOM      9  O   UNL     1      55.570  33.144  90.509  1.00  0.00    -0.550 OA
ATOM     10  O   UNL     1      53.968  34.714  90.041  1.00  0.00    -0.550 OA
ENDBRANCH   7   8
ENDBRANCH   6   7
ENDBRANCH   5   6
ENDBRANCH   4   5
ENDBRANCH   3   4
ENDBRANCH   2   3
ENDBRANCH   1   2
BRANCH   1  11
ATOM     11  C   UNL     1      48.583  34.981  87.099  1.00  0.00     0.000 C 
BRANCH  11  12
ATOM     12  C   UNL     1      49.856  35.824  87.315  1.00  0.00    -0.000 C 
BRANCH  12  13
ATOM     13  C   UNL     1      51.110  35.022  87.713  1.00  0.00    -0.000 C 
BRANCH  13  14
ATOM     14  C   UNL     1      52.393  35.391  86.940  1.00  0.00    -0.000 C 
BRANCH  14  15
ATOM     15  C   UNL     1      52.957  34.270  86.050  1.00  0.00    -0.000 C 
BRANCH  15  16
ATOM     16  C   UNL     1      52.671  34.494  84.555  1.00  0.00    -0.000 C 
BRANCH  16  17
ATOM     17  C   UNL     1      51.476  33.668  84.054  1.00  0.00    -0.003 C 
ATOM     18  C   UNL     1      50.280  34.537  83.668  1.00  0.00     0.004 C 
ENDBRANCH  16  17
ENDBRANCH  15  16
ENDBRANCH  14  15
ENDBRANCH  13  14
ENDBRANCH  12  13
ENDBRANCH  11  12
ENDBRANCH   1  11
TORSDOF 14
ENDMDL
MODEL 9
REMARK VINA RESULT:    -3.139      3.767      5.808
REMARK INTER + INTRA:          -7.491
REMARK INTER:                  -4.826
REMARK INTRA:                  -2.665
REMARK UNBOUND:                -1.782
REMARK SMILES CCCCCCCCCCCCCCCC(=O)[O-]
REMARK SMILES IDX 9 1 10 2 11 3 12 4 13 5 14 6 15 7 16 8 17 9 18 10 8 11 7 12
REMARK SMILES IDX 6 13 5 14 4 15 3 16 2 17 1 18
REMARK H PARENT
REMARK Flexibility Score: inf
ROOT
ATOM      1  C   UNL     1      50.002  36.075  87.499  1.00  0.00     0.000 C 
ENDROOT
BRANCH   1   2
ATOM      2  C   UNL     1      51.485  35.677  87.506  1.00  0.00     0.000 C 
BRANCH   2   3
ATOM      3  C   UNL     1      51.879  34.999  86.188  1.00  0.00     0.000 C 
BRANCH   3   4
ATOM      4  C   UNL     1      52.804  33.799  86.441  1.00  0.00     0.000 C 
BRANCH   4   5
ATOM      5  C   UNL     1      53.080  33.566  87.934  1.00  0.00     0.000 C 
BRANCH   5   6
ATOM      6  C   UNL     1      52.475  32.250  88.450  1.00  0.00     0.006 C 
BRANCH   6   7
ATOM      7  C   UNL     1      51.400  32.486  89.520  1.00  0.00     0.053 C 
BRANCH   7   8
ATOM      8  C   UNL     1      51.857  32.035  90.875  1.00  0.00     0.041 C 
ATOM      9  O   UNL     1      53.071  32.130  91.198  1.00  0.00    -0.550 OA
ATOM     10  O   UNL     1      50.948  31.486  91.769  1.00  0.00    -0.550 OA
ENDBRANCH   7   8
ENDBRANCH   6   7
ENDBRANCH   5   6
ENDBRANCH   4   5
ENDBRANCH   3   4
ENDBRANCH   2   3
ENDBRANCH   1   2
BRANCH   1  11
ATOM     11  C   UNL     1      49.128  35.105  86.684  1.00  0.00     0.000 C 
BRANCH  11  12
ATOM     12  C   UNL     1      48.542  33.925  87.485  1.00  0.00    -0.000 C 
BRANCH  12  13
ATOM     13  C   UNL     1      48.250  32.657  86.659  1.00  0.00    -0.000 C 
BRANCH  13  14
ATOM     14  C   UNL     1      49.415  31.651  86.573  1.00  0.00    -0.000 C 
BRANCH  14  15
ATOM     15  C   UNL     1      50.151  31.628  85.221  1.00  0.00    -0.000 C 
BRANCH  15  16
ATOM     16  C   UNL     1      49.381  32.362  84.110  1.00  0.00    -0.000 C 
BRANCH  16  17
ATOM     17  C   UNL     1      50.258  33.373  83.356  1.00  0.00    -0.003 C 
ATOM     18  C   UNL     1      49.505  34.654  82.995  1.00  0.00     0.004 C 
ENDBRANCH  16  17
ENDBRANCH  15  16
ENDBRANCH  14  15
ENDBRANCH  13  14
ENDBRANCH  12  13
ENDBRANCH  11  12
ENDBRANCH   1  11
TORSDOF 14
ENDMDL
