MODEL 1
REMARK VINA RESULT:    -5.599      0.000      0.000
REMARK INTER + INTRA:          -6.856
REMARK INTER:                  -6.581
REMARK INTRA:                  -0.276
REMARK UNBOUND:                -0.276
REMARK SMILES O=c1cc(-c2ccc(O)c(O)c2)oc2cc(O)cc(O)c12
REMARK SMILES IDX 4 1 3 2 2 3 1 4 21 5 19 6 18 7 16 8 15 9 14 10 13 11 5 12
REMARK SMILES IDX 6 13 7 14 8 15 12 16 10 17 9 18 11 20 20 22 17 24
REMARK H PARENT 9 19 11 21 20 23 17 25
REMARK Flexibility Score: inf
ROOT
ATOM      1  C   UNL     1     120.457 128.204 128.975  1.00  0.00     0.138 A 
ATOM      2  C   UNL     1     119.272 128.362 128.237  1.00  0.00     0.100 A 
ATOM      3  C   UNL     1     118.161 127.575 128.543  1.00  0.00     0.197 A 
ATOM      4  O   UNL     1     117.103 127.724 127.875  1.00  0.00    -0.289 OA
ATOM      5  C   UNL     1     118.244 126.631 129.586  1.00  0.00     0.107 A 
ATOM      6  C   UNL     1     117.166 125.796 129.962  1.00  0.00     0.134 A 
ATOM      7  C   UNL     1     117.331 124.876 131.009  1.00  0.00     0.093 A 
ATOM      8  C   UNL     1     118.550 124.777 131.683  1.00  0.00     0.123 A 
ATOM      9  C   UNL     1     119.620 125.600 131.316  1.00  0.00     0.094 A 
ATOM     10  C   UNL     1     119.475 126.523 130.276  1.00  0.00     0.146 A 
ATOM     11  O   UNL     1     120.505 127.296 129.947  1.00  0.00    -0.456 OA
ENDROOT
BRANCH   1  12
ATOM     12  C   UNL     1     121.670 129.012 128.693  1.00  0.00     0.021 A 
ATOM     13  C   UNL     1     122.915 128.370 128.570  1.00  0.00     0.016 A 
ATOM     14  C   UNL     1     124.072 129.108 128.311  1.00  0.00     0.051 A 
ATOM     15  C   UNL     1     124.007 130.501 128.181  1.00  0.00     0.157 A 
ATOM     16  C   UNL     1     121.614 130.415 128.574  1.00  0.00     0.062 A 
ATOM     17  C   UNL     1     122.777 131.155 128.316  1.00  0.00     0.158 A 
BRANCH  15  18
ATOM     18  O   UNL     1     125.159 131.240 127.922  1.00  0.00    -0.504 OA
ATOM     19  H   UNL     1     125.999 130.804 127.556  1.00  0.00     0.293 HD
ENDBRANCH  15  18
BRANCH  17  20
ATOM     20  O   UNL     1     122.718 132.543 128.197  1.00  0.00    -0.504 OA
ATOM     21  H   UNL     1     122.921 133.152 128.980  1.00  0.00     0.293 HD
ENDBRANCH  17  20
ENDBRANCH   1  12
BRANCH   6  22
ATOM     22  O   UNL     1     115.936 125.872 129.306  1.00  0.00    -0.507 OA
ATOM     23  H   UNL     1     115.869 125.873 128.296  1.00  0.00     0.293 HD
ENDBRANCH   6  22
BRANCH   8  24
ATOM     24  O   UNL     1     118.688 123.854 132.719  1.00  0.00    -0.508 OA
ATOM     25  H   UNL     1     117.880 123.465 133.192  1.00  0.00     0.293 HD
ENDBRANCH   8  24
TORSDOF 5
ENDMDL
MODEL 2
REMARK VINA RESULT:    -5.567      1.594      3.073
REMARK INTER + INTRA:          -6.819
REMARK INTER:                  -6.539
REMARK INTRA:                  -0.280
REMARK UNBOUND:                -0.276
REMARK SMILES O=c1cc(-c2ccc(O)c(O)c2)oc2cc(O)cc(O)c12
REMARK SMILES IDX 4 1 3 2 2 3 1 4 21 5 19 6 18 7 16 8 15 9 14 10 13 11 5 12
REMARK SMILES IDX 6 13 7 14 8 15 12 16 10 17 9 18 11 20 20 22 17 24
REMARK H PARENT 9 19 11 21 20 23 17 25
REMARK Flexibility Score: inf
ROOT
ATOM      1  C   UNL     1     121.107 128.457 130.255  1.00  0.00     0.138 A 
ATOM      2  C   UNL     1     121.821 127.582 131.091  1.00  0.00     0.100 A 
ATOM      3  C   UNL     1     121.208 126.415 131.549  1.00  0.00     0.197 A 
ATOM      4  O   UNL     1     121.857 125.636 132.298  1.00  0.00    -0.289 OA
ATOM      5  C   UNL     1     119.881 126.132 131.168  1.00  0.00     0.107 A 
ATOM      6  C   UNL     1     119.187 124.971 131.585  1.00  0.00     0.134 A 
ATOM      7  C   UNL     1     117.863 124.765 131.167  1.00  0.00     0.093 A 
ATOM      8  C   UNL     1     117.224 125.694 130.343  1.00  0.00     0.123 A 
ATOM      9  C   UNL     1     117.906 126.843 129.928  1.00  0.00     0.094 A 
ATOM     10  C   UNL     1     119.225 127.066 130.333  1.00  0.00     0.146 A 
ATOM     11  O   UNL     1     119.852 128.165 129.923  1.00  0.00    -0.456 OA
ENDROOT
BRANCH   1  12
ATOM     12  C   UNL     1     121.707 129.713 129.740  1.00  0.00     0.021 A 
ATOM     13  C   UNL     1     121.481 130.091 128.405  1.00  0.00     0.016 A 
ATOM     14  C   UNL     1     122.041 131.264 127.894  1.00  0.00     0.051 A 
ATOM     15  C   UNL     1     122.843 132.075 128.705  1.00  0.00     0.157 A 
ATOM     16  C   UNL     1     122.526 130.528 130.547  1.00  0.00     0.062 A 
ATOM     17  C   UNL     1     123.089 131.705 130.033  1.00  0.00     0.158 A 
BRANCH  15  18
ATOM     18  O   UNL     1     123.402 133.247 128.199  1.00  0.00    -0.504 OA
ATOM     19  H   UNL     1     124.140 133.739 128.691  1.00  0.00     0.293 HD
ENDBRANCH  15  18
BRANCH  17  20
ATOM     20  O   UNL     1     123.898 132.509 130.834  1.00  0.00    -0.504 OA
ATOM     21  H   UNL     1     123.536 132.966 131.663  1.00  0.00     0.293 HD
ENDBRANCH  17  20
ENDBRANCH   1  12
BRANCH   6  22
ATOM     22  O   UNL     1     119.799 124.025 132.409  1.00  0.00    -0.507 OA
ATOM     23  H   UNL     1     119.274 123.275 132.841  1.00  0.00     0.293 HD
ENDBRANCH   6  22
BRANCH   8  24
ATOM     24  O   UNL     1     115.909 125.465 129.943  1.00  0.00    -0.508 OA
ATOM     25  H   UNL     1     115.363 126.184 129.482  1.00  0.00     0.293 HD
ENDBRANCH   8  24
TORSDOF 5
ENDMDL
MODEL 3
REMARK VINA RESULT:    -5.331     16.062     19.582
REMARK INTER + INTRA:          -6.541
REMARK INTER:                  -6.223
REMARK INTRA:                  -0.318
REMARK UNBOUND:                -0.276
REMARK SMILES O=c1cc(-c2ccc(O)c(O)c2)oc2cc(O)cc(O)c12
REMARK SMILES IDX 4 1 3 2 2 3 1 4 21 5 19 6 18 7 16 8 15 9 14 10 13 11 5 12
REMARK SMILES IDX 6 13 7 14 8 15 12 16 10 17 9 18 11 20 20 22 17 24
REMARK H PARENT 9 19 11 21 20 23 17 25
REMARK Flexibility Score: inf
ROOT
ATOM      1  C   UNL     1     131.041 139.475 138.653  1.00  0.00     0.138 A 
ATOM      2  C   UNL     1     131.874 139.469 139.785  1.00  0.00     0.100 A 
ATOM      3  C   UNL     1     133.259 139.479 139.619  1.00  0.00     0.197 A 
ATOM      4  O   UNL     1     133.998 139.474 140.640  1.00  0.00    -0.289 OA
ATOM      5  C   UNL     1     133.803 139.491 138.319  1.00  0.00     0.107 A 
ATOM      6  C   UNL     1     135.194 139.504 138.062  1.00  0.00     0.134 A 
ATOM      7  C   UNL     1     135.657 139.510 136.737  1.00  0.00     0.093 A 
ATOM      8  C   UNL     1     134.757 139.503 135.669  1.00  0.00     0.123 A 
ATOM      9  C   UNL     1     133.380 139.491 135.917  1.00  0.00     0.094 A 
ATOM     10  C   UNL     1     132.900 139.486 137.230  1.00  0.00     0.146 A 
ATOM     11  O   UNL     1     131.587 139.476 137.440  1.00  0.00    -0.456 OA
ENDROOT
BRANCH   1  12
ATOM     12  C   UNL     1     129.561 139.462 138.769  1.00  0.00     0.021 A 
ATOM     13  C   UNL     1     128.967 139.502 140.043  1.00  0.00     0.016 A 
ATOM     14  C   UNL     1     127.578 139.484 140.180  1.00  0.00     0.051 A 
ATOM     15  C   UNL     1     126.757 139.417 139.047  1.00  0.00     0.157 A 
ATOM     16  C   UNL     1     128.729 139.382 137.634  1.00  0.00     0.062 A 
ATOM     17  C   UNL     1     127.334 139.362 137.773  1.00  0.00     0.158 A 
BRANCH  15  18
ATOM     18  O   UNL     1     125.370 139.400 139.180  1.00  0.00    -0.504 OA
ATOM     19  H   UNL     1     124.811 138.635 138.819  1.00  0.00     0.293 HD
ENDBRANCH  15  18
BRANCH  17  20
ATOM     20  O   UNL     1     126.514 139.285 136.648  1.00  0.00    -0.504 OA
ATOM     21  H   UNL     1     126.510 138.468 136.050  1.00  0.00     0.293 HD
ENDBRANCH  17  20
ENDBRANCH   1  12
BRANCH   6  22
ATOM     22  O   UNL     1     136.118 139.511 139.109  1.00  0.00    -0.507 OA
ATOM     23  H   UNL     1     137.015 139.048 139.031  1.00  0.00     0.293 HD
ENDBRANCH   6  22
BRANCH   8  24
ATOM     24  O   UNL     1     135.243 139.508 134.363  1.00  0.00    -0.508 OA
ATOM     25  H   UNL     1     134.764 140.008 133.622  1.00  0.00     0.293 HD
ENDBRANCH   8  24
TORSDOF 5
ENDMDL
MODEL 4
REMARK VINA RESULT:    -5.317      1.830      7.180
REMARK INTER + INTRA:          -6.526
REMARK INTER:                  -6.261
REMARK INTRA:                  -0.265
REMARK UNBOUND:                -0.276
REMARK SMILES O=c1cc(-c2ccc(O)c(O)c2)oc2cc(O)cc(O)c12
REMARK SMILES IDX 4 1 3 2 2 3 1 4 21 5 19 6 18 7 16 8 15 9 14 10 13 11 5 12
REMARK SMILES IDX 6 13 7 14 8 15 12 16 10 17 9 18 11 20 20 22 17 24
REMARK H PARENT 9 19 11 21 20 23 17 25
REMARK Flexibility Score: inf
ROOT
ATOM      1  C   UNL     1     121.286 127.590 130.627  1.00  0.00     0.138 A 
ATOM      2  C   UNL     1     120.886 128.936 130.684  1.00  0.00     0.100 A 
ATOM      3  C   UNL     1     121.716 129.922 130.150  1.00  0.00     0.197 A 
ATOM      4  O   UNL     1     121.349 131.127 130.206  1.00  0.00    -0.289 OA
ATOM      5  C   UNL     1     122.944 129.556 129.564  1.00  0.00     0.107 A 
ATOM      6  C   UNL     1     123.842 130.491 128.999  1.00  0.00     0.134 A 
ATOM      7  C   UNL     1     125.050 130.046 128.440  1.00  0.00     0.093 A 
ATOM      8  C   UNL     1     125.374 128.687 128.436  1.00  0.00     0.123 A 
ATOM      9  C   UNL     1     124.490 127.758 128.993  1.00  0.00     0.094 A 
ATOM     10  C   UNL     1     123.282 128.181 129.554  1.00  0.00     0.146 A 
ATOM     11  O   UNL     1     122.457 127.279 130.076  1.00  0.00    -0.456 OA
ENDROOT
BRANCH   1  12
ATOM     12  C   UNL     1     120.445 126.498 131.180  1.00  0.00     0.021 A 
ATOM     13  C   UNL     1     120.914 125.753 132.276  1.00  0.00     0.016 A 
ATOM     14  C   UNL     1     120.145 124.717 132.811  1.00  0.00     0.051 A 
ATOM     15  C   UNL     1     118.900 124.401 132.253  1.00  0.00     0.157 A 
ATOM     16  C   UNL     1     119.197 126.167 130.616  1.00  0.00     0.062 A 
ATOM     17  C   UNL     1     118.427 125.124 131.153  1.00  0.00     0.158 A 
BRANCH  15  18
ATOM     18  O   UNL     1     118.130 123.368 132.785  1.00  0.00    -0.504 OA
ATOM     19  H   UNL     1     117.377 122.941 132.257  1.00  0.00     0.293 HD
ENDBRANCH  15  18
BRANCH  17  20
ATOM     20  O   UNL     1     117.192 124.800 130.594  1.00  0.00    -0.504 OA
ATOM     21  H   UNL     1     116.516 124.235 131.093  1.00  0.00     0.293 HD
ENDBRANCH  17  20
ENDBRANCH   1  12
BRANCH   6  22
ATOM     22  O   UNL     1     123.546 131.855 128.989  1.00  0.00    -0.507 OA
ATOM     23  H   UNL     1     124.267 132.558 129.100  1.00  0.00     0.293 HD
ENDBRANCH   6  22
BRANCH   8  24
ATOM     24  O   UNL     1     126.581 128.272 127.875  1.00  0.00    -0.508 OA
ATOM     25  H   UNL     1     126.842 128.531 126.931  1.00  0.00     0.293 HD
ENDBRANCH   8  24
TORSDOF 5
ENDMDL
MODEL 5
REMARK VINA RESULT:    -5.191      1.289      3.233
REMARK INTER + INTRA:          -6.377
REMARK INTER:                  -6.098
REMARK INTRA:                  -0.279
REMARK UNBOUND:                -0.276
REMARK SMILES O=c1cc(-c2ccc(O)c(O)c2)oc2cc(O)cc(O)c12
REMARK SMILES IDX 4 1 3 2 2 3 1 4 21 5 19 6 18 7 16 8 15 9 14 10 13 11 5 12
REMARK SMILES IDX 6 13 7 14 8 15 12 16 10 17 9 18 11 20 20 22 17 24
REMARK H PARENT 9 19 11 21 20 23 17 25
REMARK Flexibility Score: inf
ROOT
ATOM      1  C   UNL     1     121.590 127.531 130.186  1.00  0.00     0.138 A 
ATOM      2  C   UNL     1     121.878 126.730 131.304  1.00  0.00     0.100 A 
ATOM      3  C   UNL     1     120.890 125.889 131.819  1.00  0.00     0.197 A 
ATOM      4  O   UNL     1     121.157 125.174 132.822  1.00  0.00    -0.289 OA
ATOM      5  C   UNL     1     119.617 125.859 131.214  1.00  0.00     0.107 A 
ATOM      6  C   UNL     1     118.562 125.036 131.672  1.00  0.00     0.134 A 
ATOM      7  C   UNL     1     117.321 125.068 131.017  1.00  0.00     0.093 A 
ATOM      8  C   UNL     1     117.118 125.906 129.918  1.00  0.00     0.123 A 
ATOM      9  C   UNL     1     118.158 126.722 129.461  1.00  0.00     0.094 A 
ATOM     10  C   UNL     1     119.402 126.703 130.099  1.00  0.00     0.146 A 
ATOM     11  O   UNL     1     120.375 127.487 129.645  1.00  0.00    -0.456 OA
ENDROOT
BRANCH   1  12
ATOM     12  C   UNL     1     122.601 128.445 129.596  1.00  0.00     0.021 A 
ATOM     13  C   UNL     1     122.221 129.746 129.221  1.00  0.00     0.016 A 
ATOM     14  C   UNL     1     123.151 130.622 128.658  1.00  0.00     0.051 A 
ATOM     15  C   UNL     1     124.473 130.211 128.450  1.00  0.00     0.157 A 
ATOM     16  C   UNL     1     123.930 128.034 129.373  1.00  0.00     0.062 A 
ATOM     17  C   UNL     1     124.862 128.914 128.804  1.00  0.00     0.158 A 
BRANCH  15  18
ATOM     18  O   UNL     1     125.404 131.083 127.889  1.00  0.00    -0.504 OA
ATOM     19  H   UNL     1     126.329 130.769 127.615  1.00  0.00     0.293 HD
ENDBRANCH  15  18
BRANCH  17  20
ATOM     20  O   UNL     1     126.177 128.505 128.586  1.00  0.00    -0.504 OA
ATOM     21  H   UNL     1     126.957 128.960 129.044  1.00  0.00     0.293 HD
ENDBRANCH  17  20
ENDBRANCH   1  12
BRANCH   6  22
ATOM     22  O   UNL     1     118.735 124.189 132.768  1.00  0.00    -0.507 OA
ATOM     23  H   UNL     1     119.554 123.603 132.865  1.00  0.00     0.293 HD
ENDBRANCH   6  22
BRANCH   8  24
ATOM     24  O   UNL     1     115.875 125.919 129.287  1.00  0.00    -0.508 OA
ATOM     25  H   UNL     1     115.102 125.360 129.628  1.00  0.00     0.293 HD
ENDBRANCH   8  24
TORSDOF 5
ENDMDL
MODEL 6
REMARK VINA RESULT:    -5.188      2.453      3.564
REMARK INTER + INTRA:          -6.373
REMARK INTER:                  -6.066
REMARK INTRA:                  -0.307
REMARK UNBOUND:                -0.276
REMARK SMILES O=c1cc(-c2ccc(O)c(O)c2)oc2cc(O)cc(O)c12
REMARK SMILES IDX 4 1 3 2 2 3 1 4 21 5 19 6 18 7 16 8 15 9 14 10 13 11 5 12
REMARK SMILES IDX 6 13 7 14 8 15 12 16 10 17 9 18 11 20 20 22 17 24
REMARK H PARENT 9 19 11 21 20 23 17 25
REMARK Flexibility Score: inf
ROOT
ATOM      1  C   UNL     1     121.215 129.017 129.653  1.00  0.00     0.138 A 
ATOM      2  C   UNL     1     120.830 130.085 130.481  1.00  0.00     0.100 A 
ATOM      3  C   UNL     1     119.497 130.205 130.873  1.00  0.00     0.197 A 
ATOM      4  O   UNL     1     119.161 131.167 131.615  1.00  0.00    -0.289 OA
ATOM      5  C   UNL     1     118.554 129.255 130.430  1.00  0.00     0.107 A 
ATOM      6  C   UNL     1     117.185 129.302 130.782  1.00  0.00     0.134 A 
ATOM      7  C   UNL     1     116.308 128.320 130.295  1.00  0.00     0.093 A 
ATOM      8  C   UNL     1     116.774 127.297 129.466  1.00  0.00     0.123 A 
ATOM      9  C   UNL     1     118.128 127.246 129.115  1.00  0.00     0.094 A 
ATOM     10  C   UNL     1     119.017 128.214 129.591  1.00  0.00     0.146 A 
ATOM     11  O   UNL     1     120.299 128.143 129.245  1.00  0.00    -0.456 OA
ENDROOT
BRANCH   1  12
ATOM     12  C   UNL     1     122.619 128.840 129.204  1.00  0.00     0.021 A 
ATOM     13  C   UNL     1     123.443 129.969 129.049  1.00  0.00     0.016 A 
ATOM     14  C   UNL     1     124.764 129.831 128.621  1.00  0.00     0.051 A 
ATOM     15  C   UNL     1     125.284 128.564 128.330  1.00  0.00     0.157 A 
ATOM     16  C   UNL     1     123.144 127.569 128.897  1.00  0.00     0.062 A 
ATOM     17  C   UNL     1     124.472 127.432 128.464  1.00  0.00     0.158 A 
BRANCH  15  18
ATOM     18  O   UNL     1     126.603 128.422 127.903  1.00  0.00    -0.504 OA
ATOM     19  H   UNL     1     126.971 127.526 127.605  1.00  0.00     0.293 HD
ENDBRANCH  15  18
BRANCH  17  20
ATOM     20  O   UNL     1     124.989 126.173 128.163  1.00  0.00    -0.504 OA
ATOM     21  H   UNL     1     125.261 125.523 128.892  1.00  0.00     0.293 HD
ENDBRANCH  17  20
ENDBRANCH   1  12
BRANCH   6  22
ATOM     22  O   UNL     1     116.689 130.312 131.608  1.00  0.00    -0.507 OA
ATOM     23  H   UNL     1     116.221 131.127 131.231  1.00  0.00     0.293 HD
ENDBRANCH   6  22
BRANCH   8  24
ATOM     24  O   UNL     1     115.882 126.335 128.996  1.00  0.00    -0.508 OA
ATOM     25  H   UNL     1     116.160 125.651 128.302  1.00  0.00     0.293 HD
ENDBRANCH   8  24
TORSDOF 5
ENDMDL
MODEL 7
REMARK VINA RESULT:    -5.125      1.720      1.805
REMARK INTER + INTRA:          -6.299
REMARK INTER:                  -6.002
REMARK INTRA:                  -0.297
REMARK UNBOUND:                -0.276
REMARK SMILES O=c1cc(-c2ccc(O)c(O)c2)oc2cc(O)cc(O)c12
REMARK SMILES IDX 4 1 3 2 2 3 1 4 21 5 19 6 18 7 16 8 15 9 14 10 13 11 5 12
REMARK SMILES IDX 6 13 7 14 8 15 12 16 10 17 9 18 11 20 20 22 17 24
REMARK H PARENT 9 19 11 21 20 23 17 25
REMARK Flexibility Score: inf
ROOT
ATOM      1  C   UNL     1     120.353 128.791 130.385  1.00  0.00     0.138 A 
ATOM      2  C   UNL     1     119.386 128.926 129.374  1.00  0.00     0.100 A 
ATOM      3  C   UNL     1     118.396 127.953 129.235  1.00  0.00     0.197 A 
ATOM      4  O   UNL     1     117.534 128.082 128.325  1.00  0.00    -0.289 OA
ATOM      5  C   UNL     1     118.382 126.846 130.108  1.00  0.00     0.107 A 
ATOM      6  C   UNL     1     117.414 125.817 130.037  1.00  0.00     0.134 A 
ATOM      7  C   UNL     1     117.472 124.744 130.940  1.00  0.00     0.093 A 
ATOM      8  C   UNL     1     118.476 124.683 131.909  1.00  0.00     0.123 A 
ATOM      9  C   UNL     1     119.436 125.699 131.984  1.00  0.00     0.094 A 
ATOM     10  C   UNL     1     119.395 126.776 131.094  1.00  0.00     0.146 A 
ATOM     11  O   UNL     1     120.316 127.729 131.186  1.00  0.00    -0.456 OA
ENDROOT
BRANCH   1  12
ATOM     12  C   UNL     1     121.429 129.795 130.579  1.00  0.00     0.021 A 
ATOM     13  C   UNL     1     122.351 129.626 131.627  1.00  0.00     0.016 A 
ATOM     14  C   UNL     1     123.369 130.559 131.835  1.00  0.00     0.051 A 
ATOM     15  C   UNL     1     123.477 131.682 131.006  1.00  0.00     0.157 A 
ATOM     16  C   UNL     1     121.537 130.934 129.756  1.00  0.00     0.062 A 
ATOM     17  C   UNL     1     122.558 131.872 129.968  1.00  0.00     0.158 A 
BRANCH  15  18
ATOM     18  O   UNL     1     124.492 132.615 131.210  1.00  0.00    -0.504 OA
ATOM     19  H   UNL     1     124.301 133.611 131.240  1.00  0.00     0.293 HD
ENDBRANCH  15  18
BRANCH  17  20
ATOM     20  O   UNL     1     122.663 132.996 129.151  1.00  0.00    -0.504 OA
ATOM     21  H   UNL     1     122.354 133.910 129.463  1.00  0.00     0.293 HD
ENDBRANCH  17  20
ENDBRANCH   1  12
BRANCH   6  22
ATOM     22  O   UNL     1     116.399 125.850 129.079  1.00  0.00    -0.507 OA
ATOM     23  H   UNL     1     115.768 126.637 128.998  1.00  0.00     0.293 HD
ENDBRANCH   6  22
BRANCH   8  24
ATOM     24  O   UNL     1     118.512 123.607 132.793  1.00  0.00    -0.508 OA
ATOM     25  H   UNL     1     117.662 123.153 133.109  1.00  0.00     0.293 HD
ENDBRANCH   8  24
TORSDOF 5
ENDMDL
MODEL 8
REMARK VINA RESULT:    -5.104      1.882      2.096
REMARK INTER + INTRA:          -6.275
REMARK INTER:                  -5.989
REMARK INTRA:                  -0.286
REMARK UNBOUND:                -0.276
REMARK SMILES O=c1cc(-c2ccc(O)c(O)c2)oc2cc(O)cc(O)c12
REMARK SMILES IDX 4 1 3 2 2 3 1 4 21 5 19 6 18 7 16 8 15 9 14 10 13 11 5 12
REMARK SMILES IDX 6 13 7 14 8 15 12 16 10 17 9 18 11 20 20 22 17 24
REMARK H PARENT 9 19 11 21 20 23 17 25
REMARK Flexibility Score: inf
ROOT
ATOM      1  C   UNL     1     120.390 128.763 129.105  1.00  0.00     0.138 A 
ATOM      2  C   UNL     1     119.807 127.791 128.274  1.00  0.00     0.100 A 
ATOM      3  C   UNL     1     118.579 127.231 128.629  1.00  0.00     0.197 A 
ATOM      4  O   UNL     1     118.064 126.361 127.877  1.00  0.00    -0.289 OA
ATOM      5  C   UNL     1     117.944 127.645 129.816  1.00  0.00     0.107 A 
ATOM      6  C   UNL     1     116.699 127.130 130.248  1.00  0.00     0.134 A 
ATOM      7  C   UNL     1     116.134 127.590 131.448  1.00  0.00     0.093 A 
ATOM      8  C   UNL     1     116.790 128.551 132.220  1.00  0.00     0.123 A 
ATOM      9  C   UNL     1     118.021 129.064 131.798  1.00  0.00     0.094 A 
ATOM     10  C   UNL     1     118.599 128.619 130.606  1.00  0.00     0.146 A 
ATOM     11  O   UNL     1     119.769 129.123 130.225  1.00  0.00    -0.456 OA
ENDROOT
BRANCH   1  12
ATOM     12  C   UNL     1     121.695 129.391 128.779  1.00  0.00     0.021 A 
ATOM     13  C   UNL     1     122.805 128.575 128.497  1.00  0.00     0.016 A 
ATOM     14  C   UNL     1     124.045 129.141 128.195  1.00  0.00     0.051 A 
ATOM     15  C   UNL     1     124.201 130.532 128.178  1.00  0.00     0.157 A 
ATOM     16  C   UNL     1     121.862 130.790 128.773  1.00  0.00     0.062 A 
ATOM     17  C   UNL     1     123.109 131.358 128.471  1.00  0.00     0.158 A 
BRANCH  15  18
ATOM     18  O   UNL     1     125.436 131.101 127.875  1.00  0.00    -0.504 OA
ATOM     19  H   UNL     1     125.720 131.275 126.917  1.00  0.00     0.293 HD
ENDBRANCH  15  18
BRANCH  17  20
ATOM     20  O   UNL     1     123.270 132.743 128.463  1.00  0.00    -0.504 OA
ATOM     21  H   UNL     1     124.113 133.180 128.815  1.00  0.00     0.293 HD
ENDBRANCH  17  20
ENDBRANCH   1  12
BRANCH   6  22
ATOM     22  O   UNL     1     116.020 126.168 129.498  1.00  0.00    -0.507 OA
ATOM     23  H   UNL     1     115.173 126.388 128.989  1.00  0.00     0.293 HD
ENDBRANCH   6  22
BRANCH   8  24
ATOM     24  O   UNL     1     116.207 128.990 133.408  1.00  0.00    -0.508 OA
ATOM     25  H   UNL     1     115.344 128.588 133.754  1.00  0.00     0.293 HD
ENDBRANCH   8  24
TORSDOF 5
ENDMDL
MODEL 9
REMARK VINA RESULT:    -4.990      2.373      7.082
REMARK INTER + INTRA:          -6.140
REMARK INTER:                  -5.824
REMARK INTRA:                  -0.317
REMARK UNBOUND:                -0.276
REMARK SMILES O=c1cc(-c2ccc(O)c(O)c2)oc2cc(O)cc(O)c12
REMARK SMILES IDX 4 1 3 2 2 3 1 4 21 5 19 6 18 7 16 8 15 9 14 10 13 11 5 12
REMARK SMILES IDX 6 13 7 14 8 15 12 16 10 17 9 18 11 20 20 22 17 24
REMARK H PARENT 9 19 11 21 20 23 17 25
REMARK Flexibility Score: inf
ROOT
ATOM      1  C   UNL     1     120.794 128.489 130.368  1.00  0.00     0.138 A 
ATOM      2  C   UNL     1     120.784 129.250 129.187  1.00  0.00     0.100 A 
ATOM      3  C   UNL     1     121.605 130.374 129.086  1.00  0.00     0.197 A 
ATOM      4  O   UNL     1     121.589 131.050 128.022  1.00  0.00    -0.289 OA
ATOM      5  C   UNL     1     122.430 130.731 130.171  1.00  0.00     0.107 A 
ATOM      6  C   UNL     1     123.293 131.852 130.151  1.00  0.00     0.134 A 
ATOM      7  C   UNL     1     124.080 132.145 131.275  1.00  0.00     0.093 A 
ATOM      8  C   UNL     1     124.019 131.340 132.415  1.00  0.00     0.123 A 
ATOM      9  C   UNL     1     123.168 130.230 132.440  1.00  0.00     0.094 A 
ATOM     10  C   UNL     1     122.377 129.921 131.330  1.00  0.00     0.146 A 
ATOM     11  O   UNL     1     121.578 128.860 131.377  1.00  0.00    -0.456 OA
ENDROOT
BRANCH   1  12
ATOM     12  C   UNL     1     119.941 127.286 130.532  1.00  0.00     0.021 A 
ATOM     13  C   UNL     1     118.933 127.018 129.588  1.00  0.00     0.016 A 
ATOM     14  C   UNL     1     118.113 125.897 129.724  1.00  0.00     0.051 A 
ATOM     15  C   UNL     1     118.277 125.029 130.809  1.00  0.00     0.157 A 
ATOM     16  C   UNL     1     120.092 126.414 131.629  1.00  0.00     0.062 A 
ATOM     17  C   UNL     1     119.265 125.289 131.765  1.00  0.00     0.158 A 
BRANCH  15  18
ATOM     18  O   UNL     1     117.460 123.908 130.947  1.00  0.00    -0.504 OA
ATOM     19  H   UNL     1     116.673 123.745 130.328  1.00  0.00     0.293 HD
ENDBRANCH  15  18
BRANCH  17  20
ATOM     20  O   UNL     1     119.419 124.428 132.851  1.00  0.00    -0.504 OA
ATOM     21  H   UNL     1     120.208 123.796 132.919  1.00  0.00     0.293 HD
ENDBRANCH  17  20
ENDBRANCH   1  12
BRANCH   6  22
ATOM     22  O   UNL     1     123.375 132.676 129.026  1.00  0.00    -0.507 OA
ATOM     23  H   UNL     1     123.408 133.685 129.106  1.00  0.00     0.293 HD
ENDBRANCH   6  22
BRANCH   8  24
ATOM     24  O   UNL     1     124.810 131.653 133.519  1.00  0.00    -0.508 OA
ATOM     25  H   UNL     1     124.500 131.460 134.464  1.00  0.00     0.293 HD
ENDBRANCH   8  24
TORSDOF 5
ENDMDL
