MODEL 1
REMARK VINA RESULT:    -5.486      0.000      0.000
REMARK INTER + INTRA:          -6.932
REMARK INTER:                  -6.769
REMARK INTRA:                  -0.163
REMARK UNBOUND:                -0.163
REMARK SMILES Oc1cc(O)c2cc(O)c(-c3cc(O)c(O)c(O)c3)[o+]c2c1
REMARK SMILES IDX 10 1 20 2 21 3 22 4 2 5 3 6 4 7 6 8 7 9 8 10 11 11 12 12
REMARK SMILES IDX 13 13 19 14 15 15 17 16 14 17 16 19 18 21 9 23 1 25 5 27
REMARK H PARENT 14 18 16 20 18 22 9 24 1 26 5 28
REMARK Flexibility Score: inf
ROOT
ATOM      1  C   UNL     1     -58.176  24.812 -12.996  1.00  0.00     0.402 A 
ATOM      2  O   UNL     1     -57.971  23.526 -12.723  1.00  0.00    -0.202 OA
ATOM      3  C   UNL     1     -58.436  22.929 -11.630  1.00  0.00     0.368 A 
ATOM      4  C   UNL     1     -58.171  21.571 -11.432  1.00  0.00     0.162 A 
ATOM      5  C   UNL     1     -58.652  20.918 -10.293  1.00  0.00     0.128 A 
ATOM      6  C   UNL     1     -59.400  21.626  -9.350  1.00  0.00     0.093 A 
ATOM      7  C   UNL     1     -59.679  22.986  -9.525  1.00  0.00     0.136 A 
ATOM      8  C   UNL     1     -59.192  23.655 -10.679  1.00  0.00     0.125 A 
ATOM      9  C   UNL     1     -59.411  25.019 -10.930  1.00  0.00     0.078 A 
ATOM     10  C   UNL     1     -58.895  25.610 -12.087  1.00  0.00     0.223 A 
ENDROOT
BRANCH   1  11
ATOM     11  C   UNL     1     -57.613  25.359 -14.253  1.00  0.00     0.091 A 
ATOM     12  C   UNL     1     -58.427  26.003 -15.199  1.00  0.00     0.068 A 
ATOM     13  C   UNL     1     -57.890  26.495 -16.394  1.00  0.00     0.162 A 
ATOM     14  C   UNL     1     -56.252  25.182 -14.533  1.00  0.00     0.068 A 
ATOM     15  C   UNL     1     -56.509  26.336 -16.657  1.00  0.00     0.200 A 
ATOM     16  C   UNL     1     -55.700  25.673 -15.722  1.00  0.00     0.162 A 
BRANCH  13  17
ATOM     17  O   UNL     1     -58.760  27.125 -17.287  1.00  0.00    -0.504 OA
ATOM     18  H   UNL     1     -58.995  26.762 -18.199  1.00  0.00     0.293 HD
ENDBRANCH  13  17
BRANCH  15  19
ATOM     19  O   UNL     1     -55.907  26.813 -17.824  1.00  0.00    -0.502 OA
ATOM     20  H   UNL     1     -56.313  27.517 -18.423  1.00  0.00     0.293 HD
ENDBRANCH  15  19
BRANCH  16  21
ATOM     21  O   UNL     1     -54.341  25.506 -15.985  1.00  0.00    -0.504 OA
ATOM     22  H   UNL     1     -54.001  25.308 -16.919  1.00  0.00     0.293 HD
ENDBRANCH  16  21
ENDBRANCH   1  11
BRANCH  10  23
ATOM     23  O   UNL     1     -59.070  26.975 -12.315  1.00  0.00    -0.500 OA
ATOM     24  H   UNL     1     -59.400  27.328 -13.206  1.00  0.00     0.294 HD
ENDBRANCH  10  23
BRANCH   5  25
ATOM     25  O   UNL     1     -58.391  19.564 -10.089  1.00  0.00    -0.507 OA
ATOM     26  H   UNL     1     -57.841  19.025 -10.747  1.00  0.00     0.293 HD
ENDBRANCH   5  25
BRANCH   7  27
ATOM     27  O   UNL     1     -60.437  23.621  -8.536  1.00  0.00    -0.507 OA
ATOM     28  H   UNL     1     -61.345  23.308  -8.225  1.00  0.00     0.293 HD
ENDBRANCH   7  27
TORSDOF 7
ENDMDL
MODEL 2
REMARK VINA RESULT:    -5.376      0.211      1.811
REMARK INTER + INTRA:          -6.797
REMARK INTER:                  -6.698
REMARK INTRA:                  -0.099
REMARK UNBOUND:                -0.163
REMARK SMILES Oc1cc(O)c2cc(O)c(-c3cc(O)c(O)c(O)c3)[o+]c2c1
REMARK SMILES IDX 10 1 20 2 21 3 22 4 2 5 3 6 4 7 6 8 7 9 8 10 11 11 12 12
REMARK SMILES IDX 13 13 19 14 15 15 17 16 14 17 16 19 18 21 9 23 1 25 5 27
REMARK H PARENT 14 18 16 20 18 22 9 24 1 26 5 28
REMARK Flexibility Score: inf
ROOT
ATOM      1  C   UNL     1     -58.014  24.628 -12.995  1.00  0.00     0.402 A 
ATOM      2  O   UNL     1     -57.847  23.336 -12.725  1.00  0.00    -0.202 OA
ATOM      3  C   UNL     1     -58.323  22.752 -11.631  1.00  0.00     0.368 A 
ATOM      4  C   UNL     1     -58.099  21.385 -11.437  1.00  0.00     0.162 A 
ATOM      5  C   UNL     1     -58.592  20.746 -10.296  1.00  0.00     0.128 A 
ATOM      6  C   UNL     1     -59.312  21.474  -9.347  1.00  0.00     0.093 A 
ATOM      7  C   UNL     1     -59.550  22.842  -9.518  1.00  0.00     0.136 A 
ATOM      8  C   UNL     1     -59.050  23.498 -10.673  1.00  0.00     0.125 A 
ATOM      9  C   UNL     1     -59.230  24.869 -10.921  1.00  0.00     0.078 A 
ATOM     10  C   UNL     1     -58.703  25.446 -12.081  1.00  0.00     0.223 A 
ENDROOT
BRANCH   1  11
ATOM     11  C   UNL     1     -57.443  25.160 -14.255  1.00  0.00     0.091 A 
ATOM     12  C   UNL     1     -56.080  25.014 -14.559  1.00  0.00     0.068 A 
ATOM     13  C   UNL     1     -55.546  25.541 -15.741  1.00  0.00     0.162 A 
ATOM     14  C   UNL     1     -58.266  25.874 -15.137  1.00  0.00     0.068 A 
ATOM     15  C   UNL     1     -56.390  26.237 -16.639  1.00  0.00     0.200 A 
ATOM     16  C   UNL     1     -57.746  26.402 -16.324  1.00  0.00     0.162 A 
BRANCH  13  17
ATOM     17  O   UNL     1     -54.182  25.355 -15.978  1.00  0.00    -0.504 OA
ATOM     18  H   UNL     1     -53.678  25.782 -16.740  1.00  0.00     0.293 HD
ENDBRANCH  13  17
BRANCH  15  19
ATOM     19  O   UNL     1     -55.924  26.778 -17.840  1.00  0.00    -0.502 OA
ATOM     20  H   UNL     1     -55.155  26.397 -18.372  1.00  0.00     0.293 HD
ENDBRANCH  15  19
BRANCH  16  21
ATOM     21  O   UNL     1     -58.576  27.098 -17.203  1.00  0.00    -0.504 OA
ATOM     22  H   UNL     1     -58.687  26.812 -18.168  1.00  0.00     0.293 HD
ENDBRANCH  16  21
ENDBRANCH   1  11
BRANCH  10  23
ATOM     23  O   UNL     1     -58.837  26.816 -12.304  1.00  0.00    -0.500 OA
ATOM     24  H   UNL     1     -58.376  27.499 -11.714  1.00  0.00     0.294 HD
ENDBRANCH  10  23
BRANCH   5  25
ATOM     25  O   UNL     1     -58.372  19.384 -10.096  1.00  0.00    -0.507 OA
ATOM     26  H   UNL     1     -57.484  19.036  -9.752  1.00  0.00     0.293 HD
ENDBRANCH   5  25
BRANCH   7  27
ATOM     27  O   UNL     1     -60.282  23.498  -8.523  1.00  0.00    -0.507 OA
ATOM     28  H   UNL     1     -60.870  24.303  -8.684  1.00  0.00     0.293 HD
ENDBRANCH   7  27
TORSDOF 7
ENDMDL
MODEL 3
REMARK VINA RESULT:    -5.097      1.753      2.413
REMARK INTER + INTRA:          -6.452
REMARK INTER:                  -6.836
REMARK INTRA:                   0.384
REMARK UNBOUND:                -0.163
REMARK SMILES Oc1cc(O)c2cc(O)c(-c3cc(O)c(O)c(O)c3)[o+]c2c1
REMARK SMILES IDX 10 1 20 2 21 3 22 4 2 5 3 6 4 7 6 8 7 9 8 10 11 11 12 12
REMARK SMILES IDX 13 13 19 14 15 15 17 16 14 17 16 19 18 21 9 23 1 25 5 27
REMARK H PARENT 14 18 16 20 18 22 9 24 1 26 5 28
REMARK Flexibility Score: inf
ROOT
ATOM      1  C   UNL     1     -59.474  26.172 -13.370  1.00  0.00     0.402 A 
ATOM      2  O   UNL     1     -59.087  25.331 -12.415  1.00  0.00    -0.202 OA
ATOM      3  C   UNL     1     -59.826  25.051 -11.346  1.00  0.00     0.368 A 
ATOM      4  C   UNL     1     -59.335  24.150 -10.397  1.00  0.00     0.162 A 
ATOM      5  C   UNL     1     -60.093  23.836  -9.265  1.00  0.00     0.128 A 
ATOM      6  C   UNL     1     -61.347  24.424  -9.083  1.00  0.00     0.093 A 
ATOM      7  C   UNL     1     -61.861  25.329 -10.018  1.00  0.00     0.136 A 
ATOM      8  C   UNL     1     -61.094  25.653 -11.169  1.00  0.00     0.125 A 
ATOM      9  C   UNL     1     -61.524  26.559 -12.152  1.00  0.00     0.078 A 
ATOM     10  C   UNL     1     -60.711  26.833 -13.256  1.00  0.00     0.223 A 
ENDROOT
BRANCH   1  11
ATOM     11  C   UNL     1     -58.565  26.393 -14.519  1.00  0.00     0.091 A 
ATOM     12  C   UNL     1     -58.923  27.234 -15.584  1.00  0.00     0.068 A 
ATOM     13  C   UNL     1     -58.067  27.418 -16.676  1.00  0.00     0.162 A 
ATOM     14  C   UNL     1     -57.344  25.706 -14.574  1.00  0.00     0.068 A 
ATOM     15  C   UNL     1     -56.824  26.741 -16.710  1.00  0.00     0.200 A 
ATOM     16  C   UNL     1     -56.475  25.884 -15.657  1.00  0.00     0.162 A 
BRANCH  13  17
ATOM     17  O   UNL     1     -58.490  28.270 -17.698  1.00  0.00    -0.504 OA
ATOM     18  H   UNL     1     -58.156  28.222 -18.649  1.00  0.00     0.293 HD
ENDBRANCH  13  17
BRANCH  15  19
ATOM     19  O   UNL     1     -55.918  26.888 -17.764  1.00  0.00    -0.502 OA
ATOM     20  H   UNL     1     -55.486  26.116 -18.252  1.00  0.00     0.293 HD
ENDBRANCH  15  19
BRANCH  16  21
ATOM     21  O   UNL     1     -55.257  25.208 -15.695  1.00  0.00    -0.504 OA
ATOM     22  H   UNL     1     -54.660  25.141 -14.880  1.00  0.00     0.293 HD
ENDBRANCH  16  21
ENDBRANCH   1  11
BRANCH  10  23
ATOM     23  O   UNL     1     -61.114  27.769 -14.208  1.00  0.00    -0.500 OA
ATOM     24  H   UNL     1     -61.157  28.759 -13.996  1.00  0.00     0.294 HD
ENDBRANCH  10  23
BRANCH   5  25
ATOM     25  O   UNL     1     -59.610  22.939  -8.314  1.00  0.00    -0.507 OA
ATOM     26  H   UNL     1     -60.203  22.222  -7.913  1.00  0.00     0.293 HD
ENDBRANCH   5  25
BRANCH   7  27
ATOM     27  O   UNL     1     -63.124  25.872  -9.764  1.00  0.00    -0.507 OA
ATOM     28  H   UNL     1     -63.981  25.337  -9.742  1.00  0.00     0.293 HD
ENDBRANCH   7  27
TORSDOF 7
ENDMDL
MODEL 4
REMARK VINA RESULT:    -5.070      3.075      6.235
REMARK INTER + INTRA:          -6.419
REMARK INTER:                  -6.120
REMARK INTRA:                  -0.299
REMARK UNBOUND:                -0.163
REMARK SMILES Oc1cc(O)c2cc(O)c(-c3cc(O)c(O)c(O)c3)[o+]c2c1
REMARK SMILES IDX 10 1 20 2 21 3 22 4 2 5 3 6 4 7 6 8 7 9 8 10 11 11 12 12
REMARK SMILES IDX 13 13 19 14 15 15 17 16 14 17 16 19 18 21 9 23 1 25 5 27
REMARK H PARENT 14 18 16 20 18 22 9 24 1 26 5 28
REMARK Flexibility Score: inf
ROOT
ATOM      1  C   UNL     1     -56.380  23.936 -14.371  1.00  0.00     0.402 A 
ATOM      2  O   UNL     1     -56.510  24.750 -15.415  1.00  0.00    -0.202 OA
ATOM      3  C   UNL     1     -57.453  25.682 -15.501  1.00  0.00     0.368 A 
ATOM      4  C   UNL     1     -57.507  26.494 -16.638  1.00  0.00     0.162 A 
ATOM      5  C   UNL     1     -58.487  27.483 -16.752  1.00  0.00     0.128 A 
ATOM      6  C   UNL     1     -59.417  27.663 -15.725  1.00  0.00     0.093 A 
ATOM      7  C   UNL     1     -59.385  26.864 -14.577  1.00  0.00     0.136 A 
ATOM      8  C   UNL     1     -58.392  25.856 -14.456  1.00  0.00     0.125 A 
ATOM      9  C   UNL     1     -58.292  25.000 -13.347  1.00  0.00     0.078 A 
ATOM     10  C   UNL     1     -57.291  24.026 -13.301  1.00  0.00     0.223 A 
ENDROOT
BRANCH   1  11
ATOM     11  C   UNL     1     -55.280  22.944 -14.388  1.00  0.00     0.091 A 
ATOM     12  C   UNL     1     -55.530  21.577 -14.589  1.00  0.00     0.068 A 
ATOM     13  C   UNL     1     -54.486  20.645 -14.581  1.00  0.00     0.162 A 
ATOM     14  C   UNL     1     -53.966  23.367 -14.144  1.00  0.00     0.068 A 
ATOM     15  C   UNL     1     -53.159  21.085 -14.360  1.00  0.00     0.200 A 
ATOM     16  C   UNL     1     -52.912  22.447 -14.137  1.00  0.00     0.162 A 
BRANCH  13  17
ATOM     17  O   UNL     1     -54.811  19.303 -14.789  1.00  0.00    -0.504 OA
ATOM     18  H   UNL     1     -54.384  18.534 -14.293  1.00  0.00     0.293 HD
ENDBRANCH  13  17
BRANCH  15  19
ATOM     19  O   UNL     1     -52.070  20.209 -14.350  1.00  0.00    -0.502 OA
ATOM     20  H   UNL     1     -51.293  20.266 -14.991  1.00  0.00     0.293 HD
ENDBRANCH  15  19
BRANCH  16  21
ATOM     21  O   UNL     1     -51.606  22.880 -13.908  1.00  0.00    -0.504 OA
ATOM     22  H   UNL     1     -51.394  23.579 -13.207  1.00  0.00     0.293 HD
ENDBRANCH  16  21
ENDBRANCH   1  11
BRANCH  10  23
ATOM     23  O   UNL     1     -57.221  23.143 -12.224  1.00  0.00    -0.500 OA
ATOM     24  H   UNL     1     -56.948  23.453 -11.298  1.00  0.00     0.294 HD
ENDBRANCH  10  23
BRANCH   5  25
ATOM     25  O   UNL     1     -58.546  28.296 -17.883  1.00  0.00    -0.507 OA
ATOM     26  H   UNL     1     -58.055  29.181 -17.926  1.00  0.00     0.293 HD
ENDBRANCH   5  25
BRANCH   7  27
ATOM     27  O   UNL     1     -60.349  27.109 -13.594  1.00  0.00    -0.507 OA
ATOM     28  H   UNL     1     -61.264  26.684 -13.574  1.00  0.00     0.293 HD
ENDBRANCH   7  27
TORSDOF 7
ENDMDL
MODEL 5
REMARK VINA RESULT:    -4.979      1.917      3.152
REMARK INTER + INTRA:          -6.306
REMARK INTER:                  -6.287
REMARK INTRA:                  -0.020
REMARK UNBOUND:                -0.163
REMARK SMILES Oc1cc(O)c2cc(O)c(-c3cc(O)c(O)c(O)c3)[o+]c2c1
REMARK SMILES IDX 10 1 20 2 21 3 22 4 2 5 3 6 4 7 6 8 7 9 8 10 11 11 12 12
REMARK SMILES IDX 13 13 19 14 15 15 17 16 14 17 16 19 18 21 9 23 1 25 5 27
REMARK H PARENT 14 18 16 20 18 22 9 24 1 26 5 28
REMARK Flexibility Score: inf
ROOT
ATOM      1  C   UNL     1     -56.747  24.558 -13.523  1.00  0.00     0.402 A 
ATOM      2  O   UNL     1     -57.623  23.642 -13.118  1.00  0.00    -0.202 OA
ATOM      3  C   UNL     1     -57.366  22.762 -12.156  1.00  0.00     0.368 A 
ATOM      4  C   UNL     1     -58.354  21.840 -11.797  1.00  0.00     0.162 A 
ATOM      5  C   UNL     1     -58.111  20.906 -10.786  1.00  0.00     0.128 A 
ATOM      6  C   UNL     1     -56.878  20.894 -10.131  1.00  0.00     0.093 A 
ATOM      7  C   UNL     1     -55.873  21.807 -10.471  1.00  0.00     0.136 A 
ATOM      8  C   UNL     1     -56.113  22.757 -11.499  1.00  0.00     0.125 A 
ATOM      9  C   UNL     1     -55.160  23.701 -11.915  1.00  0.00     0.078 A 
ATOM     10  C   UNL     1     -55.467  24.602 -12.939  1.00  0.00     0.223 A 
ENDROOT
BRANCH   1  11
ATOM     11  C   UNL     1     -57.155  25.491 -14.599  1.00  0.00     0.091 A 
ATOM     12  C   UNL     1     -56.331  25.732 -15.710  1.00  0.00     0.068 A 
ATOM     13  C   UNL     1     -56.716  26.633 -16.709  1.00  0.00     0.162 A 
ATOM     14  C   UNL     1     -58.363  26.191 -14.481  1.00  0.00     0.068 A 
ATOM     15  C   UNL     1     -57.950  27.316 -16.596  1.00  0.00     0.200 A 
ATOM     16  C   UNL     1     -58.763  27.092 -15.476  1.00  0.00     0.162 A 
BRANCH  13  17
ATOM     17  O   UNL     1     -55.846  26.822 -17.785  1.00  0.00    -0.504 OA
ATOM     18  H   UNL     1     -54.913  26.439 -17.832  1.00  0.00     0.293 HD
ENDBRANCH  13  17
BRANCH  15  19
ATOM     19  O   UNL     1     -58.399  28.220 -17.562  1.00  0.00    -0.502 OA
ATOM     20  H   UNL     1     -57.792  28.817 -18.105  1.00  0.00     0.293 HD
ENDBRANCH  15  19
BRANCH  16  21
ATOM     21  O   UNL     1     -59.974  27.773 -15.358  1.00  0.00    -0.504 OA
ATOM     22  H   UNL     1     -60.495  27.785 -14.489  1.00  0.00     0.293 HD
ENDBRANCH  16  21
ENDBRANCH   1  11
BRANCH  10  23
ATOM     23  O   UNL     1     -54.505  25.507 -13.388  1.00  0.00    -0.500 OA
ATOM     24  H   UNL     1     -53.954  26.061 -12.742  1.00  0.00     0.294 HD
ENDBRANCH  10  23
BRANCH   5  25
ATOM     25  O   UNL     1     -59.090  19.983 -10.423  1.00  0.00    -0.507 OA
ATOM     26  H   UNL     1     -59.288  19.775  -9.451  1.00  0.00     0.293 HD
ENDBRANCH   5  25
BRANCH   7  27
ATOM     27  O   UNL     1     -54.667  21.732  -9.766  1.00  0.00    -0.507 OA
ATOM     28  H   UNL     1     -53.791  21.427 -10.165  1.00  0.00     0.293 HD
ENDBRANCH   7  27
TORSDOF 7
ENDMDL
MODEL 6
REMARK VINA RESULT:    -4.934      7.318      9.010
REMARK INTER + INTRA:          -6.251
REMARK INTER:                  -6.218
REMARK INTRA:                  -0.033
REMARK UNBOUND:                -0.163
REMARK SMILES Oc1cc(O)c2cc(O)c(-c3cc(O)c(O)c(O)c3)[o+]c2c1
REMARK SMILES IDX 10 1 20 2 21 3 22 4 2 5 3 6 4 7 6 8 7 9 8 10 11 11 12 12
REMARK SMILES IDX 13 13 19 14 15 15 17 16 14 17 16 19 18 21 9 23 1 25 5 27
REMARK H PARENT 14 18 16 20 18 22 9 24 1 26 5 28
REMARK Flexibility Score: inf
ROOT
ATOM      1  C   UNL     1     -56.771  18.263 -16.949  1.00  0.00     0.402 A 
ATOM      2  O   UNL     1     -58.076  18.144 -16.718  1.00  0.00    -0.202 OA
ATOM      3  C   UNL     1     -58.862  17.310 -17.389  1.00  0.00     0.368 A 
ATOM      4  C   UNL     1     -60.223  17.253 -17.071  1.00  0.00     0.162 A 
ATOM      5  C   UNL     1     -61.071  16.382 -17.760  1.00  0.00     0.128 A 
ATOM      6  C   UNL     1     -60.558  15.563 -18.768  1.00  0.00     0.093 A 
ATOM      7  C   UNL     1     -59.201  15.601 -19.105  1.00  0.00     0.136 A 
ATOM      8  C   UNL     1     -58.334  16.485 -18.411  1.00  0.00     0.125 A 
ATOM      9  C   UNL     1     -56.962  16.599 -18.690  1.00  0.00     0.078 A 
ATOM     10  C   UNL     1     -56.172  17.498 -17.967  1.00  0.00     0.223 A 
ENDROOT
BRANCH   1  11
ATOM     11  C   UNL     1     -55.998  19.222 -16.126  1.00  0.00     0.091 A 
ATOM     12  C   UNL     1     -54.755  18.876 -15.572  1.00  0.00     0.068 A 
ATOM     13  C   UNL     1     -54.045  19.781 -14.776  1.00  0.00     0.162 A 
ATOM     14  C   UNL     1     -56.542  20.483 -15.845  1.00  0.00     0.068 A 
ATOM     15  C   UNL     1     -54.588  21.062 -14.520  1.00  0.00     0.200 A 
ATOM     16  C   UNL     1     -55.839  21.401 -15.055  1.00  0.00     0.162 A 
BRANCH  13  17
ATOM     17  O   UNL     1     -52.814  19.367 -14.260  1.00  0.00    -0.504 OA
ATOM     18  H   UNL     1     -52.314  18.550 -14.578  1.00  0.00     0.293 HD
ENDBRANCH  13  17
BRANCH  15  19
ATOM     19  O   UNL     1     -53.927  22.017 -13.743  1.00  0.00    -0.502 OA
ATOM     20  H   UNL     1     -54.155  22.221 -12.781  1.00  0.00     0.293 HD
ENDBRANCH  15  19
BRANCH  16  21
ATOM     21  O   UNL     1     -56.381  22.659 -14.794  1.00  0.00    -0.504 OA
ATOM     22  H   UNL     1     -56.041  23.237 -14.035  1.00  0.00     0.293 HD
ENDBRANCH  16  21
ENDBRANCH   1  11
BRANCH  10  23
ATOM     23  O   UNL     1     -54.821  17.648 -18.276  1.00  0.00    -0.500 OA
ATOM     24  H   UNL     1     -54.126  16.977 -17.968  1.00  0.00     0.294 HD
ENDBRANCH  10  23
BRANCH   5  25
ATOM     25  O   UNL     1     -62.429  16.320 -17.449  1.00  0.00    -0.507 OA
ATOM     26  H   UNL     1     -63.098  16.952 -17.872  1.00  0.00     0.293 HD
ENDBRANCH   5  25
BRANCH   7  27
ATOM     27  O   UNL     1     -58.766  14.747 -20.125  1.00  0.00    -0.507 OA
ATOM     28  H   UNL     1     -58.789  14.976 -21.108  1.00  0.00     0.293 HD
ENDBRANCH   7  27
TORSDOF 7
ENDMDL
MODEL 7
REMARK VINA RESULT:    -4.923      3.493      6.471
REMARK INTER + INTRA:          -6.238
REMARK INTER:                  -5.901
REMARK INTRA:                  -0.337
REMARK UNBOUND:                -0.163
REMARK SMILES Oc1cc(O)c2cc(O)c(-c3cc(O)c(O)c(O)c3)[o+]c2c1
REMARK SMILES IDX 10 1 20 2 21 3 22 4 2 5 3 6 4 7 6 8 7 9 8 10 11 11 12 12
REMARK SMILES IDX 13 13 19 14 15 15 17 16 14 17 16 19 18 21 9 23 1 25 5 27
REMARK H PARENT 14 18 16 20 18 22 9 24 1 26 5 28
REMARK Flexibility Score: inf
ROOT
ATOM      1  C   UNL     1     -56.253  24.700 -14.945  1.00  0.00     0.402 A 
ATOM      2  O   UNL     1     -57.409  24.933 -14.328  1.00  0.00    -0.202 OA
ATOM      3  C   UNL     1     -58.225  25.928 -14.659  1.00  0.00     0.368 A 
ATOM      4  C   UNL     1     -59.421  26.091 -13.953  1.00  0.00     0.162 A 
ATOM      5  C   UNL     1     -60.298  27.127 -14.283  1.00  0.00     0.128 A 
ATOM      6  C   UNL     1     -59.980  28.004 -15.323  1.00  0.00     0.093 A 
ATOM      7  C   UNL     1     -58.789  27.862 -16.045  1.00  0.00     0.136 A 
ATOM      8  C   UNL     1     -57.893  26.813 -15.713  1.00  0.00     0.125 A 
ATOM      9  C   UNL     1     -56.671  26.603 -16.373  1.00  0.00     0.078 A 
ATOM     10  C   UNL     1     -55.837  25.550 -15.986  1.00  0.00     0.223 A 
ENDROOT
BRANCH   1  11
ATOM     11  C   UNL     1     -55.436  23.551 -14.490  1.00  0.00     0.091 A 
ATOM     12  C   UNL     1     -54.308  23.734 -13.673  1.00  0.00     0.068 A 
ATOM     13  C   UNL     1     -53.529  22.644 -13.268  1.00  0.00     0.162 A 
ATOM     14  C   UNL     1     -55.758  22.259 -14.928  1.00  0.00     0.068 A 
ATOM     15  C   UNL     1     -53.877  21.340 -13.693  1.00  0.00     0.200 A 
ATOM     16  C   UNL     1     -54.990  21.160 -14.526  1.00  0.00     0.162 A 
BRANCH  13  17
ATOM     17  O   UNL     1     -52.422  22.902 -12.455  1.00  0.00    -0.504 OA
ATOM     18  H   UNL     1     -52.315  23.735 -11.894  1.00  0.00     0.293 HD
ENDBRANCH  13  17
BRANCH  15  19
ATOM     19  O   UNL     1     -53.149  20.208 -13.316  1.00  0.00    -0.502 OA
ATOM     20  H   UNL     1     -52.575  19.668 -13.948  1.00  0.00     0.293 HD
ENDBRANCH  15  19
BRANCH  16  21
ATOM     21  O   UNL     1     -55.328  19.876 -14.954  1.00  0.00    -0.504 OA
ATOM     22  H   UNL     1     -54.965  19.050 -14.495  1.00  0.00     0.293 HD
ENDBRANCH  16  21
ENDBRANCH   1  11
BRANCH  10  23
ATOM     23  O   UNL     1     -54.602  25.370 -16.608  1.00  0.00    -0.500 OA
ATOM     24  H   UNL     1     -54.505  25.394 -17.617  1.00  0.00     0.294 HD
ENDBRANCH  10  23
BRANCH   5  25
ATOM     25  O   UNL     1     -61.492  27.296 -13.583  1.00  0.00    -0.507 OA
ATOM     26  H   UNL     1     -62.387  27.305 -14.058  1.00  0.00     0.293 HD
ENDBRANCH   5  25
BRANCH   7  27
ATOM     27  O   UNL     1     -58.546  28.779 -17.072  1.00  0.00    -0.507 OA
ATOM     28  H   UNL     1     -57.641  29.175 -17.281  1.00  0.00     0.293 HD
ENDBRANCH   7  27
TORSDOF 7
ENDMDL
MODEL 8
REMARK VINA RESULT:    -4.923      1.258      3.448
REMARK INTER + INTRA:          -6.237
REMARK INTER:                  -6.152
REMARK INTRA:                  -0.085
REMARK UNBOUND:                -0.163
REMARK SMILES Oc1cc(O)c2cc(O)c(-c3cc(O)c(O)c(O)c3)[o+]c2c1
REMARK SMILES IDX 10 1 20 2 21 3 22 4 2 5 3 6 4 7 6 8 7 9 8 10 11 11 12 12
REMARK SMILES IDX 13 13 19 14 15 15 17 16 14 17 16 19 18 21 9 23 1 25 5 27
REMARK H PARENT 14 18 16 20 18 22 9 24 1 26 5 28
REMARK Flexibility Score: inf
ROOT
ATOM      1  C   UNL     1     -58.192  24.876 -13.056  1.00  0.00     0.402 A 
ATOM      2  O   UNL     1     -58.940  25.728 -12.360  1.00  0.00    -0.202 OA
ATOM      3  C   UNL     1     -59.537  25.409 -11.216  1.00  0.00     0.368 A 
ATOM      4  C   UNL     1     -60.300  26.375 -10.554  1.00  0.00     0.162 A 
ATOM      5  C   UNL     1     -60.935  26.067  -9.348  1.00  0.00     0.128 A 
ATOM      6  C   UNL     1     -60.805  24.789  -8.800  1.00  0.00     0.093 A 
ATOM      7  C   UNL     1     -60.046  23.804  -9.442  1.00  0.00     0.136 A 
ATOM      8  C   UNL     1     -59.400  24.111 -10.669  1.00  0.00     0.125 A 
ATOM      9  C   UNL     1     -58.631  23.183 -11.389  1.00  0.00     0.078 A 
ATOM     10  C   UNL     1     -58.029  23.557 -12.594  1.00  0.00     0.223 A 
ENDROOT
BRANCH   1  11
ATOM     11  C   UNL     1     -57.571  25.354 -14.313  1.00  0.00     0.091 A 
ATOM     12  C   UNL     1     -56.207  25.153 -14.578  1.00  0.00     0.068 A 
ATOM     13  C   UNL     1     -55.625  25.630 -15.758  1.00  0.00     0.162 A 
ATOM     14  C   UNL     1     -58.346  26.073 -15.234  1.00  0.00     0.068 A 
ATOM     15  C   UNL     1     -56.421  26.331 -16.695  1.00  0.00     0.200 A 
ATOM     16  C   UNL     1     -57.778  26.551 -16.421  1.00  0.00     0.162 A 
BRANCH  13  17
ATOM     17  O   UNL     1     -54.263  25.391 -15.953  1.00  0.00    -0.504 OA
ATOM     18  H   UNL     1     -53.892  24.565 -16.399  1.00  0.00     0.293 HD
ENDBRANCH  13  17
BRANCH  15  19
ATOM     19  O   UNL     1     -55.906  26.824 -17.897  1.00  0.00    -0.502 OA
ATOM     20  H   UNL     1     -56.473  27.102 -18.684  1.00  0.00     0.293 HD
ENDBRANCH  15  19
BRANCH  16  21
ATOM     21  O   UNL     1     -58.560  27.252 -17.338  1.00  0.00    -0.504 OA
ATOM     22  H   UNL     1     -58.180  27.584 -18.216  1.00  0.00     0.293 HD
ENDBRANCH  16  21
ENDBRANCH   1  11
BRANCH  10  23
ATOM     23  O   UNL     1     -57.305  22.623 -13.335  1.00  0.00    -0.500 OA
ATOM     24  H   UNL     1     -56.665  21.972 -12.893  1.00  0.00     0.294 HD
ENDBRANCH  10  23
BRANCH   5  25
ATOM     25  O   UNL     1     -61.699  27.025  -8.683  1.00  0.00    -0.507 OA
ATOM     26  H   UNL     1     -62.401  26.763  -8.001  1.00  0.00     0.293 HD
ENDBRANCH   5  25
BRANCH   7  27
ATOM     27  O   UNL     1     -59.963  22.551  -8.827  1.00  0.00    -0.507 OA
ATOM     28  H   UNL     1     -59.202  21.900  -8.959  1.00  0.00     0.293 HD
ENDBRANCH   7  27
TORSDOF 7
ENDMDL
MODEL 9
REMARK VINA RESULT:    -4.912      7.694      9.672
REMARK INTER + INTRA:          -6.224
REMARK INTER:                  -5.840
REMARK INTRA:                  -0.384
REMARK UNBOUND:                -0.163
REMARK SMILES Oc1cc(O)c2cc(O)c(-c3cc(O)c(O)c(O)c3)[o+]c2c1
REMARK SMILES IDX 10 1 20 2 21 3 22 4 2 5 3 6 4 7 6 8 7 9 8 10 11 11 12 12
REMARK SMILES IDX 13 13 19 14 15 15 17 16 14 17 16 19 18 21 9 23 1 25 5 27
REMARK H PARENT 14 18 16 20 18 22 9 24 1 26 5 28
REMARK Flexibility Score: inf
ROOT
ATOM      1  C   UNL     1     -56.421  17.913 -17.098  1.00  0.00     0.402 A 
ATOM      2  O   UNL     1     -55.759  17.625 -15.980  1.00  0.00    -0.202 OA
ATOM      3  C   UNL     1     -54.452  17.815 -15.836  1.00  0.00     0.368 A 
ATOM      4  C   UNL     1     -53.846  17.485 -14.620  1.00  0.00     0.162 A 
ATOM      5  C   UNL     1     -52.473  17.679 -14.442  1.00  0.00     0.128 A 
ATOM      6  C   UNL     1     -51.704  18.206 -15.482  1.00  0.00     0.093 A 
ATOM      7  C   UNL     1     -52.286  18.544 -16.709  1.00  0.00     0.136 A 
ATOM      8  C   UNL     1     -53.680  18.348 -16.896  1.00  0.00     0.125 A 
ATOM      9  C   UNL     1     -54.347  18.646 -18.096  1.00  0.00     0.078 A 
ATOM     10  C   UNL     1     -55.722  18.421 -18.208  1.00  0.00     0.223 A 
ENDROOT
BRANCH   1  11
ATOM     11  C   UNL     1     -57.881  17.665 -17.131  1.00  0.00     0.091 A 
ATOM     12  C   UNL     1     -58.802  18.669 -16.793  1.00  0.00     0.068 A 
ATOM     13  C   UNL     1     -60.178  18.417 -16.804  1.00  0.00     0.162 A 
ATOM     14  C   UNL     1     -58.355  16.385 -17.451  1.00  0.00     0.068 A 
ATOM     15  C   UNL     1     -60.650  17.130 -17.155  1.00  0.00     0.200 A 
ATOM     16  C   UNL     1     -59.730  16.121 -17.472  1.00  0.00     0.162 A 
BRANCH  13  17
ATOM     17  O   UNL     1     -61.034  19.466 -16.457  1.00  0.00    -0.504 OA
ATOM     18  H   UNL     1     -61.809  19.774 -17.025  1.00  0.00     0.293 HD
ENDBRANCH  13  17
BRANCH  15  19
ATOM     19  O   UNL     1     -62.010  16.815 -17.198  1.00  0.00    -0.502 OA
ATOM     20  H   UNL     1     -62.593  16.929 -18.015  1.00  0.00     0.293 HD
ENDBRANCH  15  19
BRANCH  16  21
ATOM     21  O   UNL     1     -60.193  14.849 -17.807  1.00  0.00    -0.504 OA
ATOM     22  H   UNL     1     -60.450  14.610 -18.757  1.00  0.00     0.293 HD
ENDBRANCH  16  21
ENDBRANCH   1  11
BRANCH  10  23
ATOM     23  O   UNL     1     -56.376  18.670 -19.414  1.00  0.00    -0.500 OA
ATOM     24  H   UNL     1     -57.360  18.913 -19.446  1.00  0.00     0.294 HD
ENDBRANCH  10  23
BRANCH   5  25
ATOM     25  O   UNL     1     -51.862  17.351 -13.233  1.00  0.00    -0.507 OA
ATOM     26  H   UNL     1     -51.297  16.516 -13.134  1.00  0.00     0.293 HD
ENDBRANCH   5  25
BRANCH   7  27
ATOM     27  O   UNL     1     -51.448  19.068 -17.698  1.00  0.00    -0.507 OA
ATOM     28  H   UNL     1     -51.735  19.747 -18.388  1.00  0.00     0.293 HD
ENDBRANCH   7  27
TORSDOF 7
ENDMDL
