MODEL 1
REMARK VINA RESULT:    -4.864      0.000      0.000
REMARK INTER + INTRA:         -10.038
REMARK INTER:                  -8.277
REMARK INTRA:                  -1.761
REMARK UNBOUND:                -1.761
REMARK SMILES CCCCCCCCCCCCCC(=O)[O-]
REMARK SMILES IDX 8 1 9 2 10 3 11 4 12 5 13 6 14 7 15 8 16 9 7 10 6 11 5 12
REMARK SMILES IDX 4 13 3 14 2 15 1 16
REMARK H PARENT
REMARK Flexibility Score: inf
ROOT
ATOM      1  C   UNL     1     136.763 136.548 112.290  1.00  0.00     0.000 C 
ENDROOT
BRANCH   1   2
ATOM      2  C   UNL     1     136.643 137.330 113.608  1.00  0.00     0.000 C 
BRANCH   2   3
ATOM      3  C   UNL     1     137.410 136.668 114.767  1.00  0.00     0.000 C 
BRANCH   3   4
ATOM      4  C   UNL     1     136.547 136.254 115.976  1.00  0.00     0.000 C 
BRANCH   4   5
ATOM      5  C   UNL     1     136.973 134.943 116.668  1.00  0.00     0.006 C 
BRANCH   5   6
ATOM      6  C   UNL     1     135.980 134.431 117.723  1.00  0.00     0.053 C 
BRANCH   6   7
ATOM      7  C   UNL     1     135.715 135.453 118.786  1.00  0.00     0.041 C 
ATOM      8  O   UNL     1     134.659 136.139 118.755  1.00  0.00    -0.550 OA
ATOM      9  O   UNL     1     136.617 135.625 119.827  1.00  0.00    -0.550 OA
ENDBRANCH   6   7
ENDBRANCH   5   6
ENDBRANCH   4   5
ENDBRANCH   3   4
ENDBRANCH   2   3
ENDBRANCH   1   2
BRANCH   1  10
ATOM     10  C   UNL     1     135.396 136.120 111.731  1.00  0.00     0.000 C 
BRANCH  10  11
ATOM     11  C   UNL     1     135.202 134.594 111.742  1.00  0.00    -0.000 C 
BRANCH  11  12
ATOM     12  C   UNL     1     135.307 133.993 113.153  1.00  0.00    -0.000 C 
BRANCH  12  13
ATOM     13  C   UNL     1     133.934 133.631 113.744  1.00  0.00    -0.000 C 
BRANCH  13  14
ATOM     14  C   UNL     1     133.638 134.380 115.054  1.00  0.00    -0.000 C 
BRANCH  14  15
ATOM     15  C   UNL     1     133.164 135.822 114.816  1.00  0.00    -0.003 C 
ATOM     16  C   UNL     1     132.058 135.870 113.765  1.00  0.00     0.004 C 
ENDBRANCH  14  15
ENDBRANCH  13  14
ENDBRANCH  12  13
ENDBRANCH  11  12
ENDBRANCH  10  11
ENDBRANCH   1  10
TORSDOF 12
ENDMDL
MODEL 2
REMARK VINA RESULT:    -4.790      6.055      8.504
REMARK INTER + INTRA:          -9.911
REMARK INTER:                  -7.863
REMARK INTRA:                  -2.048
REMARK UNBOUND:                -1.761
REMARK SMILES CCCCCCCCCCCCCC(=O)[O-]
REMARK SMILES IDX 8 1 9 2 10 3 11 4 12 5 13 6 14 7 15 8 16 9 7 10 6 11 5 12
REMARK SMILES IDX 4 13 3 14 2 15 1 16
REMARK H PARENT
REMARK Flexibility Score: inf
ROOT
ATOM      1  C   UNL     1     143.526 141.338 114.055  1.00  0.00     0.000 C 
ENDROOT
BRANCH   1   2
ATOM      2  C   UNL     1     143.323 140.063 113.220  1.00  0.00     0.000 C 
BRANCH   2   3
ATOM      3  C   UNL     1     141.910 139.964 112.616  1.00  0.00     0.000 C 
BRANCH   3   4
ATOM      4  C   UNL     1     140.895 139.155 113.449  1.00  0.00     0.000 C 
BRANCH   4   5
ATOM      5  C   UNL     1     139.443 139.673 113.398  1.00  0.00     0.006 C 
BRANCH   5   6
ATOM      6  C   UNL     1     138.513 139.059 114.456  1.00  0.00     0.053 C 
BRANCH   6   7
ATOM      7  C   UNL     1     138.041 137.693 114.062  1.00  0.00     0.041 C 
ATOM      8  O   UNL     1     137.794 136.830 114.946  1.00  0.00    -0.550 OA
ATOM      9  O   UNL     1     137.842 137.384 112.724  1.00  0.00    -0.550 OA
ENDBRANCH   6   7
ENDBRANCH   5   6
ENDBRANCH   4   5
ENDBRANCH   3   4
ENDBRANCH   2   3
ENDBRANCH   1   2
BRANCH   1  10
ATOM     10  C   UNL     1     142.731 142.535 113.508  1.00  0.00     0.000 C 
BRANCH  10  11
ATOM     11  C   UNL     1     141.882 143.227 114.589  1.00  0.00    -0.000 C 
BRANCH  11  12
ATOM     12  C   UNL     1     140.394 142.847 114.507  1.00  0.00    -0.000 C 
BRANCH  12  13
ATOM     13  C   UNL     1     139.787 142.536 115.885  1.00  0.00    -0.000 C 
BRANCH  13  14
ATOM     14  C   UNL     1     140.843 142.088 116.908  1.00  0.00    -0.000 C 
BRANCH  14  15
ATOM     15  C   UNL     1     140.728 140.598 117.263  1.00  0.00    -0.003 C 
ATOM     16  C   UNL     1     141.959 139.825 116.797  1.00  0.00     0.004 C 
ENDBRANCH  14  15
ENDBRANCH  13  14
ENDBRANCH  12  13
ENDBRANCH  11  12
ENDBRANCH  10  11
ENDBRANCH   1  10
TORSDOF 12
ENDMDL
MODEL 3
REMARK VINA RESULT:    -4.766      1.441      2.268
REMARK INTER + INTRA:          -9.870
REMARK INTER:                  -7.859
REMARK INTRA:                  -2.012
REMARK UNBOUND:                -1.761
REMARK SMILES CCCCCCCCCCCCCC(=O)[O-]
REMARK SMILES IDX 8 1 9 2 10 3 11 4 12 5 13 6 14 7 15 8 16 9 7 10 6 11 5 12
REMARK SMILES IDX 4 13 3 14 2 15 1 16
REMARK H PARENT
REMARK Flexibility Score: inf
ROOT
ATOM      1  C   UNL     1     136.062 136.770 112.239  1.00  0.00     0.000 C 
ENDROOT
BRANCH   1   2
ATOM      2  C   UNL     1     137.109 136.552 113.343  1.00  0.00     0.000 C 
BRANCH   2   3
ATOM      3  C   UNL     1     136.813 137.365 114.616  1.00  0.00     0.000 C 
BRANCH   3   4
ATOM      4  C   UNL     1     136.457 136.528 115.862  1.00  0.00     0.000 C 
BRANCH   4   5
ATOM      5  C   UNL     1     134.953 136.456 116.196  1.00  0.00     0.006 C 
BRANCH   5   6
ATOM      6  C   UNL     1     134.641 136.338 117.696  1.00  0.00     0.053 C 
BRANCH   6   7
ATOM      7  C   UNL     1     135.649 135.492 118.413  1.00  0.00     0.041 C 
ATOM      8  O   UNL     1     136.426 136.012 119.257  1.00  0.00    -0.550 OA
ATOM      9  O   UNL     1     135.708 134.125 118.174  1.00  0.00    -0.550 OA
ENDBRANCH   6   7
ENDBRANCH   5   6
ENDBRANCH   4   5
ENDBRANCH   3   4
ENDBRANCH   2   3
ENDBRANCH   1   2
BRANCH   1  10
ATOM     10  C   UNL     1     134.852 137.585 112.726  1.00  0.00     0.000 C 
BRANCH  10  11
ATOM     11  C   UNL     1     133.534 136.795 112.647  1.00  0.00    -0.000 C 
BRANCH  11  12
ATOM     12  C   UNL     1     133.758 135.278 112.532  1.00  0.00    -0.000 C 
BRANCH  12  13
ATOM     13  C   UNL     1     133.000 134.486 113.611  1.00  0.00    -0.000 C 
BRANCH  13  14
ATOM     14  C   UNL     1     133.930 133.600 114.455  1.00  0.00    -0.000 C 
BRANCH  14  15
ATOM     15  C   UNL     1     135.327 133.449 113.835  1.00  0.00    -0.003 C 
ATOM     16  C   UNL     1     136.319 132.884 114.848  1.00  0.00     0.004 C 
ENDBRANCH  14  15
ENDBRANCH  13  14
ENDBRANCH  12  13
ENDBRANCH  11  12
ENDBRANCH  10  11
ENDBRANCH   1  10
TORSDOF 12
ENDMDL
MODEL 4
REMARK VINA RESULT:    -4.737      6.223      8.428
REMARK INTER + INTRA:          -9.821
REMARK INTER:                  -8.204
REMARK INTRA:                  -1.617
REMARK UNBOUND:                -1.761
REMARK SMILES CCCCCCCCCCCCCC(=O)[O-]
REMARK SMILES IDX 8 1 9 2 10 3 11 4 12 5 13 6 14 7 15 8 16 9 7 10 6 11 5 12
REMARK SMILES IDX 4 13 3 14 2 15 1 16
REMARK H PARENT
REMARK Flexibility Score: inf
ROOT
ATOM      1  C   UNL     1     139.166 139.519 113.039  1.00  0.00     0.000 C 
ENDROOT
BRANCH   1   2
ATOM      2  C   UNL     1     139.617 138.812 114.328  1.00  0.00     0.000 C 
BRANCH   2   3
ATOM      3  C   UNL     1     140.306 139.764 115.322  1.00  0.00     0.000 C 
BRANCH   3   4
ATOM      4  C   UNL     1     139.541 141.071 115.617  1.00  0.00     0.000 C 
BRANCH   4   5
ATOM      5  C   UNL     1     139.893 141.748 116.958  1.00  0.00     0.006 C 
BRANCH   5   6
ATOM      6  C   UNL     1     139.343 141.024 118.197  1.00  0.00     0.053 C 
BRANCH   6   7
ATOM      7  C   UNL     1     140.438 140.583 119.119  1.00  0.00     0.041 C 
ATOM      8  O   UNL     1     141.564 140.260 118.656  1.00  0.00    -0.550 OA
ATOM      9  O   UNL     1     140.227 140.561 120.491  1.00  0.00    -0.550 OA
ENDBRANCH   6   7
ENDBRANCH   5   6
ENDBRANCH   4   5
ENDBRANCH   3   4
ENDBRANCH   2   3
ENDBRANCH   1   2
BRANCH   1  10
ATOM     10  C   UNL     1     140.219 139.438 111.922  1.00  0.00     0.000 C 
BRANCH  10  11
ATOM     11  C   UNL     1     141.091 140.704 111.836  1.00  0.00    -0.000 C 
BRANCH  11  12
ATOM     12  C   UNL     1     142.566 140.431 112.172  1.00  0.00    -0.000 C 
BRANCH  12  13
ATOM     13  C   UNL     1     143.256 141.640 112.826  1.00  0.00    -0.000 C 
BRANCH  13  14
ATOM     14  C   UNL     1     143.493 141.441 114.332  1.00  0.00    -0.000 C 
BRANCH  14  15
ATOM     15  C   UNL     1     142.896 142.575 115.179  1.00  0.00    -0.003 C 
ATOM     16  C   UNL     1     141.992 143.471 114.337  1.00  0.00     0.004 C 
ENDBRANCH  14  15
ENDBRANCH  13  14
ENDBRANCH  12  13
ENDBRANCH  11  12
ENDBRANCH  10  11
ENDBRANCH   1  10
TORSDOF 12
ENDMDL
MODEL 5
REMARK VINA RESULT:    -4.647      6.008      7.797
REMARK INTER + INTRA:          -9.668
REMARK INTER:                  -8.292
REMARK INTRA:                  -1.376
REMARK UNBOUND:                -1.761
REMARK SMILES CCCCCCCCCCCCCC(=O)[O-]
REMARK SMILES IDX 8 1 9 2 10 3 11 4 12 5 13 6 14 7 15 8 16 9 7 10 6 11 5 12
REMARK SMILES IDX 4 13 3 14 2 15 1 16
REMARK H PARENT
REMARK Flexibility Score: inf
ROOT
ATOM      1  C   UNL     1     143.871 140.666 113.663  1.00  0.00     0.000 C 
ENDROOT
BRANCH   1   2
ATOM      2  C   UNL     1     143.021 141.147 114.851  1.00  0.00     0.000 C 
BRANCH   2   3
ATOM      3  C   UNL     1     142.956 142.682 114.955  1.00  0.00     0.000 C 
BRANCH   3   4
ATOM      4  C   UNL     1     141.715 143.332 114.311  1.00  0.00     0.000 C 
BRANCH   4   5
ATOM      5  C   UNL     1     140.394 142.561 114.506  1.00  0.00     0.006 C 
BRANCH   5   6
ATOM      6  C   UNL     1     139.683 142.846 115.838  1.00  0.00     0.053 C 
BRANCH   6   7
ATOM      7  C   UNL     1     139.907 141.752 116.837  1.00  0.00     0.041 C 
ATOM      8  O   UNL     1     140.349 142.025 117.985  1.00  0.00    -0.550 OA
ATOM      9  O   UNL     1     139.596 140.438 116.514  1.00  0.00    -0.550 OA
ENDBRANCH   6   7
ENDBRANCH   5   6
ENDBRANCH   4   5
ENDBRANCH   3   4
ENDBRANCH   2   3
ENDBRANCH   1   2
BRANCH   1  10
ATOM     10  C   UNL     1     143.067 139.806 112.674  1.00  0.00     0.000 C 
BRANCH  10  11
ATOM     11  C   UNL     1     141.770 139.250 113.287  1.00  0.00    -0.000 C 
BRANCH  11  12
ATOM     12  C   UNL     1     140.545 139.476 112.387  1.00  0.00    -0.000 C 
BRANCH  12  13
ATOM     13  C   UNL     1     139.217 139.241 113.127  1.00  0.00    -0.000 C 
BRANCH  13  14
ATOM     14  C   UNL     1     138.211 138.431 112.294  1.00  0.00    -0.000 C 
BRANCH  14  15
ATOM     15  C   UNL     1     137.645 137.225 113.058  1.00  0.00    -0.003 C 
ATOM     16  C   UNL     1     137.930 137.340 114.553  1.00  0.00     0.004 C 
ENDBRANCH  14  15
ENDBRANCH  13  14
ENDBRANCH  12  13
ENDBRANCH  11  12
ENDBRANCH  10  11
ENDBRANCH   1  10
TORSDOF 12
ENDMDL
MODEL 6
REMARK VINA RESULT:    -4.622      1.349      3.861
REMARK INTER + INTRA:          -9.626
REMARK INTER:                  -8.127
REMARK INTRA:                  -1.499
REMARK UNBOUND:                -1.761
REMARK SMILES CCCCCCCCCCCCCC(=O)[O-]
REMARK SMILES IDX 8 1 9 2 10 3 11 4 12 5 13 6 14 7 15 8 16 9 7 10 6 11 5 12
REMARK SMILES IDX 4 13 3 14 2 15 1 16
REMARK H PARENT
REMARK Flexibility Score: inf
ROOT
ATOM      1  C   UNL     1     132.680 135.842 114.047  1.00  0.00     0.000 C 
ENDROOT
BRANCH   1   2
ATOM      2  C   UNL     1     133.340 134.570 114.604  1.00  0.00     0.000 C 
BRANCH   2   3
ATOM      3  C   UNL     1     134.191 133.831 113.556  1.00  0.00     0.000 C 
BRANCH   3   4
ATOM      4  C   UNL     1     135.704 133.780 113.853  1.00  0.00     0.000 C 
BRANCH   4   5
ATOM      5  C   UNL     1     136.075 133.511 115.325  1.00  0.00     0.006 C 
BRANCH   5   6
ATOM      6  C   UNL     1     136.726 134.703 116.043  1.00  0.00     0.053 C 
BRANCH   6   7
ATOM      7  C   UNL     1     136.421 134.708 117.510  1.00  0.00     0.041 C 
ATOM      8  O   UNL     1     135.368 134.164 117.939  1.00  0.00    -0.550 OA
ATOM      9  O   UNL     1     137.314 135.281 118.406  1.00  0.00    -0.550 OA
ENDBRANCH   6   7
ENDBRANCH   5   6
ENDBRANCH   4   5
ENDBRANCH   3   4
ENDBRANCH   2   3
ENDBRANCH   1   2
BRANCH   1  10
ATOM     10  C   UNL     1     133.132 136.162 112.613  1.00  0.00     0.000 C 
BRANCH  10  11
ATOM     11  C   UNL     1     134.275 137.191 112.566  1.00  0.00    -0.000 C 
BRANCH  11  12
ATOM     12  C   UNL     1     135.376 136.808 111.565  1.00  0.00    -0.000 C 
BRANCH  12  13
ATOM     13  C   UNL     1     136.789 136.960 112.153  1.00  0.00    -0.000 C 
BRANCH  13  14
ATOM     14  C   UNL     1     136.774 137.505 113.591  1.00  0.00    -0.000 C 
BRANCH  14  15
ATOM     15  C   UNL     1     138.163 137.484 114.246  1.00  0.00    -0.003 C 
ATOM     16  C   UNL     1     138.610 138.892 114.632  1.00  0.00     0.004 C 
ENDBRANCH  14  15
ENDBRANCH  13  14
ENDBRANCH  12  13
ENDBRANCH  11  12
ENDBRANCH  10  11
ENDBRANCH   1  10
TORSDOF 12
ENDMDL
MODEL 7
REMARK VINA RESULT:    -4.621      6.405      8.766
REMARK INTER + INTRA:          -9.624
REMARK INTER:                  -8.204
REMARK INTRA:                  -1.420
REMARK UNBOUND:                -1.761
REMARK SMILES CCCCCCCCCCCCCC(=O)[O-]
REMARK SMILES IDX 8 1 9 2 10 3 11 4 12 5 13 6 14 7 15 8 16 9 7 10 6 11 5 12
REMARK SMILES IDX 4 13 3 14 2 15 1 16
REMARK H PARENT
REMARK Flexibility Score: inf
ROOT
ATOM      1  C   UNL     1     140.030 139.920 111.265  1.00  0.00     0.000 C 
ENDROOT
BRANCH   1   2
ATOM      2  C   UNL     1     139.723 138.743 112.204  1.00  0.00     0.000 C 
BRANCH   2   3
ATOM      3  C   UNL     1     138.509 139.005 113.113  1.00  0.00     0.000 C 
BRANCH   3   4
ATOM      4  C   UNL     1     138.831 139.157 114.614  1.00  0.00     0.000 C 
BRANCH   4   5
ATOM      5  C   UNL     1     139.469 140.503 115.014  1.00  0.00     0.006 C 
BRANCH   5   6
ATOM      6  C   UNL     1     139.598 140.717 116.530  1.00  0.00     0.053 C 
BRANCH   6   7
ATOM      7  C   UNL     1     139.973 142.128 116.866  1.00  0.00     0.041 C 
ATOM      8  O   UNL     1     139.582 143.078 116.136  1.00  0.00    -0.550 OA
ATOM      9  O   UNL     1     140.724 142.398 118.002  1.00  0.00    -0.550 OA
ENDBRANCH   6   7
ENDBRANCH   5   6
ENDBRANCH   4   5
ENDBRANCH   3   4
ENDBRANCH   2   3
ENDBRANCH   1   2
BRANCH   1  10
ATOM     10  C   UNL     1     141.528 140.264 111.219  1.00  0.00     0.000 C 
BRANCH  10  11
ATOM     11  C   UNL     1     141.806 141.747 111.525  1.00  0.00    -0.000 C 
BRANCH  11  12
ATOM     12  C   UNL     1     141.340 142.158 112.932  1.00  0.00    -0.000 C 
BRANCH  12  13
ATOM     13  C   UNL     1     142.436 142.886 113.728  1.00  0.00    -0.000 C 
BRANCH  13  14
ATOM     14  C   UNL     1     142.914 142.079 114.946  1.00  0.00    -0.000 C 
BRANCH  14  15
ATOM     15  C   UNL     1     143.302 140.638 114.586  1.00  0.00    -0.003 C 
ATOM     16  C   UNL     1     144.619 140.600 113.815  1.00  0.00     0.004 C 
ENDBRANCH  14  15
ENDBRANCH  13  14
ENDBRANCH  12  13
ENDBRANCH  11  12
ENDBRANCH  10  11
ENDBRANCH   1  10
TORSDOF 12
ENDMDL
MODEL 8
REMARK VINA RESULT:    -4.618      5.714      8.342
REMARK INTER + INTRA:          -9.619
REMARK INTER:                  -8.137
REMARK INTRA:                  -1.482
REMARK UNBOUND:                -1.761
REMARK SMILES CCCCCCCCCCCCCC(=O)[O-]
REMARK SMILES IDX 8 1 9 2 10 3 11 4 12 5 13 6 14 7 15 8 16 9 7 10 6 11 5 12
REMARK SMILES IDX 4 13 3 14 2 15 1 16
REMARK H PARENT
REMARK Flexibility Score: inf
ROOT
ATOM      1  C   UNL     1     140.310 141.929 116.146  1.00  0.00     0.000 C 
ENDROOT
BRANCH   1   2
ATOM      2  C   UNL     1     139.600 140.572 116.003  1.00  0.00     0.000 C 
BRANCH   2   3
ATOM      3  C   UNL     1     139.257 140.230 114.542  1.00  0.00     0.000 C 
BRANCH   3   4
ATOM      4  C   UNL     1     139.556 138.777 114.119  1.00  0.00     0.000 C 
BRANCH   4   5
ATOM      5  C   UNL     1     138.326 137.952 113.690  1.00  0.00     0.006 C 
BRANCH   5   6
ATOM      6  C   UNL     1     137.685 137.133 114.821  1.00  0.00     0.053 C 
BRANCH   6   7
ATOM      7  C   UNL     1     136.925 135.953 114.297  1.00  0.00     0.041 C 
ATOM      8  O   UNL     1     136.303 136.036 113.204  1.00  0.00    -0.550 OA
ATOM      9  O   UNL     1     136.930 134.754 114.996  1.00  0.00    -0.550 OA
ENDBRANCH   6   7
ENDBRANCH   5   6
ENDBRANCH   4   5
ENDBRANCH   3   4
ENDBRANCH   2   3
ENDBRANCH   1   2
BRANCH   1  10
ATOM     10  C   UNL     1     140.161 142.808 114.894  1.00  0.00     0.000 C 
BRANCH  10  11
ATOM     11  C   UNL     1     141.511 143.334 114.374  1.00  0.00    -0.000 C 
BRANCH  11  12
ATOM     12  C   UNL     1     142.711 142.693 115.089  1.00  0.00    -0.000 C 
BRANCH  12  13
ATOM     13  C   UNL     1     143.579 141.847 114.142  1.00  0.00    -0.000 C 
BRANCH  13  14
ATOM     14  C   UNL     1     143.153 140.371 114.110  1.00  0.00    -0.000 C 
BRANCH  14  15
ATOM     15  C   UNL     1     142.755 139.901 112.702  1.00  0.00    -0.003 C 
ATOM     16  C   UNL     1     142.634 141.081 111.743  1.00  0.00     0.004 C 
ENDBRANCH  14  15
ENDBRANCH  13  14
ENDBRANCH  12  13
ENDBRANCH  11  12
ENDBRANCH  10  11
ENDBRANCH   1  10
TORSDOF 12
ENDMDL
MODEL 9
REMARK VINA RESULT:    -4.602      6.344      8.181
REMARK INTER + INTRA:          -9.591
REMARK INTER:                  -8.004
REMARK INTRA:                  -1.587
REMARK UNBOUND:                -1.761
REMARK SMILES CCCCCCCCCCCCCC(=O)[O-]
REMARK SMILES IDX 8 1 9 2 10 3 11 4 12 5 13 6 14 7 15 8 16 9 7 10 6 11 5 12
REMARK SMILES IDX 4 13 3 14 2 15 1 16
REMARK H PARENT
REMARK Flexibility Score: inf
ROOT
ATOM      1  C   UNL     1     143.229 141.895 114.391  1.00  0.00     0.000 C 
ENDROOT
BRANCH   1   2
ATOM      2  C   UNL     1     142.510 143.213 114.723  1.00  0.00     0.000 C 
BRANCH   2   3
ATOM      3  C   UNL     1     141.041 143.224 114.261  1.00  0.00     0.000 C 
BRANCH   3   4
ATOM      4  C   UNL     1     139.997 143.312 115.392  1.00  0.00     0.000 C 
BRANCH   4   5
ATOM      5  C   UNL     1     139.845 142.037 116.246  1.00  0.00     0.006 C 
BRANCH   5   6
ATOM      6  C   UNL     1     140.593 142.079 117.587  1.00  0.00     0.053 C 
BRANCH   6   7
ATOM      7  C   UNL     1     141.348 140.811 117.848  1.00  0.00     0.041 C 
ATOM      8  O   UNL     1     141.626 140.033 116.896  1.00  0.00    -0.550 OA
ATOM      9  O   UNL     1     141.774 140.505 119.133  1.00  0.00    -0.550 OA
ENDBRANCH   6   7
ENDBRANCH   5   6
ENDBRANCH   4   5
ENDBRANCH   3   4
ENDBRANCH   2   3
ENDBRANCH   1   2
BRANCH   1  10
ATOM     10  C   UNL     1     142.817 141.326 113.024  1.00  0.00     0.000 C 
BRANCH  10  11
ATOM     11  C   UNL     1     142.932 139.792 112.961  1.00  0.00    -0.000 C 
BRANCH  11  12
ATOM     12  C   UNL     1     141.662 139.125 112.409  1.00  0.00    -0.000 C 
BRANCH  12  13
ATOM     13  C   UNL     1     140.487 140.109 112.279  1.00  0.00    -0.000 C 
BRANCH  13  14
ATOM     14  C   UNL     1     139.492 139.998 113.446  1.00  0.00    -0.000 C 
BRANCH  14  15
ATOM     15  C   UNL     1     139.649 138.690 114.234  1.00  0.00    -0.003 C 
ATOM     16  C   UNL     1     138.356 137.879 114.216  1.00  0.00     0.004 C 
ENDBRANCH  14  15
ENDBRANCH  13  14
ENDBRANCH  12  13
ENDBRANCH  11  12
ENDBRANCH  10  11
ENDBRANCH   1  10
TORSDOF 12
ENDMDL
