MODEL 1
REMARK VINA RESULT:    -4.268      0.000      0.000
REMARK INTER + INTRA:          -8.947
REMARK INTER:                  -7.761
REMARK INTRA:                  -1.186
REMARK UNBOUND:                -1.186
REMARK SMILES CCCCCCCCCCCCCCCC(=O)[O-]
REMARK SMILES IDX 9 1 10 2 11 3 12 4 13 5 14 6 15 7 16 8 17 9 18 10 8 11 7 12
REMARK SMILES IDX 6 13 5 14 4 15 3 16 2 17 1 18
REMARK H PARENT
REMARK Flexibility Score: inf
ROOT
ATOM      1  C   UNL     1      -2.118  13.876 -16.393  1.00  0.00     0.000 C 
ENDROOT
BRANCH   1   2
ATOM      2  C   UNL     1      -2.385  13.804 -17.908  1.00  0.00     0.000 C 
BRANCH   2   3
ATOM      3  C   UNL     1      -1.314  14.466 -18.793  1.00  0.00     0.000 C 
BRANCH   3   4
ATOM      4  C   UNL     1      -0.425  15.455 -18.019  1.00  0.00     0.000 C 
BRANCH   4   5
ATOM      5  C   UNL     1       0.695  16.047 -18.888  1.00  0.00     0.000 C 
BRANCH   5   6
ATOM      6  C   UNL     1       0.630  17.582 -18.970  1.00  0.00     0.006 C 
BRANCH   6   7
ATOM      7  C   UNL     1      -0.808  18.107 -18.886  1.00  0.00     0.053 C 
BRANCH   7   8
ATOM      8  C   UNL     1      -0.904  19.330 -18.028  1.00  0.00     0.041 C 
ATOM      9  O   UNL     1      -2.027  19.738 -17.630  1.00  0.00    -0.550 OA
ATOM     10  O   UNL     1       0.248  20.001 -17.640  1.00  0.00    -0.550 OA
ENDBRANCH   7   8
ENDBRANCH   6   7
ENDBRANCH   5   6
ENDBRANCH   4   5
ENDBRANCH   3   4
ENDBRANCH   2   3
ENDBRANCH   1   2
BRANCH   1  11
ATOM     11  C   UNL     1      -3.281  13.321 -15.553  1.00  0.00     0.000 C 
BRANCH  11  12
ATOM     12  C   UNL     1      -2.916  12.021 -14.813  1.00  0.00    -0.000 C 
BRANCH  12  13
ATOM     13  C   UNL     1      -3.588  10.741 -15.354  1.00  0.00    -0.000 C 
BRANCH  13  14
ATOM     14  C   UNL     1      -4.072  10.815 -16.813  1.00  0.00    -0.000 C 
BRANCH  14  15
ATOM     15  C   UNL     1      -3.024  10.305 -17.816  1.00  0.00    -0.000 C 
BRANCH  15  16
ATOM     16  C   UNL     1      -3.495  10.409 -19.278  1.00  0.00    -0.000 C 
BRANCH  16  17
ATOM     17  C   UNL     1      -4.589  11.460 -19.537  1.00  0.00    -0.003 C 
ATOM     18  C   UNL     1      -5.595  11.028 -20.604  1.00  0.00     0.004 C 
ENDBRANCH  16  17
ENDBRANCH  15  16
ENDBRANCH  14  15
ENDBRANCH  13  14
ENDBRANCH  12  13
ENDBRANCH  11  12
ENDBRANCH   1  11
TORSDOF 14
ENDMDL
MODEL 2
REMARK VINA RESULT:    -4.153      0.834      1.813
REMARK INTER + INTRA:          -8.738
REMARK INTER:                  -7.629
REMARK INTRA:                  -1.109
REMARK UNBOUND:                -1.186
REMARK SMILES CCCCCCCCCCCCCCCC(=O)[O-]
REMARK SMILES IDX 9 1 10 2 11 3 12 4 13 5 14 6 15 7 16 8 17 9 18 10 8 11 7 12
REMARK SMILES IDX 6 13 5 14 4 15 3 16 2 17 1 18
REMARK H PARENT
REMARK Flexibility Score: inf
ROOT
ATOM      1  C   UNL     1      -3.317  13.382 -16.257  1.00  0.00     0.000 C 
ENDROOT
BRANCH   1   2
ATOM      2  C   UNL     1      -1.965  14.053 -16.566  1.00  0.00     0.000 C 
BRANCH   2   3
ATOM      3  C   UNL     1      -1.677  14.284 -18.060  1.00  0.00     0.000 C 
BRANCH   3   4
ATOM      4  C   UNL     1      -0.538  15.291 -18.302  1.00  0.00     0.000 C 
BRANCH   4   5
ATOM      5  C   UNL     1      -1.039  16.741 -18.376  1.00  0.00     0.000 C 
BRANCH   5   6
ATOM      6  C   UNL     1      -0.026  17.681 -19.053  1.00  0.00     0.006 C 
BRANCH   6   7
ATOM      7  C   UNL     1      -0.535  19.126 -19.124  1.00  0.00     0.053 C 
BRANCH   7   8
ATOM      8  C   UNL     1      -1.006  19.616 -17.789  1.00  0.00     0.041 C 
ATOM      9  O   UNL     1      -0.179  19.824 -16.863  1.00  0.00    -0.550 OA
ATOM     10  O   UNL     1      -2.353  19.875 -17.578  1.00  0.00    -0.550 OA
ENDBRANCH   7   8
ENDBRANCH   6   7
ENDBRANCH   5   6
ENDBRANCH   4   5
ENDBRANCH   3   4
ENDBRANCH   2   3
ENDBRANCH   1   2
BRANCH   1  11
ATOM     11  C   UNL     1      -3.163  11.961 -15.687  1.00  0.00     0.000 C 
BRANCH  11  12
ATOM     12  C   UNL     1      -3.773  10.882 -16.599  1.00  0.00    -0.000 C 
BRANCH  12  13
ATOM     13  C   UNL     1      -2.829  10.319 -17.681  1.00  0.00    -0.000 C 
BRANCH  13  14
ATOM     14  C   UNL     1      -3.368  10.372 -19.122  1.00  0.00    -0.000 C 
BRANCH  14  15
ATOM     15  C   UNL     1      -3.897  11.763 -19.511  1.00  0.00    -0.000 C 
BRANCH  15  16
ATOM     16  C   UNL     1      -5.409  11.768 -19.798  1.00  0.00    -0.000 C 
BRANCH  16  17
ATOM     17  C   UNL     1      -5.883  10.721 -20.823  1.00  0.00    -0.003 C 
ATOM     18  C   UNL     1      -7.403  10.568 -20.865  1.00  0.00     0.004 C 
ENDBRANCH  16  17
ENDBRANCH  15  16
ENDBRANCH  14  15
ENDBRANCH  13  14
ENDBRANCH  12  13
ENDBRANCH  11  12
ENDBRANCH   1  11
TORSDOF 14
ENDMDL
MODEL 3
REMARK VINA RESULT:    -4.114      1.273      3.060
REMARK INTER + INTRA:          -8.668
REMARK INTER:                  -7.225
REMARK INTRA:                  -1.442
REMARK UNBOUND:                -1.186
REMARK SMILES CCCCCCCCCCCCCCCC(=O)[O-]
REMARK SMILES IDX 9 1 10 2 11 3 12 4 13 5 14 6 15 7 16 8 17 9 18 10 8 11 7 12
REMARK SMILES IDX 6 13 5 14 4 15 3 16 2 17 1 18
REMARK H PARENT
REMARK Flexibility Score: inf
ROOT
ATOM      1  C   UNL     1      -1.207  14.633 -17.839  1.00  0.00     0.000 C 
ENDROOT
BRANCH   1   2
ATOM      2  C   UNL     1      -0.489  15.870 -18.409  1.00  0.00     0.000 C 
BRANCH   2   3
ATOM      3  C   UNL     1       1.010  15.679 -18.700  1.00  0.00     0.000 C 
BRANCH   3   4
ATOM      4  C   UNL     1       1.739  17.003 -18.988  1.00  0.00     0.000 C 
BRANCH   4   5
ATOM      5  C   UNL     1       1.083  17.802 -20.124  1.00  0.00     0.000 C 
BRANCH   5   6
ATOM      6  C   UNL     1       0.744  19.245 -19.712  1.00  0.00     0.006 C 
BRANCH   6   7
ATOM      7  C   UNL     1       0.724  19.423 -18.189  1.00  0.00     0.053 C 
BRANCH   7   8
ATOM      8  C   UNL     1      -0.671  19.564 -17.664  1.00  0.00     0.041 C 
ATOM      9  O   UNL     1      -1.653  19.239 -18.381  1.00  0.00    -0.550 OA
ATOM     10  O   UNL     1      -0.886  20.023 -16.371  1.00  0.00    -0.550 OA
ENDBRANCH   7   8
ENDBRANCH   6   7
ENDBRANCH   5   6
ENDBRANCH   4   5
ENDBRANCH   3   4
ENDBRANCH   2   3
ENDBRANCH   1   2
BRANCH   1  11
ATOM     11  C   UNL     1      -2.329  14.116 -18.757  1.00  0.00     0.000 C 
BRANCH  11  12
ATOM     12  C   UNL     1      -2.176  12.624 -19.103  1.00  0.00    -0.000 C 
BRANCH  12  13
ATOM     13  C   UNL     1      -3.497  11.842 -19.257  1.00  0.00    -0.000 C 
BRANCH  13  14
ATOM     14  C   UNL     1      -3.602  10.551 -18.425  1.00  0.00    -0.000 C 
BRANCH  14  15
ATOM     15  C   UNL     1      -3.259  10.767 -16.942  1.00  0.00    -0.000 C 
BRANCH  15  16
ATOM     16  C   UNL     1      -4.407  11.419 -16.151  1.00  0.00    -0.000 C 
BRANCH  16  17
ATOM     17  C   UNL     1      -4.119  12.840 -15.634  1.00  0.00    -0.003 C 
ATOM     18  C   UNL     1      -2.830  12.932 -14.817  1.00  0.00     0.004 C 
ENDBRANCH  16  17
ENDBRANCH  15  16
ENDBRANCH  14  15
ENDBRANCH  13  14
ENDBRANCH  12  13
ENDBRANCH  11  12
ENDBRANCH   1  11
TORSDOF 14
ENDMDL
MODEL 4
REMARK VINA RESULT:    -4.114      0.775      1.686
REMARK INTER + INTRA:          -8.667
REMARK INTER:                  -7.307
REMARK INTRA:                  -1.359
REMARK UNBOUND:                -1.186
REMARK SMILES CCCCCCCCCCCCCCCC(=O)[O-]
REMARK SMILES IDX 9 1 10 2 11 3 12 4 13 5 14 6 15 7 16 8 17 9 18 10 8 11 7 12
REMARK SMILES IDX 6 13 5 14 4 15 3 16 2 17 1 18
REMARK H PARENT
REMARK Flexibility Score: inf
ROOT
ATOM      1  C   UNL     1      -2.076  13.753 -18.065  1.00  0.00     0.000 C 
ENDROOT
BRANCH   1   2
ATOM      2  C   UNL     1      -1.455  14.950 -18.808  1.00  0.00     0.000 C 
BRANCH   2   3
ATOM      3  C   UNL     1      -0.266  15.617 -18.095  1.00  0.00     0.000 C 
BRANCH   3   4
ATOM      4  C   UNL     1       1.030  15.576 -18.925  1.00  0.00     0.000 C 
BRANCH   4   5
ATOM      5  C   UNL     1       1.680  16.960 -19.070  1.00  0.00     0.000 C 
BRANCH   5   6
ATOM      6  C   UNL     1       1.019  17.812 -20.167  1.00  0.00     0.006 C 
BRANCH   6   7
ATOM      7  C   UNL     1       0.807  19.265 -19.724  1.00  0.00     0.053 C 
BRANCH   7   8
ATOM      8  C   UNL     1      -0.044  19.352 -18.495  1.00  0.00     0.041 C 
ATOM      9  O   UNL     1       0.418  19.862 -17.440  1.00  0.00    -0.550 OA
ATOM     10  O   UNL     1      -1.358  18.903 -18.523  1.00  0.00    -0.550 OA
ENDBRANCH   7   8
ENDBRANCH   6   7
ENDBRANCH   5   6
ENDBRANCH   4   5
ENDBRANCH   3   4
ENDBRANCH   2   3
ENDBRANCH   1   2
BRANCH   1  11
ATOM     11  C   UNL     1      -2.176  13.978 -16.546  1.00  0.00     0.000 C 
BRANCH  11  12
ATOM     12  C   UNL     1      -3.466  13.396 -15.940  1.00  0.00    -0.000 C 
BRANCH  12  13
ATOM     13  C   UNL     1      -3.263  12.252 -14.924  1.00  0.00    -0.000 C 
BRANCH  13  14
ATOM     14  C   UNL     1      -3.555  10.838 -15.455  1.00  0.00    -0.000 C 
BRANCH  14  15
ATOM     15  C   UNL     1      -4.071  10.838 -16.904  1.00  0.00    -0.000 C 
BRANCH  15  16
ATOM     16  C   UNL     1      -3.054  10.253 -17.901  1.00  0.00    -0.000 C 
BRANCH  16  17
ATOM     17  C   UNL     1      -3.419  10.431 -19.386  1.00  0.00    -0.003 C 
ATOM     18  C   UNL     1      -4.538  11.447 -19.611  1.00  0.00     0.004 C 
ENDBRANCH  16  17
ENDBRANCH  15  16
ENDBRANCH  14  15
ENDBRANCH  13  14
ENDBRANCH  12  13
ENDBRANCH  11  12
ENDBRANCH   1  11
TORSDOF 14
ENDMDL
MODEL 5
REMARK VINA RESULT:    -4.106      3.385      7.726
REMARK INTER + INTRA:          -8.653
REMARK INTER:                  -7.548
REMARK INTRA:                  -1.105
REMARK UNBOUND:                -1.186
REMARK SMILES CCCCCCCCCCCCCCCC(=O)[O-]
REMARK SMILES IDX 9 1 10 2 11 3 12 4 13 5 14 6 15 7 16 8 17 9 18 10 8 11 7 12
REMARK SMILES IDX 6 13 5 14 4 15 3 16 2 17 1 18
REMARK H PARENT
REMARK Flexibility Score: inf
ROOT
ATOM      1  C   UNL     1      -1.636  14.511 -17.969  1.00  0.00     0.000 C 
ENDROOT
BRANCH   1   2
ATOM      2  C   UNL     1      -1.786  13.521 -19.139  1.00  0.00     0.000 C 
BRANCH   2   3
ATOM      3  C   UNL     1      -3.024  12.609 -19.069  1.00  0.00     0.000 C 
BRANCH   3   4
ATOM      4  C   UNL     1      -2.695  11.189 -18.577  1.00  0.00     0.000 C 
BRANCH   4   5
ATOM      5  C   UNL     1      -3.415  10.837 -17.266  1.00  0.00     0.000 C 
BRANCH   5   6
ATOM      6  C   UNL     1      -4.455  11.897 -16.862  1.00  0.00     0.006 C 
BRANCH   6   7
ATOM      7  C   UNL     1      -4.184  12.471 -15.466  1.00  0.00     0.053 C 
BRANCH   7   8
ATOM      8  C   UNL     1      -3.471  11.488 -14.589  1.00  0.00     0.041 C 
ATOM      9  O   UNL     1      -2.289  11.711 -14.218  1.00  0.00    -0.550 OA
ATOM     10  O   UNL     1      -4.124  10.342 -14.153  1.00  0.00    -0.550 OA
ENDBRANCH   7   8
ENDBRANCH   6   7
ENDBRANCH   5   6
ENDBRANCH   4   5
ENDBRANCH   3   4
ENDBRANCH   2   3
ENDBRANCH   1   2
BRANCH   1  11
ATOM     11  C   UNL     1      -0.826  15.764 -18.344  1.00  0.00     0.000 C 
BRANCH  11  12
ATOM     12  C   UNL     1       0.642  15.447 -18.683  1.00  0.00    -0.000 C 
BRANCH  12  13
ATOM     13  C   UNL     1       1.560  16.674 -18.857  1.00  0.00    -0.000 C 
BRANCH  13  14
ATOM     14  C   UNL     1       1.768  17.143 -20.308  1.00  0.00    -0.000 C 
BRANCH  14  15
ATOM     15  C   UNL     1       1.416  18.627 -20.512  1.00  0.00    -0.000 C 
BRANCH  15  16
ATOM     16  C   UNL     1       0.898  19.301 -19.229  1.00  0.00    -0.000 C 
BRANCH  16  17
ATOM     17  C   UNL     1      -0.565  19.776 -19.286  1.00  0.00    -0.003 C 
ATOM     18  C   UNL     1      -1.361  19.418 -18.032  1.00  0.00     0.004 C 
ENDBRANCH  16  17
ENDBRANCH  15  16
ENDBRANCH  14  15
ENDBRANCH  13  14
ENDBRANCH  12  13
ENDBRANCH  11  12
ENDBRANCH   1  11
TORSDOF 14
ENDMDL
MODEL 6
REMARK VINA RESULT:    -3.861      1.549      2.261
REMARK INTER + INTRA:          -8.206
REMARK INTER:                  -7.216
REMARK INTRA:                  -0.990
REMARK UNBOUND:                -1.186
REMARK SMILES CCCCCCCCCCCCCCCC(=O)[O-]
REMARK SMILES IDX 9 1 10 2 11 3 12 4 13 5 14 6 15 7 16 8 17 9 18 10 8 11 7 12
REMARK SMILES IDX 6 13 5 14 4 15 3 16 2 17 1 18
REMARK H PARENT
REMARK Flexibility Score: inf
ROOT
ATOM      1  C   UNL     1      -2.223  12.628 -14.837  1.00  0.00     0.000 C 
ENDROOT
BRANCH   1   2
ATOM      2  C   UNL     1      -1.982  13.802 -15.804  1.00  0.00     0.000 C 
BRANCH   2   3
ATOM      3  C   UNL     1      -2.726  13.705 -17.148  1.00  0.00     0.000 C 
BRANCH   3   4
ATOM      4  C   UNL     1      -1.847  14.099 -18.349  1.00  0.00     0.000 C 
BRANCH   4   5
ATOM      5  C   UNL     1      -0.794  15.156 -17.987  1.00  0.00     0.000 C 
BRANCH   5   6
ATOM      6  C   UNL     1       0.380  15.184 -18.982  1.00  0.00     0.006 C 
BRANCH   6   7
ATOM      7  C   UNL     1       1.545  16.045 -18.478  1.00  0.00     0.053 C 
BRANCH   7   8
ATOM      8  C   UNL     1       1.388  17.480 -18.873  1.00  0.00     0.041 C 
ATOM      9  O   UNL     1       2.075  18.371 -18.309  1.00  0.00    -0.550 OA
ATOM     10  O   UNL     1       0.506  17.832 -19.887  1.00  0.00    -0.550 OA
ENDBRANCH   7   8
ENDBRANCH   6   7
ENDBRANCH   5   6
ENDBRANCH   4   5
ENDBRANCH   3   4
ENDBRANCH   2   3
ENDBRANCH   1   2
BRANCH   1  11
ATOM     11  C   UNL     1      -3.712  12.272 -14.686  1.00  0.00     0.000 C 
BRANCH  11  12
ATOM     12  C   UNL     1      -4.062  10.899 -15.288  1.00  0.00    -0.000 C 
BRANCH  12  13
ATOM     13  C   UNL     1      -4.211  10.867 -16.823  1.00  0.00    -0.000 C 
BRANCH  13  14
ATOM     14  C   UNL     1      -3.034  10.238 -17.588  1.00  0.00    -0.000 C 
BRANCH  14  15
ATOM     15  C   UNL     1      -3.187  10.347 -19.115  1.00  0.00    -0.000 C 
BRANCH  15  16
ATOM     16  C   UNL     1      -4.440  11.135 -19.535  1.00  0.00    -0.000 C 
BRANCH  16  17
ATOM     17  C   UNL     1      -5.030  10.742 -20.902  1.00  0.00    -0.003 C 
ATOM     18  C   UNL     1      -6.556  10.824 -20.942  1.00  0.00     0.004 C 
ENDBRANCH  16  17
ENDBRANCH  15  16
ENDBRANCH  14  15
ENDBRANCH  13  14
ENDBRANCH  12  13
ENDBRANCH  11  12
ENDBRANCH   1  11
TORSDOF 14
ENDMDL
MODEL 7
REMARK VINA RESULT:    -3.819      3.236      7.800
REMARK INTER + INTRA:          -8.131
REMARK INTER:                  -7.251
REMARK INTRA:                  -0.881
REMARK UNBOUND:                -1.186
REMARK SMILES CCCCCCCCCCCCCCCC(=O)[O-]
REMARK SMILES IDX 9 1 10 2 11 3 12 4 13 5 14 6 15 7 16 8 17 9 18 10 8 11 7 12
REMARK SMILES IDX 6 13 5 14 4 15 3 16 2 17 1 18
REMARK H PARENT
REMARK Flexibility Score: inf
ROOT
ATOM      1  C   UNL     1      -1.656  14.360 -18.133  1.00  0.00     0.000 C 
ENDROOT
BRANCH   1   2
ATOM      2  C   UNL     1      -2.081  13.958 -16.708  1.00  0.00     0.000 C 
BRANCH   2   3
ATOM      3  C   UNL     1      -3.452  13.267 -16.605  1.00  0.00     0.000 C 
BRANCH   3   4
ATOM      4  C   UNL     1      -3.376  11.878 -15.947  1.00  0.00     0.000 C 
BRANCH   4   5
ATOM      5  C   UNL     1      -3.594  10.737 -16.951  1.00  0.00     0.000 C 
BRANCH   5   6
ATOM      6  C   UNL     1      -2.936  11.016 -18.314  1.00  0.00     0.006 C 
BRANCH   6   7
ATOM      7  C   UNL     1      -3.661  10.304 -19.463  1.00  0.00     0.053 C 
BRANCH   7   8
ATOM      8  C   UNL     1      -4.709  11.175 -20.084  1.00  0.00     0.041 C 
ATOM      9  O   UNL     1      -4.928  12.327 -19.626  1.00  0.00    -0.550 OA
ATOM     10  O   UNL     1      -5.420  10.729 -21.190  1.00  0.00    -0.550 OA
ENDBRANCH   7   8
ENDBRANCH   6   7
ENDBRANCH   5   6
ENDBRANCH   4   5
ENDBRANCH   3   4
ENDBRANCH   2   3
ENDBRANCH   1   2
BRANCH   1  11
ATOM     11  C   UNL     1      -0.777  15.622 -18.162  1.00  0.00     0.000 C 
BRANCH  11  12
ATOM     12  C   UNL     1       0.622  15.363 -18.750  1.00  0.00    -0.000 C 
BRANCH  12  13
ATOM     13  C   UNL     1       1.509  16.613 -18.921  1.00  0.00    -0.000 C 
BRANCH  13  14
ATOM     14  C   UNL     1       1.036  17.619 -19.986  1.00  0.00    -0.000 C 
BRANCH  14  15
ATOM     15  C   UNL     1       1.364  19.076 -19.618  1.00  0.00    -0.000 C 
BRANCH  15  16
ATOM     16  C   UNL     1       0.106  19.947 -19.450  1.00  0.00    -0.000 C 
BRANCH  16  17
ATOM     17  C   UNL     1      -1.094  19.241 -18.794  1.00  0.00    -0.003 C 
ATOM     18  C   UNL     1      -1.436  19.798 -17.413  1.00  0.00     0.004 C 
ENDBRANCH  16  17
ENDBRANCH  15  16
ENDBRANCH  14  15
ENDBRANCH  13  14
ENDBRANCH  12  13
ENDBRANCH  11  12
ENDBRANCH   1  11
TORSDOF 14
ENDMDL
MODEL 8
REMARK VINA RESULT:    -3.713      4.852      6.841
REMARK INTER + INTRA:          -7.939
REMARK INTER:                  -7.022
REMARK INTRA:                  -0.917
REMARK UNBOUND:                -1.186
REMARK SMILES CCCCCCCCCCCCCCCC(=O)[O-]
REMARK SMILES IDX 9 1 10 2 11 3 12 4 13 5 14 6 15 7 16 8 17 9 18 10 8 11 7 12
REMARK SMILES IDX 6 13 5 14 4 15 3 16 2 17 1 18
REMARK H PARENT
REMARK Flexibility Score: inf
ROOT
ATOM      1  C   UNL     1      -1.965  13.795 -18.167  1.00  0.00     0.000 C 
ENDROOT
BRANCH   1   2
ATOM      2  C   UNL     1      -2.856  13.906 -16.915  1.00  0.00     0.000 C 
BRANCH   2   3
ATOM      3  C   UNL     1      -2.124  13.721 -15.574  1.00  0.00     0.000 C 
BRANCH   3   4
ATOM      4  C   UNL     1      -2.924  12.874 -14.568  1.00  0.00     0.000 C 
BRANCH   4   5
ATOM      5  C   UNL     1      -4.190  12.263 -15.186  1.00  0.00     0.000 C 
BRANCH   5   6
ATOM      6  C   UNL     1      -4.176  10.724 -15.157  1.00  0.00     0.006 C 
BRANCH   6   7
ATOM      7  C   UNL     1      -3.491  10.174 -13.900  1.00  0.00     0.053 C 
BRANCH   7   8
ATOM      8  C   UNL     1      -4.180   8.950 -13.382  1.00  0.00     0.041 C 
ATOM      9  O   UNL     1      -5.432   8.937 -13.248  1.00  0.00    -0.550 OA
ATOM     10  O   UNL     1      -3.445   7.811 -13.079  1.00  0.00    -0.550 OA
ENDBRANCH   7   8
ENDBRANCH   6   7
ENDBRANCH   5   6
ENDBRANCH   4   5
ENDBRANCH   3   4
ENDBRANCH   2   3
ENDBRANCH   1   2
BRANCH   1  11
ATOM     11  C   UNL     1      -2.375  12.637 -19.092  1.00  0.00     0.000 C 
BRANCH  11  12
ATOM     12  C   UNL     1      -2.840  11.389 -18.318  1.00  0.00    -0.000 C 
BRANCH  12  13
ATOM     13  C   UNL     1      -3.321  10.211 -19.190  1.00  0.00    -0.000 C 
BRANCH  13  14
ATOM     14  C   UNL     1      -4.183  10.596 -20.405  1.00  0.00    -0.000 C 
BRANCH  14  15
ATOM     15  C   UNL     1      -5.264  11.636 -20.065  1.00  0.00    -0.000 C 
BRANCH  15  16
ATOM     16  C   UNL     1      -6.670  11.022 -19.952  1.00  0.00    -0.000 C 
BRANCH  16  17
ATOM     17  C   UNL     1      -7.319  10.624 -21.290  1.00  0.00    -0.003 C 
ATOM     18  C   UNL     1      -8.640   9.876 -21.117  1.00  0.00     0.004 C 
ENDBRANCH  16  17
ENDBRANCH  15  16
ENDBRANCH  14  15
ENDBRANCH  13  14
ENDBRANCH  12  13
ENDBRANCH  11  12
ENDBRANCH   1  11
TORSDOF 14
ENDMDL
MODEL 9
REMARK VINA RESULT:    -3.317      1.691      3.379
REMARK INTER + INTRA:          -7.217
REMARK INTER:                  -6.189
REMARK INTRA:                  -1.029
REMARK UNBOUND:                -1.186
REMARK SMILES CCCCCCCCCCCCCCCC(=O)[O-]
REMARK SMILES IDX 9 1 10 2 11 3 12 4 13 5 14 6 15 7 16 8 17 9 18 10 8 11 7 12
REMARK SMILES IDX 6 13 5 14 4 15 3 16 2 17 1 18
REMARK H PARENT
REMARK Flexibility Score: inf
ROOT
ATOM      1  C   UNL     1      -2.788  13.089 -19.157  1.00  0.00     0.000 C 
ENDROOT
BRANCH   1   2
ATOM      2  C   UNL     1      -1.434  13.816 -19.075  1.00  0.00     0.000 C 
BRANCH   2   3
ATOM      3  C   UNL     1      -1.329  14.881 -17.969  1.00  0.00     0.000 C 
BRANCH   3   4
ATOM      4  C   UNL     1      -0.500  16.106 -18.394  1.00  0.00     0.000 C 
BRANCH   4   5
ATOM      5  C   UNL     1       0.961  15.749 -18.707  1.00  0.00     0.000 C 
BRANCH   5   6
ATOM      6  C   UNL     1       1.669  16.835 -19.537  1.00  0.00     0.006 C 
BRANCH   6   7
ATOM      7  C   UNL     1       1.456  18.238 -18.956  1.00  0.00     0.053 C 
BRANCH   7   8
ATOM      8  C   UNL     1       0.810  19.157 -19.947  1.00  0.00     0.041 C 
ATOM      9  O   UNL     1      -0.315  19.665 -19.699  1.00  0.00    -0.550 OA
ATOM     10  O   UNL     1       1.465  19.481 -21.128  1.00  0.00    -0.550 OA
ENDBRANCH   7   8
ENDBRANCH   6   7
ENDBRANCH   5   6
ENDBRANCH   4   5
ENDBRANCH   3   4
ENDBRANCH   2   3
ENDBRANCH   1   2
BRANCH   1  11
ATOM     11  C   UNL     1      -2.670  11.574 -18.914  1.00  0.00     0.000 C 
BRANCH  11  12
ATOM     12  C   UNL     1      -3.750  11.037 -17.957  1.00  0.00    -0.000 C 
BRANCH  12  13
ATOM     13  C   UNL     1      -4.858  12.041 -17.578  1.00  0.00    -0.000 C 
BRANCH  13  14
ATOM     14  C   UNL     1      -4.939  12.404 -16.085  1.00  0.00    -0.000 C 
BRANCH  14  15
ATOM     15  C   UNL     1      -3.572  12.770 -15.484  1.00  0.00    -0.000 C 
BRANCH  15  16
ATOM     16  C   UNL     1      -3.066  11.727 -14.470  1.00  0.00    -0.000 C 
BRANCH  16  17
ATOM     17  C   UNL     1      -3.669  10.319 -14.627  1.00  0.00    -0.003 C 
ATOM     18  C   UNL     1      -4.216   9.753 -13.317  1.00  0.00     0.004 C 
ENDBRANCH  16  17
ENDBRANCH  15  16
ENDBRANCH  14  15
ENDBRANCH  13  14
ENDBRANCH  12  13
ENDBRANCH  11  12
ENDBRANCH   1  11
TORSDOF 14
ENDMDL
