MODEL 1
REMARK VINA RESULT:    -3.111      0.000      0.000
REMARK INTER + INTRA:         -13.160
REMARK INTER:                  -7.840
REMARK INTRA:                  -5.319
REMARK UNBOUND:                -5.319
REMARK SMILES CCCCCCCCCCCCCCCCCCCCCCCCCCCC(=O)[O-]
REMARK SMILES IDX 15 1 16 2 17 3 18 4 19 5 20 6 21 7 22 8 23 9 24 10 25 11
REMARK SMILES IDX 26 12 27 13 28 14 29 15 30 16 14 17 13 18 12 19 11 20 10 21
REMARK SMILES IDX 9 22 8 23 7 24 6 25 5 26 4 27 3 28 2 29 1 30
REMARK H PARENT
REMARK Flexibility Score: inf
ROOT
ATOM      1  C   UNL     1      -3.679 -10.732  64.380  1.00  0.00     0.000 C 
ENDROOT
BRANCH   1   2
ATOM      2  C   UNL     1      -4.728 -11.857  64.327  1.00  0.00     0.000 C 
BRANCH   2   3
ATOM      3  C   UNL     1      -4.148 -13.179  63.804  1.00  0.00     0.000 C 
BRANCH   3   4
ATOM      4  C   UNL     1      -4.844 -14.407  64.417  1.00  0.00     0.000 C 
BRANCH   4   5
ATOM      5  C   UNL     1      -6.105 -14.040  65.220  1.00  0.00     0.000 C 
BRANCH   5   6
ATOM      6  C   UNL     1      -6.237 -14.747  66.581  1.00  0.00     0.000 C 
BRANCH   6   7
ATOM      7  C   UNL     1      -4.880 -15.055  67.235  1.00  0.00     0.000 C 
BRANCH   7   8
ATOM      8  C   UNL     1      -4.450 -13.921  68.178  1.00  0.00     0.000 C 
BRANCH   8   9
ATOM      9  C   UNL     1      -3.288 -13.084  67.604  1.00  0.00     0.000 C 
BRANCH   9  10
ATOM     10  C   UNL     1      -3.420 -11.570  67.855  1.00  0.00     0.000 C 
BRANCH  10  11
ATOM     11  C   UNL     1      -4.862 -11.057  68.012  1.00  0.00     0.000 C 
BRANCH  11  12
ATOM     12  C   UNL     1      -4.936  -9.668  68.673  1.00  0.00     0.006 C 
BRANCH  12  13
ATOM     13  C   UNL     1      -3.746  -8.779  68.285  1.00  0.00     0.053 C 
BRANCH  13  14
ATOM     14  C   UNL     1      -3.070  -8.199  69.488  1.00  0.00     0.041 C 
ATOM     15  O   UNL     1      -2.599  -8.956  70.377  1.00  0.00    -0.550 OA
ATOM     16  O   UNL     1      -2.951  -6.821  69.623  1.00  0.00    -0.550 OA
ENDBRANCH  13  14
ENDBRANCH  12  13
ENDBRANCH  11  12
ENDBRANCH  10  11
ENDBRANCH   9  10
ENDBRANCH   8   9
ENDBRANCH   7   8
ENDBRANCH   6   7
ENDBRANCH   5   6
ENDBRANCH   4   5
ENDBRANCH   3   4
ENDBRANCH   2   3
ENDBRANCH   1   2
BRANCH   1  17
ATOM     17  C   UNL     1      -4.283  -9.367  64.748  1.00  0.00     0.000 C 
BRANCH  17  18
ATOM     18  C   UNL     1      -5.826  -9.354  64.731  1.00  0.00     0.000 C 
BRANCH  18  19
ATOM     19  C   UNL     1      -6.405  -8.211  65.583  1.00  0.00     0.000 C 
BRANCH  19  20
ATOM     20  C   UNL     1      -6.746  -6.968  64.747  1.00  0.00     0.000 C 
BRANCH  20  21
ATOM     21  C   UNL     1      -6.052  -5.702  65.272  1.00  0.00     0.000 C 
BRANCH  21  22
ATOM     22  C   UNL     1      -5.224  -6.008  66.526  1.00  0.00    -0.000 C 
BRANCH  22  23
ATOM     23  C   UNL     1      -3.853  -5.317  66.462  1.00  0.00    -0.000 C 
BRANCH  23  24
ATOM     24  C   UNL     1      -2.776  -6.201  65.813  1.00  0.00    -0.000 C 
BRANCH  24  25
ATOM     25  C   UNL     1      -2.516  -5.835  64.341  1.00  0.00    -0.000 C 
BRANCH  25  26
ATOM     26  C   UNL     1      -2.642  -4.324  64.069  1.00  0.00    -0.000 C 
BRANCH  26  27
ATOM     27  C   UNL     1      -3.675  -3.937  62.996  1.00  0.00    -0.000 C 
BRANCH  27  28
ATOM     28  C   UNL     1      -4.088  -5.118  62.105  1.00  0.00    -0.000 C 
BRANCH  28  29
ATOM     29  C   UNL     1      -5.454  -4.866  61.460  1.00  0.00    -0.003 C 
ATOM     30  C   UNL     1      -6.180  -3.708  62.139  1.00  0.00     0.004 C 
ENDBRANCH  28  29
ENDBRANCH  27  28
ENDBRANCH  26  27
ENDBRANCH  25  26
ENDBRANCH  24  25
ENDBRANCH  23  24
ENDBRANCH  22  23
ENDBRANCH  21  22
ENDBRANCH  20  21
ENDBRANCH  19  20
ENDBRANCH  18  19
ENDBRANCH  17  18
ENDBRANCH   1  17
TORSDOF 26
ENDMDL
MODEL 2
REMARK VINA RESULT:    -3.097      4.059      7.906
REMARK INTER + INTRA:         -13.123
REMARK INTER:                  -8.466
REMARK INTRA:                  -4.658
REMARK UNBOUND:                -5.319
REMARK SMILES CCCCCCCCCCCCCCCCCCCCCCCCCCCC(=O)[O-]
REMARK SMILES IDX 15 1 16 2 17 3 18 4 19 5 20 6 21 7 22 8 23 9 24 10 25 11
REMARK SMILES IDX 26 12 27 13 28 14 29 15 30 16 14 17 13 18 12 19 11 20 10 21
REMARK SMILES IDX 9 22 8 23 7 24 6 25 5 26 4 27 3 28 2 29 1 30
REMARK H PARENT
REMARK Flexibility Score: inf
ROOT
ATOM      1  C   UNL     1      -3.529  -4.422  62.035  1.00  0.00     0.000 C 
ENDROOT
BRANCH   1   2
ATOM      2  C   UNL     1      -4.847  -4.789  61.330  1.00  0.00     0.000 C 
BRANCH   2   3
ATOM      3  C   UNL     1      -6.073  -4.596  62.235  1.00  0.00     0.000 C 
BRANCH   3   4
ATOM      4  C   UNL     1      -6.244  -5.747  63.242  1.00  0.00     0.000 C 
BRANCH   4   5
ATOM      5  C   UNL     1      -6.486  -5.251  64.679  1.00  0.00     0.000 C 
BRANCH   5   6
ATOM      6  C   UNL     1      -5.922  -3.851  64.987  1.00  0.00     0.000 C 
BRANCH   6   7
ATOM      7  C   UNL     1      -5.027  -3.823  66.234  1.00  0.00     0.000 C 
BRANCH   7   8
ATOM      8  C   UNL     1      -3.539  -3.862  65.850  1.00  0.00     0.000 C 
BRANCH   8   9
ATOM      9  C   UNL     1      -2.893  -5.235  66.132  1.00  0.00     0.000 C 
BRANCH   9  10
ATOM     10  C   UNL     1      -2.267  -5.901  64.892  1.00  0.00     0.000 C 
BRANCH  10  11
ATOM     11  C   UNL     1      -3.026  -7.127  64.356  1.00  0.00     0.000 C 
BRANCH  11  12
ATOM     12  C   UNL     1      -3.691  -7.955  65.470  1.00  0.00     0.006 C 
BRANCH  12  13
ATOM     13  C   UNL     1      -4.777  -8.892  64.925  1.00  0.00     0.053 C 
BRANCH  13  14
ATOM     14  C   UNL     1      -4.258 -10.280  64.709  1.00  0.00     0.041 C 
ATOM     15  O   UNL     1      -3.117 -10.458  64.209  1.00  0.00    -0.550 OA
ATOM     16  O   UNL     1      -5.031 -11.376  65.070  1.00  0.00    -0.550 OA
ENDBRANCH  13  14
ENDBRANCH  12  13
ENDBRANCH  11  12
ENDBRANCH  10  11
ENDBRANCH   9  10
ENDBRANCH   8   9
ENDBRANCH   7   8
ENDBRANCH   6   7
ENDBRANCH   5   6
ENDBRANCH   4   5
ENDBRANCH   3   4
ENDBRANCH   2   3
ENDBRANCH   1   2
BRANCH   1  17
ATOM     17  C   UNL     1      -3.064  -2.989  61.726  1.00  0.00     0.000 C 
BRANCH  17  18
ATOM     18  C   UNL     1      -3.466  -1.967  62.810  1.00  0.00     0.000 C 
BRANCH  18  19
ATOM     19  C   UNL     1      -4.712  -1.157  62.409  1.00  0.00     0.000 C 
BRANCH  19  20
ATOM     20  C   UNL     1      -4.749  -0.841  60.906  1.00  0.00     0.000 C 
BRANCH  20  21
ATOM     21  C   UNL     1      -6.031  -1.353  60.231  1.00  0.00     0.000 C 
BRANCH  21  22
ATOM     22  C   UNL     1      -5.817  -1.552  58.725  1.00  0.00    -0.000 C 
BRANCH  22  23
ATOM     23  C   UNL     1      -4.586  -2.432  58.457  1.00  0.00    -0.000 C 
BRANCH  23  24
ATOM     24  C   UNL     1      -3.960  -2.168  57.078  1.00  0.00    -0.000 C 
BRANCH  24  25
ATOM     25  C   UNL     1      -2.628  -1.403  57.169  1.00  0.00    -0.000 C 
BRANCH  25  26
ATOM     26  C   UNL     1      -1.864  -1.685  58.476  1.00  0.00    -0.000 C 
BRANCH  26  27
ATOM     27  C   UNL     1      -0.355  -1.943  58.308  1.00  0.00    -0.000 C 
BRANCH  27  28
ATOM     28  C   UNL     1       0.298  -1.031  57.260  1.00  0.00    -0.000 C 
BRANCH  28  29
ATOM     29  C   UNL     1       1.338  -0.111  57.908  1.00  0.00    -0.003 C 
ATOM     30  C   UNL     1       0.688   1.152  58.466  1.00  0.00     0.004 C 
ENDBRANCH  28  29
ENDBRANCH  27  28
ENDBRANCH  26  27
ENDBRANCH  25  26
ENDBRANCH  24  25
ENDBRANCH  23  24
ENDBRANCH  22  23
ENDBRANCH  21  22
ENDBRANCH  20  21
ENDBRANCH  19  20
ENDBRANCH  18  19
ENDBRANCH  17  18
ENDBRANCH   1  17
TORSDOF 26
ENDMDL
MODEL 3
REMARK VINA RESULT:    -3.065      3.819      7.253
REMARK INTER + INTRA:         -13.042
REMARK INTER:                  -8.622
REMARK INTRA:                  -4.420
REMARK UNBOUND:                -5.319
REMARK SMILES CCCCCCCCCCCCCCCCCCCCCCCCCCCC(=O)[O-]
REMARK SMILES IDX 15 1 16 2 17 3 18 4 19 5 20 6 21 7 22 8 23 9 24 10 25 11
REMARK SMILES IDX 26 12 27 13 28 14 29 15 30 16 14 17 13 18 12 19 11 20 10 21
REMARK SMILES IDX 9 22 8 23 7 24 6 25 5 26 4 27 3 28 2 29 1 30
REMARK H PARENT
REMARK Flexibility Score: inf
ROOT
ATOM      1  C   UNL     1      -3.124  -3.376  63.383  1.00  0.00     0.000 C 
ENDROOT
BRANCH   1   2
ATOM      2  C   UNL     1      -4.225  -2.359  63.732  1.00  0.00     0.000 C 
BRANCH   2   3
ATOM      3  C   UNL     1      -5.478  -3.026  64.317  1.00  0.00     0.000 C 
BRANCH   3   4
ATOM      4  C   UNL     1      -5.252  -3.543  65.748  1.00  0.00     0.000 C 
BRANCH   4   5
ATOM      5  C   UNL     1      -5.899  -4.918  65.995  1.00  0.00     0.000 C 
BRANCH   5   6
ATOM      6  C   UNL     1      -6.791  -5.431  64.849  1.00  0.00     0.000 C 
BRANCH   6   7
ATOM      7  C   UNL     1      -6.415  -6.846  64.381  1.00  0.00     0.000 C 
BRANCH   7   8
ATOM      8  C   UNL     1      -6.051  -7.746  65.571  1.00  0.00     0.000 C 
BRANCH   8   9
ATOM      9  C   UNL     1      -5.782  -9.205  65.147  1.00  0.00     0.000 C 
BRANCH   9  10
ATOM     10  C   UNL     1      -4.289  -9.549  64.991  1.00  0.00     0.000 C 
BRANCH  10  11
ATOM     11  C   UNL     1      -3.886 -10.949  65.485  1.00  0.00     0.000 C 
BRANCH  11  12
ATOM     12  C   UNL     1      -4.908 -12.036  65.108  1.00  0.00     0.006 C 
BRANCH  12  13
ATOM     13  C   UNL     1      -4.863 -12.379  63.613  1.00  0.00     0.053 C 
BRANCH  13  14
ATOM     14  C   UNL     1      -4.524 -13.819  63.382  1.00  0.00     0.041 C 
ATOM     15  O   UNL     1      -3.807 -14.441  64.209  1.00  0.00    -0.550 OA
ATOM     16  O   UNL     1      -5.007 -14.477  62.258  1.00  0.00    -0.550 OA
ENDBRANCH  13  14
ENDBRANCH  12  13
ENDBRANCH  11  12
ENDBRANCH  10  11
ENDBRANCH   9  10
ENDBRANCH   8   9
ENDBRANCH   7   8
ENDBRANCH   6   7
ENDBRANCH   5   6
ENDBRANCH   4   5
ENDBRANCH   3   4
ENDBRANCH   2   3
ENDBRANCH   1   2
BRANCH   1  17
ATOM     17  C   UNL     1      -3.663  -4.614  62.648  1.00  0.00     0.000 C 
BRANCH  17  18
ATOM     18  C   UNL     1      -3.251  -5.947  63.307  1.00  0.00     0.000 C 
BRANCH  18  19
ATOM     19  C   UNL     1      -2.164  -5.750  64.379  1.00  0.00     0.000 C 
BRANCH  19  20
ATOM     20  C   UNL     1      -2.528  -6.415  65.716  1.00  0.00     0.000 C 
BRANCH  20  21
ATOM     21  C   UNL     1      -2.094  -5.574  66.926  1.00  0.00     0.000 C 
BRANCH  21  22
ATOM     22  C   UNL     1      -1.236  -4.381  66.487  1.00  0.00    -0.000 C 
BRANCH  22  23
ATOM     23  C   UNL     1      -1.731  -3.079  67.135  1.00  0.00    -0.000 C 
BRANCH  23  24
ATOM     24  C   UNL     1      -1.482  -1.847  66.251  1.00  0.00    -0.000 C 
BRANCH  24  25
ATOM     25  C   UNL     1      -1.174  -0.582  67.071  1.00  0.00    -0.000 C 
BRANCH  25  26
ATOM     26  C   UNL     1       0.194   0.036  66.726  1.00  0.00    -0.000 C 
BRANCH  26  27
ATOM     27  C   UNL     1       1.408  -0.873  66.993  1.00  0.00    -0.000 C 
BRANCH  27  28
ATOM     28  C   UNL     1       2.550  -0.662  65.989  1.00  0.00    -0.000 C 
BRANCH  28  29
ATOM     29  C   UNL     1       3.124  -2.004  65.524  1.00  0.00    -0.003 C 
ATOM     30  C   UNL     1       2.335  -3.174  66.106  1.00  0.00     0.004 C 
ENDBRANCH  28  29
ENDBRANCH  27  28
ENDBRANCH  26  27
ENDBRANCH  25  26
ENDBRANCH  24  25
ENDBRANCH  23  24
ENDBRANCH  22  23
ENDBRANCH  21  22
ENDBRANCH  20  21
ENDBRANCH  19  20
ENDBRANCH  18  19
ENDBRANCH  17  18
ENDBRANCH   1  17
TORSDOF 26
ENDMDL
MODEL 4
REMARK VINA RESULT:    -3.026      7.042     12.618
REMARK INTER + INTRA:         -12.946
REMARK INTER:                  -7.141
REMARK INTRA:                  -5.805
REMARK UNBOUND:                -5.319
REMARK SMILES CCCCCCCCCCCCCCCCCCCCCCCCCCCC(=O)[O-]
REMARK SMILES IDX 15 1 16 2 17 3 18 4 19 5 20 6 21 7 22 8 23 9 24 10 25 11
REMARK SMILES IDX 26 12 27 13 28 14 29 15 30 16 14 17 13 18 12 19 11 20 10 21
REMARK SMILES IDX 9 22 8 23 7 24 6 25 5 26 4 27 3 28 2 29 1 30
REMARK H PARENT
REMARK Flexibility Score: inf
ROOT
ATOM      1  C   UNL     1       0.390  -2.093  57.711  1.00  0.00     0.000 C 
ENDROOT
BRANCH   1   2
ATOM      2  C   UNL     1       1.246  -0.817  57.624  1.00  0.00     0.000 C 
BRANCH   2   3
ATOM      3  C   UNL     1       0.402   0.443  57.382  1.00  0.00     0.000 C 
BRANCH   3   4
ATOM      4  C   UNL     1       0.246   1.295  58.654  1.00  0.00     0.000 C 
BRANCH   4   5
ATOM      5  C   UNL     1      -1.195   1.794  58.864  1.00  0.00     0.000 C 
BRANCH   5   6
ATOM      6  C   UNL     1      -2.063   1.830  57.592  1.00  0.00     0.000 C 
BRANCH   6   7
ATOM      7  C   UNL     1      -3.570   1.847  57.891  1.00  0.00     0.000 C 
BRANCH   7   8
ATOM      8  C   UNL     1      -4.366   1.166  56.767  1.00  0.00     0.000 C 
BRANCH   8   9
ATOM      9  C   UNL     1      -3.498   0.202  55.931  1.00  0.00     0.000 C 
BRANCH   9  10
ATOM     10  C   UNL     1      -4.182  -1.141  55.611  1.00  0.00     0.000 C 
BRANCH  10  11
ATOM     11  C   UNL     1      -5.689  -1.196  55.911  1.00  0.00     0.000 C 
BRANCH  11  12
ATOM     12  C   UNL     1      -6.250  -2.629  55.911  1.00  0.00     0.006 C 
BRANCH  12  13
ATOM     13  C   UNL     1      -5.143  -3.683  55.775  1.00  0.00     0.053 C 
BRANCH  13  14
ATOM     14  C   UNL     1      -5.604  -5.035  56.222  1.00  0.00     0.041 C 
ATOM     15  O   UNL     1      -6.089  -5.190  57.373  1.00  0.00    -0.550 OA
ATOM     16  O   UNL     1      -5.508  -6.123  55.363  1.00  0.00    -0.550 OA
ENDBRANCH  13  14
ENDBRANCH  12  13
ENDBRANCH  11  12
ENDBRANCH  10  11
ENDBRANCH   9  10
ENDBRANCH   8   9
ENDBRANCH   7   8
ENDBRANCH   6   7
ENDBRANCH   5   6
ENDBRANCH   4   5
ENDBRANCH   3   4
ENDBRANCH   2   3
ENDBRANCH   1   2
BRANCH   1  17
ATOM     17  C   UNL     1      -1.119  -1.800  57.743  1.00  0.00     0.000 C 
BRANCH  17  18
ATOM     18  C   UNL     1      -1.769  -2.084  59.113  1.00  0.00     0.000 C 
BRANCH  18  19
ATOM     19  C   UNL     1      -3.185  -1.488  59.217  1.00  0.00     0.000 C 
BRANCH  19  20
ATOM     20  C   UNL     1      -4.284  -2.550  59.053  1.00  0.00     0.000 C 
BRANCH  20  21
ATOM     21  C   UNL     1      -5.634  -2.087  59.620  1.00  0.00     0.000 C 
BRANCH  21  22
ATOM     22  C   UNL     1      -5.655  -0.566  59.819  1.00  0.00    -0.000 C 
BRANCH  22  23
ATOM     23  C   UNL     1      -6.264  -0.199  61.180  1.00  0.00    -0.000 C 
BRANCH  23  24
ATOM     24  C   UNL     1      -6.320  -1.395  62.144  1.00  0.00    -0.000 C 
BRANCH  24  25
ATOM     25  C   UNL     1      -5.324  -1.263  63.310  1.00  0.00    -0.000 C 
BRANCH  25  26
ATOM     26  C   UNL     1      -3.869  -1.545  62.889  1.00  0.00    -0.000 C 
BRANCH  26  27
ATOM     27  C   UNL     1      -3.309  -2.905  63.345  1.00  0.00    -0.000 C 
BRANCH  27  28
ATOM     28  C   UNL     1      -3.016  -3.857  62.176  1.00  0.00    -0.000 C 
BRANCH  28  29
ATOM     29  C   UNL     1      -4.203  -4.790  61.920  1.00  0.00    -0.003 C 
ATOM     30  C   UNL     1      -4.955  -5.095  63.212  1.00  0.00     0.004 C 
ENDBRANCH  28  29
ENDBRANCH  27  28
ENDBRANCH  26  27
ENDBRANCH  25  26
ENDBRANCH  24  25
ENDBRANCH  23  24
ENDBRANCH  22  23
ENDBRANCH  21  22
ENDBRANCH  20  21
ENDBRANCH  19  20
ENDBRANCH  18  19
ENDBRANCH  17  18
ENDBRANCH   1  17
TORSDOF 26
ENDMDL
MODEL 5
REMARK VINA RESULT:    -3.014      4.555      7.372
REMARK INTER + INTRA:         -12.913
REMARK INTER:                  -9.059
REMARK INTRA:                  -3.854
REMARK UNBOUND:                -5.319
REMARK SMILES CCCCCCCCCCCCCCCCCCCCCCCCCCCC(=O)[O-]
REMARK SMILES IDX 15 1 16 2 17 3 18 4 19 5 20 6 21 7 22 8 23 9 24 10 25 11
REMARK SMILES IDX 26 12 27 13 28 14 29 15 30 16 14 17 13 18 12 19 11 20 10 21
REMARK SMILES IDX 9 22 8 23 7 24 6 25 5 26 4 27 3 28 2 29 1 30
REMARK H PARENT
REMARK Flexibility Score: inf
ROOT
ATOM      1  C   UNL     1      -2.624  -4.573  63.739  1.00  0.00     0.000 C 
ENDROOT
BRANCH   1   2
ATOM      2  C   UNL     1      -3.591  -5.618  63.154  1.00  0.00     0.000 C 
BRANCH   2   3
ATOM      3  C   UNL     1      -4.187  -6.536  64.232  1.00  0.00     0.000 C 
BRANCH   3   4
ATOM      4  C   UNL     1      -3.103  -7.209  65.092  1.00  0.00     0.000 C 
BRANCH   4   5
ATOM      5  C   UNL     1      -3.318  -6.991  66.601  1.00  0.00     0.000 C 
BRANCH   5   6
ATOM      6  C   UNL     1      -4.744  -6.570  67.000  1.00  0.00     0.000 C 
BRANCH   6   7
ATOM      7  C   UNL     1      -5.626  -7.754  67.424  1.00  0.00     0.000 C 
BRANCH   7   8
ATOM      8  C   UNL     1      -4.774  -8.916  67.958  1.00  0.00     0.000 C 
BRANCH   8   9
ATOM      9  C   UNL     1      -4.984 -10.218  67.157  1.00  0.00     0.000 C 
BRANCH   9  10
ATOM     10  C   UNL     1      -5.924 -10.067  65.946  1.00  0.00     0.000 C 
BRANCH  10  11
ATOM     11  C   UNL     1      -5.246 -10.194  64.572  1.00  0.00     0.000 C 
BRANCH  11  12
ATOM     12  C   UNL     1      -4.213 -11.334  64.515  1.00  0.00     0.006 C 
BRANCH  12  13
ATOM     13  C   UNL     1      -4.831 -12.650  64.022  1.00  0.00     0.053 C 
BRANCH  13  14
ATOM     14  C   UNL     1      -5.054 -13.615  65.144  1.00  0.00     0.041 C 
ATOM     15  O   UNL     1      -4.139 -14.409  65.488  1.00  0.00    -0.550 OA
ATOM     16  O   UNL     1      -6.269 -13.631  65.818  1.00  0.00    -0.550 OA
ENDBRANCH  13  14
ENDBRANCH  12  13
ENDBRANCH  11  12
ENDBRANCH  10  11
ENDBRANCH   9  10
ENDBRANCH   8   9
ENDBRANCH   7   8
ENDBRANCH   6   7
ENDBRANCH   5   6
ENDBRANCH   4   5
ENDBRANCH   3   4
ENDBRANCH   2   3
ENDBRANCH   1   2
BRANCH   1  17
ATOM     17  C   UNL     1      -3.348  -3.357  64.340  1.00  0.00     0.000 C 
BRANCH  17  18
ATOM     18  C   UNL     1      -3.028  -3.129  65.832  1.00  0.00     0.000 C 
BRANCH  18  19
ATOM     19  C   UNL     1      -1.621  -3.629  66.205  1.00  0.00     0.000 C 
BRANCH  19  20
ATOM     20  C   UNL     1      -0.757  -2.530  66.843  1.00  0.00     0.000 C 
BRANCH  20  21
ATOM     21  C   UNL     1      -1.347  -1.127  66.638  1.00  0.00     0.000 C 
BRANCH  21  22
ATOM     22  C   UNL     1      -0.244  -0.106  66.333  1.00  0.00    -0.000 C 
BRANCH  22  23
ATOM     23  C   UNL     1       1.131  -0.638  66.765  1.00  0.00    -0.000 C 
BRANCH  23  24
ATOM     24  C   UNL     1       2.241  -0.286  65.762  1.00  0.00    -0.000 C 
BRANCH  24  25
ATOM     25  C   UNL     1       3.129  -1.494  65.413  1.00  0.00    -0.000 C 
BRANCH  25  26
ATOM     26  C   UNL     1       2.846  -2.721  66.301  1.00  0.00    -0.000 C 
BRANCH  26  27
ATOM     27  C   UNL     1       4.097  -3.465  66.804  1.00  0.00    -0.000 C 
BRANCH  27  28
ATOM     28  C   UNL     1       4.437  -3.149  68.267  1.00  0.00    -0.000 C 
BRANCH  28  29
ATOM     29  C   UNL     1       3.200  -2.647  69.020  1.00  0.00    -0.003 C 
ATOM     30  C   UNL     1       3.428  -1.249  69.586  1.00  0.00     0.004 C 
ENDBRANCH  28  29
ENDBRANCH  27  28
ENDBRANCH  26  27
ENDBRANCH  25  26
ENDBRANCH  24  25
ENDBRANCH  23  24
ENDBRANCH  22  23
ENDBRANCH  21  22
ENDBRANCH  20  21
ENDBRANCH  19  20
ENDBRANCH  18  19
ENDBRANCH  17  18
ENDBRANCH   1  17
TORSDOF 26
ENDMDL
MODEL 6
REMARK VINA RESULT:    -2.982      4.166      7.510
REMARK INTER + INTRA:         -12.835
REMARK INTER:                  -8.900
REMARK INTRA:                  -3.935
REMARK UNBOUND:                -5.319
REMARK SMILES CCCCCCCCCCCCCCCCCCCCCCCCCCCC(=O)[O-]
REMARK SMILES IDX 15 1 16 2 17 3 18 4 19 5 20 6 21 7 22 8 23 9 24 10 25 11
REMARK SMILES IDX 26 12 27 13 28 14 29 15 30 16 14 17 13 18 12 19 11 20 10 21
REMARK SMILES IDX 9 22 8 23 7 24 6 25 5 26 4 27 3 28 2 29 1 30
REMARK H PARENT
REMARK Flexibility Score: inf
ROOT
ATOM      1  C   UNL     1      -2.960  -3.880  62.541  1.00  0.00     0.000 C 
ENDROOT
BRANCH   1   2
ATOM      2  C   UNL     1      -3.807  -5.020  61.948  1.00  0.00     0.000 C 
BRANCH   2   3
ATOM      3  C   UNL     1      -5.155  -4.528  61.401  1.00  0.00     0.000 C 
BRANCH   3   4
ATOM      4  C   UNL     1      -6.350  -5.187  62.112  1.00  0.00     0.000 C 
BRANCH   4   5
ATOM      5  C   UNL     1      -6.714  -4.491  63.435  1.00  0.00     0.000 C 
BRANCH   5   6
ATOM      6  C   UNL     1      -6.504  -5.347  64.698  1.00  0.00     0.000 C 
BRANCH   6   7
ATOM      7  C   UNL     1      -5.864  -6.712  64.402  1.00  0.00     0.000 C 
BRANCH   7   8
ATOM      8  C   UNL     1      -4.601  -6.927  65.249  1.00  0.00     0.000 C 
BRANCH   8   9
ATOM      9  C   UNL     1      -3.671  -8.008  64.658  1.00  0.00     0.000 C 
BRANCH   9  10
ATOM     10  C   UNL     1      -3.765  -9.373  65.365  1.00  0.00     0.000 C 
BRANCH  10  11
ATOM     11  C   UNL     1      -3.348 -10.582  64.511  1.00  0.00     0.000 C 
BRANCH  11  12
ATOM     12  C   UNL     1      -4.499 -11.576  64.275  1.00  0.00     0.006 C 
BRANCH  12  13
ATOM     13  C   UNL     1      -4.982 -12.224  65.580  1.00  0.00     0.053 C 
BRANCH  13  14
ATOM     14  C   UNL     1      -4.864 -13.715  65.538  1.00  0.00     0.041 C 
ATOM     15  O   UNL     1      -3.901 -14.258  64.936  1.00  0.00    -0.550 OA
ATOM     16  O   UNL     1      -5.814 -14.507  66.173  1.00  0.00    -0.550 OA
ENDBRANCH  13  14
ENDBRANCH  12  13
ENDBRANCH  11  12
ENDBRANCH  10  11
ENDBRANCH   9  10
ENDBRANCH   8   9
ENDBRANCH   7   8
ENDBRANCH   6   7
ENDBRANCH   5   6
ENDBRANCH   4   5
ENDBRANCH   3   4
ENDBRANCH   2   3
ENDBRANCH   1   2
BRANCH   1  17
ATOM     17  C   UNL     1      -3.084  -3.775  64.070  1.00  0.00     0.000 C 
BRANCH  17  18
ATOM     18  C   UNL     1      -3.543  -2.383  64.553  1.00  0.00     0.000 C 
BRANCH  18  19
ATOM     19  C   UNL     1      -4.081  -1.518  63.399  1.00  0.00     0.000 C 
BRANCH  19  20
ATOM     20  C   UNL     1      -3.290  -0.213  63.223  1.00  0.00     0.000 C 
BRANCH  20  21
ATOM     21  C   UNL     1      -3.097   0.160  61.745  1.00  0.00     0.000 C 
BRANCH  21  22
ATOM     22  C   UNL     1      -4.236  -0.401  60.884  1.00  0.00    -0.000 C 
BRANCH  22  23
ATOM     23  C   UNL     1      -3.747  -0.711  59.461  1.00  0.00    -0.000 C 
BRANCH  23  24
ATOM     24  C   UNL     1      -3.222  -2.148  59.317  1.00  0.00    -0.000 C 
BRANCH  24  25
ATOM     25  C   UNL     1      -1.694  -2.207  59.147  1.00  0.00    -0.000 C 
BRANCH  25  26
ATOM     26  C   UNL     1      -1.228  -1.753  57.751  1.00  0.00    -0.000 C 
BRANCH  26  27
ATOM     27  C   UNL     1       0.237  -1.288  57.670  1.00  0.00    -0.000 C 
BRANCH  27  28
ATOM     28  C   UNL     1       0.376   0.202  57.327  1.00  0.00    -0.000 C 
BRANCH  28  29
ATOM     29  C   UNL     1      -0.705   1.029  58.029  1.00  0.00    -0.003 C 
ATOM     30  C   UNL     1      -0.294   1.378  59.457  1.00  0.00     0.004 C 
ENDBRANCH  28  29
ENDBRANCH  27  28
ENDBRANCH  26  27
ENDBRANCH  25  26
ENDBRANCH  24  25
ENDBRANCH  23  24
ENDBRANCH  22  23
ENDBRANCH  21  22
ENDBRANCH  20  21
ENDBRANCH  19  20
ENDBRANCH  18  19
ENDBRANCH  17  18
ENDBRANCH   1  17
TORSDOF 26
ENDMDL
MODEL 7
REMARK VINA RESULT:    -2.979      5.183      9.148
REMARK INTER + INTRA:         -12.827
REMARK INTER:                  -9.599
REMARK INTRA:                  -3.228
REMARK UNBOUND:                -5.319
REMARK SMILES CCCCCCCCCCCCCCCCCCCCCCCCCCCC(=O)[O-]
REMARK SMILES IDX 15 1 16 2 17 3 18 4 19 5 20 6 21 7 22 8 23 9 24 10 25 11
REMARK SMILES IDX 26 12 27 13 28 14 29 15 30 16 14 17 13 18 12 19 11 20 10 21
REMARK SMILES IDX 9 22 8 23 7 24 6 25 5 26 4 27 3 28 2 29 1 30
REMARK H PARENT
REMARK Flexibility Score: inf
ROOT
ATOM      1  C   UNL     1      -2.272  -5.492  64.583  1.00  0.00     0.000 C 
ENDROOT
BRANCH   1   2
ATOM      2  C   UNL     1      -2.417  -4.110  65.245  1.00  0.00     0.000 C 
BRANCH   2   3
ATOM      3  C   UNL     1      -1.846  -4.077  66.670  1.00  0.00     0.000 C 
BRANCH   3   4
ATOM      4  C   UNL     1      -0.475  -3.382  66.736  1.00  0.00     0.000 C 
BRANCH   4   5
ATOM      5  C   UNL     1      -0.478  -2.142  67.648  1.00  0.00     0.000 C 
BRANCH   5   6
ATOM      6  C   UNL     1      -0.011  -0.839  66.974  1.00  0.00     0.000 C 
BRANCH   6   7
ATOM      7  C   UNL     1       1.049  -0.084  67.791  1.00  0.00     0.000 C 
BRANCH   7   8
ATOM      8  C   UNL     1       2.265   0.275  66.924  1.00  0.00     0.000 C 
BRANCH   8   9
ATOM      9  C   UNL     1       2.228  -0.409  65.542  1.00  0.00     0.000 C 
BRANCH   9  10
ATOM     10  C   UNL     1       3.333  -1.462  65.331  1.00  0.00     0.000 C 
BRANCH  10  11
ATOM     11  C   UNL     1       3.016  -2.861  65.884  1.00  0.00     0.000 C 
BRANCH  11  12
ATOM     12  C   UNL     1       3.901  -3.247  67.083  1.00  0.00     0.006 C 
BRANCH  12  13
ATOM     13  C   UNL     1       3.213  -2.963  68.425  1.00  0.00     0.053 C 
BRANCH  13  14
ATOM     14  C   UNL     1       4.135  -2.286  69.391  1.00  0.00     0.041 C 
ATOM     15  O   UNL     1       4.422  -2.838  70.485  1.00  0.00    -0.550 OA
ATOM     16  O   UNL     1       4.686  -1.050  69.078  1.00  0.00    -0.550 OA
ENDBRANCH  13  14
ENDBRANCH  12  13
ENDBRANCH  11  12
ENDBRANCH  10  11
ENDBRANCH   9  10
ENDBRANCH   8   9
ENDBRANCH   7   8
ENDBRANCH   6   7
ENDBRANCH   5   6
ENDBRANCH   4   5
ENDBRANCH   3   4
ENDBRANCH   2   3
ENDBRANCH   1   2
BRANCH   1  17
ATOM     17  C   UNL     1      -2.614  -6.651  65.535  1.00  0.00     0.000 C 
BRANCH  17  18
ATOM     18  C   UNL     1      -3.877  -7.433  65.119  1.00  0.00     0.000 C 
BRANCH  18  19
ATOM     19  C   UNL     1      -5.169  -6.720  65.554  1.00  0.00     0.000 C 
BRANCH  19  20
ATOM     20  C   UNL     1      -6.085  -6.386  64.366  1.00  0.00     0.000 C 
BRANCH  20  21
ATOM     21  C   UNL     1      -5.891  -4.948  63.863  1.00  0.00     0.000 C 
BRANCH  21  22
ATOM     22  C   UNL     1      -6.235  -4.837  62.372  1.00  0.00    -0.000 C 
BRANCH  22  23
ATOM     23  C   UNL     1      -4.963  -4.870  61.511  1.00  0.00    -0.000 C 
BRANCH  23  24
ATOM     24  C   UNL     1      -4.470  -3.465  61.131  1.00  0.00    -0.000 C 
BRANCH  24  25
ATOM     25  C   UNL     1      -2.995  -3.232  61.505  1.00  0.00    -0.000 C 
BRANCH  25  26
ATOM     26  C   UNL     1      -2.187  -2.574  60.370  1.00  0.00    -0.000 C 
BRANCH  26  27
ATOM     27  C   UNL     1      -3.010  -2.166  59.134  1.00  0.00    -0.000 C 
BRANCH  27  28
ATOM     28  C   UNL     1      -2.136  -1.754  57.940  1.00  0.00    -0.000 C 
BRANCH  28  29
ATOM     29  C   UNL     1      -0.784  -1.212  58.413  1.00  0.00    -0.003 C 
ATOM     30  C   UNL     1       0.317  -1.515  57.401  1.00  0.00     0.004 C 
ENDBRANCH  28  29
ENDBRANCH  27  28
ENDBRANCH  26  27
ENDBRANCH  25  26
ENDBRANCH  24  25
ENDBRANCH  23  24
ENDBRANCH  22  23
ENDBRANCH  21  22
ENDBRANCH  20  21
ENDBRANCH  19  20
ENDBRANCH  18  19
ENDBRANCH  17  18
ENDBRANCH   1  17
TORSDOF 26
ENDMDL
MODEL 8
REMARK VINA RESULT:    -2.951      1.501      7.232
REMARK INTER + INTRA:         -12.754
REMARK INTER:                  -7.071
REMARK INTRA:                  -5.683
REMARK UNBOUND:                -5.319
REMARK SMILES CCCCCCCCCCCCCCCCCCCCCCCCCCCC(=O)[O-]
REMARK SMILES IDX 15 1 16 2 17 3 18 4 19 5 20 6 21 7 22 8 23 9 24 10 25 11
REMARK SMILES IDX 26 12 27 13 28 14 29 15 30 16 14 17 13 18 12 19 11 20 10 21
REMARK SMILES IDX 9 22 8 23 7 24 6 25 5 26 4 27 3 28 2 29 1 30
REMARK H PARENT
REMARK Flexibility Score: inf
ROOT
ATOM      1  C   UNL     1      -5.555  -9.278  65.344  1.00  0.00     0.000 C 
ENDROOT
BRANCH   1   2
ATOM      2  C   UNL     1      -6.287  -8.107  64.666  1.00  0.00     0.000 C 
BRANCH   2   3
ATOM      3  C   UNL     1      -6.977  -7.179  65.677  1.00  0.00     0.000 C 
BRANCH   3   4
ATOM      4  C   UNL     1      -7.101  -5.736  65.158  1.00  0.00     0.000 C 
BRANCH   4   5
ATOM      5  C   UNL     1      -6.396  -5.525  63.807  1.00  0.00     0.000 C 
BRANCH   5   6
ATOM      6  C   UNL     1      -5.701  -4.160  63.642  1.00  0.00     0.000 C 
BRANCH   6   7
ATOM      7  C   UNL     1      -4.169  -4.263  63.615  1.00  0.00     0.000 C 
BRANCH   7   8
ATOM      8  C   UNL     1      -3.715  -5.708  63.353  1.00  0.00     0.000 C 
BRANCH   8   9
ATOM      9  C   UNL     1      -2.377  -6.041  64.047  1.00  0.00     0.000 C 
BRANCH   9  10
ATOM     10  C   UNL     1      -2.251  -5.475  65.474  1.00  0.00     0.000 C 
BRANCH  10  11
ATOM     11  C   UNL     1      -2.737  -6.411  66.594  1.00  0.00     0.000 C 
BRANCH  11  12
ATOM     12  C   UNL     1      -3.991  -5.883  67.315  1.00  0.00     0.006 C 
BRANCH  12  13
ATOM     13  C   UNL     1      -4.032  -4.350  67.356  1.00  0.00     0.053 C 
BRANCH  13  14
ATOM     14  C   UNL     1      -3.298  -3.805  68.542  1.00  0.00     0.041 C 
ATOM     15  O   UNL     1      -3.542  -4.247  69.695  1.00  0.00    -0.550 OA
ATOM     16  O   UNL     1      -2.336  -2.817  68.372  1.00  0.00    -0.550 OA
ENDBRANCH  13  14
ENDBRANCH  12  13
ENDBRANCH  11  12
ENDBRANCH  10  11
ENDBRANCH   9  10
ENDBRANCH   8   9
ENDBRANCH   7   8
ENDBRANCH   6   7
ENDBRANCH   5   6
ENDBRANCH   4   5
ENDBRANCH   3   4
ENDBRANCH   2   3
ENDBRANCH   1   2
BRANCH   1  17
ATOM     17  C   UNL     1      -4.046  -9.294  65.046  1.00  0.00     0.000 C 
BRANCH  17  18
ATOM     18  C   UNL     1      -3.567 -10.603  64.383  1.00  0.00     0.000 C 
BRANCH  18  19
ATOM     19  C   UNL     1      -4.740 -11.527  64.011  1.00  0.00     0.000 C 
BRANCH  19  20
ATOM     20  C   UNL     1      -4.361 -13.014  64.075  1.00  0.00     0.000 C 
BRANCH  20  21
ATOM     21  C   UNL     1      -5.569 -13.914  64.376  1.00  0.00     0.000 C 
BRANCH  21  22
ATOM     22  C   UNL     1      -5.633 -14.266  65.868  1.00  0.00    -0.000 C 
BRANCH  22  23
ATOM     23  C   UNL     1      -6.642 -13.370  66.601  1.00  0.00    -0.000 C 
BRANCH  23  24
ATOM     24  C   UNL     1      -5.961 -12.266  67.426  1.00  0.00    -0.000 C 
BRANCH  24  25
ATOM     25  C   UNL     1      -4.684 -12.756  68.131  1.00  0.00    -0.000 C 
BRANCH  25  26
ATOM     26  C   UNL     1      -3.450 -11.895  67.798  1.00  0.00    -0.000 C 
BRANCH  26  27
ATOM     27  C   UNL     1      -3.034 -10.899  68.896  1.00  0.00    -0.000 C 
BRANCH  27  28
ATOM     28  C   UNL     1      -3.398  -9.446  68.558  1.00  0.00    -0.000 C 
BRANCH  28  29
ATOM     29  C   UNL     1      -4.404  -8.885  69.567  1.00  0.00    -0.003 C 
ATOM     30  C   UNL     1      -5.821  -8.902  69.003  1.00  0.00     0.004 C 
ENDBRANCH  28  29
ENDBRANCH  27  28
ENDBRANCH  26  27
ENDBRANCH  25  26
ENDBRANCH  24  25
ENDBRANCH  23  24
ENDBRANCH  22  23
ENDBRANCH  21  22
ENDBRANCH  20  21
ENDBRANCH  19  20
ENDBRANCH  18  19
ENDBRANCH  17  18
ENDBRANCH   1  17
TORSDOF 26
ENDMDL
MODEL 9
REMARK VINA RESULT:    -2.937      5.500     10.417
REMARK INTER + INTRA:         -12.721
REMARK INTER:                  -7.922
REMARK INTRA:                  -4.799
REMARK UNBOUND:                -5.319
REMARK SMILES CCCCCCCCCCCCCCCCCCCCCCCCCCCC(=O)[O-]
REMARK SMILES IDX 15 1 16 2 17 3 18 4 19 5 20 6 21 7 22 8 23 9 24 10 25 11
REMARK SMILES IDX 26 12 27 13 28 14 29 15 30 16 14 17 13 18 12 19 11 20 10 21
REMARK SMILES IDX 9 22 8 23 7 24 6 25 5 26 4 27 3 28 2 29 1 30
REMARK H PARENT
REMARK Flexibility Score: inf
ROOT
ATOM      1  C   UNL     1      -3.953  -4.870  61.972  1.00  0.00     0.000 C 
ENDROOT
BRANCH   1   2
ATOM      2  C   UNL     1      -3.105  -3.619  61.682  1.00  0.00     0.000 C 
BRANCH   2   3
ATOM      3  C   UNL     1      -3.306  -2.515  62.730  1.00  0.00     0.000 C 
BRANCH   3   4
ATOM      4  C   UNL     1      -3.959  -1.255  62.135  1.00  0.00     0.000 C 
BRANCH   4   5
ATOM      5  C   UNL     1      -4.076  -1.311  60.601  1.00  0.00     0.000 C 
BRANCH   5   6
ATOM      6  C   UNL     1      -5.507  -1.160  60.052  1.00  0.00     0.000 C 
BRANCH   6   7
ATOM      7  C   UNL     1      -5.678  -1.755  58.646  1.00  0.00     0.000 C 
BRANCH   7   8
ATOM      8  C   UNL     1      -4.582  -2.789  58.344  1.00  0.00     0.000 C 
BRANCH   8   9
ATOM      9  C   UNL     1      -3.778  -2.442  57.073  1.00  0.00     0.000 C 
BRANCH   9  10
ATOM     10  C   UNL     1      -3.429  -0.947  56.939  1.00  0.00     0.000 C 
BRANCH  10  11
ATOM     11  C   UNL     1      -1.925  -0.631  56.880  1.00  0.00     0.000 C 
BRANCH  11  12
ATOM     12  C   UNL     1      -1.124  -1.306  58.009  1.00  0.00     0.006 C 
BRANCH  12  13
ATOM     13  C   UNL     1       0.320  -1.613  57.590  1.00  0.00     0.053 C 
BRANCH  13  14
ATOM     14  C   UNL     1       1.241  -0.472  57.889  1.00  0.00     0.041 C 
ATOM     15  O   UNL     1       0.792   0.586  58.404  1.00  0.00    -0.550 OA
ATOM     16  O   UNL     1       2.597  -0.579  57.609  1.00  0.00    -0.550 OA
ENDBRANCH  13  14
ENDBRANCH  12  13
ENDBRANCH  11  12
ENDBRANCH  10  11
ENDBRANCH   9  10
ENDBRANCH   8   9
ENDBRANCH   7   8
ENDBRANCH   6   7
ENDBRANCH   5   6
ENDBRANCH   4   5
ENDBRANCH   3   4
ENDBRANCH   2   3
ENDBRANCH   1   2
BRANCH   1  17
ATOM     17  C   UNL     1      -5.370  -4.783  61.380  1.00  0.00     0.000 C 
BRANCH  17  18
ATOM     18  C   UNL     1      -6.449  -4.430  62.424  1.00  0.00     0.000 C 
BRANCH  18  19
ATOM     19  C   UNL     1      -5.970  -4.693  63.863  1.00  0.00     0.000 C 
BRANCH  19  20
ATOM     20  C   UNL     1      -7.004  -5.466  64.696  1.00  0.00     0.000 C 
BRANCH  20  21
ATOM     21  C   UNL     1      -6.710  -6.973  64.743  1.00  0.00     0.000 C 
BRANCH  21  22
ATOM     22  C   UNL     1      -5.199  -7.238  64.753  1.00  0.00    -0.000 C 
BRANCH  22  23
ATOM     23  C   UNL     1      -4.677  -7.383  66.191  1.00  0.00    -0.000 C 
BRANCH  23  24
ATOM     24  C   UNL     1      -3.225  -6.902  66.343  1.00  0.00    -0.000 C 
BRANCH  24  25
ATOM     25  C   UNL     1      -2.621  -6.411  65.015  1.00  0.00    -0.000 C 
BRANCH  25  26
ATOM     26  C   UNL     1      -2.048  -4.984  65.110  1.00  0.00    -0.000 C 
BRANCH  26  27
ATOM     27  C   UNL     1      -2.345  -4.247  66.429  1.00  0.00    -0.000 C 
BRANCH  27  28
ATOM     28  C   UNL     1      -3.547  -3.297  66.329  1.00  0.00    -0.000 C 
BRANCH  28  29
ATOM     29  C   UNL     1      -4.270  -3.188  67.675  1.00  0.00    -0.003 C 
ATOM     30  C   UNL     1      -5.684  -3.756  67.591  1.00  0.00     0.004 C 
ENDBRANCH  28  29
ENDBRANCH  27  28
ENDBRANCH  26  27
ENDBRANCH  25  26
ENDBRANCH  24  25
ENDBRANCH  23  24
ENDBRANCH  22  23
ENDBRANCH  21  22
ENDBRANCH  20  21
ENDBRANCH  19  20
ENDBRANCH  18  19
ENDBRANCH  17  18
ENDBRANCH   1  17
TORSDOF 26
ENDMDL
