MODEL 1
REMARK VINA RESULT:    -4.362      0.000      0.000
REMARK INTER + INTRA:          -8.969
REMARK INTER:                  -7.422
REMARK INTRA:                  -1.547
REMARK UNBOUND:                -1.547
REMARK SMILES CCCCCCCCCCCCCC(=O)[O-]
REMARK SMILES IDX 8 1 9 2 10 3 11 4 12 5 13 6 14 7 15 8 16 9 7 10 6 11 5 12
REMARK SMILES IDX 4 13 3 14 2 15 1 16
REMARK H PARENT
REMARK Flexibility Score: inf
ROOT
ATOM      1  C   UNL     1      -9.783   5.054   6.164  1.00  0.00     0.000 C 
ENDROOT
BRANCH   1   2
ATOM      2  C   UNL     1      -9.783   6.084   5.021  1.00  0.00     0.000 C 
BRANCH   2   3
ATOM      3  C   UNL     1     -10.520   7.381   5.391  1.00  0.00     0.000 C 
BRANCH   3   4
ATOM      4  C   UNL     1      -9.701   8.641   5.056  1.00  0.00     0.000 C 
BRANCH   4   5
ATOM      5  C   UNL     1      -8.322   8.647   5.750  1.00  0.00     0.006 C 
BRANCH   5   6
ATOM      6  C   UNL     1      -7.496   9.910   5.460  1.00  0.00     0.053 C 
BRANCH   6   7
ATOM      7  C   UNL     1      -7.464  10.850   6.624  1.00  0.00     0.041 C 
ATOM      8  O   UNL     1      -6.364  11.242   7.092  1.00  0.00    -0.550 OA
ATOM      9  O   UNL     1      -8.652  11.312   7.175  1.00  0.00    -0.550 OA
ENDBRANCH   6   7
ENDBRANCH   5   6
ENDBRANCH   4   5
ENDBRANCH   3   4
ENDBRANCH   2   3
ENDBRANCH   1   2
BRANCH   1  10
ATOM     10  C   UNL     1     -10.511   5.582   7.418  1.00  0.00     0.000 C 
BRANCH  10  11
ATOM     11  C   UNL     1     -11.157   4.475   8.269  1.00  0.00    -0.000 C 
BRANCH  11  12
ATOM     12  C   UNL     1     -11.442   3.195   7.467  1.00  0.00    -0.000 C 
BRANCH  12  13
ATOM     13  C   UNL     1     -12.812   3.218   6.765  1.00  0.00    -0.000 C 
BRANCH  13  14
ATOM     14  C   UNL     1     -12.763   3.210   5.222  1.00  0.00    -0.000 C 
BRANCH  14  15
ATOM     15  C   UNL     1     -13.211   4.519   4.550  1.00  0.00    -0.003 C 
ATOM     16  C   UNL     1     -13.764   5.539   5.543  1.00  0.00     0.004 C 
ENDBRANCH  14  15
ENDBRANCH  13  14
ENDBRANCH  12  13
ENDBRANCH  11  12
ENDBRANCH  10  11
ENDBRANCH   1  10
TORSDOF 12
ENDMDL
MODEL 2
REMARK VINA RESULT:    -4.356      1.144      2.404
REMARK INTER + INTRA:          -8.959
REMARK INTER:                  -7.946
REMARK INTRA:                  -1.013
REMARK UNBOUND:                -1.547
REMARK SMILES CCCCCCCCCCCCCC(=O)[O-]
REMARK SMILES IDX 8 1 9 2 10 3 11 4 12 5 13 6 14 7 15 8 16 9 7 10 6 11 5 12
REMARK SMILES IDX 4 13 3 14 2 15 1 16
REMARK H PARENT
REMARK Flexibility Score: inf
ROOT
ATOM      1  C   UNL     1      -9.800   5.018   5.955  1.00  0.00     0.000 C 
ENDROOT
BRANCH   1   2
ATOM      2  C   UNL     1      -9.460   6.496   6.215  1.00  0.00     0.000 C 
BRANCH   2   3
ATOM      3  C   UNL     1      -9.409   7.328   4.924  1.00  0.00     0.000 C 
BRANCH   3   4
ATOM      4  C   UNL     1      -9.309   8.839   5.200  1.00  0.00     0.000 C 
BRANCH   4   5
ATOM      5  C   UNL     1      -8.048   9.207   6.010  1.00  0.00     0.006 C 
BRANCH   5   6
ATOM      6  C   UNL     1      -7.091  10.149   5.263  1.00  0.00     0.053 C 
BRANCH   6   7
ATOM      7  C   UNL     1      -6.084  10.777   6.174  1.00  0.00     0.041 C 
ATOM      8  O   UNL     1      -4.872  10.834   5.838  1.00  0.00    -0.550 OA
ATOM      9  O   UNL     1      -6.489  11.322   7.386  1.00  0.00    -0.550 OA
ENDBRANCH   6   7
ENDBRANCH   5   6
ENDBRANCH   4   5
ENDBRANCH   3   4
ENDBRANCH   2   3
ENDBRANCH   1   2
BRANCH   1  10
ATOM     10  C   UNL     1     -10.900   4.857   4.885  1.00  0.00     0.000 C 
BRANCH  10  11
ATOM     11  C   UNL     1     -12.324   4.806   5.465  1.00  0.00    -0.000 C 
BRANCH  11  12
ATOM     12  C   UNL     1     -12.826   3.370   5.690  1.00  0.00    -0.000 C 
BRANCH  12  13
ATOM     13  C   UNL     1     -13.131   3.065   7.168  1.00  0.00    -0.000 C 
BRANCH  13  14
ATOM     14  C   UNL     1     -11.896   2.812   8.058  1.00  0.00    -0.000 C 
BRANCH  14  15
ATOM     15  C   UNL     1     -11.900   3.556   9.404  1.00  0.00    -0.003 C 
ATOM     16  C   UNL     1     -11.309   4.962   9.308  1.00  0.00     0.004 C 
ENDBRANCH  14  15
ENDBRANCH  13  14
ENDBRANCH  12  13
ENDBRANCH  11  12
ENDBRANCH  10  11
ENDBRANCH   1  10
TORSDOF 12
ENDMDL
MODEL 3
REMARK VINA RESULT:    -4.308      1.045      1.769
REMARK INTER + INTRA:          -8.877
REMARK INTER:                  -7.455
REMARK INTRA:                  -1.422
REMARK UNBOUND:                -1.547
REMARK SMILES CCCCCCCCCCCCCC(=O)[O-]
REMARK SMILES IDX 8 1 9 2 10 3 11 4 12 5 13 6 14 7 15 8 16 9 7 10 6 11 5 12
REMARK SMILES IDX 4 13 3 14 2 15 1 16
REMARK H PARENT
REMARK Flexibility Score: inf
ROOT
ATOM      1  C   UNL     1     -10.723   5.224   7.449  1.00  0.00     0.000 C 
ENDROOT
BRANCH   1   2
ATOM      2  C   UNL     1      -9.778   5.113   6.239  1.00  0.00     0.000 C 
BRANCH   2   3
ATOM      3  C   UNL     1      -9.954   6.269   5.241  1.00  0.00     0.000 C 
BRANCH   3   4
ATOM      4  C   UNL     1      -9.241   7.554   5.697  1.00  0.00     0.000 C 
BRANCH   4   5
ATOM      5  C   UNL     1      -9.501   8.741   4.745  1.00  0.00     0.006 C 
BRANCH   5   6
ATOM      6  C   UNL     1      -9.134  10.105   5.350  1.00  0.00     0.053 C 
BRANCH   6   7
ATOM      7  C   UNL     1      -7.914  10.035   6.214  1.00  0.00     0.041 C 
ATOM      8  O   UNL     1      -6.778   9.879   5.695  1.00  0.00    -0.550 OA
ATOM      9  O   UNL     1      -8.031  10.166   7.592  1.00  0.00    -0.550 OA
ENDBRANCH   6   7
ENDBRANCH   5   6
ENDBRANCH   4   5
ENDBRANCH   3   4
ENDBRANCH   2   3
ENDBRANCH   1   2
BRANCH   1  10
ATOM     10  C   UNL     1     -11.252   3.846   7.899  1.00  0.00     0.000 C 
BRANCH  10  11
ATOM     11  C   UNL     1     -11.625   2.917   6.731  1.00  0.00    -0.000 C 
BRANCH  11  12
ATOM     12  C   UNL     1     -12.991   3.255   6.111  1.00  0.00    -0.000 C 
BRANCH  12  13
ATOM     13  C   UNL     1     -12.879   3.837   4.691  1.00  0.00    -0.000 C 
BRANCH  13  14
ATOM     14  C   UNL     1     -13.817   5.025   4.388  1.00  0.00    -0.000 C 
BRANCH  14  15
ATOM     15  C   UNL     1     -14.197   5.882   5.608  1.00  0.00    -0.003 C 
ATOM     16  C   UNL     1     -13.433   7.204   5.667  1.00  0.00     0.004 C 
ENDBRANCH  14  15
ENDBRANCH  13  14
ENDBRANCH  12  13
ENDBRANCH  11  12
ENDBRANCH  10  11
ENDBRANCH   1  10
TORSDOF 12
ENDMDL
MODEL 4
REMARK VINA RESULT:    -4.285     16.230     17.983
REMARK INTER + INTRA:          -8.838
REMARK INTER:                  -8.185
REMARK INTRA:                  -0.653
REMARK UNBOUND:                -1.547
REMARK SMILES CCCCCCCCCCCCCC(=O)[O-]
REMARK SMILES IDX 8 1 9 2 10 3 11 4 12 5 13 6 14 7 15 8 16 9 7 10 6 11 5 12
REMARK SMILES IDX 4 13 3 14 2 15 1 16
REMARK H PARENT
REMARK Flexibility Score: inf
ROOT
ATOM      1  C   UNL     1     -10.107  -3.896  -8.988  1.00  0.00     0.000 C 
ENDROOT
BRANCH   1   2
ATOM      2  C   UNL     1      -9.377  -2.541  -8.977  1.00  0.00     0.000 C 
BRANCH   2   3
ATOM      3  C   UNL     1      -9.819  -1.620 -10.125  1.00  0.00     0.000 C 
BRANCH   3   4
ATOM      4  C   UNL     1     -11.056  -0.779  -9.763  1.00  0.00     0.000 C 
BRANCH   4   5
ATOM      5  C   UNL     1     -10.759   0.735  -9.761  1.00  0.00     0.006 C 
BRANCH   5   6
ATOM      6  C   UNL     1     -12.021   1.608  -9.695  1.00  0.00     0.053 C 
BRANCH   6   7
ATOM      7  C   UNL     1     -11.744   2.968  -9.136  1.00  0.00     0.041 C 
ATOM      8  O   UNL     1     -10.563   3.396  -9.063  1.00  0.00    -0.550 OA
ATOM      9  O   UNL     1     -12.796   3.774  -8.717  1.00  0.00    -0.550 OA
ENDBRANCH   6   7
ENDBRANCH   5   6
ENDBRANCH   4   5
ENDBRANCH   3   4
ENDBRANCH   2   3
ENDBRANCH   1   2
BRANCH   1  10
ATOM     10  C   UNL     1      -9.430  -4.910  -9.935  1.00  0.00     0.000 C 
BRANCH  10  11
ATOM     11  C   UNL     1      -9.948  -6.349  -9.772  1.00  0.00    -0.000 C 
BRANCH  11  12
ATOM     12  C   UNL     1     -11.483  -6.429  -9.719  1.00  0.00    -0.000 C 
BRANCH  12  13
ATOM     13  C   UNL     1     -12.014  -6.877  -8.345  1.00  0.00    -0.000 C 
BRANCH  13  14
ATOM     14  C   UNL     1     -10.943  -7.051  -7.248  1.00  0.00    -0.000 C 
BRANCH  14  15
ATOM     15  C   UNL     1     -11.228  -6.301  -5.935  1.00  0.00    -0.003 C 
ATOM     16  C   UNL     1     -10.170  -6.556  -4.863  1.00  0.00     0.004 C 
ENDBRANCH  14  15
ENDBRANCH  13  14
ENDBRANCH  12  13
ENDBRANCH  11  12
ENDBRANCH  10  11
ENDBRANCH   1  10
TORSDOF 12
ENDMDL
MODEL 5
REMARK VINA RESULT:    -4.192      3.477      7.161
REMARK INTER + INTRA:          -8.679
REMARK INTER:                  -7.691
REMARK INTRA:                  -0.988
REMARK UNBOUND:                -1.547
REMARK SMILES CCCCCCCCCCCCCC(=O)[O-]
REMARK SMILES IDX 8 1 9 2 10 3 11 4 12 5 13 6 14 7 15 8 16 9 7 10 6 11 5 12
REMARK SMILES IDX 4 13 3 14 2 15 1 16
REMARK H PARENT
REMARK Flexibility Score: inf
ROOT
ATOM      1  C   UNL     1      -9.353   7.456   4.917  1.00  0.00     0.000 C 
ENDROOT
BRANCH   1   2
ATOM      2  C   UNL     1     -10.421   6.609   5.633  1.00  0.00     0.000 C 
BRANCH   2   3
ATOM      3  C   UNL     1      -9.825   5.389   6.353  1.00  0.00     0.000 C 
BRANCH   3   4
ATOM      4  C   UNL     1     -10.805   4.764   7.363  1.00  0.00     0.000 C 
BRANCH   4   5
ATOM      5  C   UNL     1     -11.262   3.352   6.942  1.00  0.00     0.006 C 
BRANCH   5   6
ATOM      6  C   UNL     1     -12.659   3.323   6.303  1.00  0.00     0.053 C 
BRANCH   6   7
ATOM      7  C   UNL     1     -12.633   3.709   4.858  1.00  0.00     0.041 C 
ATOM      8  O   UNL     1     -11.691   3.325   4.116  1.00  0.00    -0.550 OA
ATOM      9  O   UNL     1     -13.663   4.474   4.325  1.00  0.00    -0.550 OA
ENDBRANCH   6   7
ENDBRANCH   5   6
ENDBRANCH   4   5
ENDBRANCH   3   4
ENDBRANCH   2   3
ENDBRANCH   1   2
BRANCH   1  10
ATOM     10  C   UNL     1      -8.596   8.380   5.894  1.00  0.00     0.000 C 
BRANCH  10  11
ATOM     11  C   UNL     1      -7.833   9.520   5.200  1.00  0.00    -0.000 C 
BRANCH  11  12
ATOM     12  C   UNL     1      -6.978  10.347   6.174  1.00  0.00    -0.000 C 
BRANCH  12  13
ATOM     13  C   UNL     1      -7.800  10.967   7.318  1.00  0.00    -0.000 C 
BRANCH  13  14
ATOM     14  C   UNL     1      -8.892  11.966   6.881  1.00  0.00    -0.000 C 
BRANCH  14  15
ATOM     15  C   UNL     1     -10.329  11.565   7.253  1.00  0.00    -0.003 C 
ATOM     16  C   UNL     1     -11.140  11.075   6.054  1.00  0.00     0.004 C 
ENDBRANCH  14  15
ENDBRANCH  13  14
ENDBRANCH  12  13
ENDBRANCH  11  12
ENDBRANCH  10  11
ENDBRANCH   1  10
TORSDOF 12
ENDMDL
MODEL 6
REMARK VINA RESULT:    -4.133      2.463      5.620
REMARK INTER + INTRA:          -8.580
REMARK INTER:                  -7.308
REMARK INTRA:                  -1.272
REMARK UNBOUND:                -1.547
REMARK SMILES CCCCCCCCCCCCCC(=O)[O-]
REMARK SMILES IDX 8 1 9 2 10 3 11 4 12 5 13 6 14 7 15 8 16 9 7 10 6 11 5 12
REMARK SMILES IDX 4 13 3 14 2 15 1 16
REMARK H PARENT
REMARK Flexibility Score: inf
ROOT
ATOM      1  C   UNL     1     -11.414   3.050   7.287  1.00  0.00     0.000 C 
ENDROOT
BRANCH   1   2
ATOM      2  C   UNL     1     -12.757   3.288   6.576  1.00  0.00     0.000 C 
BRANCH   2   3
ATOM      3  C   UNL     1     -12.610   3.393   5.050  1.00  0.00     0.000 C 
BRANCH   3   4
ATOM      4  C   UNL     1     -13.353   4.610   4.468  1.00  0.00     0.000 C 
BRANCH   4   5
ATOM      5  C   UNL     1     -13.914   5.537   5.567  1.00  0.00     0.006 C 
BRANCH   5   6
ATOM      6  C   UNL     1     -14.791   6.674   5.021  1.00  0.00     0.053 C 
BRANCH   6   7
ATOM      7  C   UNL     1     -14.154   8.017   5.193  1.00  0.00     0.041 C 
ATOM      8  O   UNL     1     -14.360   8.930   4.352  1.00  0.00    -0.550 OA
ATOM      9  O   UNL     1     -13.350   8.268   6.299  1.00  0.00    -0.550 OA
ENDBRANCH   6   7
ENDBRANCH   5   6
ENDBRANCH   4   5
ENDBRANCH   3   4
ENDBRANCH   2   3
ENDBRANCH   1   2
BRANCH   1  10
ATOM     10  C   UNL     1     -10.949   4.292   8.078  1.00  0.00     0.000 C 
BRANCH  10  11
ATOM     11  C   UNL     1     -10.857   5.568   7.224  1.00  0.00    -0.000 C 
BRANCH  11  12
ATOM     12  C   UNL     1      -9.642   5.571   6.282  1.00  0.00    -0.000 C 
BRANCH  12  13
ATOM     13  C   UNL     1      -9.855   6.439   5.029  1.00  0.00    -0.000 C 
BRANCH  13  14
ATOM     14  C   UNL     1      -9.816   7.963   5.268  1.00  0.00    -0.000 C 
BRANCH  14  15
ATOM     15  C   UNL     1      -8.530   8.486   5.929  1.00  0.00    -0.003 C 
ATOM     16  C   UNL     1      -7.865   9.608   5.133  1.00  0.00     0.004 C 
ENDBRANCH  14  15
ENDBRANCH  13  14
ENDBRANCH  12  13
ENDBRANCH  11  12
ENDBRANCH  10  11
ENDBRANCH   1  10
TORSDOF 12
ENDMDL
MODEL 7
REMARK VINA RESULT:    -4.105      3.096      7.025
REMARK INTER + INTRA:          -8.531
REMARK INTER:                  -7.591
REMARK INTRA:                  -0.939
REMARK UNBOUND:                -1.547
REMARK SMILES CCCCCCCCCCCCCC(=O)[O-]
REMARK SMILES IDX 8 1 9 2 10 3 11 4 12 5 13 6 14 7 15 8 16 9 7 10 6 11 5 12
REMARK SMILES IDX 4 13 3 14 2 15 1 16
REMARK H PARENT
REMARK Flexibility Score: inf
ROOT
ATOM      1  C   UNL     1      -9.933   5.026   5.958  1.00  0.00     0.000 C 
ENDROOT
BRANCH   1   2
ATOM      2  C   UNL     1     -10.119   5.488   7.414  1.00  0.00     0.000 C 
BRANCH   2   3
ATOM      3  C   UNL     1     -11.135   4.631   8.184  1.00  0.00     0.000 C 
BRANCH   3   4
ATOM      4  C   UNL     1     -11.369   3.260   7.524  1.00  0.00     0.000 C 
BRANCH   4   5
ATOM      5  C   UNL     1     -12.787   3.126   6.931  1.00  0.00     0.006 C 
BRANCH   5   6
ATOM      6  C   UNL     1     -12.825   3.240   5.399  1.00  0.00     0.053 C 
BRANCH   6   7
ATOM      7  C   UNL     1     -13.457   4.516   4.938  1.00  0.00     0.041 C 
ATOM      8  O   UNL     1     -13.476   5.523   5.693  1.00  0.00    -0.550 OA
ATOM      9  O   UNL     1     -14.004   4.598   3.664  1.00  0.00    -0.550 OA
ENDBRANCH   6   7
ENDBRANCH   5   6
ENDBRANCH   4   5
ENDBRANCH   3   4
ENDBRANCH   2   3
ENDBRANCH   1   2
BRANCH   1  10
ATOM     10  C   UNL     1      -9.749   6.215   4.992  1.00  0.00     0.000 C 
BRANCH  10  11
ATOM     11  C   UNL     1      -9.294   7.510   5.687  1.00  0.00    -0.000 C 
BRANCH  11  12
ATOM     12  C   UNL     1      -9.990   8.763   5.131  1.00  0.00    -0.000 C 
BRANCH  12  13
ATOM     13  C   UNL     1      -9.126  10.032   5.247  1.00  0.00    -0.000 C 
BRANCH  13  14
ATOM     14  C   UNL     1      -8.858  10.517   6.687  1.00  0.00    -0.000 C 
BRANCH  14  15
ATOM     15  C   UNL     1      -7.394  10.876   6.992  1.00  0.00    -0.003 C 
ATOM     16  C   UNL     1      -6.416  10.303   5.968  1.00  0.00     0.004 C 
ENDBRANCH  14  15
ENDBRANCH  13  14
ENDBRANCH  12  13
ENDBRANCH  11  12
ENDBRANCH  10  11
ENDBRANCH   1  10
TORSDOF 12
ENDMDL
MODEL 8
REMARK VINA RESULT:    -4.057      1.449      2.061
REMARK INTER + INTRA:          -8.450
REMARK INTER:                  -7.343
REMARK INTRA:                  -1.107
REMARK UNBOUND:                -1.547
REMARK SMILES CCCCCCCCCCCCCC(=O)[O-]
REMARK SMILES IDX 8 1 9 2 10 3 11 4 12 5 13 6 14 7 15 8 16 9 7 10 6 11 5 12
REMARK SMILES IDX 4 13 3 14 2 15 1 16
REMARK H PARENT
REMARK Flexibility Score: inf
ROOT
ATOM      1  C   UNL     1     -10.431   6.583   5.473  1.00  0.00     0.000 C 
ENDROOT
BRANCH   1   2
ATOM      2  C   UNL     1      -9.374   7.556   4.922  1.00  0.00     0.000 C 
BRANCH   2   3
ATOM      3  C   UNL     1      -8.590   8.273   6.032  1.00  0.00     0.000 C 
BRANCH   3   4
ATOM      4  C   UNL     1      -7.679   9.387   5.486  1.00  0.00     0.000 C 
BRANCH   4   5
ATOM      5  C   UNL     1      -7.808  10.698   6.289  1.00  0.00     0.006 C 
BRANCH   5   6
ATOM      6  C   UNL     1      -9.241  10.990   6.762  1.00  0.00     0.053 C 
BRANCH   6   7
ATOM      7  C   UNL     1      -9.958  11.938   5.854  1.00  0.00     0.041 C 
ATOM      8  O   UNL     1     -10.186  13.120   6.223  1.00  0.00    -0.550 OA
ATOM      9  O   UNL     1     -10.355  11.522   4.589  1.00  0.00    -0.550 OA
ENDBRANCH   6   7
ENDBRANCH   5   6
ENDBRANCH   4   5
ENDBRANCH   3   4
ENDBRANCH   2   3
ENDBRANCH   1   2
BRANCH   1  10
ATOM     10  C   UNL     1      -9.846   5.642   6.548  1.00  0.00     0.000 C 
BRANCH  10  11
ATOM     11  C   UNL     1     -10.893   5.119   7.546  1.00  0.00    -0.000 C 
BRANCH  11  12
ATOM     12  C   UNL     1     -11.038   3.589   7.513  1.00  0.00    -0.000 C 
BRANCH  12  13
ATOM     13  C   UNL     1     -12.296   3.121   6.757  1.00  0.00    -0.000 C 
BRANCH  13  14
ATOM     14  C   UNL     1     -12.078   2.761   5.273  1.00  0.00    -0.000 C 
BRANCH  14  15
ATOM     15  C   UNL     1     -12.609   3.796   4.266  1.00  0.00    -0.003 C 
ATOM     16  C   UNL     1     -13.545   4.820   4.905  1.00  0.00     0.004 C 
ENDBRANCH  14  15
ENDBRANCH  13  14
ENDBRANCH  12  13
ENDBRANCH  11  12
ENDBRANCH  10  11
ENDBRANCH   1  10
TORSDOF 12
ENDMDL
MODEL 9
REMARK VINA RESULT:    -4.016      1.371      2.669
REMARK INTER + INTRA:          -8.381
REMARK INTER:                  -7.533
REMARK INTRA:                  -0.848
REMARK UNBOUND:                -1.547
REMARK SMILES CCCCCCCCCCCCCC(=O)[O-]
REMARK SMILES IDX 8 1 9 2 10 3 11 4 12 5 13 6 14 7 15 8 16 9 7 10 6 11 5 12
REMARK SMILES IDX 4 13 3 14 2 15 1 16
REMARK H PARENT
REMARK Flexibility Score: inf
ROOT
ATOM      1  C   UNL     1      -9.741   6.460   5.835  1.00  0.00     0.000 C 
ENDROOT
BRANCH   1   2
ATOM      2  C   UNL     1      -9.315   7.582   4.872  1.00  0.00     0.000 C 
BRANCH   2   3
ATOM      3  C   UNL     1      -8.988   8.895   5.600  1.00  0.00     0.000 C 
BRANCH   3   4
ATOM      4  C   UNL     1      -7.499   9.274   5.492  1.00  0.00     0.000 C 
BRANCH   4   5
ATOM      5  C   UNL     1      -7.180  10.611   6.193  1.00  0.00     0.006 C 
BRANCH   5   6
ATOM      6  C   UNL     1      -7.831  10.747   7.579  1.00  0.00     0.053 C 
BRANCH   6   7
ATOM      7  C   UNL     1      -8.724  11.944   7.673  1.00  0.00     0.041 C 
ATOM      8  O   UNL     1      -9.012  12.434   8.796  1.00  0.00    -0.550 OA
ATOM      9  O   UNL     1      -9.220  12.533   6.516  1.00  0.00    -0.550 OA
ENDBRANCH   6   7
ENDBRANCH   5   6
ENDBRANCH   4   5
ENDBRANCH   3   4
ENDBRANCH   2   3
ENDBRANCH   1   2
BRANCH   1  10
ATOM     10  C   UNL     1     -10.346   5.253   5.087  1.00  0.00     0.000 C 
BRANCH  10  11
ATOM     11  C   UNL     1     -11.850   5.058   5.343  1.00  0.00    -0.000 C 
BRANCH  11  12
ATOM     12  C   UNL     1     -12.256   3.577   5.415  1.00  0.00    -0.000 C 
BRANCH  12  13
ATOM     13  C   UNL     1     -12.875   3.188   6.770  1.00  0.00    -0.000 C 
BRANCH  13  14
ATOM     14  C   UNL     1     -11.863   2.840   7.881  1.00  0.00    -0.000 C 
BRANCH  14  15
ATOM     15  C   UNL     1     -11.943   3.726   9.136  1.00  0.00    -0.003 C 
ATOM     16  C   UNL     1     -11.061   4.970   9.043  1.00  0.00     0.004 C 
ENDBRANCH  14  15
ENDBRANCH  13  14
ENDBRANCH  12  13
ENDBRANCH  11  12
ENDBRANCH  10  11
ENDBRANCH   1  10
TORSDOF 12
ENDMDL
