MODEL 1
REMARK VINA RESULT:    -4.572      0.000      0.000
REMARK INTER + INTRA:          -7.694
REMARK INTER:                  -7.245
REMARK INTRA:                  -0.449
REMARK UNBOUND:                -0.449
REMARK SMILES CCCCCCCCCCCC(=O)[O-]
REMARK SMILES IDX 7 1 8 2 9 3 10 4 11 5 12 6 13 7 14 8 6 9 5 10 4 11 3 12 2 13
REMARK SMILES IDX 1 14
REMARK H PARENT
REMARK Flexibility Score: inf
ROOT
ATOM      1  C   UNL     1      -5.827  -3.364 -15.007  1.00  0.00     0.000 C 
ENDROOT
BRANCH   1   2
ATOM      2  C   UNL     1      -4.701  -2.337 -15.244  1.00  0.00     0.000 C 
BRANCH   2   3
ATOM      3  C   UNL     1      -3.743  -2.672 -16.402  1.00  0.00     0.000 C 
BRANCH   3   4
ATOM      4  C   UNL     1      -3.586  -1.513 -17.401  1.00  0.00     0.006 C 
BRANCH   4   5
ATOM      5  C   UNL     1      -3.035  -1.985 -18.754  1.00  0.00     0.053 C 
BRANCH   5   6
ATOM      6  C   UNL     1      -1.591  -1.626 -18.924  1.00  0.00     0.041 C 
ATOM      7  O   UNL     1      -1.007  -0.924 -18.057  1.00  0.00    -0.550 OA
ATOM      8  O   UNL     1      -0.883  -2.091 -20.025  1.00  0.00    -0.550 OA
ENDBRANCH   5   6
ENDBRANCH   4   5
ENDBRANCH   3   4
ENDBRANCH   2   3
ENDBRANCH   1   2
BRANCH   1   9
ATOM      9  C   UNL     1      -6.972  -2.884 -14.098  1.00  0.00     0.000 C 
BRANCH   9  10
ATOM     10  C   UNL     1      -8.351  -3.393 -14.555  1.00  0.00    -0.000 C 
BRANCH  10  11
ATOM     11  C   UNL     1      -8.249  -4.535 -15.580  1.00  0.00    -0.000 C 
BRANCH  11  12
ATOM     12  C   UNL     1      -9.518  -4.670 -16.440  1.00  0.00    -0.000 C 
BRANCH  12  13
ATOM     13  C   UNL     1     -10.691  -3.844 -15.892  1.00  0.00    -0.003 C 
ATOM     14  C   UNL     1     -11.794  -4.711 -15.285  1.00  0.00     0.004 C 
ENDBRANCH  12  13
ENDBRANCH  11  12
ENDBRANCH  10  11
ENDBRANCH   9  10
ENDBRANCH   1   9
TORSDOF 10
ENDMDL
MODEL 2
REMARK VINA RESULT:    -4.514      5.468      6.594
REMARK INTER + INTRA:          -7.603
REMARK INTER:                  -7.164
REMARK INTRA:                  -0.439
REMARK UNBOUND:                -0.449
REMARK SMILES CCCCCCCCCCCC(=O)[O-]
REMARK SMILES IDX 7 1 8 2 9 3 10 4 11 5 12 6 13 7 14 8 6 9 5 10 4 11 3 12 2 13
REMARK SMILES IDX 1 14
REMARK H PARENT
REMARK Flexibility Score: inf
ROOT
ATOM      1  C   UNL     1      -8.373  -3.354 -14.708  1.00  0.00     0.000 C 
ENDROOT
BRANCH   1   2
ATOM      2  C   UNL     1      -7.463  -2.661 -13.673  1.00  0.00     0.000 C 
BRANCH   2   3
ATOM      3  C   UNL     1      -8.196  -2.036 -12.472  1.00  0.00     0.000 C 
BRANCH   3   4
ATOM      4  C   UNL     1      -7.330  -1.991 -11.202  1.00  0.00     0.006 C 
BRANCH   4   5
ATOM      5  C   UNL     1      -6.888  -0.563 -10.854  1.00  0.00     0.053 C 
BRANCH   5   6
ATOM      6  C   UNL     1      -6.611  -0.406  -9.390  1.00  0.00     0.041 C 
ATOM      7  O   UNL     1      -7.470   0.123  -8.637  1.00  0.00    -0.550 OA
ATOM      8  O   UNL     1      -5.417  -0.870  -8.853  1.00  0.00    -0.550 OA
ENDBRANCH   5   6
ENDBRANCH   4   5
ENDBRANCH   3   4
ENDBRANCH   2   3
ENDBRANCH   1   2
BRANCH   1   9
ATOM      9  C   UNL     1      -7.745  -4.560 -15.430  1.00  0.00     0.000 C 
BRANCH   9  10
ATOM     10  C   UNL     1      -8.776  -5.384 -16.222  1.00  0.00    -0.000 C 
BRANCH  10  11
ATOM     11  C   UNL     1     -10.165  -4.725 -16.247  1.00  0.00    -0.000 C 
BRANCH  11  12
ATOM     12  C   UNL     1     -11.247  -5.604 -15.594  1.00  0.00    -0.000 C 
BRANCH  12  13
ATOM     13  C   UNL     1     -11.995  -4.875 -14.467  1.00  0.00    -0.003 C 
ATOM     14  C   UNL     1     -13.278  -4.198 -14.948  1.00  0.00     0.004 C 
ENDBRANCH  12  13
ENDBRANCH  11  12
ENDBRANCH  10  11
ENDBRANCH   9  10
ENDBRANCH   1   9
TORSDOF 10
ENDMDL
MODEL 3
REMARK VINA RESULT:    -4.459      5.802      7.187
REMARK INTER + INTRA:          -7.514
REMARK INTER:                  -7.071
REMARK INTRA:                  -0.443
REMARK UNBOUND:                -0.449
REMARK SMILES CCCCCCCCCCCC(=O)[O-]
REMARK SMILES IDX 7 1 8 2 9 3 10 4 11 5 12 6 13 7 14 8 6 9 5 10 4 11 3 12 2 13
REMARK SMILES IDX 1 14
REMARK H PARENT
REMARK Flexibility Score: inf
ROOT
ATOM      1  C   UNL     1      -8.247  -1.971 -12.630  1.00  0.00     0.000 C 
ENDROOT
BRANCH   1   2
ATOM      2  C   UNL     1      -7.361  -1.930 -11.368  1.00  0.00     0.000 C 
BRANCH   2   3
ATOM      3  C   UNL     1      -6.973  -0.520 -10.887  1.00  0.00     0.000 C 
BRANCH   3   4
ATOM      4  C   UNL     1      -6.647  -0.471  -9.384  1.00  0.00     0.006 C 
BRANCH   4   5
ATOM      5  C   UNL     1      -7.322   0.717  -8.685  1.00  0.00     0.053 C 
BRANCH   5   6
ATOM      6  C   UNL     1      -6.513   1.971  -8.809  1.00  0.00     0.041 C 
ATOM      7  O   UNL     1      -5.488   2.136  -8.096  1.00  0.00    -0.550 OA
ATOM      8  O   UNL     1      -6.874   2.945  -9.731  1.00  0.00    -0.550 OA
ENDBRANCH   5   6
ENDBRANCH   4   5
ENDBRANCH   3   4
ENDBRANCH   2   3
ENDBRANCH   1   2
BRANCH   1   9
ATOM      9  C   UNL     1      -7.670  -2.770 -13.812  1.00  0.00     0.000 C 
BRANCH   9  10
ATOM     10  C   UNL     1      -8.112  -4.244 -13.809  1.00  0.00    -0.000 C 
BRANCH  10  11
ATOM     11  C   UNL     1      -8.690  -4.690 -15.162  1.00  0.00    -0.000 C 
BRANCH  11  12
ATOM     12  C   UNL     1      -9.752  -3.714 -15.700  1.00  0.00    -0.000 C 
BRANCH  12  13
ATOM     13  C   UNL     1     -11.121  -4.383 -15.893  1.00  0.00    -0.003 C 
ATOM     14  C   UNL     1     -11.703  -4.930 -14.589  1.00  0.00     0.004 C 
ENDBRANCH  12  13
ENDBRANCH  11  12
ENDBRANCH  10  11
ENDBRANCH   9  10
ENDBRANCH   1   9
TORSDOF 10
ENDMDL
MODEL 4
REMARK VINA RESULT:    -4.441      4.032      7.755
REMARK INTER + INTRA:          -7.487
REMARK INTER:                  -7.021
REMARK INTRA:                  -0.466
REMARK UNBOUND:                -0.449
REMARK SMILES CCCCCCCCCCCC(=O)[O-]
REMARK SMILES IDX 7 1 8 2 9 3 10 4 11 5 12 6 13 7 14 8 6 9 5 10 4 11 3 12 2 13
REMARK SMILES IDX 1 14
REMARK H PARENT
REMARK Flexibility Score: inf
ROOT
ATOM      1  C   UNL     1      -5.214  -3.629 -15.387  1.00  0.00     0.000 C 
ENDROOT
BRANCH   1   2
ATOM      2  C   UNL     1      -5.789  -2.683 -14.313  1.00  0.00     0.000 C 
BRANCH   2   3
ATOM      3  C   UNL     1      -7.322  -2.708 -14.172  1.00  0.00     0.000 C 
BRANCH   3   4
ATOM      4  C   UNL     1      -7.982  -3.808 -15.021  1.00  0.00     0.006 C 
BRANCH   4   5
ATOM      5  C   UNL     1      -9.419  -4.102 -14.570  1.00  0.00     0.053 C 
BRANCH   5   6
ATOM      6  C   UNL     1     -10.413  -3.817 -15.654  1.00  0.00     0.041 C 
ATOM      7  O   UNL     1     -11.627  -4.107 -15.491  1.00  0.00    -0.550 OA
ATOM      8  O   UNL     1     -10.002  -3.205 -16.831  1.00  0.00    -0.550 OA
ENDBRANCH   5   6
ENDBRANCH   4   5
ENDBRANCH   3   4
ENDBRANCH   2   3
ENDBRANCH   1   2
BRANCH   1   9
ATOM      9  C   UNL     1      -3.890  -3.172 -16.024  1.00  0.00     0.000 C 
BRANCH   9  10
ATOM     10  C   UNL     1      -3.982  -1.770 -16.651  1.00  0.00    -0.000 C 
BRANCH  10  11
ATOM     11  C   UNL     1      -3.053  -1.605 -17.866  1.00  0.00    -0.000 C 
BRANCH  11  12
ATOM     12  C   UNL     1      -1.672  -1.046 -17.480  1.00  0.00    -0.000 C 
BRANCH  12  13
ATOM     13  C   UNL     1      -0.613  -1.296 -18.565  1.00  0.00    -0.003 C 
ATOM     14  C   UNL     1      -1.150  -2.113 -19.740  1.00  0.00     0.004 C 
ENDBRANCH  12  13
ENDBRANCH  11  12
ENDBRANCH  10  11
ENDBRANCH   9  10
ENDBRANCH   1   9
TORSDOF 10
ENDMDL
MODEL 5
REMARK VINA RESULT:    -4.441      5.832      8.211
REMARK INTER + INTRA:          -7.486
REMARK INTER:                  -7.062
REMARK INTRA:                  -0.424
REMARK UNBOUND:                -0.449
REMARK SMILES CCCCCCCCCCCC(=O)[O-]
REMARK SMILES IDX 7 1 8 2 9 3 10 4 11 5 12 6 13 7 14 8 6 9 5 10 4 11 3 12 2 13
REMARK SMILES IDX 1 14
REMARK H PARENT
REMARK Flexibility Score: inf
ROOT
ATOM      1  C   UNL     1      -8.100  -2.024 -12.734  1.00  0.00     0.000 C 
ENDROOT
BRANCH   1   2
ATOM      2  C   UNL     1      -7.189  -2.733 -13.758  1.00  0.00     0.000 C 
BRANCH   2   3
ATOM      3  C   UNL     1      -7.927  -3.474 -14.887  1.00  0.00     0.000 C 
BRANCH   3   4
ATOM      4  C   UNL     1      -9.370  -3.853 -14.510  1.00  0.00     0.006 C 
BRANCH   4   5
ATOM      5  C   UNL     1     -10.309  -3.836 -15.724  1.00  0.00     0.053 C 
BRANCH   5   6
ATOM      6  C   UNL     1     -11.548  -4.643 -15.482  1.00  0.00     0.041 C 
ATOM      7  O   UNL     1     -12.683  -4.115 -15.616  1.00  0.00    -0.550 OA
ATOM      8  O   UNL     1     -11.449  -5.984 -15.135  1.00  0.00    -0.550 OA
ENDBRANCH   5   6
ENDBRANCH   4   5
ENDBRANCH   3   4
ENDBRANCH   2   3
ENDBRANCH   1   2
BRANCH   1   9
ATOM      9  C   UNL     1      -7.593  -2.043 -11.281  1.00  0.00     0.000 C 
BRANCH   9  10
ATOM     10  C   UNL     1      -6.691  -0.842 -10.948  1.00  0.00    -0.000 C 
BRANCH  10  11
ATOM     11  C   UNL     1      -6.841  -0.379  -9.489  1.00  0.00    -0.000 C 
BRANCH  11  12
ATOM     12  C   UNL     1      -6.551   1.123  -9.315  1.00  0.00    -0.000 C 
BRANCH  12  13
ATOM     13  C   UNL     1      -6.469   1.866 -10.658  1.00  0.00    -0.003 C 
ATOM     14  C   UNL     1      -7.059   3.274 -10.593  1.00  0.00     0.004 C 
ENDBRANCH  12  13
ENDBRANCH  11  12
ENDBRANCH  10  11
ENDBRANCH   9  10
ENDBRANCH   1   9
TORSDOF 10
ENDMDL
MODEL 6
REMARK VINA RESULT:    -4.429      5.146      8.374
REMARK INTER + INTRA:          -7.467
REMARK INTER:                  -7.192
REMARK INTRA:                  -0.275
REMARK UNBOUND:                -0.449
REMARK SMILES CCCCCCCCCCCC(=O)[O-]
REMARK SMILES IDX 7 1 8 2 9 3 10 4 11 5 12 6 13 7 14 8 6 9 5 10 4 11 3 12 2 13
REMARK SMILES IDX 1 14
REMARK H PARENT
REMARK Flexibility Score: inf
ROOT
ATOM      1  C   UNL     1      -7.081  -3.362 -14.212  1.00  0.00     0.000 C 
ENDROOT
BRANCH   1   2
ATOM      2  C   UNL     1      -8.098  -4.489 -14.485  1.00  0.00     0.000 C 
BRANCH   2   3
ATOM      3  C   UNL     1      -9.489  -4.017 -14.948  1.00  0.00     0.000 C 
BRANCH   3   4
ATOM      4  C   UNL     1     -10.509  -5.164 -15.039  1.00  0.00     0.006 C 
BRANCH   4   5
ATOM      5  C   UNL     1     -11.725  -4.790 -15.897  1.00  0.00     0.053 C 
BRANCH   5   6
ATOM      6  C   UNL     1     -12.853  -4.260 -15.066  1.00  0.00     0.041 C 
ATOM      7  O   UNL     1     -12.890  -4.491 -13.828  1.00  0.00    -0.550 OA
ATOM      8  O   UNL     1     -13.848  -3.488 -15.652  1.00  0.00    -0.550 OA
ENDBRANCH   5   6
ENDBRANCH   4   5
ENDBRANCH   3   4
ENDBRANCH   2   3
ENDBRANCH   1   2
BRANCH   1   9
ATOM      9  C   UNL     1      -5.811  -3.400 -15.080  1.00  0.00     0.000 C 
BRANCH   9  10
ATOM     10  C   UNL     1      -4.863  -2.220 -14.803  1.00  0.00    -0.000 C 
BRANCH  10  11
ATOM     11  C   UNL     1      -3.560  -2.306 -15.615  1.00  0.00    -0.000 C 
BRANCH  11  12
ATOM     12  C   UNL     1      -3.700  -1.697 -17.022  1.00  0.00    -0.000 C 
BRANCH  12  13
ATOM     13  C   UNL     1      -3.210  -2.647 -18.126  1.00  0.00    -0.003 C 
ATOM     14  C   UNL     1      -2.560  -1.910 -19.296  1.00  0.00     0.004 C 
ENDBRANCH  12  13
ENDBRANCH  11  12
ENDBRANCH  10  11
ENDBRANCH   9  10
ENDBRANCH   1   9
TORSDOF 10
ENDMDL
MODEL 7
REMARK VINA RESULT:    -4.400      6.064      8.250
REMARK INTER + INTRA:          -7.422
REMARK INTER:                  -7.007
REMARK INTRA:                  -0.415
REMARK UNBOUND:                -0.449
REMARK SMILES CCCCCCCCCCCC(=O)[O-]
REMARK SMILES IDX 7 1 8 2 9 3 10 4 11 5 12 6 13 7 14 8 6 9 5 10 4 11 3 12 2 13
REMARK SMILES IDX 1 14
REMARK H PARENT
REMARK Flexibility Score: inf
ROOT
ATOM      1  C   UNL     1      -7.893  -4.699 -13.434  1.00  0.00     0.000 C 
ENDROOT
BRANCH   1   2
ATOM      2  C   UNL     1      -8.323  -3.659 -14.489  1.00  0.00     0.000 C 
BRANCH   2   3
ATOM      3  C   UNL     1      -8.895  -4.246 -15.791  1.00  0.00     0.000 C 
BRANCH   3   4
ATOM      4  C   UNL     1     -10.329  -3.770 -16.082  1.00  0.00     0.006 C 
BRANCH   4   5
ATOM      5  C   UNL     1     -11.345  -4.919 -16.017  1.00  0.00     0.053 C 
BRANCH   5   6
ATOM      6  C   UNL     1     -11.773  -5.205 -14.610  1.00  0.00     0.041 C 
ATOM      7  O   UNL     1     -11.254  -6.159 -13.972  1.00  0.00    -0.550 OA
ATOM      8  O   UNL     1     -12.725  -4.402 -13.995  1.00  0.00    -0.550 OA
ENDBRANCH   5   6
ENDBRANCH   4   5
ENDBRANCH   3   4
ENDBRANCH   2   3
ENDBRANCH   1   2
BRANCH   1   9
ATOM      9  C   UNL     1      -6.683  -4.299 -12.572  1.00  0.00     0.000 C 
BRANCH   9  10
ATOM     10  C   UNL     1      -7.009  -4.258 -11.068  1.00  0.00    -0.000 C 
BRANCH  10  11
ATOM     11  C   UNL     1      -6.977  -5.651 -10.419  1.00  0.00    -0.000 C 
BRANCH  11  12
ATOM     12  C   UNL     1      -6.605  -5.598  -8.926  1.00  0.00    -0.000 C 
BRANCH  12  13
ATOM     13  C   UNL     1      -7.445  -6.562  -8.076  1.00  0.00    -0.003 C 
ATOM     14  C   UNL     1      -6.888  -6.747  -6.664  1.00  0.00     0.004 C 
ENDBRANCH  12  13
ENDBRANCH  11  12
ENDBRANCH  10  11
ENDBRANCH   9  10
ENDBRANCH   1   9
TORSDOF 10
ENDMDL
MODEL 8
REMARK VINA RESULT:    -4.376      5.310      8.164
REMARK INTER + INTRA:          -7.383
REMARK INTER:                  -7.038
REMARK INTRA:                  -0.345
REMARK UNBOUND:                -0.449
REMARK SMILES CCCCCCCCCCCC(=O)[O-]
REMARK SMILES IDX 7 1 8 2 9 3 10 4 11 5 12 6 13 7 14 8 6 9 5 10 4 11 3 12 2 13
REMARK SMILES IDX 1 14
REMARK H PARENT
REMARK Flexibility Score: inf
ROOT
ATOM      1  C   UNL     1      -4.220  -2.444 -13.668  1.00  0.00     0.000 C 
ENDROOT
BRANCH   1   2
ATOM      2  C   UNL     1      -5.082  -1.830 -12.546  1.00  0.00     0.000 C 
BRANCH   2   3
ATOM      3  C   UNL     1      -6.456  -2.493 -12.339  1.00  0.00     0.000 C 
BRANCH   3   4
ATOM      4  C   UNL     1      -7.254  -1.865 -11.183  1.00  0.00     0.006 C 
BRANCH   4   5
ATOM      5  C   UNL     1      -6.720  -0.479 -10.798  1.00  0.00     0.053 C 
BRANCH   5   6
ATOM      6  C   UNL     1      -6.525  -0.348  -9.318  1.00  0.00     0.041 C 
ATOM      7  O   UNL     1      -7.425   0.165  -8.604  1.00  0.00    -0.550 OA
ATOM      8  O   UNL     1      -5.360  -0.819  -8.726  1.00  0.00    -0.550 OA
ENDBRANCH   5   6
ENDBRANCH   4   5
ENDBRANCH   3   4
ENDBRANCH   2   3
ENDBRANCH   1   2
BRANCH   1   9
ATOM      9  C   UNL     1      -4.765  -2.252 -15.095  1.00  0.00     0.000 C 
BRANCH   9  10
ATOM     10  C   UNL     1      -3.731  -2.597 -16.180  1.00  0.00    -0.000 C 
BRANCH  10  11
ATOM     11  C   UNL     1      -3.636  -1.516 -17.270  1.00  0.00    -0.000 C 
BRANCH  11  12
ATOM     12  C   UNL     1      -2.233  -1.433 -17.898  1.00  0.00    -0.000 C 
BRANCH  12  13
ATOM     13  C   UNL     1      -2.221  -1.872 -19.370  1.00  0.00    -0.003 C 
ATOM     14  C   UNL     1      -0.816  -2.186 -19.884  1.00  0.00     0.004 C 
ENDBRANCH  12  13
ENDBRANCH  11  12
ENDBRANCH  10  11
ENDBRANCH   9  10
ENDBRANCH   1   9
TORSDOF 10
ENDMDL
MODEL 9
REMARK VINA RESULT:    -4.372      5.162      6.910
REMARK INTER + INTRA:          -7.377
REMARK INTER:                  -6.843
REMARK INTRA:                  -0.534
REMARK UNBOUND:                -0.449
REMARK SMILES CCCCCCCCCCCC(=O)[O-]
REMARK SMILES IDX 7 1 8 2 9 3 10 4 11 5 12 6 13 7 14 8 6 9 5 10 4 11 3 12 2 13
REMARK SMILES IDX 1 14
REMARK H PARENT
REMARK Flexibility Score: inf
ROOT
ATOM      1  C   UNL     1      -7.172  -0.974 -11.453  1.00  0.00     0.000 C 
ENDROOT
BRANCH   1   2
ATOM      2  C   UNL     1      -6.583  -1.493 -10.125  1.00  0.00     0.000 C 
BRANCH   2   3
ATOM      3  C   UNL     1      -6.205  -0.401  -9.106  1.00  0.00     0.000 C 
BRANCH   3   4
ATOM      4  C   UNL     1      -7.210   0.763  -9.078  1.00  0.00     0.006 C 
BRANCH   4   5
ATOM      5  C   UNL     1      -6.518   2.128  -9.195  1.00  0.00     0.053 C 
BRANCH   5   6
ATOM      6  C   UNL     1      -6.279   2.511 -10.623  1.00  0.00     0.041 C 
ATOM      7  O   UNL     1      -7.128   3.204 -11.243  1.00  0.00    -0.550 OA
ATOM      8  O   UNL     1      -5.106   2.127 -11.261  1.00  0.00    -0.550 OA
ENDBRANCH   5   6
ENDBRANCH   4   5
ENDBRANCH   3   4
ENDBRANCH   2   3
ENDBRANCH   1   2
BRANCH   1   9
ATOM      9  C   UNL     1      -8.033  -1.986 -12.228  1.00  0.00     0.000 C 
BRANCH   9  10
ATOM     10  C   UNL     1      -7.212  -2.843 -13.207  1.00  0.00    -0.000 C 
BRANCH  10  11
ATOM     11  C   UNL     1      -8.008  -3.228 -14.466  1.00  0.00    -0.000 C 
BRANCH  11  12
ATOM     12  C   UNL     1      -8.956  -4.416 -14.224  1.00  0.00    -0.000 C 
BRANCH  12  13
ATOM     13  C   UNL     1     -10.211  -4.357 -15.109  1.00  0.00    -0.003 C 
ATOM     14  C   UNL     1      -9.985  -3.577 -16.405  1.00  0.00     0.004 C 
ENDBRANCH  12  13
ENDBRANCH  11  12
ENDBRANCH  10  11
ENDBRANCH   9  10
ENDBRANCH   1   9
TORSDOF 10
ENDMDL
