MODEL 1
REMARK VINA RESULT:    -5.312      0.000      0.000
REMARK INTER + INTRA:         -11.211
REMARK INTER:                  -9.660
REMARK INTRA:                  -1.551
REMARK UNBOUND:                -1.551
REMARK SMILES CCCCCCCCCCCCCCCC(=O)[O-]
REMARK SMILES IDX 9 1 10 2 11 3 12 4 13 5 14 6 15 7 16 8 17 9 18 10 8 11 7 12
REMARK SMILES IDX 6 13 5 14 4 15 3 16 2 17 1 18
REMARK H PARENT
REMARK Flexibility Score: inf
ROOT
ATOM      1  C   UNL     1       6.758   0.027 -35.203  1.00  0.00     0.000 C 
ENDROOT
BRANCH   1   2
ATOM      2  C   UNL     1       6.993   1.048 -36.329  1.00  0.00     0.000 C 
BRANCH   2   3
ATOM      3  C   UNL     1       8.204   1.958 -36.055  1.00  0.00     0.000 C 
BRANCH   3   4
ATOM      4  C   UNL     1       9.220   1.317 -35.097  1.00  0.00     0.000 C 
BRANCH   4   5
ATOM      5  C   UNL     1      10.636   1.891 -35.260  1.00  0.00     0.000 C 
BRANCH   5   6
ATOM      6  C   UNL     1      11.395   1.870 -33.925  1.00  0.00     0.006 C 
BRANCH   6   7
ATOM      7  C   UNL     1      10.493   1.475 -32.749  1.00  0.00     0.053 C 
BRANCH   7   8
ATOM      8  C   UNL     1      10.874   2.189 -31.489  1.00  0.00     0.041 C 
ATOM      9  O   UNL     1      10.546   1.718 -30.369  1.00  0.00    -0.550 OA
ATOM     10  O   UNL     1      11.622   3.358 -31.551  1.00  0.00    -0.550 OA
ENDBRANCH   7   8
ENDBRANCH   6   7
ENDBRANCH   5   6
ENDBRANCH   4   5
ENDBRANCH   3   4
ENDBRANCH   2   3
ENDBRANCH   1   2
BRANCH   1  11
ATOM     11  C   UNL     1       5.359   0.156 -34.576  1.00  0.00     0.000 C 
BRANCH  11  12
ATOM     12  C   UNL     1       5.337   1.075 -33.341  1.00  0.00    -0.000 C 
BRANCH  12  13
ATOM     13  C   UNL     1       6.392   0.756 -32.265  1.00  0.00    -0.000 C 
BRANCH  13  14
ATOM     14  C   UNL     1       6.943   2.014 -31.573  1.00  0.00    -0.000 C 
BRANCH  14  15
ATOM     15  C   UNL     1       6.977   1.878 -30.042  1.00  0.00    -0.000 C 
BRANCH  15  16
ATOM     16  C   UNL     1       6.612   0.461 -29.564  1.00  0.00    -0.000 C 
BRANCH  16  17
ATOM     17  C   UNL     1       7.485  -0.006 -28.390  1.00  0.00    -0.003 C 
ATOM     18  C   UNL     1       8.110   1.157 -27.619  1.00  0.00     0.004 C 
ENDBRANCH  16  17
ENDBRANCH  15  16
ENDBRANCH  14  15
ENDBRANCH  13  14
ENDBRANCH  12  13
ENDBRANCH  11  12
ENDBRANCH   1  11
TORSDOF 14
ENDMDL
MODEL 2
REMARK VINA RESULT:    -5.238      3.028      5.888
REMARK INTER + INTRA:         -11.077
REMARK INTER:                 -10.051
REMARK INTRA:                  -1.026
REMARK UNBOUND:                -1.551
REMARK SMILES CCCCCCCCCCCCCCCC(=O)[O-]
REMARK SMILES IDX 9 1 10 2 11 3 12 4 13 5 14 6 15 7 16 8 17 9 18 10 8 11 7 12
REMARK SMILES IDX 6 13 5 14 4 15 3 16 2 17 1 18
REMARK H PARENT
REMARK Flexibility Score: inf
ROOT
ATOM      1  C   UNL     1       8.599  -1.089 -38.111  1.00  0.00     0.000 C 
ENDROOT
BRANCH   1   2
ATOM      2  C   UNL     1       7.549  -1.344 -37.016  1.00  0.00     0.000 C 
BRANCH   2   3
ATOM      3  C   UNL     1       7.354  -2.843 -36.725  1.00  0.00     0.000 C 
BRANCH   3   4
ATOM      4  C   UNL     1       6.255  -3.104 -35.683  1.00  0.00     0.000 C 
BRANCH   4   5
ATOM      5  C   UNL     1       5.345  -1.887 -35.459  1.00  0.00     0.000 C 
BRANCH   5   6
ATOM      6  C   UNL     1       5.511  -1.330 -34.037  1.00  0.00     0.006 C 
BRANCH   6   7
ATOM      7  C   UNL     1       5.083   0.139 -33.934  1.00  0.00     0.053 C 
BRANCH   7   8
ATOM      8  C   UNL     1       6.025   0.936 -33.084  1.00  0.00     0.041 C 
ATOM      9  O   UNL     1       6.612   1.943 -33.560  1.00  0.00    -0.550 OA
ATOM     10  O   UNL     1       6.229   0.585 -31.755  1.00  0.00    -0.550 OA
ENDBRANCH   7   8
ENDBRANCH   6   7
ENDBRANCH   5   6
ENDBRANCH   4   5
ENDBRANCH   3   4
ENDBRANCH   2   3
ENDBRANCH   1   2
BRANCH   1  11
ATOM     11  C   UNL     1       9.033   0.385 -38.177  1.00  0.00     0.000 C 
BRANCH  11  12
ATOM     12  C   UNL     1       7.998   1.344 -37.561  1.00  0.00    -0.000 C 
BRANCH  12  13
ATOM     13  C   UNL     1       8.535   2.267 -36.451  1.00  0.00    -0.000 C 
BRANCH  13  14
ATOM     14  C   UNL     1       9.483   1.546 -35.479  1.00  0.00    -0.000 C 
BRANCH  14  15
ATOM     15  C   UNL     1      10.939   2.020 -35.616  1.00  0.00    -0.000 C 
BRANCH  15  16
ATOM     16  C   UNL     1      11.808   1.631 -34.406  1.00  0.00    -0.000 C 
BRANCH  16  17
ATOM     17  C   UNL     1      13.296   1.942 -34.626  1.00  0.00    -0.003 C 
ATOM     18  C   UNL     1      14.020   2.308 -33.330  1.00  0.00     0.004 C 
ENDBRANCH  16  17
ENDBRANCH  15  16
ENDBRANCH  14  15
ENDBRANCH  13  14
ENDBRANCH  12  13
ENDBRANCH  11  12
ENDBRANCH   1  11
TORSDOF 14
ENDMDL
MODEL 3
REMARK VINA RESULT:    -5.161      2.236      5.349
REMARK INTER + INTRA:         -10.936
REMARK INTER:                  -9.220
REMARK INTRA:                  -1.716
REMARK UNBOUND:                -1.551
REMARK SMILES CCCCCCCCCCCCCCCC(=O)[O-]
REMARK SMILES IDX 9 1 10 2 11 3 12 4 13 5 14 6 15 7 16 8 17 9 18 10 8 11 7 12
REMARK SMILES IDX 6 13 5 14 4 15 3 16 2 17 1 18
REMARK H PARENT
REMARK Flexibility Score: inf
ROOT
ATOM      1  C   UNL     1       6.754  -3.082 -36.702  1.00  0.00     0.000 C 
ENDROOT
BRANCH   1   2
ATOM      2  C   UNL     1       5.622  -2.914 -35.673  1.00  0.00     0.000 C 
BRANCH   2   3
ATOM      3  C   UNL     1       5.849  -1.712 -34.740  1.00  0.00     0.000 C 
BRANCH   3   4
ATOM      4  C   UNL     1       4.818  -0.593 -34.958  1.00  0.00     0.000 C 
BRANCH   4   5
ATOM      5  C   UNL     1       4.894   0.504 -33.884  1.00  0.00     0.000 C 
BRANCH   5   6
ATOM      6  C   UNL     1       6.133   0.317 -32.994  1.00  0.00     0.006 C 
BRANCH   6   7
ATOM      7  C   UNL     1       6.493   1.593 -32.225  1.00  0.00     0.053 C 
BRANCH   7   8
ATOM      8  C   UNL     1       6.654   1.333 -30.758  1.00  0.00     0.041 C 
ATOM      9  O   UNL     1       6.585   0.158 -30.312  1.00  0.00    -0.550 OA
ATOM     10  O   UNL     1       6.915   2.385 -29.889  1.00  0.00    -0.550 OA
ENDBRANCH   7   8
ENDBRANCH   6   7
ENDBRANCH   5   6
ENDBRANCH   4   5
ENDBRANCH   3   4
ENDBRANCH   2   3
ENDBRANCH   1   2
BRANCH   1  11
ATOM     11  C   UNL     1       7.776  -1.934 -36.644  1.00  0.00     0.000 C 
BRANCH  11  12
ATOM     12  C   UNL     1       8.101  -1.349 -38.031  1.00  0.00    -0.000 C 
BRANCH  12  13
ATOM     13  C   UNL     1       8.731   0.056 -38.021  1.00  0.00    -0.000 C 
BRANCH  13  14
ATOM     14  C   UNL     1       7.743   1.154 -37.594  1.00  0.00    -0.000 C 
BRANCH  14  15
ATOM     15  C   UNL     1       7.912   1.557 -36.120  1.00  0.00    -0.000 C 
BRANCH  15  16
ATOM     16  C   UNL     1       9.377   1.503 -35.653  1.00  0.00    -0.000 C 
BRANCH  16  17
ATOM     17  C   UNL     1       9.505   1.441 -34.124  1.00  0.00    -0.003 C 
ATOM     18  C   UNL     1      10.956   1.529 -33.649  1.00  0.00     0.004 C 
ENDBRANCH  16  17
ENDBRANCH  15  16
ENDBRANCH  14  15
ENDBRANCH  13  14
ENDBRANCH  12  13
ENDBRANCH  11  12
ENDBRANCH   1  11
TORSDOF 14
ENDMDL
MODEL 4
REMARK VINA RESULT:    -5.122      2.752      6.892
REMARK INTER + INTRA:         -10.865
REMARK INTER:                  -9.755
REMARK INTRA:                  -1.110
REMARK UNBOUND:                -1.551
REMARK SMILES CCCCCCCCCCCCCCCC(=O)[O-]
REMARK SMILES IDX 9 1 10 2 11 3 12 4 13 5 14 6 15 7 16 8 17 9 18 10 8 11 7 12
REMARK SMILES IDX 6 13 5 14 4 15 3 16 2 17 1 18
REMARK H PARENT
REMARK Flexibility Score: inf
ROOT
ATOM      1  C   UNL     1       9.446   1.821 -31.493  1.00  0.00     0.000 C 
ENDROOT
BRANCH   1   2
ATOM      2  C   UNL     1       8.215   1.585 -32.384  1.00  0.00     0.000 C 
BRANCH   2   3
ATOM      3  C   UNL     1       6.997   1.087 -31.586  1.00  0.00     0.000 C 
BRANCH   3   4
ATOM      4  C   UNL     1       6.780   1.875 -30.285  1.00  0.00     0.000 C 
BRANCH   4   5
ATOM      5  C   UNL     1       6.686   0.969 -29.049  1.00  0.00     0.000 C 
BRANCH   5   6
ATOM      6  C   UNL     1       6.216  -0.442 -29.436  1.00  0.00     0.006 C 
BRANCH   6   7
ATOM      7  C   UNL     1       5.436  -1.125 -28.306  1.00  0.00     0.053 C 
BRANCH   7   8
ATOM      8  C   UNL     1       6.349  -1.687 -27.259  1.00  0.00     0.041 C 
ATOM      9  O   UNL     1       5.994  -1.704 -26.051  1.00  0.00    -0.550 OA
ATOM     10  O   UNL     1       7.579  -2.221 -27.622  1.00  0.00    -0.550 OA
ENDBRANCH   7   8
ENDBRANCH   6   7
ENDBRANCH   5   6
ENDBRANCH   4   5
ENDBRANCH   3   4
ENDBRANCH   2   3
ENDBRANCH   1   2
BRANCH   1  11
ATOM     11  C   UNL     1      10.745   1.306 -32.136  1.00  0.00     0.000 C 
BRANCH  11  12
ATOM     12  C   UNL     1      11.389   2.329 -33.089  1.00  0.00    -0.000 C 
BRANCH  12  13
ATOM     13  C   UNL     1      11.840   1.766 -34.450  1.00  0.00    -0.000 C 
BRANCH  13  14
ATOM     14  C   UNL     1      10.929   2.200 -35.610  1.00  0.00    -0.000 C 
BRANCH  14  15
ATOM     15  C   UNL     1       9.655   1.346 -35.710  1.00  0.00    -0.000 C 
BRANCH  15  16
ATOM     16  C   UNL     1       8.480   2.105 -36.353  1.00  0.00    -0.000 C 
BRANCH  16  17
ATOM     17  C   UNL     1       7.975   1.429 -37.637  1.00  0.00    -0.003 C 
ATOM     18  C   UNL     1       8.962   0.401 -38.189  1.00  0.00     0.004 C 
ENDBRANCH  16  17
ENDBRANCH  15  16
ENDBRANCH  14  15
ENDBRANCH  13  14
ENDBRANCH  12  13
ENDBRANCH  11  12
ENDBRANCH   1  11
TORSDOF 14
ENDMDL
MODEL 5
REMARK VINA RESULT:    -5.114      2.954      6.088
REMARK INTER + INTRA:         -10.851
REMARK INTER:                  -9.447
REMARK INTRA:                  -1.404
REMARK UNBOUND:                -1.551
REMARK SMILES CCCCCCCCCCCCCCCC(=O)[O-]
REMARK SMILES IDX 9 1 10 2 11 3 12 4 13 5 14 6 15 7 16 8 17 9 18 10 8 11 7 12
REMARK SMILES IDX 6 13 5 14 4 15 3 16 2 17 1 18
REMARK H PARENT
REMARK Flexibility Score: inf
ROOT
ATOM      1  C   UNL     1       7.771   1.640 -29.793  1.00  0.00     0.000 C 
ENDROOT
BRANCH   1   2
ATOM      2  C   UNL     1       6.806   0.899 -30.734  1.00  0.00     0.000 C 
BRANCH   2   3
ATOM      3  C   UNL     1       6.540   1.676 -32.035  1.00  0.00     0.000 C 
BRANCH   3   4
ATOM      4  C   UNL     1       6.990   0.905 -33.286  1.00  0.00     0.000 C 
BRANCH   4   5
ATOM      5  C   UNL     1       7.375   1.831 -34.450  1.00  0.00     0.000 C 
BRANCH   5   6
ATOM      6  C   UNL     1       8.739   1.437 -35.038  1.00  0.00     0.006 C 
BRANCH   6   7
ATOM      7  C   UNL     1       8.803   1.655 -36.555  1.00  0.00     0.053 C 
BRANCH   7   8
ATOM      8  C   UNL     1       8.708   0.363 -37.308  1.00  0.00     0.041 C 
ATOM      9  O   UNL     1       8.106  -0.621 -36.805  1.00  0.00    -0.550 OA
ATOM     10  O   UNL     1       9.257   0.257 -38.580  1.00  0.00    -0.550 OA
ENDBRANCH   7   8
ENDBRANCH   6   7
ENDBRANCH   5   6
ENDBRANCH   4   5
ENDBRANCH   3   4
ENDBRANCH   2   3
ENDBRANCH   1   2
BRANCH   1  11
ATOM     11  C   UNL     1       8.934   0.748 -29.323  1.00  0.00     0.000 C 
BRANCH  11  12
ATOM     12  C   UNL     1      10.299   1.205 -29.869  1.00  0.00    -0.000 C 
BRANCH  12  13
ATOM     13  C   UNL     1      10.241   2.090 -31.128  1.00  0.00    -0.000 C 
BRANCH  13  14
ATOM     14  C   UNL     1      11.109   1.553 -32.279  1.00  0.00    -0.000 C 
BRANCH  14  15
ATOM     15  C   UNL     1      11.931   2.658 -32.962  1.00  0.00    -0.000 C 
BRANCH  15  16
ATOM     16  C   UNL     1      13.416   2.285 -33.114  1.00  0.00    -0.000 C 
BRANCH  16  17
ATOM     17  C   UNL     1      13.793   1.951 -34.565  1.00  0.00    -0.003 C 
ATOM     18  C   UNL     1      12.843   2.583 -35.582  1.00  0.00     0.004 C 
ENDBRANCH  16  17
ENDBRANCH  15  16
ENDBRANCH  14  15
ENDBRANCH  13  14
ENDBRANCH  12  13
ENDBRANCH  11  12
ENDBRANCH   1  11
TORSDOF 14
ENDMDL
MODEL 6
REMARK VINA RESULT:    -5.066      2.297      6.401
REMARK INTER + INTRA:         -10.763
REMARK INTER:                  -9.545
REMARK INTRA:                  -1.217
REMARK UNBOUND:                -1.551
REMARK SMILES CCCCCCCCCCCCCCCC(=O)[O-]
REMARK SMILES IDX 9 1 10 2 11 3 12 4 13 5 14 6 15 7 16 8 17 9 18 10 8 11 7 12
REMARK SMILES IDX 6 13 5 14 4 15 3 16 2 17 1 18
REMARK H PARENT
REMARK Flexibility Score: inf
ROOT
ATOM      1  C   UNL     1      11.562   1.392 -33.475  1.00  0.00     0.000 C 
ENDROOT
BRANCH   1   2
ATOM      2  C   UNL     1      11.484   2.283 -32.223  1.00  0.00     0.000 C 
BRANCH   2   3
ATOM      3  C   UNL     1      10.091   2.258 -31.569  1.00  0.00     0.000 C 
BRANCH   3   4
ATOM      4  C   UNL     1       9.088   1.391 -32.346  1.00  0.00     0.000 C 
BRANCH   4   5
ATOM      5  C   UNL     1       7.629   1.807 -32.105  1.00  0.00     0.000 C 
BRANCH   5   6
ATOM      6  C   UNL     1       7.284   1.760 -30.609  1.00  0.00     0.006 C 
BRANCH   6   7
ATOM      7  C   UNL     1       6.660   0.421 -30.198  1.00  0.00     0.053 C 
BRANCH   7   8
ATOM      8  C   UNL     1       7.249  -0.100 -28.923  1.00  0.00     0.041 C 
ATOM      9  O   UNL     1       7.382  -1.340 -28.746  1.00  0.00    -0.550 OA
ATOM     10  O   UNL     1       7.683   0.785 -27.944  1.00  0.00    -0.550 OA
ENDBRANCH   7   8
ENDBRANCH   6   7
ENDBRANCH   5   6
ENDBRANCH   4   5
ENDBRANCH   3   4
ENDBRANCH   2   3
ENDBRANCH   1   2
BRANCH   1  11
ATOM     11  C   UNL     1      12.121   2.142 -34.696  1.00  0.00     0.000 C 
BRANCH  11  12
ATOM     12  C   UNL     1      11.037   2.501 -35.728  1.00  0.00    -0.000 C 
BRANCH  12  13
ATOM     13  C   UNL     1       9.809   1.571 -35.743  1.00  0.00    -0.000 C 
BRANCH  13  14
ATOM     14  C   UNL     1       8.569   2.225 -36.374  1.00  0.00    -0.000 C 
BRANCH  14  15
ATOM     15  C   UNL     1       7.914   1.336 -37.444  1.00  0.00    -0.000 C 
BRANCH  15  16
ATOM     16  C   UNL     1       8.941   0.510 -38.240  1.00  0.00    -0.000 C 
BRANCH  16  17
ATOM     17  C   UNL     1       8.401  -0.871 -38.639  1.00  0.00    -0.003 C 
ATOM     18  C   UNL     1       8.164  -1.782 -37.435  1.00  0.00     0.004 C 
ENDBRANCH  16  17
ENDBRANCH  15  16
ENDBRANCH  14  15
ENDBRANCH  13  14
ENDBRANCH  12  13
ENDBRANCH  11  12
ENDBRANCH   1  11
TORSDOF 14
ENDMDL
MODEL 7
REMARK VINA RESULT:    -4.998      2.210      6.494
REMARK INTER + INTRA:         -10.641
REMARK INTER:                  -9.293
REMARK INTRA:                  -1.347
REMARK UNBOUND:                -1.551
REMARK SMILES CCCCCCCCCCCCCCCC(=O)[O-]
REMARK SMILES IDX 9 1 10 2 11 3 12 4 13 5 14 6 15 7 16 8 17 9 18 10 8 11 7 12
REMARK SMILES IDX 6 13 5 14 4 15 3 16 2 17 1 18
REMARK H PARENT
REMARK Flexibility Score: inf
ROOT
ATOM      1  C   UNL     1      13.508   1.732 -33.584  1.00  0.00     0.000 C 
ENDROOT
BRANCH   1   2
ATOM      2  C   UNL     1      13.632   2.661 -32.365  1.00  0.00     0.000 C 
BRANCH   2   3
ATOM      3  C   UNL     1      12.274   2.940 -31.697  1.00  0.00     0.000 C 
BRANCH   3   4
ATOM      4  C   UNL     1      11.143   2.073 -32.272  1.00  0.00     0.000 C 
BRANCH   4   5
ATOM      5  C   UNL     1      10.027   1.799 -31.253  1.00  0.00     0.000 C 
BRANCH   5   6
ATOM      6  C   UNL     1       8.687   1.544 -31.961  1.00  0.00     0.006 C 
BRANCH   6   7
ATOM      7  C   UNL     1       7.491   2.038 -31.137  1.00  0.00     0.053 C 
BRANCH   7   8
ATOM      8  C   UNL     1       7.125   1.072 -30.052  1.00  0.00     0.041 C 
ATOM      9  O   UNL     1       7.564   1.235 -28.883  1.00  0.00    -0.550 OA
ATOM     10  O   UNL     1       6.271   0.011 -30.324  1.00  0.00    -0.550 OA
ENDBRANCH   7   8
ENDBRANCH   6   7
ENDBRANCH   5   6
ENDBRANCH   4   5
ENDBRANCH   3   4
ENDBRANCH   2   3
ENDBRANCH   1   2
BRANCH   1  11
ATOM     11  C   UNL     1      13.658   2.487 -34.916  1.00  0.00     0.000 C 
BRANCH  11  12
ATOM     12  C   UNL     1      12.308   2.931 -35.509  1.00  0.00    -0.000 C 
BRANCH  12  13
ATOM     13  C   UNL     1      11.321   1.791 -35.824  1.00  0.00    -0.000 C 
BRANCH  13  14
ATOM     14  C   UNL     1       9.850   2.225 -35.717  1.00  0.00    -0.000 C 
BRANCH  14  15
ATOM     15  C   UNL     1       8.900   1.038 -35.491  1.00  0.00    -0.000 C 
BRANCH  15  16
ATOM     16  C   UNL     1       7.718   1.027 -36.477  1.00  0.00    -0.000 C 
BRANCH  16  17
ATOM     17  C   UNL     1       8.174   0.927 -37.941  1.00  0.00    -0.003 C 
ATOM     18  C   UNL     1       8.846  -0.408 -38.260  1.00  0.00     0.004 C 
ENDBRANCH  16  17
ENDBRANCH  15  16
ENDBRANCH  14  15
ENDBRANCH  13  14
ENDBRANCH  12  13
ENDBRANCH  11  12
ENDBRANCH   1  11
TORSDOF 14
ENDMDL
MODEL 8
REMARK VINA RESULT:    -4.956      3.069      5.498
REMARK INTER + INTRA:         -10.563
REMARK INTER:                  -9.319
REMARK INTRA:                  -1.243
REMARK UNBOUND:                -1.551
REMARK SMILES CCCCCCCCCCCCCCCC(=O)[O-]
REMARK SMILES IDX 9 1 10 2 11 3 12 4 13 5 14 6 15 7 16 8 17 9 18 10 8 11 7 12
REMARK SMILES IDX 6 13 5 14 4 15 3 16 2 17 1 18
REMARK H PARENT
REMARK Flexibility Score: inf
ROOT
ATOM      1  C   UNL     1      13.752   2.188 -32.596  1.00  0.00     0.000 C 
ENDROOT
BRANCH   1   2
ATOM      2  C   UNL     1      12.806   1.709 -33.710  1.00  0.00     0.000 C 
BRANCH   2   3
ATOM      3  C   UNL     1      12.916   2.565 -34.984  1.00  0.00     0.000 C 
BRANCH   3   4
ATOM      4  C   UNL     1      11.612   2.586 -35.797  1.00  0.00     0.000 C 
BRANCH   4   5
ATOM      5  C   UNL     1      10.517   1.696 -35.188  1.00  0.00     0.000 C 
BRANCH   5   6
ATOM      6  C   UNL     1       9.225   1.769 -36.016  1.00  0.00     0.006 C 
BRANCH   6   7
ATOM      7  C   UNL     1       8.491   0.424 -36.068  1.00  0.00     0.053 C 
BRANCH   7   8
ATOM      8  C   UNL     1       8.652  -0.248 -37.397  1.00  0.00     0.041 C 
ATOM      9  O   UNL     1       8.191  -1.405 -37.583  1.00  0.00    -0.550 OA
ATOM     10  O   UNL     1       9.281   0.418 -38.442  1.00  0.00    -0.550 OA
ENDBRANCH   7   8
ENDBRANCH   6   7
ENDBRANCH   5   6
ENDBRANCH   4   5
ENDBRANCH   3   4
ENDBRANCH   2   3
ENDBRANCH   1   2
BRANCH   1  11
ATOM     11  C   UNL     1      13.053   3.119 -31.590  1.00  0.00     0.000 C 
BRANCH  11  12
ATOM     12  C   UNL     1      11.520   3.119 -31.737  1.00  0.00    -0.000 C 
BRANCH  12  13
ATOM     13  C   UNL     1      10.795   1.937 -31.065  1.00  0.00    -0.000 C 
BRANCH  13  14
ATOM     14  C   UNL     1       9.426   1.637 -31.697  1.00  0.00    -0.000 C 
BRANCH  14  15
ATOM     15  C   UNL     1       8.298   1.570 -30.655  1.00  0.00    -0.000 C 
BRANCH  15  16
ATOM     16  C   UNL     1       6.922   1.929 -31.245  1.00  0.00    -0.000 C 
BRANCH  16  17
ATOM     17  C   UNL     1       6.265   0.743 -31.967  1.00  0.00    -0.003 C 
ATOM     18  C   UNL     1       5.922   1.056 -33.424  1.00  0.00     0.004 C 
ENDBRANCH  16  17
ENDBRANCH  15  16
ENDBRANCH  14  15
ENDBRANCH  13  14
ENDBRANCH  12  13
ENDBRANCH  11  12
ENDBRANCH   1  11
TORSDOF 14
ENDMDL
MODEL 9
REMARK VINA RESULT:    -4.899      3.017      6.134
REMARK INTER + INTRA:         -10.460
REMARK INTER:                  -9.344
REMARK INTRA:                  -1.116
REMARK UNBOUND:                -1.551
REMARK SMILES CCCCCCCCCCCCCCCC(=O)[O-]
REMARK SMILES IDX 9 1 10 2 11 3 12 4 13 5 14 6 15 7 16 8 17 9 18 10 8 11 7 12
REMARK SMILES IDX 6 13 5 14 4 15 3 16 2 17 1 18
REMARK H PARENT
REMARK Flexibility Score: inf
ROOT
ATOM      1  C   UNL     1       5.763   0.771 -32.317  1.00  0.00     0.000 C 
ENDROOT
BRANCH   1   2
ATOM      2  C   UNL     1       7.127   1.457 -32.499  1.00  0.00     0.000 C 
BRANCH   2   3
ATOM      3  C   UNL     1       7.832   1.731 -31.159  1.00  0.00     0.000 C 
BRANCH   3   4
ATOM      4  C   UNL     1       6.865   1.698 -29.965  1.00  0.00     0.000 C 
BRANCH   4   5
ATOM      5  C   UNL     1       7.342   0.769 -28.838  1.00  0.00     0.000 C 
BRANCH   5   6
ATOM      6  C   UNL     1       6.465  -0.490 -28.755  1.00  0.00     0.006 C 
BRANCH   6   7
ATOM      7  C   UNL     1       7.188  -1.658 -28.073  1.00  0.00     0.053 C 
BRANCH   7   8
ATOM      8  C   UNL     1       6.298  -2.374 -27.102  1.00  0.00     0.041 C 
ATOM      9  O   UNL     1       5.841  -3.512 -27.383  1.00  0.00    -0.550 OA
ATOM     10  O   UNL     1       6.002  -1.796 -25.874  1.00  0.00    -0.550 OA
ENDBRANCH   7   8
ENDBRANCH   6   7
ENDBRANCH   5   6
ENDBRANCH   4   5
ENDBRANCH   3   4
ENDBRANCH   2   3
ENDBRANCH   1   2
BRANCH   1  11
ATOM     11  C   UNL     1       5.534  -0.362 -33.331  1.00  0.00     0.000 C 
BRANCH  11  12
ATOM     12  C   UNL     1       5.471   0.138 -34.786  1.00  0.00    -0.000 C 
BRANCH  12  13
ATOM     13  C   UNL     1       6.708  -0.182 -35.646  1.00  0.00    -0.000 C 
BRANCH  13  14
ATOM     14  C   UNL     1       7.518   1.071 -36.019  1.00  0.00    -0.000 C 
BRANCH  14  15
ATOM     15  C   UNL     1       8.985   0.748 -36.346  1.00  0.00    -0.000 C 
BRANCH  15  16
ATOM     16  C   UNL     1       9.966   1.780 -35.762  1.00  0.00    -0.000 C 
BRANCH  16  17
ATOM     17  C   UNL     1      10.348   1.470 -34.307  1.00  0.00    -0.003 C 
ATOM     18  C   UNL     1      11.740   1.984 -33.940  1.00  0.00     0.004 C 
ENDBRANCH  16  17
ENDBRANCH  15  16
ENDBRANCH  14  15
ENDBRANCH  13  14
ENDBRANCH  12  13
ENDBRANCH  11  12
ENDBRANCH   1  11
TORSDOF 14
ENDMDL
