MODEL 1
REMARK VINA RESULT:    -4.037      0.000      0.000
REMARK INTER + INTRA:         -13.454
REMARK INTER:                  -9.229
REMARK INTRA:                  -4.225
REMARK UNBOUND:                -4.225
REMARK SMILES CCCCCCCCCCCCCCCCCCCCCCCC(=O)[O-]
REMARK SMILES IDX 13 1 14 2 15 3 16 4 17 5 18 6 19 7 20 8 21 9 22 10 23 11
REMARK SMILES IDX 24 12 25 13 26 14 12 15 11 16 10 17 9 18 8 19 7 20 6 21 5 22
REMARK SMILES IDX 4 23 3 24 2 25 1 26
REMARK H PARENT
REMARK Flexibility Score: inf
ROOT
ATOM      1  C   UNL     1      49.246  -4.576  72.650  1.00  0.00     0.000 C 
ENDROOT
BRANCH   1   2
ATOM      2  C   UNL     1      49.822  -3.260  72.104  1.00  0.00     0.000 C 
BRANCH   2   3
ATOM      3  C   UNL     1      48.990  -2.027  72.519  1.00  0.00     0.000 C 
BRANCH   3   4
ATOM      4  C   UNL     1      49.623  -0.680  72.116  1.00  0.00     0.000 C 
BRANCH   4   5
ATOM      5  C   UNL     1      50.883  -0.280  72.910  1.00  0.00     0.000 C 
BRANCH   5   6
ATOM      6  C   UNL     1      52.121   0.038  72.049  1.00  0.00     0.000 C 
BRANCH   6   7
ATOM      7  C   UNL     1      53.292  -0.925  72.311  1.00  0.00     0.000 C 
BRANCH   7   8
ATOM      8  C   UNL     1      53.002  -1.908  73.457  1.00  0.00     0.000 C 
BRANCH   8   9
ATOM      9  C   UNL     1      53.304  -3.364  73.072  1.00  0.00     0.000 C 
BRANCH   9  10
ATOM     10  C   UNL     1      53.750  -4.178  74.296  1.00  0.00     0.006 C 
BRANCH  10  11
ATOM     11  C   UNL     1      55.240  -4.541  74.241  1.00  0.00     0.053 C 
BRANCH  11  12
ATOM     12  C   UNL     1      55.457  -6.018  74.367  1.00  0.00     0.041 C 
ATOM     13  O   UNL     1      56.621  -6.478  74.515  1.00  0.00    -0.550 OA
ATOM     14  O   UNL     1      54.380  -6.890  74.278  1.00  0.00    -0.550 OA
ENDBRANCH  11  12
ENDBRANCH  10  11
ENDBRANCH   9  10
ENDBRANCH   8   9
ENDBRANCH   7   8
ENDBRANCH   6   7
ENDBRANCH   5   6
ENDBRANCH   4   5
ENDBRANCH   3   4
ENDBRANCH   2   3
ENDBRANCH   1   2
BRANCH   1  15
ATOM     15  C   UNL     1      47.758  -4.465  73.027  1.00  0.00     0.000 C 
BRANCH  15  16
ATOM     16  C   UNL     1      47.445  -4.971  74.452  1.00  0.00     0.000 C 
BRANCH  16  17
ATOM     17  C   UNL     1      48.455  -6.029  74.932  1.00  0.00     0.000 C 
BRANCH  17  18
ATOM     18  C   UNL     1      49.181  -5.605  76.218  1.00  0.00    -0.000 C 
BRANCH  18  19
ATOM     19  C   UNL     1      50.574  -5.016  75.941  1.00  0.00    -0.000 C 
BRANCH  19  20
ATOM     20  C   UNL     1      50.827  -3.719  76.727  1.00  0.00    -0.000 C 
BRANCH  20  21
ATOM     21  C   UNL     1      50.447  -2.463  75.924  1.00  0.00    -0.000 C 
BRANCH  21  22
ATOM     22  C   UNL     1      48.987  -2.035  76.149  1.00  0.00    -0.000 C 
BRANCH  22  23
ATOM     23  C   UNL     1      48.673  -1.775  77.633  1.00  0.00    -0.000 C 
BRANCH  23  24
ATOM     24  C   UNL     1      47.313  -2.348  78.058  1.00  0.00    -0.000 C 
BRANCH  24  25
ATOM     25  C   UNL     1      47.437  -3.703  78.772  1.00  0.00    -0.003 C 
ATOM     26  C   UNL     1      48.714  -3.767  79.606  1.00  0.00     0.004 C 
ENDBRANCH  24  25
ENDBRANCH  23  24
ENDBRANCH  22  23
ENDBRANCH  21  22
ENDBRANCH  20  21
ENDBRANCH  19  20
ENDBRANCH  18  19
ENDBRANCH  17  18
ENDBRANCH  16  17
ENDBRANCH  15  16
ENDBRANCH   1  15
TORSDOF 22
ENDMDL
MODEL 2
REMARK VINA RESULT:    -3.891      1.722      3.484
REMARK INTER + INTRA:         -13.120
REMARK INTER:                  -9.234
REMARK INTRA:                  -3.886
REMARK UNBOUND:                -4.225
REMARK SMILES CCCCCCCCCCCCCCCCCCCCCCCC(=O)[O-]
REMARK SMILES IDX 13 1 14 2 15 3 16 4 17 5 18 6 19 7 20 8 21 9 22 10 23 11
REMARK SMILES IDX 24 12 25 13 26 14 12 15 11 16 10 17 9 18 8 19 7 20 6 21 5 22
REMARK SMILES IDX 4 23 3 24 2 25 1 26
REMARK H PARENT
REMARK Flexibility Score: inf
ROOT
ATOM      1  C   UNL     1      48.360  -3.474  74.906  1.00  0.00     0.000 C 
ENDROOT
BRANCH   1   2
ATOM      2  C   UNL     1      48.895  -2.730  76.140  1.00  0.00     0.000 C 
BRANCH   2   3
ATOM      3  C   UNL     1      49.259  -1.260  75.840  1.00  0.00     0.000 C 
BRANCH   3   4
ATOM      4  C   UNL     1      48.167  -0.489  75.072  1.00  0.00     0.000 C 
BRANCH   4   5
ATOM      5  C   UNL     1      48.629   0.177  73.761  1.00  0.00     0.000 C 
BRANCH   5   6
ATOM      6  C   UNL     1      48.607  -0.739  72.522  1.00  0.00     0.000 C 
BRANCH   6   7
ATOM      7  C   UNL     1      49.973  -0.827  71.821  1.00  0.00     0.000 C 
BRANCH   7   8
ATOM      8  C   UNL     1      51.149  -0.630  72.792  1.00  0.00     0.000 C 
BRANCH   8   9
ATOM      9  C   UNL     1      52.244  -1.691  72.612  1.00  0.00     0.000 C 
BRANCH   9  10
ATOM     10  C   UNL     1      52.660  -2.291  73.964  1.00  0.00     0.006 C 
BRANCH  10  11
ATOM     11  C   UNL     1      53.229  -3.709  73.820  1.00  0.00     0.053 C 
BRANCH  11  12
ATOM     12  C   UNL     1      54.345  -3.961  74.787  1.00  0.00     0.041 C 
ATOM     13  O   UNL     1      55.051  -3.005  75.203  1.00  0.00    -0.550 OA
ATOM     14  O   UNL     1      54.634  -5.257  75.194  1.00  0.00    -0.550 OA
ENDBRANCH  11  12
ENDBRANCH  10  11
ENDBRANCH   9  10
ENDBRANCH   8   9
ENDBRANCH   7   8
ENDBRANCH   6   7
ENDBRANCH   5   6
ENDBRANCH   4   5
ENDBRANCH   3   4
ENDBRANCH   2   3
ENDBRANCH   1   2
BRANCH   1  15
ATOM     15  C   UNL     1      49.480  -4.075  74.040  1.00  0.00     0.000 C 
BRANCH  15  16
ATOM     16  C   UNL     1      49.009  -4.508  72.635  1.00  0.00     0.000 C 
BRANCH  16  17
ATOM     17  C   UNL     1      47.518  -4.895  72.612  1.00  0.00     0.000 C 
BRANCH  17  18
ATOM     18  C   UNL     1      47.306  -6.413  72.725  1.00  0.00    -0.000 C 
BRANCH  18  19
ATOM     19  C   UNL     1      46.822  -6.837  74.122  1.00  0.00    -0.000 C 
BRANCH  19  20
ATOM     20  C   UNL     1      47.951  -7.443  74.971  1.00  0.00    -0.000 C 
BRANCH  20  21
ATOM     21  C   UNL     1      48.049  -6.795  76.364  1.00  0.00    -0.000 C 
BRANCH  21  22
ATOM     22  C   UNL     1      49.501  -6.641  76.845  1.00  0.00    -0.000 C 
BRANCH  22  23
ATOM     23  C   UNL     1      49.757  -7.361  78.180  1.00  0.00    -0.000 C 
BRANCH  23  24
ATOM     24  C   UNL     1      49.255  -6.558  79.390  1.00  0.00    -0.000 C 
BRANCH  24  25
ATOM     25  C   UNL     1      49.501  -5.049  79.242  1.00  0.00    -0.003 C 
ATOM     26  C   UNL     1      50.861  -4.656  79.815  1.00  0.00     0.004 C 
ENDBRANCH  24  25
ENDBRANCH  23  24
ENDBRANCH  22  23
ENDBRANCH  21  22
ENDBRANCH  20  21
ENDBRANCH  19  20
ENDBRANCH  18  19
ENDBRANCH  17  18
ENDBRANCH  16  17
ENDBRANCH  15  16
ENDBRANCH   1  15
TORSDOF 22
ENDMDL
MODEL 3
REMARK VINA RESULT:    -3.873      3.133      5.395
REMARK INTER + INTRA:         -13.080
REMARK INTER:                  -9.608
REMARK INTRA:                  -3.473
REMARK UNBOUND:                -4.225
REMARK SMILES CCCCCCCCCCCCCCCCCCCCCCCC(=O)[O-]
REMARK SMILES IDX 13 1 14 2 15 3 16 4 17 5 18 6 19 7 20 8 21 9 22 10 23 11
REMARK SMILES IDX 24 12 25 13 26 14 12 15 11 16 10 17 9 18 8 19 7 20 6 21 5 22
REMARK SMILES IDX 4 23 3 24 2 25 1 26
REMARK H PARENT
REMARK Flexibility Score: inf
ROOT
ATOM      1  C   UNL     1      53.364  -2.897  72.618  1.00  0.00     0.000 C 
ENDROOT
BRANCH   1   2
ATOM      2  C   UNL     1      53.318  -1.421  73.042  1.00  0.00     0.000 C 
BRANCH   2   3
ATOM      3  C   UNL     1      52.904  -0.481  71.890  1.00  0.00     0.000 C 
BRANCH   3   4
ATOM      4  C   UNL     1      51.568   0.250  72.126  1.00  0.00     0.000 C 
BRANCH   4   5
ATOM      5  C   UNL     1      50.789  -0.188  73.382  1.00  0.00     0.000 C 
BRANCH   5   6
ATOM      6  C   UNL     1      49.683  -1.231  73.130  1.00  0.00     0.000 C 
BRANCH   6   7
ATOM      7  C   UNL     1      48.764  -1.431  74.347  1.00  0.00     0.000 C 
BRANCH   7   8
ATOM      8  C   UNL     1      48.161  -2.844  74.406  1.00  0.00     0.000 C 
BRANCH   8   9
ATOM      9  C   UNL     1      48.430  -3.651  73.127  1.00  0.00     0.000 C 
BRANCH   9  10
ATOM     10  C   UNL     1      47.468  -4.844  73.014  1.00  0.00     0.006 C 
BRANCH  10  11
ATOM     11  C   UNL     1      48.204  -6.160  72.732  1.00  0.00     0.053 C 
BRANCH  11  12
ATOM     12  C   UNL     1      47.251  -7.294  72.507  1.00  0.00     0.041 C 
ATOM     13  O   UNL     1      46.178  -7.360  73.164  1.00  0.00    -0.550 OA
ATOM     14  O   UNL     1      47.567  -8.300  71.603  1.00  0.00    -0.550 OA
ENDBRANCH  11  12
ENDBRANCH  10  11
ENDBRANCH   9  10
ENDBRANCH   8   9
ENDBRANCH   7   8
ENDBRANCH   6   7
ENDBRANCH   5   6
ENDBRANCH   4   5
ENDBRANCH   3   4
ENDBRANCH   2   3
ENDBRANCH   1   2
BRANCH   1  15
ATOM     15  C   UNL     1      52.694  -3.833  73.639  1.00  0.00     0.000 C 
BRANCH  15  16
ATOM     16  C   UNL     1      52.371  -3.148  74.984  1.00  0.00     0.000 C 
BRANCH  16  17
ATOM     17  C   UNL     1      51.431  -3.996  75.861  1.00  0.00     0.000 C 
BRANCH  17  18
ATOM     18  C   UNL     1      50.925  -5.251  75.134  1.00  0.00    -0.000 C 
BRANCH  18  19
ATOM     19  C   UNL     1      50.253  -6.253  76.088  1.00  0.00    -0.000 C 
BRANCH  19  20
ATOM     20  C   UNL     1      48.811  -5.851  76.436  1.00  0.00    -0.000 C 
BRANCH  20  21
ATOM     21  C   UNL     1      48.674  -5.363  77.889  1.00  0.00    -0.000 C 
BRANCH  21  22
ATOM     22  C   UNL     1      49.621  -6.098  78.853  1.00  0.00    -0.000 C 
BRANCH  22  23
ATOM     23  C   UNL     1      49.000  -7.388  79.415  1.00  0.00    -0.000 C 
BRANCH  23  24
ATOM     24  C   UNL     1      49.755  -8.650  78.968  1.00  0.00    -0.000 C 
BRANCH  24  25
ATOM     25  C   UNL     1      48.864  -9.901  78.960  1.00  0.00    -0.003 C 
ATOM     26  C   UNL     1      47.605  -9.684  79.796  1.00  0.00     0.004 C 
ENDBRANCH  24  25
ENDBRANCH  23  24
ENDBRANCH  22  23
ENDBRANCH  21  22
ENDBRANCH  20  21
ENDBRANCH  19  20
ENDBRANCH  18  19
ENDBRANCH  17  18
ENDBRANCH  16  17
ENDBRANCH  15  16
ENDBRANCH   1  15
TORSDOF 22
ENDMDL
MODEL 4
REMARK VINA RESULT:    -3.860      1.728      5.631
REMARK INTER + INTRA:         -13.050
REMARK INTER:                  -8.934
REMARK INTRA:                  -4.116
REMARK UNBOUND:                -4.225
REMARK SMILES CCCCCCCCCCCCCCCCCCCCCCCC(=O)[O-]
REMARK SMILES IDX 13 1 14 2 15 3 16 4 17 5 18 6 19 7 20 8 21 9 22 10 23 11
REMARK SMILES IDX 24 12 25 13 26 14 12 15 11 16 10 17 9 18 8 19 7 20 6 21 5 22
REMARK SMILES IDX 4 23 3 24 2 25 1 26
REMARK H PARENT
REMARK Flexibility Score: inf
ROOT
ATOM      1  C   UNL     1      50.357  -3.630  78.478  1.00  0.00     0.000 C 
ENDROOT
BRANCH   1   2
ATOM      2  C   UNL     1      50.215  -4.592  79.668  1.00  0.00     0.000 C 
BRANCH   2   3
ATOM      3  C   UNL     1      48.972  -5.500  79.557  1.00  0.00     0.000 C 
BRANCH   3   4
ATOM      4  C   UNL     1      49.302  -6.987  79.321  1.00  0.00     0.000 C 
BRANCH   4   5
ATOM      5  C   UNL     1      50.755  -7.282  78.899  1.00  0.00     0.000 C 
BRANCH   5   6
ATOM      6  C   UNL     1      50.926  -7.767  77.446  1.00  0.00     0.000 C 
BRANCH   6   7
ATOM      7  C   UNL     1      50.304  -6.806  76.420  1.00  0.00     0.000 C 
BRANCH   7   8
ATOM      8  C   UNL     1      51.340  -6.249  75.430  1.00  0.00     0.000 C 
BRANCH   8   9
ATOM      9  C   UNL     1      52.411  -5.390  76.120  1.00  0.00     0.000 C 
BRANCH   9  10
ATOM     10  C   UNL     1      53.648  -5.223  75.225  1.00  0.00     0.006 C 
BRANCH  10  11
ATOM     11  C   UNL     1      53.969  -6.498  74.434  1.00  0.00     0.053 C 
BRANCH  11  12
ATOM     12  C   UNL     1      55.439  -6.789  74.421  1.00  0.00     0.041 C 
ATOM     13  O   UNL     1      56.143  -6.542  75.436  1.00  0.00    -0.550 OA
ATOM     14  O   UNL     1      56.038  -7.293  73.274  1.00  0.00    -0.550 OA
ENDBRANCH  11  12
ENDBRANCH  10  11
ENDBRANCH   9  10
ENDBRANCH   8   9
ENDBRANCH   7   8
ENDBRANCH   6   7
ENDBRANCH   5   6
ENDBRANCH   4   5
ENDBRANCH   3   4
ENDBRANCH   2   3
ENDBRANCH   1   2
BRANCH   1  15
ATOM     15  C   UNL     1      49.059  -3.493  77.663  1.00  0.00     0.000 C 
BRANCH  15  16
ATOM     16  C   UNL     1      49.298  -3.198  76.167  1.00  0.00     0.000 C 
BRANCH  16  17
ATOM     17  C   UNL     1      47.982  -3.043  75.384  1.00  0.00     0.000 C 
BRANCH  17  18
ATOM     18  C   UNL     1      47.560  -4.345  74.684  1.00  0.00    -0.000 C 
BRANCH  18  19
ATOM     19  C   UNL     1      47.903  -4.344  73.184  1.00  0.00    -0.000 C 
BRANCH  19  20
ATOM     20  C   UNL     1      49.326  -4.856  72.910  1.00  0.00    -0.000 C 
BRANCH  20  21
ATOM     21  C   UNL     1      50.140  -3.884  72.037  1.00  0.00    -0.000 C 
BRANCH  21  22
ATOM     22  C   UNL     1      51.151  -3.060  72.851  1.00  0.00    -0.000 C 
BRANCH  22  23
ATOM     23  C   UNL     1      50.772  -1.571  72.925  1.00  0.00    -0.000 C 
BRANCH  23  24
ATOM     24  C   UNL     1      49.685  -1.188  71.909  1.00  0.00    -0.000 C 
BRANCH  24  25
ATOM     25  C   UNL     1      48.595  -0.292  72.517  1.00  0.00    -0.003 C 
ATOM     26  C   UNL     1      48.905   0.035  73.976  1.00  0.00     0.004 C 
ENDBRANCH  24  25
ENDBRANCH  23  24
ENDBRANCH  22  23
ENDBRANCH  21  22
ENDBRANCH  20  21
ENDBRANCH  19  20
ENDBRANCH  18  19
ENDBRANCH  17  18
ENDBRANCH  16  17
ENDBRANCH  15  16
ENDBRANCH   1  15
TORSDOF 22
ENDMDL
MODEL 5
REMARK VINA RESULT:    -3.858      2.870      5.333
REMARK INTER + INTRA:         -13.046
REMARK INTER:                  -9.216
REMARK INTRA:                  -3.829
REMARK UNBOUND:                -4.225
REMARK SMILES CCCCCCCCCCCCCCCCCCCCCCCC(=O)[O-]
REMARK SMILES IDX 13 1 14 2 15 3 16 4 17 5 18 6 19 7 20 8 21 9 22 10 23 11
REMARK SMILES IDX 24 12 25 13 26 14 12 15 11 16 10 17 9 18 8 19 7 20 6 21 5 22
REMARK SMILES IDX 4 23 3 24 2 25 1 26
REMARK H PARENT
REMARK Flexibility Score: inf
ROOT
ATOM      1  C   UNL     1      52.633  -3.251  75.182  1.00  0.00     0.000 C 
ENDROOT
BRANCH   1   2
ATOM      2  C   UNL     1      53.665  -2.644  74.219  1.00  0.00     0.000 C 
BRANCH   2   3
ATOM      3  C   UNL     1      53.108  -2.448  72.793  1.00  0.00     0.000 C 
BRANCH   3   4
ATOM      4  C   UNL     1      53.017  -0.973  72.353  1.00  0.00     0.000 C 
BRANCH   4   5
ATOM      5  C   UNL     1      51.624  -0.329  72.491  1.00  0.00     0.000 C 
BRANCH   5   6
ATOM      6  C   UNL     1      50.492  -1.058  71.740  1.00  0.00     0.000 C 
BRANCH   6   7
ATOM      7  C   UNL     1      49.148  -0.999  72.486  1.00  0.00     0.000 C 
BRANCH   7   8
ATOM      8  C   UNL     1      48.596  -2.395  72.818  1.00  0.00     0.000 C 
BRANCH   8   9
ATOM      9  C   UNL     1      49.609  -3.512  72.527  1.00  0.00     0.000 C 
BRANCH   9  10
ATOM     10  C   UNL     1      48.968  -4.898  72.698  1.00  0.00     0.006 C 
BRANCH  10  11
ATOM     11  C   UNL     1      47.746  -4.862  73.625  1.00  0.00     0.053 C 
BRANCH  11  12
ATOM     12  C   UNL     1      46.623  -5.702  73.097  1.00  0.00     0.041 C 
ATOM     13  O   UNL     1      46.704  -6.221  71.952  1.00  0.00    -0.550 OA
ATOM     14  O   UNL     1      45.469  -5.875  73.850  1.00  0.00    -0.550 OA
ENDBRANCH  11  12
ENDBRANCH  10  11
ENDBRANCH   9  10
ENDBRANCH   8   9
ENDBRANCH   7   8
ENDBRANCH   6   7
ENDBRANCH   5   6
ENDBRANCH   4   5
ENDBRANCH   3   4
ENDBRANCH   2   3
ENDBRANCH   1   2
BRANCH   1  15
ATOM     15  C   UNL     1      51.428  -2.325  75.427  1.00  0.00     0.000 C 
BRANCH  15  16
ATOM     16  C   UNL     1      50.261  -3.014  76.166  1.00  0.00     0.000 C 
BRANCH  16  17
ATOM     17  C   UNL     1      49.002  -2.130  76.224  1.00  0.00     0.000 C 
BRANCH  17  18
ATOM     18  C   UNL     1      47.903  -2.732  77.112  1.00  0.00    -0.000 C 
BRANCH  18  19
ATOM     19  C   UNL     1      48.387  -3.967  77.892  1.00  0.00    -0.000 C 
BRANCH  19  20
ATOM     20  C   UNL     1      47.859  -3.990  79.335  1.00  0.00    -0.000 C 
BRANCH  20  21
ATOM     21  C   UNL     1      48.458  -5.142  80.160  1.00  0.00    -0.000 C 
BRANCH  21  22
ATOM     22  C   UNL     1      49.696  -5.767  79.495  1.00  0.00    -0.000 C 
BRANCH  22  23
ATOM     23  C   UNL     1      49.503  -7.261  79.181  1.00  0.00    -0.000 C 
BRANCH  23  24
ATOM     24  C   UNL     1      50.374  -7.735  78.007  1.00  0.00    -0.000 C 
BRANCH  24  25
ATOM     25  C   UNL     1      50.918  -6.571  77.165  1.00  0.00    -0.003 C 
ATOM     26  C   UNL     1      50.454  -6.679  75.715  1.00  0.00     0.004 C 
ENDBRANCH  24  25
ENDBRANCH  23  24
ENDBRANCH  22  23
ENDBRANCH  21  22
ENDBRANCH  20  21
ENDBRANCH  19  20
ENDBRANCH  18  19
ENDBRANCH  17  18
ENDBRANCH  16  17
ENDBRANCH  15  16
ENDBRANCH   1  15
TORSDOF 22
ENDMDL
MODEL 6
REMARK VINA RESULT:    -3.835      1.981      4.038
REMARK INTER + INTRA:         -12.993
REMARK INTER:                 -10.042
REMARK INTRA:                  -2.952
REMARK UNBOUND:                -4.225
REMARK SMILES CCCCCCCCCCCCCCCCCCCCCCCC(=O)[O-]
REMARK SMILES IDX 13 1 14 2 15 3 16 4 17 5 18 6 19 7 20 8 21 9 22 10 23 11
REMARK SMILES IDX 24 12 25 13 26 14 12 15 11 16 10 17 9 18 8 19 7 20 6 21 5 22
REMARK SMILES IDX 4 23 3 24 2 25 1 26
REMARK H PARENT
REMARK Flexibility Score: inf
ROOT
ATOM      1  C   UNL     1      49.338  -3.135  75.845  1.00  0.00     0.000 C 
ENDROOT
BRANCH   1   2
ATOM      2  C   UNL     1      48.007  -3.578  75.217  1.00  0.00     0.000 C 
BRANCH   2   3
ATOM      3  C   UNL     1      48.164  -4.051  73.756  1.00  0.00     0.000 C 
BRANCH   3   4
ATOM      4  C   UNL     1      49.135  -3.192  72.921  1.00  0.00     0.000 C 
BRANCH   4   5
ATOM      5  C   UNL     1      48.626  -1.784  72.559  1.00  0.00     0.000 C 
BRANCH   5   6
ATOM      6  C   UNL     1      49.665  -0.870  71.882  1.00  0.00     0.000 C 
BRANCH   6   7
ATOM      7  C   UNL     1      50.773  -0.411  72.845  1.00  0.00     0.000 C 
BRANCH   7   8
ATOM      8  C   UNL     1      52.103  -0.132  72.126  1.00  0.00     0.000 C 
BRANCH   8   9
ATOM      9  C   UNL     1      53.207  -1.121  72.528  1.00  0.00     0.000 C 
BRANCH   9  10
ATOM     10  C   UNL     1      52.722  -2.072  73.633  1.00  0.00     0.006 C 
BRANCH  10  11
ATOM     11  C   UNL     1      52.788  -3.543  73.203  1.00  0.00     0.053 C 
BRANCH  11  12
ATOM     12  C   UNL     1      53.665  -4.349  74.113  1.00  0.00     0.041 C 
ATOM     13  O   UNL     1      53.425  -5.570  74.307  1.00  0.00    -0.550 OA
ATOM     14  O   UNL     1      54.720  -3.741  74.781  1.00  0.00    -0.550 OA
ENDBRANCH  11  12
ENDBRANCH  10  11
ENDBRANCH   9  10
ENDBRANCH   8   9
ENDBRANCH   7   8
ENDBRANCH   6   7
ENDBRANCH   5   6
ENDBRANCH   4   5
ENDBRANCH   3   4
ENDBRANCH   2   3
ENDBRANCH   1   2
BRANCH   1  15
ATOM     15  C   UNL     1      49.351  -1.645  76.227  1.00  0.00     0.000 C 
BRANCH  15  16
ATOM     16  C   UNL     1      49.034  -1.387  77.716  1.00  0.00     0.000 C 
BRANCH  16  17
ATOM     17  C   UNL     1      47.527  -1.191  77.967  1.00  0.00     0.000 C 
BRANCH  17  18
ATOM     18  C   UNL     1      46.955  -2.235  78.939  1.00  0.00    -0.000 C 
BRANCH  18  19
ATOM     19  C   UNL     1      48.032  -2.837  79.858  1.00  0.00    -0.000 C 
BRANCH  19  20
ATOM     20  C   UNL     1      47.748  -4.307  80.206  1.00  0.00    -0.000 C 
BRANCH  20  21
ATOM     21  C   UNL     1      48.880  -5.246  79.755  1.00  0.00    -0.000 C 
BRANCH  21  22
ATOM     22  C   UNL     1      50.100  -4.484  79.210  1.00  0.00    -0.000 C 
BRANCH  22  23
ATOM     23  C   UNL     1      51.320  -4.586  80.141  1.00  0.00    -0.000 C 
BRANCH  23  24
ATOM     24  C   UNL     1      51.653  -3.251  80.826  1.00  0.00    -0.000 C 
BRANCH  24  25
ATOM     25  C   UNL     1      52.377  -3.439  82.168  1.00  0.00    -0.003 C 
ATOM     26  C   UNL     1      53.851  -3.058  82.054  1.00  0.00     0.004 C 
ENDBRANCH  24  25
ENDBRANCH  23  24
ENDBRANCH  22  23
ENDBRANCH  21  22
ENDBRANCH  20  21
ENDBRANCH  19  20
ENDBRANCH  18  19
ENDBRANCH  17  18
ENDBRANCH  16  17
ENDBRANCH  15  16
ENDBRANCH   1  15
TORSDOF 22
ENDMDL
MODEL 7
REMARK VINA RESULT:    -3.813      1.784      4.315
REMARK INTER + INTRA:         -12.941
REMARK INTER:                  -8.873
REMARK INTRA:                  -4.068
REMARK UNBOUND:                -4.225
REMARK SMILES CCCCCCCCCCCCCCCCCCCCCCCC(=O)[O-]
REMARK SMILES IDX 13 1 14 2 15 3 16 4 17 5 18 6 19 7 20 8 21 9 22 10 23 11
REMARK SMILES IDX 24 12 25 13 26 14 12 15 11 16 10 17 9 18 8 19 7 20 6 21 5 22
REMARK SMILES IDX 4 23 3 24 2 25 1 26
REMARK H PARENT
REMARK Flexibility Score: inf
ROOT
ATOM      1  C   UNL     1      46.599  -0.924  76.638  1.00  0.00     0.000 C 
ENDROOT
BRANCH   1   2
ATOM      2  C   UNL     1      47.600   0.098  77.200  1.00  0.00     0.000 C 
BRANCH   2   3
ATOM      3  C   UNL     1      48.136   1.063  76.121  1.00  0.00     0.000 C 
BRANCH   3   4
ATOM      4  C   UNL     1      47.637   0.750  74.696  1.00  0.00     0.000 C 
BRANCH   4   5
ATOM      5  C   UNL     1      48.718   0.773  73.598  1.00  0.00     0.000 C 
BRANCH   5   6
ATOM      6  C   UNL     1      48.614  -0.360  72.559  1.00  0.00     0.000 C 
BRANCH   6   7
ATOM      7  C   UNL     1      49.983  -0.784  72.000  1.00  0.00     0.000 C 
BRANCH   7   8
ATOM      8  C   UNL     1      51.144  -0.411  72.937  1.00  0.00     0.000 C 
BRANCH   8   9
ATOM      9  C   UNL     1      52.517  -0.604  72.276  1.00  0.00     0.000 C 
BRANCH   9  10
ATOM     10  C   UNL     1      53.130  -1.959  72.663  1.00  0.00     0.006 C 
BRANCH  10  11
ATOM     11  C   UNL     1      52.729  -2.396  74.078  1.00  0.00     0.053 C 
BRANCH  11  12
ATOM     12  C   UNL     1      53.306  -3.732  74.432  1.00  0.00     0.041 C 
ATOM     13  O   UNL     1      52.884  -4.359  75.440  1.00  0.00    -0.550 OA
ATOM     14  O   UNL     1      54.340  -4.267  73.674  1.00  0.00    -0.550 OA
ENDBRANCH  11  12
ENDBRANCH  10  11
ENDBRANCH   9  10
ENDBRANCH   8   9
ENDBRANCH   7   8
ENDBRANCH   6   7
ENDBRANCH   5   6
ENDBRANCH   4   5
ENDBRANCH   3   4
ENDBRANCH   2   3
ENDBRANCH   1   2
BRANCH   1  15
ATOM     15  C   UNL     1      46.011  -1.842  77.723  1.00  0.00     0.000 C 
BRANCH  15  16
ATOM     16  C   UNL     1      46.716  -1.711  79.090  1.00  0.00     0.000 C 
BRANCH  16  17
ATOM     17  C   UNL     1      47.377  -3.029  79.536  1.00  0.00     0.000 C 
BRANCH  17  18
ATOM     18  C   UNL     1      48.669  -2.796  80.335  1.00  0.00    -0.000 C 
BRANCH  18  19
ATOM     19  C   UNL     1      49.627  -1.819  79.633  1.00  0.00    -0.000 C 
BRANCH  19  20
ATOM     20  C   UNL     1      50.532  -2.522  78.609  1.00  0.00    -0.000 C 
BRANCH  20  21
ATOM     21  C   UNL     1      50.142  -2.191  77.157  1.00  0.00    -0.000 C 
BRANCH  21  22
ATOM     22  C   UNL     1      49.570  -3.405  76.406  1.00  0.00    -0.000 C 
BRANCH  22  23
ATOM     23  C   UNL     1      49.086  -3.045  74.991  1.00  0.00    -0.000 C 
BRANCH  23  24
ATOM     24  C   UNL     1      49.493  -4.093  73.943  1.00  0.00    -0.000 C 
BRANCH  24  25
ATOM     25  C   UNL     1      48.484  -4.201  72.790  1.00  0.00    -0.003 C 
ATOM     26  C   UNL     1      47.208  -4.907  73.243  1.00  0.00     0.004 C 
ENDBRANCH  24  25
ENDBRANCH  23  24
ENDBRANCH  22  23
ENDBRANCH  21  22
ENDBRANCH  20  21
ENDBRANCH  19  20
ENDBRANCH  18  19
ENDBRANCH  17  18
ENDBRANCH  16  17
ENDBRANCH  15  16
ENDBRANCH   1  15
TORSDOF 22
ENDMDL
MODEL 8
REMARK VINA RESULT:    -3.811      3.050      5.821
REMARK INTER + INTRA:         -12.937
REMARK INTER:                  -8.935
REMARK INTRA:                  -4.002
REMARK UNBOUND:                -4.225
REMARK SMILES CCCCCCCCCCCCCCCCCCCCCCCC(=O)[O-]
REMARK SMILES IDX 13 1 14 2 15 3 16 4 17 5 18 6 19 7 20 8 21 9 22 10 23 11
REMARK SMILES IDX 24 12 25 13 26 14 12 15 11 16 10 17 9 18 8 19 7 20 6 21 5 22
REMARK SMILES IDX 4 23 3 24 2 25 1 26
REMARK H PARENT
REMARK Flexibility Score: inf
ROOT
ATOM      1  C   UNL     1      49.076  -3.451  72.625  1.00  0.00     0.000 C 
ENDROOT
BRANCH   1   2
ATOM      2  C   UNL     1      47.860  -4.241  73.134  1.00  0.00     0.000 C 
BRANCH   2   3
ATOM      3  C   UNL     1      48.255  -5.425  74.042  1.00  0.00     0.000 C 
BRANCH   3   4
ATOM      4  C   UNL     1      49.773  -5.687  74.104  1.00  0.00     0.000 C 
BRANCH   4   5
ATOM      5  C   UNL     1      50.249  -6.526  75.307  1.00  0.00     0.000 C 
BRANCH   5   6
ATOM      6  C   UNL     1      51.754  -6.421  75.618  1.00  0.00     0.000 C 
BRANCH   6   7
ATOM      7  C   UNL     1      52.116  -6.975  77.007  1.00  0.00     0.000 C 
BRANCH   7   8
ATOM      8  C   UNL     1      52.032  -5.906  78.109  1.00  0.00     0.000 C 
BRANCH   8   9
ATOM      9  C   UNL     1      50.817  -6.105  79.029  1.00  0.00     0.000 C 
BRANCH   9  10
ATOM     10  C   UNL     1      50.360  -7.571  79.030  1.00  0.00     0.006 C 
BRANCH  10  11
ATOM     11  C   UNL     1      48.889  -7.721  79.440  1.00  0.00     0.053 C 
BRANCH  11  12
ATOM     12  C   UNL     1      48.370  -9.098  79.160  1.00  0.00     0.041 C 
ATOM     13  O   UNL     1      48.713  -9.704  78.110  1.00  0.00    -0.550 OA
ATOM     14  O   UNL     1      47.474  -9.696  80.037  1.00  0.00    -0.550 OA
ENDBRANCH  11  12
ENDBRANCH  10  11
ENDBRANCH   9  10
ENDBRANCH   8   9
ENDBRANCH   7   8
ENDBRANCH   6   7
ENDBRANCH   5   6
ENDBRANCH   4   5
ENDBRANCH   3   4
ENDBRANCH   2   3
ENDBRANCH   1   2
BRANCH   1  15
ATOM     15  C   UNL     1      48.890  -1.928  72.745  1.00  0.00     0.000 C 
BRANCH  15  16
ATOM     16  C   UNL     1      49.834  -1.118  71.829  1.00  0.00     0.000 C 
BRANCH  16  17
ATOM     17  C   UNL     1      50.860  -0.295  72.629  1.00  0.00     0.000 C 
BRANCH  17  18
ATOM     18  C   UNL     1      52.306  -0.738  72.357  1.00  0.00    -0.000 C 
BRANCH  18  19
ATOM     19  C   UNL     1      52.576  -2.181  72.816  1.00  0.00    -0.000 C 
BRANCH  19  20
ATOM     20  C   UNL     1      53.497  -2.239  74.046  1.00  0.00    -0.000 C 
BRANCH  20  21
ATOM     21  C   UNL     1      52.841  -2.961  75.236  1.00  0.00    -0.000 C 
BRANCH  21  22
ATOM     22  C   UNL     1      51.327  -2.704  75.323  1.00  0.00    -0.000 C 
BRANCH  22  23
ATOM     23  C   UNL     1      50.813  -2.710  76.773  1.00  0.00    -0.000 C 
BRANCH  23  24
ATOM     24  C   UNL     1      49.496  -1.935  76.936  1.00  0.00    -0.000 C 
BRANCH  24  25
ATOM     25  C   UNL     1      48.262  -2.792  76.616  1.00  0.00    -0.003 C 
ATOM     26  C   UNL     1      48.279  -4.096  77.410  1.00  0.00     0.004 C 
ENDBRANCH  24  25
ENDBRANCH  23  24
ENDBRANCH  22  23
ENDBRANCH  21  22
ENDBRANCH  20  21
ENDBRANCH  19  20
ENDBRANCH  18  19
ENDBRANCH  17  18
ENDBRANCH  16  17
ENDBRANCH  15  16
ENDBRANCH   1  15
TORSDOF 22
ENDMDL
MODEL 9
REMARK VINA RESULT:    -3.795      3.333      7.132
REMARK INTER + INTRA:         -12.900
REMARK INTER:                  -8.642
REMARK INTRA:                  -4.259
REMARK UNBOUND:                -4.225
REMARK SMILES CCCCCCCCCCCCCCCCCCCCCCCC(=O)[O-]
REMARK SMILES IDX 13 1 14 2 15 3 16 4 17 5 18 6 19 7 20 8 21 9 22 10 23 11
REMARK SMILES IDX 24 12 25 13 26 14 12 15 11 16 10 17 9 18 8 19 7 20 6 21 5 22
REMARK SMILES IDX 4 23 3 24 2 25 1 26
REMARK H PARENT
REMARK Flexibility Score: inf
ROOT
ATOM      1  C   UNL     1      49.997  -2.342  77.134  1.00  0.00     0.000 C 
ENDROOT
BRANCH   1   2
ATOM      2  C   UNL     1      50.891  -3.592  77.182  1.00  0.00     0.000 C 
BRANCH   2   3
ATOM      3  C   UNL     1      50.891  -4.273  78.567  1.00  0.00     0.000 C 
BRANCH   3   4
ATOM      4  C   UNL     1      50.232  -5.667  78.581  1.00  0.00     0.000 C 
BRANCH   4   5
ATOM      5  C   UNL     1      49.015  -5.812  79.515  1.00  0.00     0.000 C 
BRANCH   5   6
ATOM      6  C   UNL     1      48.046  -4.614  79.512  1.00  0.00     0.000 C 
BRANCH   6   7
ATOM      7  C   UNL     1      47.576  -4.224  80.923  1.00  0.00     0.000 C 
BRANCH   7   8
ATOM      8  C   UNL     1      48.500  -3.190  81.588  1.00  0.00     0.000 C 
BRANCH   8   9
ATOM      9  C   UNL     1      48.834  -2.016  80.656  1.00  0.00     0.000 C 
BRANCH   9  10
ATOM     10  C   UNL     1      49.932  -1.127  81.260  1.00  0.00     0.006 C 
BRANCH  10  11
ATOM     11  C   UNL     1      51.339  -1.588  80.860  1.00  0.00     0.053 C 
BRANCH  11  12
ATOM     12  C   UNL     1      52.173  -1.932  82.056  1.00  0.00     0.041 C 
ATOM     13  O   UNL     1      51.720  -2.703  82.944  1.00  0.00    -0.550 OA
ATOM     14  O   UNL     1      53.433  -1.368  82.212  1.00  0.00    -0.550 OA
ENDBRANCH  11  12
ENDBRANCH  10  11
ENDBRANCH   9  10
ENDBRANCH   8   9
ENDBRANCH   7   8
ENDBRANCH   6   7
ENDBRANCH   5   6
ENDBRANCH   4   5
ENDBRANCH   3   4
ENDBRANCH   2   3
ENDBRANCH   1   2
BRANCH   1  15
ATOM     15  C   UNL     1      48.704  -2.564  76.332  1.00  0.00     0.000 C 
BRANCH  15  16
ATOM     16  C   UNL     1      48.722  -3.848  75.475  1.00  0.00     0.000 C 
BRANCH  16  17
ATOM     17  C   UNL     1      48.287  -3.587  74.021  1.00  0.00     0.000 C 
BRANCH  17  18
ATOM     18  C   UNL     1      49.411  -3.876  73.013  1.00  0.00    -0.000 C 
BRANCH  18  19
ATOM     19  C   UNL     1      50.640  -4.524  73.672  1.00  0.00    -0.000 C 
BRANCH  19  20
ATOM     20  C   UNL     1      51.945  -3.792  73.320  1.00  0.00    -0.000 C 
BRANCH  20  21
ATOM     21  C   UNL     1      51.987  -2.363  73.891  1.00  0.00    -0.000 C 
BRANCH  21  22
ATOM     22  C   UNL     1      52.342  -1.310  72.827  1.00  0.00    -0.000 C 
BRANCH  22  23
ATOM     23  C   UNL     1      51.155  -0.391  72.492  1.00  0.00    -0.000 C 
BRANCH  23  24
ATOM     24  C   UNL     1      50.183  -0.228  73.670  1.00  0.00    -0.000 C 
BRANCH  24  25
ATOM     25  C   UNL     1      48.721  -0.093  73.218  1.00  0.00    -0.003 C 
ATOM     26  C   UNL     1      48.543  -0.585  71.784  1.00  0.00     0.004 C 
ENDBRANCH  24  25
ENDBRANCH  23  24
ENDBRANCH  22  23
ENDBRANCH  21  22
ENDBRANCH  20  21
ENDBRANCH  19  20
ENDBRANCH  18  19
ENDBRANCH  17  18
ENDBRANCH  16  17
ENDBRANCH  15  16
ENDBRANCH   1  15
TORSDOF 22
ENDMDL
