MODEL 1
REMARK VINA RESULT:    -6.454      0.000      0.000
REMARK INTER + INTRA:         -10.246
REMARK INTER:                  -9.283
REMARK INTRA:                  -0.963
REMARK UNBOUND:                -0.963
REMARK SMILES O=c1cc(-c2ccc(O)c(O)c2)oc2cc(O[C@@H]3O[C@H](CO)[C@H](O)[C@@H](O)[C@H]3O)cc(O)c12
REMARK SMILES IDX 17 1 16 2 4 3 3 4 13 5 2 6 14 7 1 8 32 9 15 10 30 11 29 12
REMARK SMILES IDX 5 13 6 14 7 15 8 16 12 17 10 18 9 19 11 21 31 23 18 25 27 26
REMARK SMILES IDX 19 27 25 28 20 29 23 30 28 31 26 33 21 35 22 36 24 38
REMARK H PARENT 9 20 11 22 31 24 28 32 26 34 22 37 24 39
REMARK Flexibility Score: inf
ROOT
ATOM      1  O   UNL     1      18.211  41.314  74.992  1.00  0.00    -0.462 OA
ENDROOT
BRANCH   1   2
ATOM      2  C   UNL     1      18.164  42.711  75.150  1.00  0.00     0.130 A 
ATOM      3  C   UNL     1      15.707  46.734  74.367  1.00  0.00     0.138 A 
ATOM      4  C   UNL     1      16.564  47.472  75.209  1.00  0.00     0.100 A 
ATOM      5  O   UNL     1      15.879  45.408  74.285  1.00  0.00    -0.456 OA
ATOM      6  C   UNL     1      17.648  46.837  75.813  1.00  0.00     0.197 A 
ATOM      7  C   UNL     1      16.909  44.766  74.831  1.00  0.00     0.146 A 
ATOM      8  O   UNL     1      18.404  47.502  76.571  1.00  0.00    -0.289 OA
ATOM      9  C   UNL     1      17.890  45.482  75.553  1.00  0.00     0.107 A 
ATOM     10  C   UNL     1      17.039  43.386  74.662  1.00  0.00     0.094 A 
ATOM     11  C   UNL     1      19.069  44.829  75.959  1.00  0.00     0.134 A 
ATOM     12  C   UNL     1      19.201  43.449  75.759  1.00  0.00     0.093 A 
BRANCH   3  13
ATOM     13  C   UNL     1      14.648  47.383  73.529  1.00  0.00     0.021 A 
ATOM     14  C   UNL     1      14.898  47.863  72.224  1.00  0.00     0.016 A 
ATOM     15  C   UNL     1      13.844  48.279  71.401  1.00  0.00     0.051 A 
ATOM     16  C   UNL     1      12.527  48.241  71.865  1.00  0.00     0.157 A 
ATOM     17  C   UNL     1      13.322  47.419  74.009  1.00  0.00     0.062 A 
ATOM     18  C   UNL     1      12.266  47.820  73.178  1.00  0.00     0.158 A 
BRANCH  16  19
ATOM     19  O   UNL     1      11.475  48.602  71.020  1.00  0.00    -0.504 OA
ATOM     20  H   UNL     1      11.283  49.575  70.795  1.00  0.00     0.293 HD
ENDBRANCH  16  19
BRANCH  18  21
ATOM     21  O   UNL     1      10.959  47.752  73.666  1.00  0.00    -0.504 OA
ATOM     22  H   UNL     1      10.193  47.393  73.100  1.00  0.00     0.293 HD
ENDBRANCH  18  21
ENDBRANCH   3  13
BRANCH  11  23
ATOM     23  O   UNL     1      20.118  45.547  76.536  1.00  0.00    -0.507 OA
ATOM     24  H   UNL     1      21.032  45.609  76.099  1.00  0.00     0.293 HD
ENDBRANCH  11  23
ENDBRANCH   1   2
BRANCH   1  25
ATOM     25  C   UNL     1      17.207  40.396  75.428  1.00  0.00     0.339 C 
ATOM     26  C   UNL     1      16.979  39.314  74.359  1.00  0.00     0.214 C 
ATOM     27  O   UNL     1      17.539  39.836  76.698  1.00  0.00    -0.332 OA
ATOM     28  C   UNL     1      18.250  38.471  74.199  1.00  0.00     0.180 C 
ATOM     29  C   UNL     1      18.701  39.005  76.687  1.00  0.00     0.179 C 
ATOM     30  C   UNL     1      18.671  37.910  75.566  1.00  0.00     0.177 C 
BRANCH  26  31
ATOM     31  O   UNL     1      15.864  38.507  74.661  1.00  0.00    -0.384 OA
ATOM     32  H   UNL     1      15.493  38.137  73.822  1.00  0.00     0.211 HD
ENDBRANCH  26  31
BRANCH  28  33
ATOM     33  O   UNL     1      18.026  37.409  73.306  1.00  0.00    -0.387 OA
ATOM     34  H   UNL     1      17.502  37.780  72.545  1.00  0.00     0.211 HD
ENDBRANCH  28  33
BRANCH  29  35
ATOM     35  C   UNL     1      19.999  39.844  76.758  1.00  0.00     0.191 C 
BRANCH  35  36
ATOM     36  O   UNL     1      19.913  40.823  77.766  1.00  0.00    -0.394 OA
ATOM     37  H   UNL     1      18.988  40.788  78.135  1.00  0.00     0.210 HD
ENDBRANCH  35  36
ENDBRANCH  29  35
BRANCH  30  38
ATOM     38  O   UNL     1      19.887  37.205  75.463  1.00  0.00    -0.387 OA
ATOM     39  H   UNL     1      20.493  37.545  76.167  1.00  0.00     0.211 HD
ENDBRANCH  30  38
ENDBRANCH   1  25
TORSDOF 11
ENDMDL
MODEL 2
REMARK VINA RESULT:    -6.429      1.686      2.806
REMARK INTER + INTRA:         -10.211
REMARK INTER:                  -9.238
REMARK INTRA:                  -0.973
REMARK UNBOUND:                -0.963
REMARK SMILES O=c1cc(-c2ccc(O)c(O)c2)oc2cc(O[C@@H]3O[C@H](CO)[C@H](O)[C@@H](O)[C@H]3O)cc(O)c12
REMARK SMILES IDX 17 1 16 2 4 3 3 4 13 5 2 6 14 7 1 8 32 9 15 10 30 11 29 12
REMARK SMILES IDX 5 13 6 14 7 15 8 16 12 17 10 18 9 19 11 21 31 23 18 25 27 26
REMARK SMILES IDX 19 27 25 28 20 29 23 30 28 31 26 33 21 35 22 36 24 38
REMARK H PARENT 9 20 11 22 31 24 28 32 26 34 22 37 24 39
REMARK Flexibility Score: inf
ROOT
ATOM      1  O   UNL     1      17.907  42.669  76.068  1.00  0.00    -0.462 OA
ENDROOT
BRANCH   1   2
ATOM      2  C   UNL     1      17.864  43.839  75.288  1.00  0.00     0.130 A 
ATOM      3  C   UNL     1      15.149  47.327  73.474  1.00  0.00     0.138 A 
ATOM      4  C   UNL     1      16.284  48.057  73.065  1.00  0.00     0.100 A 
ATOM      5  O   UNL     1      15.331  46.210  74.190  1.00  0.00    -0.456 OA
ATOM      6  C   UNL     1      17.556  47.530  73.286  1.00  0.00     0.197 A 
ATOM      7  C   UNL     1      16.526  45.665  74.408  1.00  0.00     0.146 A 
ATOM      8  O   UNL     1      18.566  48.193  72.927  1.00  0.00    -0.289 OA
ATOM      9  C   UNL     1      17.689  46.270  73.883  1.00  0.00     0.107 A 
ATOM     10  C   UNL     1      16.627  44.474  75.130  1.00  0.00     0.094 A 
ATOM     11  C   UNL     1      18.919  45.589  73.952  1.00  0.00     0.134 A 
ATOM     12  C   UNL     1      19.004  44.380  74.655  1.00  0.00     0.093 A 
BRANCH   3  13
ATOM     13  C   UNL     1      13.756  47.728  73.094  1.00  0.00     0.021 A 
ATOM     14  C   UNL     1      13.430  48.231  71.815  1.00  0.00     0.016 A 
ATOM     15  C   UNL     1      12.094  48.405  71.434  1.00  0.00     0.051 A 
ATOM     16  C   UNL     1      11.060  48.099  72.322  1.00  0.00     0.157 A 
ATOM     17  C   UNL     1      12.704  47.492  74.004  1.00  0.00     0.062 A 
ATOM     18  C   UNL     1      11.367  47.651  73.616  1.00  0.00     0.158 A 
BRANCH  16  19
ATOM     19  O   UNL     1       9.729  48.219  71.916  1.00  0.00    -0.504 OA
ATOM     20  H   UNL     1       9.445  48.904  71.220  1.00  0.00     0.293 HD
ENDBRANCH  16  19
BRANCH  18  21
ATOM     21  O   UNL     1      10.355  47.317  74.520  1.00  0.00    -0.504 OA
ATOM     22  H   UNL     1      10.457  47.471  75.521  1.00  0.00     0.293 HD
ENDBRANCH  18  21
ENDBRANCH   3  13
BRANCH  11  23
ATOM     23  O   UNL     1      20.050  46.093  73.307  1.00  0.00    -0.507 OA
ATOM     24  H   UNL     1      20.264  47.085  73.294  1.00  0.00     0.293 HD
ENDBRANCH  11  23
ENDBRANCH   1   2
BRANCH   1  25
ATOM     25  C   UNL     1      19.069  42.143  76.710  1.00  0.00     0.339 C 
ATOM     26  C   UNL     1      18.690  41.522  78.066  1.00  0.00     0.214 C 
ATOM     27  O   UNL     1      19.749  41.215  75.864  1.00  0.00    -0.332 OA
ATOM     28  C   UNL     1      17.775  40.311  77.841  1.00  0.00     0.180 C 
ATOM     29  C   UNL     1      19.010  40.023  75.589  1.00  0.00     0.179 C 
ATOM     30  C   UNL     1      18.453  39.326  76.877  1.00  0.00     0.177 C 
BRANCH  26  31
ATOM     31  O   UNL     1      19.830  41.169  78.816  1.00  0.00    -0.384 OA
ATOM     32  H   UNL     1      20.577  40.967  78.200  1.00  0.00     0.211 HD
ENDBRANCH  26  31
BRANCH  28  33
ATOM     33  O   UNL     1      17.506  39.666  79.060  1.00  0.00    -0.387 OA
ATOM     34  H   UNL     1      17.358  38.704  78.848  1.00  0.00     0.211 HD
ENDBRANCH  28  33
BRANCH  29  35
ATOM     35  C   UNL     1      17.978  40.245  74.457  1.00  0.00     0.191 C 
BRANCH  35  36
ATOM     36  O   UNL     1      17.873  39.105  73.638  1.00  0.00    -0.394 OA
ATOM     37  H   UNL     1      17.692  39.422  72.711  1.00  0.00     0.210 HD
ENDBRANCH  35  36
ENDBRANCH  29  35
BRANCH  30  38
ATOM     38  O   UNL     1      17.595  38.248  76.582  1.00  0.00    -0.387 OA
ATOM     39  H   UNL     1      18.106  37.595  76.041  1.00  0.00     0.211 HD
ENDBRANCH  30  38
ENDBRANCH   1  25
TORSDOF 11
ENDMDL
MODEL 3
REMARK VINA RESULT:    -6.310      1.817      9.122
REMARK INTER + INTRA:         -10.040
REMARK INTER:                  -9.121
REMARK INTRA:                  -0.920
REMARK UNBOUND:                -0.963
REMARK SMILES O=c1cc(-c2ccc(O)c(O)c2)oc2cc(O[C@@H]3O[C@H](CO)[C@H](O)[C@@H](O)[C@H]3O)cc(O)c12
REMARK SMILES IDX 17 1 16 2 4 3 3 4 13 5 2 6 14 7 1 8 32 9 15 10 30 11 29 12
REMARK SMILES IDX 5 13 6 14 7 15 8 16 12 17 10 18 9 19 11 21 31 23 18 25 27 26
REMARK SMILES IDX 19 27 25 28 20 29 23 30 28 31 26 33 21 35 22 36 24 38
REMARK H PARENT 9 20 11 22 31 24 28 32 26 34 22 37 24 39
REMARK Flexibility Score: inf
ROOT
ATOM      1  O   UNL     1      14.201  46.624  74.279  1.00  0.00    -0.462 OA
ENDROOT
BRANCH   1   2
ATOM      2  C   UNL     1      15.468  46.021  74.180  1.00  0.00     0.130 A 
ATOM      3  C   UNL     1      17.979  41.961  74.366  1.00  0.00     0.138 A 
ATOM      4  C   UNL     1      19.130  42.598  73.859  1.00  0.00     0.100 A 
ATOM      5  O   UNL     1      16.839  42.660  74.435  1.00  0.00    -0.456 OA
ATOM      6  C   UNL     1      19.093  43.964  73.583  1.00  0.00     0.197 A 
ATOM      7  C   UNL     1      16.765  43.967  74.198  1.00  0.00     0.146 A 
ATOM      8  O   UNL     1      20.123  44.525  73.121  1.00  0.00    -0.289 OA
ATOM      9  C   UNL     1      17.924  44.691  73.841  1.00  0.00     0.107 A 
ATOM     10  C   UNL     1      15.544  44.632  74.334  1.00  0.00     0.094 A 
ATOM     11  C   UNL     1      17.876  46.097  73.782  1.00  0.00     0.134 A 
ATOM     12  C   UNL     1      16.650  46.756  73.948  1.00  0.00     0.093 A 
BRANCH   3  13
ATOM     13  C   UNL     1      17.999  40.550  74.873  1.00  0.00     0.021 A 
ATOM     14  C   UNL     1      17.869  39.433  74.019  1.00  0.00     0.016 A 
ATOM     15  C   UNL     1      18.092  38.136  74.499  1.00  0.00     0.051 A 
ATOM     16  C   UNL     1      18.430  37.926  75.838  1.00  0.00     0.157 A 
ATOM     17  C   UNL     1      18.268  40.316  76.238  1.00  0.00     0.062 A 
ATOM     18  C   UNL     1      18.507  39.020  76.713  1.00  0.00     0.158 A 
BRANCH  16  19
ATOM     19  O   UNL     1      18.707  36.636  76.297  1.00  0.00    -0.504 OA
ATOM     20  H   UNL     1      18.576  36.379  77.272  1.00  0.00     0.293 HD
ENDBRANCH  16  19
BRANCH  18  21
ATOM     21  O   UNL     1      18.862  38.845  78.053  1.00  0.00    -0.504 OA
ATOM     22  H   UNL     1      18.178  38.914  78.803  1.00  0.00     0.293 HD
ENDBRANCH  18  21
ENDBRANCH   3  13
BRANCH  11  23
ATOM     23  O   UNL     1      19.039  46.842  73.584  1.00  0.00    -0.507 OA
ATOM     24  H   UNL     1      19.337  47.140  72.661  1.00  0.00     0.293 HD
ENDBRANCH  11  23
ENDBRANCH   1   2
BRANCH   1  25
ATOM     25  C   UNL     1      13.955  48.029  74.350  1.00  0.00     0.339 C 
ATOM     26  C   UNL     1      13.793  48.610  72.935  1.00  0.00     0.214 C 
ATOM     27  O   UNL     1      12.829  48.313  75.180  1.00  0.00    -0.332 OA
ATOM     28  C   UNL     1      12.542  48.017  72.274  1.00  0.00     0.180 C 
ATOM     29  C   UNL     1      11.586  47.830  74.667  1.00  0.00     0.179 C 
ATOM     30  C   UNL     1      11.323  48.248  73.179  1.00  0.00     0.177 C 
BRANCH  26  31
ATOM     31  O   UNL     1      13.745  50.019  72.950  1.00  0.00    -0.384 OA
ATOM     32  H   UNL     1      13.293  50.338  72.130  1.00  0.00     0.211 HD
ENDBRANCH  26  31
BRANCH  28  33
ATOM     33  O   UNL     1      12.316  48.617  71.023  1.00  0.00    -0.387 OA
ATOM     34  H   UNL     1      11.456  48.251  70.680  1.00  0.00     0.211 HD
ENDBRANCH  28  33
BRANCH  29  35
ATOM     35  C   UNL     1      11.391  46.327  74.977  1.00  0.00     0.191 C 
BRANCH  35  36
ATOM     36  O   UNL     1      11.882  46.007  76.257  1.00  0.00    -0.394 OA
ATOM     37  H   UNL     1      11.198  45.436  76.703  1.00  0.00     0.210 HD
ENDBRANCH  35  36
ENDBRANCH  29  35
BRANCH  30  38
ATOM     38  O   UNL     1      10.176  47.634  72.638  1.00  0.00    -0.387 OA
ATOM     39  H   UNL     1      10.092  47.928  71.698  1.00  0.00     0.211 HD
ENDBRANCH  30  38
ENDBRANCH   1  25
TORSDOF 11
ENDMDL
MODEL 4
REMARK VINA RESULT:    -5.946      4.145      5.807
REMARK INTER + INTRA:          -9.516
REMARK INTER:                  -8.430
REMARK INTRA:                  -1.086
REMARK UNBOUND:                -0.963
REMARK SMILES O=c1cc(-c2ccc(O)c(O)c2)oc2cc(O[C@@H]3O[C@H](CO)[C@H](O)[C@@H](O)[C@H]3O)cc(O)c12
REMARK SMILES IDX 17 1 16 2 4 3 3 4 13 5 2 6 14 7 1 8 32 9 15 10 30 11 29 12
REMARK SMILES IDX 5 13 6 14 7 15 8 16 12 17 10 18 9 19 11 21 31 23 18 25 27 26
REMARK SMILES IDX 19 27 25 28 20 29 23 30 28 31 26 33 21 35 22 36 24 38
REMARK H PARENT 9 20 11 22 31 24 28 32 26 34 22 37 24 39
REMARK Flexibility Score: inf
ROOT
ATOM      1  O   UNL     1      18.863  40.999  75.697  1.00  0.00    -0.462 OA
ENDROOT
BRANCH   1   2
ATOM      2  C   UNL     1      18.994  42.385  75.891  1.00  0.00     0.130 A 
ATOM      3  C   UNL     1      19.034  45.988  79.029  1.00  0.00     0.138 A 
ATOM      4  C   UNL     1      19.501  46.891  78.052  1.00  0.00     0.100 A 
ATOM      5  O   UNL     1      18.928  44.694  78.704  1.00  0.00    -0.456 OA
ATOM      6  C   UNL     1      19.698  46.448  76.745  1.00  0.00     0.197 A 
ATOM      7  C   UNL     1      19.090  44.232  77.466  1.00  0.00     0.146 A 
ATOM      8  O   UNL     1      20.125  47.258  75.879  1.00  0.00    -0.289 OA
ATOM      9  C   UNL     1      19.402  45.119  76.412  1.00  0.00     0.107 A 
ATOM     10  C   UNL     1      18.919  42.871  77.201  1.00  0.00     0.094 A 
ATOM     11  C   UNL     1      19.381  44.656  75.083  1.00  0.00     0.134 A 
ATOM     12  C   UNL     1      19.180  43.294  74.827  1.00  0.00     0.093 A 
BRANCH   3  13
ATOM     13  C   UNL     1      18.609  46.432  80.396  1.00  0.00     0.021 A 
ATOM     14  C   UNL     1      18.754  47.764  80.843  1.00  0.00     0.016 A 
ATOM     15  C   UNL     1      18.166  48.183  82.043  1.00  0.00     0.051 A 
ATOM     16  C   UNL     1      17.440  47.284  82.827  1.00  0.00     0.157 A 
ATOM     17  C   UNL     1      17.935  45.519  81.233  1.00  0.00     0.062 A 
ATOM     18  C   UNL     1      17.333  45.943  82.426  1.00  0.00     0.158 A 
BRANCH  16  19
ATOM     19  O   UNL     1      16.807  47.722  83.992  1.00  0.00    -0.504 OA
ATOM     20  H   UNL     1      16.227  48.557  84.001  1.00  0.00     0.293 HD
ENDBRANCH  16  19
BRANCH  18  21
ATOM     21  O   UNL     1      16.598  45.024  83.177  1.00  0.00    -0.504 OA
ATOM     22  H   UNL     1      15.923  44.396  82.747  1.00  0.00     0.293 HD
ENDBRANCH  18  21
ENDBRANCH   3  13
BRANCH  11  23
ATOM     23  O   UNL     1      19.533  45.544  74.017  1.00  0.00    -0.507 OA
ATOM     24  H   UNL     1      19.929  45.255  73.128  1.00  0.00     0.293 HD
ENDBRANCH  11  23
ENDBRANCH   1   2
BRANCH   1  25
ATOM     25  C   UNL     1      17.668  40.242  75.896  1.00  0.00     0.339 C 
ATOM     26  C   UNL     1      17.398  39.346  74.675  1.00  0.00     0.214 C 
ATOM     27  O   UNL     1      17.729  39.494  77.110  1.00  0.00    -0.332 OA
ATOM     28  C   UNL     1      18.514  38.302  74.545  1.00  0.00     0.180 C 
ATOM     29  C   UNL     1      18.722  38.466  77.115  1.00  0.00     0.179 C 
ATOM     30  C   UNL     1      18.650  37.526  75.863  1.00  0.00     0.177 C 
BRANCH  26  31
ATOM     31  O   UNL     1      16.130  38.734  74.746  1.00  0.00    -0.384 OA
ATOM     32  H   UNL     1      15.429  39.431  74.700  1.00  0.00     0.211 HD
ENDBRANCH  26  31
BRANCH  28  33
ATOM     33  O   UNL     1      18.228  37.406  73.500  1.00  0.00    -0.387 OA
ATOM     34  H   UNL     1      17.312  37.055  73.667  1.00  0.00     0.211 HD
ENDBRANCH  28  33
BRANCH  29  35
ATOM     35  C   UNL     1      20.125  39.034  77.436  1.00  0.00     0.191 C 
BRANCH  35  36
ATOM     36  O   UNL     1      20.071  39.929  78.522  1.00  0.00    -0.394 OA
ATOM     37  H   UNL     1      20.141  40.851  78.150  1.00  0.00     0.210 HD
ENDBRANCH  35  36
ENDBRANCH  29  35
BRANCH  30  38
ATOM     38  O   UNL     1      19.728  36.622  75.801  1.00  0.00    -0.387 OA
ATOM     39  H   UNL     1      20.565  37.143  75.890  1.00  0.00     0.211 HD
ENDBRANCH  30  38
ENDBRANCH   1  25
TORSDOF 11
ENDMDL
MODEL 5
REMARK VINA RESULT:    -5.793      1.558      3.064
REMARK INTER + INTRA:          -9.297
REMARK INTER:                  -8.369
REMARK INTRA:                  -0.927
REMARK UNBOUND:                -0.963
REMARK SMILES O=c1cc(-c2ccc(O)c(O)c2)oc2cc(O[C@@H]3O[C@H](CO)[C@H](O)[C@@H](O)[C@H]3O)cc(O)c12
REMARK SMILES IDX 17 1 16 2 4 3 3 4 13 5 2 6 14 7 1 8 32 9 15 10 30 11 29 12
REMARK SMILES IDX 5 13 6 14 7 15 8 16 12 17 10 18 9 19 11 21 31 23 18 25 27 26
REMARK SMILES IDX 19 27 25 28 20 29 23 30 28 31 26 33 21 35 22 36 24 38
REMARK H PARENT 9 20 11 22 31 24 28 32 26 34 22 37 24 39
REMARK Flexibility Score: inf
ROOT
ATOM      1  O   UNL     1      17.713  42.837  75.994  1.00  0.00    -0.462 OA
ENDROOT
BRANCH   1   2
ATOM      2  C   UNL     1      17.467  44.151  75.558  1.00  0.00     0.130 A 
ATOM      3  C   UNL     1      14.219  47.306  74.033  1.00  0.00     0.138 A 
ATOM      4  C   UNL     1      15.135  48.371  74.148  1.00  0.00     0.100 A 
ATOM      5  O   UNL     1      14.591  46.093  74.462  1.00  0.00    -0.456 OA
ATOM      6  C   UNL     1      16.441  48.112  74.562  1.00  0.00     0.197 A 
ATOM      7  C   UNL     1      15.830  45.800  74.847  1.00  0.00     0.146 A 
ATOM      8  O   UNL     1      17.252  49.070  74.671  1.00  0.00    -0.289 OA
ATOM      9  C   UNL     1      16.834  46.793  74.829  1.00  0.00     0.107 A 
ATOM     10  C   UNL     1      16.149  44.498  75.240  1.00  0.00     0.094 A 
ATOM     11  C   UNL     1      18.176  46.432  75.051  1.00  0.00     0.134 A 
ATOM     12  C   UNL     1      18.488  45.116  75.417  1.00  0.00     0.093 A 
BRANCH   3  13
ATOM     13  C   UNL     1      12.867  47.473  73.408  1.00  0.00     0.021 A 
ATOM     14  C   UNL     1      11.668  47.360  74.146  1.00  0.00     0.016 A 
ATOM     15  C   UNL     1      10.440  47.718  73.574  1.00  0.00     0.051 A 
ATOM     16  C   UNL     1      10.381  48.176  72.256  1.00  0.00     0.157 A 
ATOM     17  C   UNL     1      12.782  47.867  72.056  1.00  0.00     0.062 A 
ATOM     18  C   UNL     1      11.555  48.241  71.490  1.00  0.00     0.158 A 
BRANCH  16  19
ATOM     19  O   UNL     1       9.162  48.586  71.711  1.00  0.00    -0.504 OA
ATOM     20  H   UNL     1       9.068  49.476  71.227  1.00  0.00     0.293 HD
ENDBRANCH  16  19
BRANCH  18  21
ATOM     21  O   UNL     1      11.532  48.713  70.176  1.00  0.00    -0.504 OA
ATOM     22  H   UNL     1      10.659  48.878  69.680  1.00  0.00     0.293 HD
ENDBRANCH  18  21
ENDBRANCH   3  13
BRANCH  11  23
ATOM     23  O   UNL     1      19.202  47.364  74.887  1.00  0.00    -0.507 OA
ATOM     24  H   UNL     1      19.189  48.266  75.353  1.00  0.00     0.293 HD
ENDBRANCH  11  23
ENDBRANCH   1   2
BRANCH   1  25
ATOM     25  C   UNL     1      18.901  42.390  76.650  1.00  0.00     0.339 C 
ATOM     26  C   UNL     1      18.552  41.782  78.020  1.00  0.00     0.214 C 
ATOM     27  O   UNL     1      19.631  41.480  75.828  1.00  0.00    -0.332 OA
ATOM     28  C   UNL     1      17.704  40.519  77.823  1.00  0.00     0.180 C 
ATOM     29  C   UNL     1      18.958  40.244  75.580  1.00  0.00     0.179 C 
ATOM     30  C   UNL     1      18.436  39.548  76.885  1.00  0.00     0.177 C 
BRANCH  26  31
ATOM     31  O   UNL     1      19.707  41.510  78.780  1.00  0.00    -0.384 OA
ATOM     32  H   UNL     1      20.311  40.927  78.257  1.00  0.00     0.211 HD
ENDBRANCH  26  31
BRANCH  28  33
ATOM     33  O   UNL     1      17.467  39.890  79.057  1.00  0.00    -0.387 OA
ATOM     34  H   UNL     1      17.369  38.917  78.868  1.00  0.00     0.211 HD
ENDBRANCH  28  33
BRANCH  29  35
ATOM     35  C   UNL     1      17.919  40.382  74.443  1.00  0.00     0.191 C 
BRANCH  35  36
ATOM     36  O   UNL     1      17.889  39.225  73.642  1.00  0.00    -0.394 OA
ATOM     37  H   UNL     1      17.177  38.630  74.005  1.00  0.00     0.210 HD
ENDBRANCH  35  36
ENDBRANCH  29  35
BRANCH  30  38
ATOM     38  O   UNL     1      17.639  38.419  76.615  1.00  0.00    -0.387 OA
ATOM     39  H   UNL     1      17.557  38.334  75.632  1.00  0.00     0.211 HD
ENDBRANCH  30  38
ENDBRANCH   1  25
TORSDOF 11
ENDMDL
MODEL 6
REMARK VINA RESULT:    -5.580      4.860     10.064
REMARK INTER + INTRA:          -8.989
REMARK INTER:                  -8.291
REMARK INTRA:                  -0.699
REMARK UNBOUND:                -0.963
REMARK SMILES O=c1cc(-c2ccc(O)c(O)c2)oc2cc(O[C@@H]3O[C@H](CO)[C@H](O)[C@@H](O)[C@H]3O)cc(O)c12
REMARK SMILES IDX 17 1 16 2 4 3 3 4 13 5 2 6 14 7 1 8 32 9 15 10 30 11 29 12
REMARK SMILES IDX 5 13 6 14 7 15 8 16 12 17 10 18 9 19 11 21 31 23 18 25 27 26
REMARK SMILES IDX 19 27 25 28 20 29 23 30 28 31 26 33 21 35 22 36 24 38
REMARK H PARENT 9 20 11 22 31 24 28 32 26 34 22 37 24 39
REMARK Flexibility Score: inf
ROOT
ATOM      1  O   UNL     1      18.598  45.044  80.406  1.00  0.00    -0.462 OA
ENDROOT
BRANCH   1   2
ATOM      2  C   UNL     1      18.865  44.345  79.215  1.00  0.00     0.130 A 
ATOM      3  C   UNL     1      19.337  40.080  77.114  1.00  0.00     0.138 A 
ATOM      4  C   UNL     1      19.365  40.665  75.832  1.00  0.00     0.100 A 
ATOM      5  O   UNL     1      19.100  40.866  78.172  1.00  0.00    -0.456 OA
ATOM      6  C   UNL     1      19.294  42.052  75.709  1.00  0.00     0.197 A 
ATOM      7  C   UNL     1      19.043  42.194  78.100  1.00  0.00     0.146 A 
ATOM      8  O   UNL     1      19.311  42.569  74.560  1.00  0.00    -0.289 OA
ATOM      9  C   UNL     1      19.226  42.847  76.862  1.00  0.00     0.107 A 
ATOM     10  C   UNL     1      18.834  42.946  79.259  1.00  0.00     0.094 A 
ATOM     11  C   UNL     1      19.357  44.248  76.826  1.00  0.00     0.134 A 
ATOM     12  C   UNL     1      19.174  44.991  78.000  1.00  0.00     0.093 A 
BRANCH   3  13
ATOM     13  C   UNL     1      19.609  38.623  77.338  1.00  0.00     0.021 A 
ATOM     14  C   UNL     1      19.861  38.084  78.620  1.00  0.00     0.016 A 
ATOM     15  C   UNL     1      19.912  36.698  78.815  1.00  0.00     0.051 A 
ATOM     16  C   UNL     1      19.731  35.825  77.740  1.00  0.00     0.157 A 
ATOM     17  C   UNL     1      19.501  37.731  76.251  1.00  0.00     0.062 A 
ATOM     18  C   UNL     1      19.535  36.344  76.451  1.00  0.00     0.158 A 
BRANCH  16  19
ATOM     19  O   UNL     1      19.725  34.445  77.952  1.00  0.00    -0.504 OA
ATOM     20  H   UNL     1      19.411  34.043  78.832  1.00  0.00     0.293 HD
ENDBRANCH  16  19
BRANCH  18  21
ATOM     21  O   UNL     1      19.331  35.498  75.359  1.00  0.00    -0.504 OA
ATOM     22  H   UNL     1      18.986  35.845  74.467  1.00  0.00     0.293 HD
ENDBRANCH  18  21
ENDBRANCH   3  13
BRANCH  11  23
ATOM     23  O   UNL     1      19.691  44.903  75.639  1.00  0.00    -0.507 OA
ATOM     24  H   UNL     1      19.223  44.699  74.762  1.00  0.00     0.293 HD
ENDBRANCH  11  23
ENDBRANCH   1   2
BRANCH   1  25
ATOM     25  C   UNL     1      19.405  46.087  80.954  1.00  0.00     0.339 C 
ATOM     26  C   UNL     1      19.203  47.388  80.158  1.00  0.00     0.214 C 
ATOM     27  O   UNL     1      19.144  46.262  82.347  1.00  0.00    -0.332 OA
ATOM     28  C   UNL     1      17.758  47.873  80.322  1.00  0.00     0.180 C 
ATOM     29  C   UNL     1      17.827  46.735  82.641  1.00  0.00     0.179 C 
ATOM     30  C   UNL     1      17.425  48.005  81.816  1.00  0.00     0.177 C 
BRANCH  26  31
ATOM     31  O   UNL     1      20.124  48.383  80.541  1.00  0.00    -0.384 OA
ATOM     32  H   UNL     1      19.637  49.132  80.966  1.00  0.00     0.211 HD
ENDBRANCH  26  31
BRANCH  28  33
ATOM     33  O   UNL     1      17.583  49.117  79.692  1.00  0.00    -0.387 OA
ATOM     34  H   UNL     1      17.834  48.992  78.737  1.00  0.00     0.211 HD
ENDBRANCH  28  33
BRANCH  29  35
ATOM     35  C   UNL     1      16.795  45.582  82.628  1.00  0.00     0.191 C 
BRANCH  35  36
ATOM     36  O   UNL     1      15.627  45.943  83.325  1.00  0.00    -0.394 OA
ATOM     37  H   UNL     1      14.851  45.723  82.738  1.00  0.00     0.210 HD
ENDBRANCH  35  36
ENDBRANCH  29  35
BRANCH  30  38
ATOM     38  O   UNL     1      16.074  48.363  81.996  1.00  0.00    -0.387 OA
ATOM     39  H   UNL     1      15.633  47.632  82.496  1.00  0.00     0.211 HD
ENDBRANCH  30  38
ENDBRANCH   1  25
TORSDOF 11
ENDMDL
MODEL 7
REMARK VINA RESULT:    -5.358      4.986      7.486
REMARK INTER + INTRA:          -8.671
REMARK INTER:                  -8.364
REMARK INTRA:                  -0.307
REMARK UNBOUND:                -0.963
REMARK SMILES O=c1cc(-c2ccc(O)c(O)c2)oc2cc(O[C@@H]3O[C@H](CO)[C@H](O)[C@@H](O)[C@H]3O)cc(O)c12
REMARK SMILES IDX 17 1 16 2 4 3 3 4 13 5 2 6 14 7 1 8 32 9 15 10 30 11 29 12
REMARK SMILES IDX 5 13 6 14 7 15 8 16 12 17 10 18 9 19 11 21 31 23 18 25 27 26
REMARK SMILES IDX 19 27 25 28 20 29 23 30 28 31 26 33 21 35 22 36 24 38
REMARK H PARENT 9 20 11 22 31 24 28 32 26 34 22 37 24 39
REMARK Flexibility Score: inf
ROOT
ATOM      1  O   UNL     1      17.112  49.587  72.995  1.00  0.00    -0.462 OA
ENDROOT
BRANCH   1   2
ATOM      2  C   UNL     1      15.780  49.297  73.345  1.00  0.00     0.130 A 
ATOM      3  C   UNL     1      11.431  48.057  71.804  1.00  0.00     0.138 A 
ATOM      4  C   UNL     1      10.982  47.829  73.120  1.00  0.00     0.100 A 
ATOM      5  O   UNL     1      12.723  48.354  71.611  1.00  0.00    -0.456 OA
ATOM      6  C   UNL     1      11.845  48.060  74.190  1.00  0.00     0.197 A 
ATOM      7  C   UNL     1      13.575  48.599  72.603  1.00  0.00     0.146 A 
ATOM      8  O   UNL     1      11.440  47.846  75.364  1.00  0.00    -0.289 OA
ATOM      9  C   UNL     1      13.138  48.543  73.945  1.00  0.00     0.107 A 
ATOM     10  C   UNL     1      14.897  48.945  72.317  1.00  0.00     0.094 A 
ATOM     11  C   UNL     1      13.988  48.991  74.974  1.00  0.00     0.134 A 
ATOM     12  C   UNL     1      15.305  49.363  74.672  1.00  0.00     0.093 A 
BRANCH   3  13
ATOM     13  C   UNL     1      10.509  48.026  70.623  1.00  0.00     0.021 A 
ATOM     14  C   UNL     1      10.823  47.338  69.429  1.00  0.00     0.016 A 
ATOM     15  C   UNL     1       9.859  47.164  68.429  1.00  0.00     0.051 A 
ATOM     16  C   UNL     1       8.572  47.684  68.589  1.00  0.00     0.157 A 
ATOM     17  C   UNL     1       9.229  48.607  70.738  1.00  0.00     0.062 A 
ATOM     18  C   UNL     1       8.259  48.418  69.744  1.00  0.00     0.158 A 
BRANCH  16  19
ATOM     19  O   UNL     1       7.598  47.456  67.614  1.00  0.00    -0.504 OA
ATOM     20  H   UNL     1       7.053  46.598  67.596  1.00  0.00     0.293 HD
ENDBRANCH  16  19
BRANCH  18  21
ATOM     21  O   UNL     1       6.976  48.933  69.943  1.00  0.00    -0.504 OA
ATOM     22  H   UNL     1       6.194  48.339  70.207  1.00  0.00     0.293 HD
ENDBRANCH  18  21
ENDBRANCH   3  13
BRANCH  11  23
ATOM     23  O   UNL     1      13.527  49.090  76.288  1.00  0.00    -0.507 OA
ATOM     24  H   UNL     1      13.964  48.585  77.051  1.00  0.00     0.293 HD
ENDBRANCH  11  23
ENDBRANCH   1   2
BRANCH   1  25
ATOM     25  C   UNL     1      18.257  49.336  73.812  1.00  0.00     0.339 C 
ATOM     26  C   UNL     1      17.993  48.139  74.742  1.00  0.00     0.214 C 
ATOM     27  O   UNL     1      19.427  49.151  73.015  1.00  0.00    -0.332 OA
ATOM     28  C   UNL     1      17.812  46.866  73.905  1.00  0.00     0.180 C 
ATOM     29  C   UNL     1      19.398  47.981  72.196  1.00  0.00     0.179 C 
ATOM     30  C   UNL     1      19.028  46.678  72.985  1.00  0.00     0.177 C 
BRANCH  26  31
ATOM     31  O   UNL     1      19.017  47.983  75.697  1.00  0.00    -0.384 OA
ATOM     32  H   UNL     1      19.625  48.763  75.653  1.00  0.00     0.211 HD
ENDBRANCH  26  31
BRANCH  28  33
ATOM     33  O   UNL     1      17.679  45.744  74.741  1.00  0.00    -0.387 OA
ATOM     34  H   UNL     1      17.113  46.026  75.510  1.00  0.00     0.211 HD
ENDBRANCH  28  33
BRANCH  29  35
ATOM     35  C   UNL     1      18.593  48.218  70.896  1.00  0.00     0.191 C 
BRANCH  35  36
ATOM     36  O   UNL     1      18.714  49.552  70.464  1.00  0.00    -0.394 OA
ATOM     37  H   UNL     1      19.642  49.850  70.674  1.00  0.00     0.210 HD
ENDBRANCH  35  36
ENDBRANCH  29  35
BRANCH  30  38
ATOM     38  O   UNL     1      18.847  45.565  72.141  1.00  0.00    -0.387 OA
ATOM     39  H   UNL     1      18.608  44.791  72.709  1.00  0.00     0.211 HD
ENDBRANCH  30  38
ENDBRANCH   1  25
TORSDOF 11
ENDMDL
MODEL 8
REMARK VINA RESULT:    -5.338      2.608      5.499
REMARK INTER + INTRA:          -8.642
REMARK INTER:                  -7.766
REMARK INTRA:                  -0.875
REMARK UNBOUND:                -0.963
REMARK SMILES O=c1cc(-c2ccc(O)c(O)c2)oc2cc(O[C@@H]3O[C@H](CO)[C@H](O)[C@@H](O)[C@H]3O)cc(O)c12
REMARK SMILES IDX 17 1 16 2 4 3 3 4 13 5 2 6 14 7 1 8 32 9 15 10 30 11 29 12
REMARK SMILES IDX 5 13 6 14 7 15 8 16 12 17 10 18 9 19 11 21 31 23 18 25 27 26
REMARK SMILES IDX 19 27 25 28 20 29 23 30 28 31 26 33 21 35 22 36 24 38
REMARK H PARENT 9 20 11 22 31 24 28 32 26 34 22 37 24 39
REMARK Flexibility Score: inf
ROOT
ATOM      1  O   UNL     1      17.804  41.429  74.667  1.00  0.00    -0.462 OA
ENDROOT
BRANCH   1   2
ATOM      2  C   UNL     1      17.608  42.817  74.774  1.00  0.00     0.130 A 
ATOM      3  C   UNL     1      18.704  46.834  77.118  1.00  0.00     0.138 A 
ATOM      4  C   UNL     1      18.073  47.629  76.140  1.00  0.00     0.100 A 
ATOM      5  O   UNL     1      18.800  45.515  76.906  1.00  0.00    -0.456 OA
ATOM      6  C   UNL     1      17.440  47.015  75.060  1.00  0.00     0.197 A 
ATOM      7  C   UNL     1      18.197  44.888  75.899  1.00  0.00     0.146 A 
ATOM      8  O   UNL     1      16.886  47.733  74.184  1.00  0.00    -0.289 OA
ATOM      9  C   UNL     1      17.415  45.617  74.975  1.00  0.00     0.107 A 
ATOM     10  C   UNL     1      18.311  43.502  75.772  1.00  0.00     0.094 A 
ATOM     11  C   UNL     1      16.628  44.927  74.033  1.00  0.00     0.134 A 
ATOM     12  C   UNL     1      16.729  43.534  73.934  1.00  0.00     0.093 A 
BRANCH   3  13
ATOM     13  C   UNL     1      19.227  47.403  78.402  1.00  0.00     0.021 A 
ATOM     14  C   UNL     1      19.697  48.731  78.511  1.00  0.00     0.016 A 
ATOM     15  C   UNL     1      19.987  49.287  79.763  1.00  0.00     0.051 A 
ATOM     16  C   UNL     1      19.833  48.529  80.926  1.00  0.00     0.157 A 
ATOM     17  C   UNL     1      19.146  46.628  79.578  1.00  0.00     0.062 A 
ATOM     18  C   UNL     1      19.421  47.190  80.832  1.00  0.00     0.158 A 
BRANCH  16  19
ATOM     19  O   UNL     1      20.069  49.107  82.176  1.00  0.00    -0.504 OA
ATOM     20  H   UNL     1      19.604  49.965  82.461  1.00  0.00     0.293 HD
ENDBRANCH  16  19
BRANCH  18  21
ATOM     21  O   UNL     1      19.238  46.412  81.978  1.00  0.00    -0.504 OA
ATOM     22  H   UNL     1      18.811  45.489  81.938  1.00  0.00     0.293 HD
ENDBRANCH  18  21
ENDBRANCH   3  13
BRANCH  11  23
ATOM     23  O   UNL     1      15.731  45.615  73.214  1.00  0.00    -0.507 OA
ATOM     24  H   UNL     1      16.044  46.270  72.504  1.00  0.00     0.293 HD
ENDBRANCH  11  23
ENDBRANCH   1   2
BRANCH   1  25
ATOM     25  C   UNL     1      16.885  40.425  75.101  1.00  0.00     0.339 C 
ATOM     26  C   UNL     1      16.868  39.256  74.102  1.00  0.00     0.214 C 
ATOM     27  O   UNL     1      17.182  39.995  76.429  1.00  0.00    -0.332 OA
ATOM     28  C   UNL     1      18.238  38.565  74.092  1.00  0.00     0.180 C 
ATOM     29  C   UNL     1      18.432  39.313  76.558  1.00  0.00     0.179 C 
ATOM     30  C   UNL     1      18.616  38.151  75.522  1.00  0.00     0.177 C 
BRANCH  26  31
ATOM     31  O   UNL     1      15.835  38.340  74.387  1.00  0.00    -0.384 OA
ATOM     32  H   UNL     1      15.171  38.771  74.980  1.00  0.00     0.211 HD
ENDBRANCH  26  31
BRANCH  28  33
ATOM     33  O   UNL     1      18.208  37.428  73.267  1.00  0.00    -0.387 OA
ATOM     34  H   UNL     1      18.782  37.630  72.479  1.00  0.00     0.211 HD
ENDBRANCH  28  33
BRANCH  29  35
ATOM     35  C   UNL     1      19.613  40.308  76.655  1.00  0.00     0.191 C 
BRANCH  35  36
ATOM     36  O   UNL     1      19.898  40.625  77.996  1.00  0.00    -0.394 OA
ATOM     37  H   UNL     1      19.306  41.385  78.254  1.00  0.00     0.210 HD
ENDBRANCH  35  36
ENDBRANCH  29  35
BRANCH  30  38
ATOM     38  O   UNL     1      19.910  37.596  75.555  1.00  0.00    -0.387 OA
ATOM     39  H   UNL     1      20.020  37.139  76.425  1.00  0.00     0.211 HD
ENDBRANCH  30  38
ENDBRANCH   1  25
TORSDOF 11
ENDMDL
MODEL 9
REMARK VINA RESULT:    -5.324      2.356      8.899
REMARK INTER + INTRA:          -8.622
REMARK INTER:                  -7.669
REMARK INTRA:                  -0.953
REMARK UNBOUND:                -0.963
REMARK SMILES O=c1cc(-c2ccc(O)c(O)c2)oc2cc(O[C@@H]3O[C@H](CO)[C@H](O)[C@@H](O)[C@H]3O)cc(O)c12
REMARK SMILES IDX 17 1 16 2 4 3 3 4 13 5 2 6 14 7 1 8 32 9 15 10 30 11 29 12
REMARK SMILES IDX 5 13 6 14 7 15 8 16 12 17 10 18 9 19 11 21 31 23 18 25 27 26
REMARK SMILES IDX 19 27 25 28 20 29 23 30 28 31 26 33 21 35 22 36 24 38
REMARK H PARENT 9 20 11 22 31 24 28 32 26 34 22 37 24 39
REMARK Flexibility Score: inf
ROOT
ATOM      1  O   UNL     1      14.367  47.521  75.193  1.00  0.00    -0.462 OA
ENDROOT
BRANCH   1   2
ATOM      2  C   UNL     1      15.507  46.827  74.750  1.00  0.00     0.130 A 
ATOM      3  C   UNL     1      17.693  42.598  74.341  1.00  0.00     0.138 A 
ATOM      4  C   UNL     1      18.684  43.142  73.499  1.00  0.00     0.100 A 
ATOM      5  O   UNL     1      16.671  43.379  74.714  1.00  0.00    -0.456 OA
ATOM      6  C   UNL     1      18.657  44.503  73.198  1.00  0.00     0.197 A 
ATOM      7  C   UNL     1      16.616  44.684  74.463  1.00  0.00     0.146 A 
ATOM      8  O   UNL     1      19.541  44.981  72.437  1.00  0.00    -0.289 OA
ATOM      9  C   UNL     1      17.664  45.317  73.759  1.00  0.00     0.107 A 
ATOM     10  C   UNL     1      15.534  45.438  74.924  1.00  0.00     0.094 A 
ATOM     11  C   UNL     1      17.693  46.722  73.667  1.00  0.00     0.134 A 
ATOM     12  C   UNL     1      16.615  47.470  74.159  1.00  0.00     0.093 A 
BRANCH   3  13
ATOM     13  C   UNL     1      17.768  41.197  74.869  1.00  0.00     0.021 A 
ATOM     14  C   UNL     1      17.482  40.067  74.072  1.00  0.00     0.016 A 
ATOM     15  C   UNL     1      17.756  38.775  74.539  1.00  0.00     0.051 A 
ATOM     16  C   UNL     1      18.301  38.583  75.811  1.00  0.00     0.157 A 
ATOM     17  C   UNL     1      18.249  40.984  76.178  1.00  0.00     0.062 A 
ATOM     18  C   UNL     1      18.538  39.692  76.638  1.00  0.00     0.158 A 
BRANCH  16  19
ATOM     19  O   UNL     1      18.625  37.297  76.248  1.00  0.00    -0.504 OA
ATOM     20  H   UNL     1      17.908  36.638  76.540  1.00  0.00     0.293 HD
ENDBRANCH  16  19
BRANCH  18  21
ATOM     21  O   UNL     1      19.101  39.535  77.907  1.00  0.00    -0.504 OA
ATOM     22  H   UNL     1      20.075  39.272  78.034  1.00  0.00     0.293 HD
ENDBRANCH  18  21
ENDBRANCH   3  13
BRANCH  11  23
ATOM     23  O   UNL     1      18.793  47.378  73.113  1.00  0.00    -0.507 OA
ATOM     24  H   UNL     1      18.863  47.566  72.118  1.00  0.00     0.293 HD
ENDBRANCH  11  23
ENDBRANCH   1   2
BRANCH   1  25
ATOM     25  C   UNL     1      13.212  47.808  74.403  1.00  0.00     0.339 C 
ATOM     26  C   UNL     1      12.188  46.667  74.527  1.00  0.00     0.214 C 
ATOM     27  O   UNL     1      12.652  49.074  74.751  1.00  0.00    -0.332 OA
ATOM     28  C   UNL     1      11.675  46.589  75.971  1.00  0.00     0.180 C 
ATOM     29  C   UNL     1      12.116  49.134  76.074  1.00  0.00     0.179 C 
ATOM     30  C   UNL     1      11.129  47.960  76.398  1.00  0.00     0.177 C 
BRANCH  26  31
ATOM     31  O   UNL     1      11.125  46.816  73.614  1.00  0.00    -0.384 OA
ATOM     32  H   UNL     1      10.270  46.843  74.111  1.00  0.00     0.211 HD
ENDBRANCH  26  31
BRANCH  28  33
ATOM     33  O   UNL     1      10.659  45.625  76.080  1.00  0.00    -0.387 OA
ATOM     34  H   UNL     1      10.998  44.919  76.695  1.00  0.00     0.211 HD
ENDBRANCH  28  33
BRANCH  29  35
ATOM     35  C   UNL     1      13.225  49.375  77.125  1.00  0.00     0.191 C 
BRANCH  35  36
ATOM     36  O   UNL     1      12.709  50.018  78.266  1.00  0.00    -0.394 OA
ATOM     37  H   UNL     1      13.355  50.732  78.523  1.00  0.00     0.210 HD
ENDBRANCH  35  36
ENDBRANCH  29  35
BRANCH  30  38
ATOM     38  O   UNL     1      10.734  47.941  77.750  1.00  0.00    -0.387 OA
ATOM     39  H   UNL     1      11.053  47.092  78.145  1.00  0.00     0.211 HD
ENDBRANCH  30  38
ENDBRANCH   1  25
TORSDOF 11
ENDMDL
