MODEL 1
REMARK VINA RESULT:    -3.668      0.000      0.000
REMARK INTER + INTRA:          -6.835
REMARK INTER:                  -5.813
REMARK INTRA:                  -1.022
REMARK UNBOUND:                -1.022
REMARK SMILES CCCCCCCCCCCC(=O)[O-]
REMARK SMILES IDX 7 1 8 2 9 3 10 4 11 5 12 6 13 7 14 8 6 9 5 10 4 11 3 12 2 13
REMARK SMILES IDX 1 14
REMARK H PARENT
REMARK Flexibility Score: inf
ROOT
ATOM      1  C   UNL     1       7.874   8.806  33.419  1.00  0.00     0.000 C 
ENDROOT
BRANCH   1   2
ATOM      2  C   UNL     1       8.245   7.345  33.737  1.00  0.00     0.000 C 
BRANCH   2   3
ATOM      3  C   UNL     1       7.312   6.707  34.780  1.00  0.00     0.000 C 
BRANCH   3   4
ATOM      4  C   UNL     1       8.077   6.089  35.965  1.00  0.00     0.006 C 
BRANCH   4   5
ATOM      5  C   UNL     1       9.391   5.390  35.579  1.00  0.00     0.053 C 
BRANCH   5   6
ATOM      6  C   UNL     1       9.434   3.971  36.055  1.00  0.00     0.041 C 
ATOM      7  O   UNL     1       8.456   3.481  36.678  1.00  0.00    -0.550 OA
ATOM      8  O   UNL     1      10.541   3.178  35.782  1.00  0.00    -0.550 OA
ENDBRANCH   5   6
ENDBRANCH   4   5
ENDBRANCH   3   4
ENDBRANCH   2   3
ENDBRANCH   1   2
BRANCH   1   9
ATOM      9  C   UNL     1       6.363   9.109  33.383  1.00  0.00     0.000 C 
BRANCH   9  10
ATOM     10  C   UNL     1       5.998  10.583  33.133  1.00  0.00    -0.000 C 
BRANCH  10  11
ATOM     11  C   UNL     1       5.243  11.218  34.310  1.00  0.00    -0.000 C 
BRANCH  11  12
ATOM     12  C   UNL     1       5.136  10.237  35.487  1.00  0.00    -0.000 C 
BRANCH  12  13
ATOM     13  C   UNL     1       5.991  10.662  36.690  1.00  0.00    -0.003 C 
ATOM     14  C   UNL     1       7.058   9.628  37.052  1.00  0.00     0.004 C 
ENDBRANCH  12  13
ENDBRANCH  11  12
ENDBRANCH  10  11
ENDBRANCH   9  10
ENDBRANCH   1   9
TORSDOF 10
ENDMDL
MODEL 2
REMARK VINA RESULT:    -3.385      2.016      3.114
REMARK INTER + INTRA:          -6.386
REMARK INTER:                  -5.258
REMARK INTRA:                  -1.128
REMARK UNBOUND:                -1.022
REMARK SMILES CCCCCCCCCCCC(=O)[O-]
REMARK SMILES IDX 7 1 8 2 9 3 10 4 11 5 12 6 13 7 14 8 6 9 5 10 4 11 3 12 2 13
REMARK SMILES IDX 1 14
REMARK H PARENT
REMARK Flexibility Score: inf
ROOT
ATOM      1  C   UNL     1       6.150   5.722  34.249  1.00  0.00     0.000 C 
ENDROOT
BRANCH   1   2
ATOM      2  C   UNL     1       6.415   4.725  35.393  1.00  0.00     0.000 C 
BRANCH   2   3
ATOM      3  C   UNL     1       7.557   5.173  36.321  1.00  0.00     0.000 C 
BRANCH   3   4
ATOM      4  C   UNL     1       8.700   5.872  35.563  1.00  0.00     0.006 C 
BRANCH   4   5
ATOM      5  C   UNL     1       9.923   4.981  35.291  1.00  0.00     0.053 C 
BRANCH   5   6
ATOM      6  C   UNL     1      10.700   5.442  34.097  1.00  0.00     0.041 C 
ATOM      7  O   UNL     1      10.275   6.395  33.393  1.00  0.00    -0.550 OA
ATOM      8  O   UNL     1      11.912   4.840  33.781  1.00  0.00    -0.550 OA
ENDBRANCH   5   6
ENDBRANCH   4   5
ENDBRANCH   3   4
ENDBRANCH   2   3
ENDBRANCH   1   2
BRANCH   1   9
ATOM      9  C   UNL     1       4.924   6.636  34.442  1.00  0.00     0.000 C 
BRANCH   9  10
ATOM     10  C   UNL     1       5.014   7.611  35.628  1.00  0.00    -0.000 C 
BRANCH  10  11
ATOM     11  C   UNL     1       6.130   8.654  35.460  1.00  0.00    -0.000 C 
BRANCH  11  12
ATOM     12  C   UNL     1       5.745   9.704  34.407  1.00  0.00    -0.000 C 
BRANCH  12  13
ATOM     13  C   UNL     1       6.614   9.621  33.144  1.00  0.00    -0.003 C 
ATOM     14  C   UNL     1       7.900   8.823  33.363  1.00  0.00     0.004 C 
ENDBRANCH  12  13
ENDBRANCH  11  12
ENDBRANCH  10  11
ENDBRANCH   9  10
ENDBRANCH   1   9
TORSDOF 10
ENDMDL
MODEL 3
REMARK VINA RESULT:    -3.357      2.026      2.914
REMARK INTER + INTRA:          -6.342
REMARK INTER:                  -5.894
REMARK INTRA:                  -0.447
REMARK UNBOUND:                -1.022
REMARK SMILES CCCCCCCCCCCC(=O)[O-]
REMARK SMILES IDX 7 1 8 2 9 3 10 4 11 5 12 6 13 7 14 8 6 9 5 10 4 11 3 12 2 13
REMARK SMILES IDX 1 14
REMARK H PARENT
REMARK Flexibility Score: inf
ROOT
ATOM      1  C   UNL     1       6.340  10.119  32.959  1.00  0.00     0.000 C 
ENDROOT
BRANCH   1   2
ATOM      2  C   UNL     1       6.691   9.121  34.078  1.00  0.00     0.000 C 
BRANCH   2   3
ATOM      3  C   UNL     1       6.826   7.676  33.568  1.00  0.00     0.000 C 
BRANCH   3   4
ATOM      4  C   UNL     1       8.103   6.982  34.075  1.00  0.00     0.006 C 
BRANCH   4   5
ATOM      5  C   UNL     1       7.947   6.273  35.431  1.00  0.00     0.053 C 
BRANCH   5   6
ATOM      6  C   UNL     1       8.940   5.165  35.603  1.00  0.00     0.041 C 
ATOM      7  O   UNL     1      10.088   5.258  35.095  1.00  0.00    -0.550 OA
ATOM      8  O   UNL     1       8.609   4.044  36.354  1.00  0.00    -0.550 OA
ENDBRANCH   5   6
ENDBRANCH   4   5
ENDBRANCH   3   4
ENDBRANCH   2   3
ENDBRANCH   1   2
BRANCH   1   9
ATOM      9  C   UNL     1       5.378  11.253  33.365  1.00  0.00     0.000 C 
BRANCH   9  10
ATOM     10  C   UNL     1       5.062  11.336  34.869  1.00  0.00    -0.000 C 
BRANCH  10  11
ATOM     11  C   UNL     1       5.241  12.751  35.439  1.00  0.00    -0.000 C 
BRANCH  11  12
ATOM     12  C   UNL     1       5.347  13.788  34.311  1.00  0.00    -0.000 C 
BRANCH  12  13
ATOM     13  C   UNL     1       5.938  15.123  34.789  1.00  0.00    -0.003 C 
ATOM     14  C   UNL     1       6.037  15.214  36.312  1.00  0.00     0.004 C 
ENDBRANCH  12  13
ENDBRANCH  11  12
ENDBRANCH  10  11
ENDBRANCH   9  10
ENDBRANCH   1   9
TORSDOF 10
ENDMDL
MODEL 4
REMARK VINA RESULT:    -3.352      1.812      2.952
REMARK INTER + INTRA:          -6.334
REMARK INTER:                  -5.519
REMARK INTRA:                  -0.815
REMARK UNBOUND:                -1.022
REMARK SMILES CCCCCCCCCCCC(=O)[O-]
REMARK SMILES IDX 7 1 8 2 9 3 10 4 11 5 12 6 13 7 14 8 6 9 5 10 4 11 3 12 2 13
REMARK SMILES IDX 1 14
REMARK H PARENT
REMARK Flexibility Score: inf
ROOT
ATOM      1  C   UNL     1       5.632   5.727  33.382  1.00  0.00     0.000 C 
ENDROOT
BRANCH   1   2
ATOM      2  C   UNL     1       5.432   4.698  34.510  1.00  0.00     0.000 C 
BRANCH   2   3
ATOM      3  C   UNL     1       5.473   5.332  35.911  1.00  0.00     0.000 C 
BRANCH   3   4
ATOM      4  C   UNL     1       6.615   4.778  36.782  1.00  0.00     0.006 C 
BRANCH   4   5
ATOM      5  C   UNL     1       7.835   4.278  35.991  1.00  0.00     0.053 C 
BRANCH   5   6
ATOM      6  C   UNL     1       8.948   5.280  35.982  1.00  0.00     0.041 C 
ATOM      7  O   UNL     1       8.902   6.286  36.737  1.00  0.00    -0.550 OA
ATOM      8  O   UNL     1      10.054   5.084  35.164  1.00  0.00    -0.550 OA
ENDBRANCH   5   6
ENDBRANCH   4   5
ENDBRANCH   3   4
ENDBRANCH   2   3
ENDBRANCH   1   2
BRANCH   1   9
ATOM      9  C   UNL     1       5.979   7.156  33.847  1.00  0.00     0.000 C 
BRANCH   9  10
ATOM     10  C   UNL     1       7.437   7.585  33.610  1.00  0.00    -0.000 C 
BRANCH  10  11
ATOM     11  C   UNL     1       7.612   9.110  33.572  1.00  0.00    -0.000 C 
BRANCH  11  12
ATOM     12  C   UNL     1       6.353   9.793  33.018  1.00  0.00    -0.000 C 
BRANCH  12  13
ATOM     13  C   UNL     1       5.646  10.667  34.065  1.00  0.00    -0.003 C 
ATOM     14  C   UNL     1       5.154  11.996  33.491  1.00  0.00     0.004 C 
ENDBRANCH  12  13
ENDBRANCH  11  12
ENDBRANCH  10  11
ENDBRANCH   9  10
ENDBRANCH   1   9
TORSDOF 10
ENDMDL
MODEL 5
REMARK VINA RESULT:    -3.352      4.194      6.689
REMARK INTER + INTRA:          -6.333
REMARK INTER:                  -5.638
REMARK INTRA:                  -0.695
REMARK UNBOUND:                -1.022
REMARK SMILES CCCCCCCCCCCC(=O)[O-]
REMARK SMILES IDX 7 1 8 2 9 3 10 4 11 5 12 6 13 7 14 8 6 9 5 10 4 11 3 12 2 13
REMARK SMILES IDX 1 14
REMARK H PARENT
REMARK Flexibility Score: inf
ROOT
ATOM      1  C   UNL     1       7.615   7.592  33.846  1.00  0.00     0.000 C 
ENDROOT
BRANCH   1   2
ATOM      2  C   UNL     1       7.732   9.091  33.514  1.00  0.00     0.000 C 
BRANCH   2   3
ATOM      3  C   UNL     1       6.423   9.685  32.968  1.00  0.00     0.000 C 
BRANCH   3   4
ATOM      4  C   UNL     1       5.673  10.533  34.012  1.00  0.00     0.006 C 
BRANCH   4   5
ATOM      5  C   UNL     1       5.290  11.942  33.530  1.00  0.00     0.053 C 
BRANCH   5   6
ATOM      6  C   UNL     1       5.276  12.935  34.651  1.00  0.00     0.041 C 
ATOM      7  O   UNL     1       5.125  14.161  34.411  1.00  0.00    -0.550 OA
ATOM      8  O   UNL     1       5.396  12.502  35.966  1.00  0.00    -0.550 OA
ENDBRANCH   5   6
ENDBRANCH   4   5
ENDBRANCH   3   4
ENDBRANCH   2   3
ENDBRANCH   1   2
BRANCH   1   9
ATOM      9  C   UNL     1       6.346   6.896  33.314  1.00  0.00     0.000 C 
BRANCH   9  10
ATOM     10  C   UNL     1       5.402   6.343  34.395  1.00  0.00    -0.000 C 
BRANCH  10  11
ATOM     11  C   UNL     1       5.771   4.919  34.838  1.00  0.00    -0.000 C 
BRANCH  11  12
ATOM     12  C   UNL     1       6.654   4.946  36.094  1.00  0.00    -0.000 C 
BRANCH  12  13
ATOM     13  C   UNL     1       7.908   4.072  35.954  1.00  0.00    -0.003 C 
ATOM     14  C   UNL     1       9.200   4.890  35.939  1.00  0.00     0.004 C 
ENDBRANCH  12  13
ENDBRANCH  11  12
ENDBRANCH  10  11
ENDBRANCH   9  10
ENDBRANCH   1   9
TORSDOF 10
ENDMDL
MODEL 6
REMARK VINA RESULT:    -3.335      3.077      4.427
REMARK INTER + INTRA:          -6.307
REMARK INTER:                  -5.835
REMARK INTRA:                  -0.473
REMARK UNBOUND:                -1.022
REMARK SMILES CCCCCCCCCCCC(=O)[O-]
REMARK SMILES IDX 7 1 8 2 9 3 10 4 11 5 12 6 13 7 14 8 6 9 5 10 4 11 3 12 2 13
REMARK SMILES IDX 1 14
REMARK H PARENT
REMARK Flexibility Score: inf
ROOT
ATOM      1  C   UNL     1       5.634  10.984  33.052  1.00  0.00     0.000 C 
ENDROOT
BRANCH   1   2
ATOM      2  C   UNL     1       6.069   9.813  33.952  1.00  0.00     0.000 C 
BRANCH   2   3
ATOM      3  C   UNL     1       7.289   9.057  33.400  1.00  0.00     0.000 C 
BRANCH   3   4
ATOM      4  C   UNL     1       7.134   7.528  33.493  1.00  0.00     0.006 C 
BRANCH   4   5
ATOM      5  C   UNL     1       5.720   7.052  33.863  1.00  0.00     0.053 C 
BRANCH   5   6
ATOM      6  C   UNL     1       5.597   5.561  33.813  1.00  0.00     0.041 C 
ATOM      7  O   UNL     1       5.052   5.002  32.826  1.00  0.00    -0.550 OA
ATOM      8  O   UNL     1       6.116   4.785  34.842  1.00  0.00    -0.550 OA
ENDBRANCH   5   6
ENDBRANCH   4   5
ENDBRANCH   3   4
ENDBRANCH   2   3
ENDBRANCH   1   2
BRANCH   1   9
ATOM      9  C   UNL     1       4.897  12.131  33.772  1.00  0.00     0.000 C 
BRANCH   9  10
ATOM     10  C   UNL     1       5.158  12.228  35.285  1.00  0.00    -0.000 C 
BRANCH  10  11
ATOM     11  C   UNL     1       5.545  13.645  35.735  1.00  0.00    -0.000 C 
BRANCH  11  12
ATOM     12  C   UNL     1       5.551  14.616  34.545  1.00  0.00    -0.000 C 
BRANCH  12  13
ATOM     13  C   UNL     1       6.407  15.865  34.805  1.00  0.00    -0.003 C 
ATOM     14  C   UNL     1       5.673  17.164  34.471  1.00  0.00     0.004 C 
ENDBRANCH  12  13
ENDBRANCH  11  12
ENDBRANCH  10  11
ENDBRANCH   9  10
ENDBRANCH   1   9
TORSDOF 10
ENDMDL
MODEL 7
REMARK VINA RESULT:    -3.305      6.250      8.734
REMARK INTER + INTRA:          -6.259
REMARK INTER:                  -5.826
REMARK INTRA:                  -0.433
REMARK UNBOUND:                -1.022
REMARK SMILES CCCCCCCCCCCC(=O)[O-]
REMARK SMILES IDX 7 1 8 2 9 3 10 4 11 5 12 6 13 7 14 8 6 9 5 10 4 11 3 12 2 13
REMARK SMILES IDX 1 14
REMARK H PARENT
REMARK Flexibility Score: inf
ROOT
ATOM      1  C   UNL     1       5.300  12.495  33.870  1.00  0.00     0.000 C 
ENDROOT
BRANCH   1   2
ATOM      2  C   UNL     1       5.336  12.568  35.408  1.00  0.00     0.000 C 
BRANCH   2   3
ATOM      3  C   UNL     1       5.334  14.013  35.937  1.00  0.00     0.000 C 
BRANCH   3   4
ATOM      4  C   UNL     1       5.238  15.059  34.811  1.00  0.00     0.006 C 
BRANCH   4   5
ATOM      5  C   UNL     1       6.462  15.981  34.692  1.00  0.00     0.053 C 
BRANCH   5   6
ATOM      6  C   UNL     1       6.074  17.427  34.647  1.00  0.00     0.041 C 
ATOM      7  O   UNL     1       6.657  18.263  35.386  1.00  0.00    -0.550 OA
ATOM      8  O   UNL     1       5.092  17.856  33.764  1.00  0.00    -0.550 OA
ENDBRANCH   5   6
ENDBRANCH   4   5
ENDBRANCH   3   4
ENDBRANCH   2   3
ENDBRANCH   1   2
BRANCH   1   9
ATOM      9  C   UNL     1       5.340  11.073  33.277  1.00  0.00     0.000 C 
BRANCH   9  10
ATOM     10  C   UNL     1       6.030  10.016  34.157  1.00  0.00    -0.000 C 
BRANCH  10  11
ATOM     11  C   UNL     1       6.364   8.728  33.391  1.00  0.00    -0.000 C 
BRANCH  11  12
ATOM     12  C   UNL     1       7.873   8.443  33.429  1.00  0.00    -0.000 C 
BRANCH  12  13
ATOM     13  C   UNL     1       8.206   7.113  34.122  1.00  0.00    -0.003 C 
ATOM     14  C   UNL     1       6.964   6.270  34.412  1.00  0.00     0.004 C 
ENDBRANCH  12  13
ENDBRANCH  11  12
ENDBRANCH  10  11
ENDBRANCH   9  10
ENDBRANCH   1   9
TORSDOF 10
ENDMDL
MODEL 8
REMARK VINA RESULT:    -3.302      4.984      7.367
REMARK INTER + INTRA:          -6.254
REMARK INTER:                  -5.444
REMARK INTRA:                  -0.810
REMARK UNBOUND:                -1.022
REMARK SMILES CCCCCCCCCCCC(=O)[O-]
REMARK SMILES IDX 7 1 8 2 9 3 10 4 11 5 12 6 13 7 14 8 6 9 5 10 4 11 3 12 2 13
REMARK SMILES IDX 1 14
REMARK H PARENT
REMARK Flexibility Score: inf
ROOT
ATOM      1  C   UNL     1       6.552   9.411  33.617  1.00  0.00     0.000 C 
ENDROOT
BRANCH   1   2
ATOM      2  C   UNL     1       6.024  10.706  32.972  1.00  0.00     0.000 C 
BRANCH   2   3
ATOM      3  C   UNL     1       4.940  11.395  33.817  1.00  0.00     0.000 C 
BRANCH   3   4
ATOM      4  C   UNL     1       5.205  12.899  34.016  1.00  0.00     0.006 C 
BRANCH   4   5
ATOM      5  C   UNL     1       5.531  13.302  35.464  1.00  0.00     0.053 C 
BRANCH   5   6
ATOM      6  C   UNL     1       5.948  14.736  35.567  1.00  0.00     0.041 C 
ATOM      7  O   UNL     1       6.288  15.374  34.537  1.00  0.00    -0.550 OA
ATOM      8  O   UNL     1       5.930  15.379  36.799  1.00  0.00    -0.550 OA
ENDBRANCH   5   6
ENDBRANCH   4   5
ENDBRANCH   3   4
ENDBRANCH   2   3
ENDBRANCH   1   2
BRANCH   1   9
ATOM      9  C   UNL     1       6.357   9.308  35.143  1.00  0.00     0.000 C 
BRANCH   9  10
ATOM     10  C   UNL     1       7.113   8.154  35.823  1.00  0.00    -0.000 C 
BRANCH  10  11
ATOM     11  C   UNL     1       7.687   7.143  34.819  1.00  0.00    -0.000 C 
BRANCH  11  12
ATOM     12  C   UNL     1       7.149   5.731  35.094  1.00  0.00    -0.000 C 
BRANCH  12  13
ATOM     13  C   UNL     1       5.665   5.582  34.726  1.00  0.00    -0.003 C 
ATOM     14  C   UNL     1       5.395   5.837  33.243  1.00  0.00     0.004 C 
ENDBRANCH  12  13
ENDBRANCH  11  12
ENDBRANCH  10  11
ENDBRANCH   9  10
ENDBRANCH   1   9
TORSDOF 10
ENDMDL
MODEL 9
REMARK VINA RESULT:    -3.176      4.092      6.504
REMARK INTER + INTRA:          -6.055
REMARK INTER:                  -5.095
REMARK INTRA:                  -0.960
REMARK UNBOUND:                -1.022
REMARK SMILES CCCCCCCCCCCC(=O)[O-]
REMARK SMILES IDX 7 1 8 2 9 3 10 4 11 5 12 6 13 7 14 8 6 9 5 10 4 11 3 12 2 13
REMARK SMILES IDX 1 14
REMARK H PARENT
REMARK Flexibility Score: inf
ROOT
ATOM      1  C   UNL     1       5.636   5.755  33.544  1.00  0.00     0.000 C 
ENDROOT
BRANCH   1   2
ATOM      2  C   UNL     1       5.777   7.203  34.050  1.00  0.00     0.000 C 
BRANCH   2   3
ATOM      3  C   UNL     1       6.934   7.960  33.378  1.00  0.00     0.000 C 
BRANCH   3   4
ATOM      4  C   UNL     1       6.670   9.472  33.262  1.00  0.00     0.006 C 
BRANCH   4   5
ATOM      5  C   UNL     1       5.687  10.028  34.306  1.00  0.00     0.053 C 
BRANCH   5   6
ATOM      6  C   UNL     1       5.274  11.434  33.997  1.00  0.00     0.041 C 
ATOM      7  O   UNL     1       4.961  11.759  32.822  1.00  0.00    -0.550 OA
ATOM      8  O   UNL     1       5.203  12.378  35.013  1.00  0.00    -0.550 OA
ENDBRANCH   5   6
ENDBRANCH   4   5
ENDBRANCH   3   4
ENDBRANCH   2   3
ENDBRANCH   1   2
BRANCH   1   9
ATOM      9  C   UNL     1       5.456   4.687  34.641  1.00  0.00     0.000 C 
BRANCH   9  10
ATOM     10  C   UNL     1       5.339   5.235  36.074  1.00  0.00    -0.000 C 
BRANCH  10  11
ATOM     11  C   UNL     1       6.646   5.105  36.871  1.00  0.00    -0.000 C 
BRANCH  11  12
ATOM     12  C   UNL     1       7.451   3.882  36.408  1.00  0.00    -0.000 C 
BRANCH  12  13
ATOM     13  C   UNL     1       8.891   4.239  36.008  1.00  0.00    -0.003 C 
ATOM     14  C   UNL     1       9.037   5.696  35.567  1.00  0.00     0.004 C 
ENDBRANCH  12  13
ENDBRANCH  11  12
ENDBRANCH  10  11
ENDBRANCH   9  10
ENDBRANCH   1   9
TORSDOF 10
ENDMDL
