MODEL 1
REMARK VINA RESULT:     0.077      0.000      0.000
REMARK INTER + INTRA:          -1.374
REMARK INTER:                   0.195
REMARK INTRA:                  -1.569
REMARK UNBOUND:                -1.569
REMARK SMILES CCCCCCCCCCCCCCCCCCCCCCCCCCCC(=O)[O-]
REMARK SMILES IDX 15 1 16 2 17 3 18 4 19 5 20 6 21 7 22 8 23 9 24 10 25 11
REMARK SMILES IDX 26 12 27 13 28 14 29 15 30 16 14 17 13 18 12 19 11 20 10 21
REMARK SMILES IDX 9 22 8 23 7 24 6 25 5 26 4 27 3 28 2 29 1 30
REMARK H PARENT
REMARK Flexibility Score: inf
ROOT
ATOM      1  C   UNL     1     -12.815  36.597  -4.790  1.00  0.00     0.000 C 
ENDROOT
BRANCH   1   2
ATOM      2  C   UNL     1     -12.854  35.861  -6.145  1.00  0.00     0.000 C 
BRANCH   2   3
ATOM      3  C   UNL     1     -14.232  35.843  -6.836  1.00  0.00     0.000 C 
BRANCH   3   4
ATOM      4  C   UNL     1     -14.347  34.875  -8.029  1.00  0.00     0.000 C 
BRANCH   4   5
ATOM      5  C   UNL     1     -13.535  35.276  -9.279  1.00  0.00     0.000 C 
BRANCH   5   6
ATOM      6  C   UNL     1     -14.084  34.745 -10.615  1.00  0.00     0.000 C 
BRANCH   6   7
ATOM      7  C   UNL     1     -15.367  33.913 -10.448  1.00  0.00     0.000 C 
BRANCH   7   8
ATOM      8  C   UNL     1     -15.837  33.283 -11.770  1.00  0.00     0.000 C 
BRANCH   8   9
ATOM      9  C   UNL     1     -17.366  33.224 -11.892  1.00  0.00     0.000 C 
BRANCH   9  10
ATOM     10  C   UNL     1     -18.034  34.119 -10.838  1.00  0.00     0.000 C 
BRANCH  10  11
ATOM     11  C   UNL     1     -18.563  33.329  -9.629  1.00  0.00     0.000 C 
BRANCH  11  12
ATOM     12  C   UNL     1     -19.594  34.110  -8.786  1.00  0.00     0.006 C 
BRANCH  12  13
ATOM     13  C   UNL     1     -20.502  33.176  -7.976  1.00  0.00     0.053 C 
BRANCH  13  14
ATOM     14  C   UNL     1     -21.753  33.885  -7.563  1.00  0.00     0.041 C 
ATOM     15  O   UNL     1     -21.904  35.108  -7.826  1.00  0.00    -0.550 OA
ATOM     16  O   UNL     1     -22.733  33.209  -6.847  1.00  0.00    -0.550 OA
ENDBRANCH  13  14
ENDBRANCH  12  13
ENDBRANCH  11  12
ENDBRANCH  10  11
ENDBRANCH   9  10
ENDBRANCH   8   9
ENDBRANCH   7   8
ENDBRANCH   6   7
ENDBRANCH   5   6
ENDBRANCH   4   5
ENDBRANCH   3   4
ENDBRANCH   2   3
ENDBRANCH   1   2
BRANCH   1  17
ATOM     17  C   UNL     1     -12.125  35.825  -3.651  1.00  0.00     0.000 C 
BRANCH  17  18
ATOM     18  C   UNL     1     -11.698  36.686  -2.447  1.00  0.00     0.000 C 
BRANCH  18  19
ATOM     19  C   UNL     1     -11.164  35.867  -1.252  1.00  0.00     0.000 C 
BRANCH  19  20
ATOM     20  C   UNL     1      -9.724  36.250  -0.865  1.00  0.00     0.000 C 
BRANCH  20  21
ATOM     21  C   UNL     1      -9.249  37.536  -1.561  1.00  0.00     0.000 C 
BRANCH  21  22
ATOM     22  C   UNL     1      -7.770  37.851  -1.278  1.00  0.00    -0.000 C 
BRANCH  22  23
ATOM     23  C   UNL     1      -7.363  37.497   0.170  1.00  0.00    -0.000 C 
BRANCH  23  24
ATOM     24  C   UNL     1      -5.957  37.994   0.556  1.00  0.00    -0.000 C 
BRANCH  24  25
ATOM     25  C   UNL     1      -5.006  36.900   1.071  1.00  0.00    -0.000 C 
BRANCH  25  26
ATOM     26  C   UNL     1      -4.464  36.008  -0.057  1.00  0.00    -0.000 C 
BRANCH  26  27
ATOM     27  C   UNL     1      -4.857  34.543   0.166  1.00  0.00    -0.000 C 
BRANCH  27  28
ATOM     28  C   UNL     1      -5.754  34.398   1.402  1.00  0.00    -0.000 C 
BRANCH  28  29
ATOM     29  C   UNL     1      -7.149  33.894   1.014  1.00  0.00    -0.003 C 
ATOM     30  C   UNL     1      -7.226  32.372   1.083  1.00  0.00     0.004 C 
ENDBRANCH  28  29
ENDBRANCH  27  28
ENDBRANCH  26  27
ENDBRANCH  25  26
ENDBRANCH  24  25
ENDBRANCH  23  24
ENDBRANCH  22  23
ENDBRANCH  21  22
ENDBRANCH  20  21
ENDBRANCH  19  20
ENDBRANCH  18  19
ENDBRANCH  17  18
ENDBRANCH   1  17
TORSDOF 26
ENDMDL
MODEL 2
REMARK VINA RESULT:     0.109      4.606     13.767
REMARK INTER + INTRA:          -1.294
REMARK INTER:                   0.397
REMARK INTRA:                  -1.690
REMARK UNBOUND:                -1.569
REMARK SMILES CCCCCCCCCCCCCCCCCCCCCCCCCCCC(=O)[O-]
REMARK SMILES IDX 15 1 16 2 17 3 18 4 19 5 20 6 21 7 22 8 23 9 24 10 25 11
REMARK SMILES IDX 26 12 27 13 28 14 29 15 30 16 14 17 13 18 12 19 11 20 10 21
REMARK SMILES IDX 9 22 8 23 7 24 6 25 5 26 4 27 3 28 2 29 1 30
REMARK H PARENT
REMARK Flexibility Score: inf
ROOT
ATOM      1  C   UNL     1     -11.325  36.628  -2.993  1.00  0.00     0.000 C 
ENDROOT
BRANCH   1   2
ATOM      2  C   UNL     1     -11.288  36.270  -1.494  1.00  0.00     0.000 C 
BRANCH   2   3
ATOM      3  C   UNL     1      -9.892  36.332  -0.843  1.00  0.00     0.000 C 
BRANCH   3   4
ATOM      4  C   UNL     1      -9.056  37.572  -1.215  1.00  0.00     0.000 C 
BRANCH   4   5
ATOM      5  C   UNL     1      -7.763  37.761  -0.394  1.00  0.00     0.000 C 
BRANCH   5   6
ATOM      6  C   UNL     1      -6.464  37.804  -1.219  1.00  0.00     0.000 C 
BRANCH   6   7
ATOM      7  C   UNL     1      -5.198  37.763  -0.345  1.00  0.00     0.000 C 
BRANCH   7   8
ATOM      8  C   UNL     1      -4.431  36.437  -0.482  1.00  0.00     0.000 C 
BRANCH   8   9
ATOM      9  C   UNL     1      -4.643  35.499   0.715  1.00  0.00     0.000 C 
BRANCH   9  10
ATOM     10  C   UNL     1      -5.583  34.344   0.346  1.00  0.00     0.000 C 
BRANCH  10  11
ATOM     11  C   UNL     1      -6.991  34.500   0.944  1.00  0.00     0.000 C 
BRANCH  11  12
ATOM     12  C   UNL     1      -7.708  33.156   1.192  1.00  0.00     0.006 C 
BRANCH  12  13
ATOM     13  C   UNL     1      -6.718  31.989   1.307  1.00  0.00     0.053 C 
BRANCH  13  14
ATOM     14  C   UNL     1      -7.441  30.712   1.602  1.00  0.00     0.041 C 
ATOM     15  O   UNL     1      -7.949  30.521   2.739  1.00  0.00    -0.550 OA
ATOM     16  O   UNL     1      -7.515  29.715   0.637  1.00  0.00    -0.550 OA
ENDBRANCH  13  14
ENDBRANCH  12  13
ENDBRANCH  11  12
ENDBRANCH  10  11
ENDBRANCH   9  10
ENDBRANCH   8   9
ENDBRANCH   7   8
ENDBRANCH   6   7
ENDBRANCH   5   6
ENDBRANCH   4   5
ENDBRANCH   3   4
ENDBRANCH   2   3
ENDBRANCH   1   2
BRANCH   1  17
ATOM     17  C   UNL     1     -12.158  35.675  -3.869  1.00  0.00     0.000 C 
BRANCH  17  18
ATOM     18  C   UNL     1     -12.915  36.351  -5.028  1.00  0.00     0.000 C 
BRANCH  18  19
ATOM     19  C   UNL     1     -12.649  35.708  -6.406  1.00  0.00     0.000 C 
BRANCH  19  20
ATOM     20  C   UNL     1     -13.635  36.188  -7.486  1.00  0.00     0.000 C 
BRANCH  20  21
ATOM     21  C   UNL     1     -13.360  35.554  -8.860  1.00  0.00     0.000 C 
BRANCH  21  22
ATOM     22  C   UNL     1     -14.426  34.518  -9.257  1.00  0.00    -0.000 C 
BRANCH  22  23
ATOM     23  C   UNL     1     -14.646  34.462 -10.785  1.00  0.00    -0.000 C 
BRANCH  23  24
ATOM     24  C   UNL     1     -15.356  33.180 -11.261  1.00  0.00    -0.000 C 
BRANCH  24  25
ATOM     25  C   UNL     1     -16.254  33.361 -12.496  1.00  0.00    -0.000 C 
BRANCH  25  26
ATOM     26  C   UNL     1     -17.666  33.848 -12.135  1.00  0.00    -0.000 C 
BRANCH  26  27
ATOM     27  C   UNL     1     -18.180  33.150 -10.870  1.00  0.00    -0.000 C 
BRANCH  27  28
ATOM     28  C   UNL     1     -18.801  34.161  -9.899  1.00  0.00    -0.000 C 
BRANCH  28  29
ATOM     29  C   UNL     1     -18.960  33.556  -8.500  1.00  0.00    -0.003 C 
ATOM     30  C   UNL     1     -20.417  33.586  -8.047  1.00  0.00     0.004 C 
ENDBRANCH  28  29
ENDBRANCH  27  28
ENDBRANCH  26  27
ENDBRANCH  25  26
ENDBRANCH  24  25
ENDBRANCH  23  24
ENDBRANCH  22  23
ENDBRANCH  21  22
ENDBRANCH  20  21
ENDBRANCH  19  20
ENDBRANCH  18  19
ENDBRANCH  17  18
ENDBRANCH   1  17
TORSDOF 26
ENDMDL
MODEL 3
REMARK VINA RESULT:     0.126      1.340      2.913
REMARK INTER + INTRA:          -1.252
REMARK INTER:                   0.399
REMARK INTRA:                  -1.650
REMARK UNBOUND:                -1.569
REMARK SMILES CCCCCCCCCCCCCCCCCCCCCCCCCCCC(=O)[O-]
REMARK SMILES IDX 15 1 16 2 17 3 18 4 19 5 20 6 21 7 22 8 23 9 24 10 25 11
REMARK SMILES IDX 26 12 27 13 28 14 29 15 30 16 14 17 13 18 12 19 11 20 10 21
REMARK SMILES IDX 9 22 8 23 7 24 6 25 5 26 4 27 3 28 2 29 1 30
REMARK H PARENT
REMARK Flexibility Score: inf
ROOT
ATOM      1  C   UNL     1     -10.971  36.443  -2.908  1.00  0.00     0.000 C 
ENDROOT
BRANCH   1   2
ATOM      2  C   UNL     1     -12.389  36.250  -3.483  1.00  0.00     0.000 C 
BRANCH   2   3
ATOM      3  C   UNL     1     -12.442  35.616  -4.887  1.00  0.00     0.000 C 
BRANCH   3   4
ATOM      4  C   UNL     1     -13.260  36.406  -5.927  1.00  0.00     0.000 C 
BRANCH   4   5
ATOM      5  C   UNL     1     -13.671  35.606  -7.181  1.00  0.00     0.000 C 
BRANCH   5   6
ATOM      6  C   UNL     1     -13.160  36.174  -8.517  1.00  0.00     0.000 C 
BRANCH   6   7
ATOM      7  C   UNL     1     -13.022  35.101  -9.611  1.00  0.00     0.000 C 
BRANCH   7   8
ATOM      8  C   UNL     1     -14.131  35.196 -10.672  1.00  0.00     0.000 C 
BRANCH   8   9
ATOM      9  C   UNL     1     -14.994  33.929 -10.749  1.00  0.00     0.000 C 
BRANCH   9  10
ATOM     10  C   UNL     1     -15.305  33.566 -12.208  1.00  0.00     0.000 C 
BRANCH  10  11
ATOM     11  C   UNL     1     -16.766  33.134 -12.420  1.00  0.00     0.000 C 
BRANCH  11  12
ATOM     12  C   UNL     1     -17.766  33.874 -11.506  1.00  0.00     0.006 C 
BRANCH  12  13
ATOM     13  C   UNL     1     -18.269  32.983 -10.363  1.00  0.00     0.053 C 
BRANCH  13  14
ATOM     14  C   UNL     1     -18.447  33.783  -9.111  1.00  0.00     0.041 C 
ATOM     15  O   UNL     1     -17.445  34.109  -8.420  1.00  0.00    -0.550 OA
ATOM     16  O   UNL     1     -19.722  34.129  -8.681  1.00  0.00    -0.550 OA
ENDBRANCH  13  14
ENDBRANCH  12  13
ENDBRANCH  11  12
ENDBRANCH  10  11
ENDBRANCH   9  10
ENDBRANCH   8   9
ENDBRANCH   7   8
ENDBRANCH   6   7
ENDBRANCH   5   6
ENDBRANCH   4   5
ENDBRANCH   3   4
ENDBRANCH   2   3
ENDBRANCH   1   2
BRANCH   1  17
ATOM     17  C   UNL     1     -10.862  36.279  -1.381  1.00  0.00     0.000 C 
BRANCH  17  18
ATOM     18  C   UNL     1      -9.465  36.557  -0.795  1.00  0.00     0.000 C 
BRANCH  18  19
ATOM     19  C   UNL     1      -8.761  37.783  -1.417  1.00  0.00     0.000 C 
BRANCH  19  20
ATOM     20  C   UNL     1      -7.308  37.943  -0.932  1.00  0.00     0.000 C 
BRANCH  20  21
ATOM     21  C   UNL     1      -7.150  37.636   0.566  1.00  0.00     0.000 C 
BRANCH  21  22
ATOM     22  C   UNL     1      -5.676  37.506   0.991  1.00  0.00    -0.000 C 
BRANCH  22  23
ATOM     23  C   UNL     1      -4.781  36.986  -0.155  1.00  0.00    -0.000 C 
BRANCH  23  24
ATOM     24  C   UNL     1      -4.693  35.449  -0.222  1.00  0.00    -0.000 C 
BRANCH  24  25
ATOM     25  C   UNL     1      -4.188  34.776   1.066  1.00  0.00    -0.000 C 
BRANCH  25  26
ATOM     26  C   UNL     1      -5.207  33.789   1.656  1.00  0.00    -0.000 C 
BRANCH  26  27
ATOM     27  C   UNL     1      -6.612  34.053   1.099  1.00  0.00    -0.000 C 
BRANCH  27  28
ATOM     28  C   UNL     1      -7.310  32.739   0.727  1.00  0.00    -0.000 C 
BRANCH  28  29
ATOM     29  C   UNL     1      -7.160  31.700   1.843  1.00  0.00    -0.003 C 
ATOM     30  C   UNL     1      -7.349  30.283   1.308  1.00  0.00     0.004 C 
ENDBRANCH  28  29
ENDBRANCH  27  28
ENDBRANCH  26  27
ENDBRANCH  25  26
ENDBRANCH  24  25
ENDBRANCH  23  24
ENDBRANCH  22  23
ENDBRANCH  21  22
ENDBRANCH  20  21
ENDBRANCH  19  20
ENDBRANCH  18  19
ENDBRANCH  17  18
ENDBRANCH   1  17
TORSDOF 26
ENDMDL
MODEL 4
REMARK VINA RESULT:     0.264      4.446     14.010
REMARK INTER + INTRA:          -0.904
REMARK INTER:                   0.784
REMARK INTRA:                  -1.688
REMARK UNBOUND:                -1.569
REMARK SMILES CCCCCCCCCCCCCCCCCCCCCCCCCCCC(=O)[O-]
REMARK SMILES IDX 15 1 16 2 17 3 18 4 19 5 20 6 21 7 22 8 23 9 24 10 25 11
REMARK SMILES IDX 26 12 27 13 28 14 29 15 30 16 14 17 13 18 12 19 11 20 10 21
REMARK SMILES IDX 9 22 8 23 7 24 6 25 5 26 4 27 3 28 2 29 1 30
REMARK H PARENT
REMARK Flexibility Score: inf
ROOT
ATOM      1  C   UNL     1     -12.351  36.035  -5.786  1.00  0.00     0.000 C 
ENDROOT
BRANCH   1   2
ATOM      2  C   UNL     1     -12.576  36.170  -4.266  1.00  0.00     0.000 C 
BRANCH   2   3
ATOM      3  C   UNL     1     -11.291  36.187  -3.416  1.00  0.00     0.000 C 
BRANCH   3   4
ATOM      4  C   UNL     1     -11.517  36.338  -1.900  1.00  0.00     0.000 C 
BRANCH   4   5
ATOM      5  C   UNL     1     -10.231  36.402  -1.049  1.00  0.00     0.000 C 
BRANCH   5   6
ATOM      6  C   UNL     1      -9.432  37.713  -1.168  1.00  0.00     0.000 C 
BRANCH   6   7
ATOM      7  C   UNL     1      -7.909  37.491  -1.133  1.00  0.00     0.000 C 
BRANCH   7   8
ATOM      8  C   UNL     1      -7.274  37.976   0.180  1.00  0.00     0.000 C 
BRANCH   8   9
ATOM      9  C   UNL     1      -5.740  38.004   0.126  1.00  0.00     0.000 C 
BRANCH   9  10
ATOM     10  C   UNL     1      -5.141  36.903   1.012  1.00  0.00     0.000 C 
BRANCH  10  11
ATOM     11  C   UNL     1      -4.345  35.857   0.214  1.00  0.00     0.000 C 
BRANCH  11  12
ATOM     12  C   UNL     1      -5.018  34.468   0.177  1.00  0.00     0.006 C 
BRANCH  12  13
ATOM     13  C   UNL     1      -6.029  34.288   1.317  1.00  0.00     0.053 C 
BRANCH  13  14
ATOM     14  C   UNL     1      -7.051  33.256   0.956  1.00  0.00     0.041 C 
ATOM     15  O   UNL     1      -7.997  33.546   0.177  1.00  0.00    -0.550 OA
ATOM     16  O   UNL     1      -6.985  31.986   1.517  1.00  0.00    -0.550 OA
ENDBRANCH  13  14
ENDBRANCH  12  13
ENDBRANCH  11  12
ENDBRANCH  10  11
ENDBRANCH   9  10
ENDBRANCH   8   9
ENDBRANCH   7   8
ENDBRANCH   6   7
ENDBRANCH   5   6
ENDBRANCH   4   5
ENDBRANCH   3   4
ENDBRANCH   2   3
ENDBRANCH   1   2
BRANCH   1  17
ATOM     17  C   UNL     1     -13.594  35.617  -6.593  1.00  0.00     0.000 C 
BRANCH  17  18
ATOM     18  C   UNL     1     -13.711  36.262  -7.987  1.00  0.00     0.000 C 
BRANCH  18  19
ATOM     19  C   UNL     1     -12.840  35.581  -9.065  1.00  0.00     0.000 C 
BRANCH  19  20
ATOM     20  C   UNL     1     -13.651  35.149 -10.300  1.00  0.00     0.000 C 
BRANCH  20  21
ATOM     21  C   UNL     1     -14.918  34.362  -9.927  1.00  0.00     0.000 C 
BRANCH  21  22
ATOM     22  C   UNL     1     -15.191  33.191 -10.888  1.00  0.00    -0.000 C 
BRANCH  22  23
ATOM     23  C   UNL     1     -15.975  33.635 -12.143  1.00  0.00    -0.000 C 
BRANCH  23  24
ATOM     24  C   UNL     1     -17.436  33.146 -12.164  1.00  0.00    -0.000 C 
BRANCH  24  25
ATOM     25  C   UNL     1     -18.487  34.250 -11.965  1.00  0.00    -0.000 C 
BRANCH  25  26
ATOM     26  C   UNL     1     -18.850  34.463 -10.487  1.00  0.00    -0.000 C 
BRANCH  26  27
ATOM     27  C   UNL     1     -18.506  33.221  -9.654  1.00  0.00    -0.000 C 
BRANCH  27  28
ATOM     28  C   UNL     1     -19.295  33.206  -8.340  1.00  0.00    -0.000 C 
BRANCH  28  29
ATOM     29  C   UNL     1     -20.367  34.302  -8.327  1.00  0.00    -0.003 C 
ATOM     30  C   UNL     1     -21.613  33.848  -7.573  1.00  0.00     0.004 C 
ENDBRANCH  28  29
ENDBRANCH  27  28
ENDBRANCH  26  27
ENDBRANCH  25  26
ENDBRANCH  24  25
ENDBRANCH  23  24
ENDBRANCH  22  23
ENDBRANCH  21  22
ENDBRANCH  20  21
ENDBRANCH  19  20
ENDBRANCH  18  19
ENDBRANCH  17  18
ENDBRANCH   1  17
TORSDOF 26
ENDMDL
MODEL 5
REMARK VINA RESULT:     0.400      2.202      4.102
REMARK INTER + INTRA:          -0.561
REMARK INTER:                   1.059
REMARK INTRA:                  -1.620
REMARK UNBOUND:                -1.569
REMARK SMILES CCCCCCCCCCCCCCCCCCCCCCCCCCCC(=O)[O-]
REMARK SMILES IDX 15 1 16 2 17 3 18 4 19 5 20 6 21 7 22 8 23 9 24 10 25 11
REMARK SMILES IDX 26 12 27 13 28 14 29 15 30 16 14 17 13 18 12 19 11 20 10 21
REMARK SMILES IDX 9 22 8 23 7 24 6 25 5 26 4 27 3 28 2 29 1 30
REMARK H PARENT
REMARK Flexibility Score: inf
ROOT
ATOM      1  C   UNL     1     -10.537  36.094  -1.279  1.00  0.00     0.000 C 
ENDROOT
BRANCH   1   2
ATOM      2  C   UNL     1     -11.757  36.365  -2.182  1.00  0.00     0.000 C 
BRANCH   2   3
ATOM      3  C   UNL     1     -11.503  36.184  -3.691  1.00  0.00     0.000 C 
BRANCH   3   4
ATOM      4  C   UNL     1     -12.763  36.251  -4.575  1.00  0.00     0.000 C 
BRANCH   4   5
ATOM      5  C   UNL     1     -12.672  35.477  -5.907  1.00  0.00     0.000 C 
BRANCH   5   6
ATOM      6  C   UNL     1     -13.566  36.014  -7.039  1.00  0.00     0.000 C 
BRANCH   6   7
ATOM      7  C   UNL     1     -12.832  36.111  -8.388  1.00  0.00     0.000 C 
BRANCH   7   8
ATOM      8  C   UNL     1     -13.590  35.402  -9.523  1.00  0.00     0.000 C 
BRANCH   8   9
ATOM      9  C   UNL     1     -14.579  34.345  -9.010  1.00  0.00     0.000 C 
BRANCH   9  10
ATOM     10  C   UNL     1     -15.587  33.964 -10.102  1.00  0.00     0.000 C 
BRANCH  10  11
ATOM     11  C   UNL     1     -17.012  33.760  -9.559  1.00  0.00     0.000 C 
BRANCH  11  12
ATOM     12  C   UNL     1     -18.110  33.935 -10.629  1.00  0.00     0.006 C 
BRANCH  12  13
ATOM     13  C   UNL     1     -17.868  33.044 -11.854  1.00  0.00     0.053 C 
BRANCH  13  14
ATOM     14  C   UNL     1     -18.260  33.756 -13.110  1.00  0.00     0.041 C 
ATOM     15  O   UNL     1     -17.416  33.929 -14.030  1.00  0.00    -0.550 OA
ATOM     16  O   UNL     1     -19.543  34.271 -13.246  1.00  0.00    -0.550 OA
ENDBRANCH  13  14
ENDBRANCH  12  13
ENDBRANCH  11  12
ENDBRANCH  10  11
ENDBRANCH   9  10
ENDBRANCH   8   9
ENDBRANCH   7   8
ENDBRANCH   6   7
ENDBRANCH   5   6
ENDBRANCH   4   5
ENDBRANCH   3   4
ENDBRANCH   2   3
ENDBRANCH   1   2
BRANCH   1  17
ATOM     17  C   UNL     1      -9.767  37.351  -0.832  1.00  0.00     0.000 C 
BRANCH  17  18
ATOM     18  C   UNL     1      -8.682  37.833  -1.814  1.00  0.00     0.000 C 
BRANCH  18  19
ATOM     19  C   UNL     1      -7.295  38.028  -1.164  1.00  0.00     0.000 C 
BRANCH  19  20
ATOM     20  C   UNL     1      -7.251  37.549   0.299  1.00  0.00     0.000 C 
BRANCH  20  21
ATOM     21  C   UNL     1      -5.965  37.981   1.022  1.00  0.00     0.000 C 
BRANCH  21  22
ATOM     22  C   UNL     1      -4.711  37.283   0.465  1.00  0.00    -0.000 C 
BRANCH  22  23
ATOM     23  C   UNL     1      -4.982  35.811   0.084  1.00  0.00    -0.000 C 
BRANCH  23  24
ATOM     24  C   UNL     1      -4.942  34.844   1.283  1.00  0.00    -0.000 C 
BRANCH  24  25
ATOM     25  C   UNL     1      -6.322  34.433   1.825  1.00  0.00    -0.000 C 
BRANCH  25  26
ATOM     26  C   UNL     1      -7.313  34.072   0.707  1.00  0.00    -0.000 C 
BRANCH  26  27
ATOM     27  C   UNL     1      -7.832  32.639   0.878  1.00  0.00    -0.000 C 
BRANCH  27  28
ATOM     28  C   UNL     1      -6.696  31.686   1.267  1.00  0.00    -0.000 C 
BRANCH  28  29
ATOM     29  C   UNL     1      -7.218  30.260   1.474  1.00  0.00    -0.003 C 
ATOM     30  C   UNL     1      -7.971  30.134   2.795  1.00  0.00     0.004 C 
ENDBRANCH  28  29
ENDBRANCH  27  28
ENDBRANCH  26  27
ENDBRANCH  25  26
ENDBRANCH  24  25
ENDBRANCH  23  24
ENDBRANCH  22  23
ENDBRANCH  21  22
ENDBRANCH  20  21
ENDBRANCH  19  20
ENDBRANCH  18  19
ENDBRANCH  17  18
ENDBRANCH   1  17
TORSDOF 26
ENDMDL
MODEL 6
REMARK VINA RESULT:     0.612      4.816     14.282
REMARK INTER + INTRA:          -0.028
REMARK INTER:                   1.110
REMARK INTRA:                  -1.138
REMARK UNBOUND:                -1.569
REMARK SMILES CCCCCCCCCCCCCCCCCCCCCCCCCCCC(=O)[O-]
REMARK SMILES IDX 15 1 16 2 17 3 18 4 19 5 20 6 21 7 22 8 23 9 24 10 25 11
REMARK SMILES IDX 26 12 27 13 28 14 29 15 30 16 14 17 13 18 12 19 11 20 10 21
REMARK SMILES IDX 9 22 8 23 7 24 6 25 5 26 4 27 3 28 2 29 1 30
REMARK H PARENT
REMARK Flexibility Score: inf
ROOT
ATOM      1  C   UNL     1     -13.826  35.064  -6.453  1.00  0.00     0.000 C 
ENDROOT
BRANCH   1   2
ATOM      2  C   UNL     1     -12.665  35.888  -5.861  1.00  0.00     0.000 C 
BRANCH   2   3
ATOM      3  C   UNL     1     -12.833  36.279  -4.380  1.00  0.00     0.000 C 
BRANCH   3   4
ATOM      4  C   UNL     1     -11.539  36.231  -3.544  1.00  0.00     0.000 C 
BRANCH   4   5
ATOM      5  C   UNL     1     -11.747  36.201  -2.016  1.00  0.00     0.000 C 
BRANCH   5   6
ATOM      6  C   UNL     1     -10.464  36.340  -1.177  1.00  0.00     0.000 C 
BRANCH   6   7
ATOM      7  C   UNL     1      -9.561  37.493  -1.649  1.00  0.00     0.000 C 
BRANCH   7   8
ATOM      8  C   UNL     1      -8.649  38.022  -0.529  1.00  0.00     0.000 C 
BRANCH   8   9
ATOM      9  C   UNL     1      -7.171  37.670  -0.748  1.00  0.00     0.000 C 
BRANCH   9  10
ATOM     10  C   UNL     1      -6.458  37.443   0.592  1.00  0.00     0.000 C 
BRANCH  10  11
ATOM     11  C   UNL     1      -5.201  36.566   0.462  1.00  0.00     0.000 C 
BRANCH  11  12
ATOM     12  C   UNL     1      -5.322  35.206   1.185  1.00  0.00     0.006 C 
BRANCH  12  13
ATOM     13  C   UNL     1      -6.510  34.384   0.669  1.00  0.00     0.053 C 
BRANCH  13  14
ATOM     14  C   UNL     1      -6.538  33.035   1.316  1.00  0.00     0.041 C 
ATOM     15  O   UNL     1      -7.569  32.315   1.235  1.00  0.00    -0.550 OA
ATOM     16  O   UNL     1      -5.443  32.591   2.046  1.00  0.00    -0.550 OA
ENDBRANCH  13  14
ENDBRANCH  12  13
ENDBRANCH  11  12
ENDBRANCH  10  11
ENDBRANCH   9  10
ENDBRANCH   8   9
ENDBRANCH   7   8
ENDBRANCH   6   7
ENDBRANCH   5   6
ENDBRANCH   4   5
ENDBRANCH   3   4
ENDBRANCH   2   3
ENDBRANCH   1   2
BRANCH   1  17
ATOM     17  C   UNL     1     -14.284  35.501  -7.857  1.00  0.00     0.000 C 
BRANCH  17  18
ATOM     18  C   UNL     1     -13.163  35.583  -8.911  1.00  0.00     0.000 C 
BRANCH  18  19
ATOM     19  C   UNL     1     -13.577  35.058 -10.303  1.00  0.00     0.000 C 
BRANCH  19  20
ATOM     20  C   UNL     1     -14.891  34.256 -10.269  1.00  0.00     0.000 C 
BRANCH  20  21
ATOM     21  C   UNL     1     -15.201  33.575 -11.613  1.00  0.00     0.000 C 
BRANCH  21  22
ATOM     22  C   UNL     1     -16.659  33.092 -11.709  1.00  0.00    -0.000 C 
BRANCH  22  23
ATOM     23  C   UNL     1     -17.627  33.992 -10.911  1.00  0.00    -0.000 C 
BRANCH  23  24
ATOM     24  C   UNL     1     -18.202  33.317  -9.651  1.00  0.00    -0.000 C 
BRANCH  24  25
ATOM     25  C   UNL     1     -19.179  34.187  -8.842  1.00  0.00    -0.000 C 
BRANCH  25  26
ATOM     26  C   UNL     1     -20.340  33.376  -8.246  1.00  0.00    -0.000 C 
BRANCH  26  27
ATOM     27  C   UNL     1     -21.463  34.301  -7.763  1.00  0.00    -0.000 C 
BRANCH  27  28
ATOM     28  C   UNL     1     -22.631  33.492  -7.186  1.00  0.00    -0.000 C 
BRANCH  28  29
ATOM     29  C   UNL     1     -23.977  34.055  -7.654  1.00  0.00    -0.003 C 
ATOM     30  C   UNL     1     -23.834  35.494  -8.143  1.00  0.00     0.004 C 
ENDBRANCH  28  29
ENDBRANCH  27  28
ENDBRANCH  26  27
ENDBRANCH  25  26
ENDBRANCH  24  25
ENDBRANCH  23  24
ENDBRANCH  22  23
ENDBRANCH  21  22
ENDBRANCH  20  21
ENDBRANCH  19  20
ENDBRANCH  18  19
ENDBRANCH  17  18
ENDBRANCH   1  17
TORSDOF 26
ENDMDL
MODEL 7
REMARK VINA RESULT:     0.647      2.121      4.682
REMARK INTER + INTRA:           0.062
REMARK INTER:                   2.064
REMARK INTRA:                  -2.003
REMARK UNBOUND:                -1.569
REMARK SMILES CCCCCCCCCCCCCCCCCCCCCCCCCCCC(=O)[O-]
REMARK SMILES IDX 15 1 16 2 17 3 18 4 19 5 20 6 21 7 22 8 23 9 24 10 25 11
REMARK SMILES IDX 26 12 27 13 28 14 29 15 30 16 14 17 13 18 12 19 11 20 10 21
REMARK SMILES IDX 9 22 8 23 7 24 6 25 5 26 4 27 3 28 2 29 1 30
REMARK H PARENT
REMARK Flexibility Score: inf
ROOT
ATOM      1  C   UNL     1      -9.024  37.251  -0.899  1.00  0.00     0.000 C 
ENDROOT
BRANCH   1   2
ATOM      2  C   UNL     1     -10.186  37.184  -1.911  1.00  0.00     0.000 C 
BRANCH   2   3
ATOM      3  C   UNL     1     -11.463  36.494  -1.392  1.00  0.00     0.000 C 
BRANCH   3   4
ATOM      4  C   UNL     1     -12.357  35.875  -2.483  1.00  0.00     0.000 C 
BRANCH   4   5
ATOM      5  C   UNL     1     -11.986  36.261  -3.930  1.00  0.00     0.000 C 
BRANCH   5   6
ATOM      6  C   UNL     1     -12.844  35.601  -5.025  1.00  0.00     0.000 C 
BRANCH   6   7
ATOM      7  C   UNL     1     -12.675  36.268  -6.402  1.00  0.00     0.000 C 
BRANCH   7   8
ATOM      8  C   UNL     1     -13.671  35.729  -7.442  1.00  0.00     0.000 C 
BRANCH   8   9
ATOM      9  C   UNL     1     -12.985  35.222  -8.718  1.00  0.00     0.000 C 
BRANCH   9  10
ATOM     10  C   UNL     1     -13.957  35.238  -9.906  1.00  0.00     0.000 C 
BRANCH  10  11
ATOM     11  C   UNL     1     -14.934  34.050  -9.897  1.00  0.00     0.000 C 
BRANCH  11  12
ATOM     12  C   UNL     1     -15.291  33.535 -11.308  1.00  0.00     0.006 C 
BRANCH  12  13
ATOM     13  C   UNL     1     -16.594  34.153 -11.833  1.00  0.00     0.053 C 
BRANCH  13  14
ATOM     14  C   UNL     1     -17.765  33.664 -11.042  1.00  0.00     0.041 C 
ATOM     15  O   UNL     1     -17.672  32.611 -10.357  1.00  0.00    -0.550 OA
ATOM     16  O   UNL     1     -18.975  34.346 -11.095  1.00  0.00    -0.550 OA
ENDBRANCH  13  14
ENDBRANCH  12  13
ENDBRANCH  11  12
ENDBRANCH  10  11
ENDBRANCH   9  10
ENDBRANCH   8   9
ENDBRANCH   7   8
ENDBRANCH   6   7
ENDBRANCH   5   6
ENDBRANCH   4   5
ENDBRANCH   3   4
ENDBRANCH   2   3
ENDBRANCH   1   2
BRANCH   1  17
ATOM     17  C   UNL     1      -7.833  38.125  -1.334  1.00  0.00     0.000 C 
BRANCH  17  18
ATOM     18  C   UNL     1      -7.490  38.056  -2.835  1.00  0.00     0.000 C 
BRANCH  18  19
ATOM     19  C   UNL     1      -5.980  37.918  -3.124  1.00  0.00     0.000 C 
BRANCH  19  20
ATOM     20  C   UNL     1      -5.113  38.125  -1.868  1.00  0.00     0.000 C 
BRANCH  20  21
ATOM     21  C   UNL     1      -4.331  36.860  -1.477  1.00  0.00     0.000 C 
BRANCH  21  22
ATOM     22  C   UNL     1      -4.036  36.788   0.031  1.00  0.00    -0.000 C 
BRANCH  22  23
ATOM     23  C   UNL     1      -4.785  37.881   0.826  1.00  0.00    -0.000 C 
BRANCH  23  24
ATOM     24  C   UNL     1      -5.845  37.324   1.795  1.00  0.00    -0.000 C 
BRANCH  24  25
ATOM     25  C   UNL     1      -5.790  35.801   2.004  1.00  0.00    -0.000 C 
BRANCH  25  26
ATOM     26  C   UNL     1      -7.104  35.103   1.618  1.00  0.00    -0.000 C 
BRANCH  26  27
ATOM     27  C   UNL     1      -6.861  34.033   0.547  1.00  0.00    -0.000 C 
BRANCH  27  28
ATOM     28  C   UNL     1      -6.295  32.751   1.170  1.00  0.00    -0.000 C 
BRANCH  28  29
ATOM     29  C   UNL     1      -7.419  31.843   1.680  1.00  0.00    -0.003 C 
ATOM     30  C   UNL     1      -7.164  30.385   1.307  1.00  0.00     0.004 C 
ENDBRANCH  28  29
ENDBRANCH  27  28
ENDBRANCH  26  27
ENDBRANCH  25  26
ENDBRANCH  24  25
ENDBRANCH  23  24
ENDBRANCH  22  23
ENDBRANCH  21  22
ENDBRANCH  20  21
ENDBRANCH  19  20
ENDBRANCH  18  19
ENDBRANCH  17  18
ENDBRANCH   1  17
TORSDOF 26
ENDMDL
MODEL 8
REMARK VINA RESULT:     0.992      0.762      1.330
REMARK INTER + INTRA:           0.931
REMARK INTER:                   1.992
REMARK INTRA:                  -1.061
REMARK UNBOUND:                -1.569
REMARK SMILES CCCCCCCCCCCCCCCCCCCCCCCCCCCC(=O)[O-]
REMARK SMILES IDX 15 1 16 2 17 3 18 4 19 5 20 6 21 7 22 8 23 9 24 10 25 11
REMARK SMILES IDX 26 12 27 13 28 14 29 15 30 16 14 17 13 18 12 19 11 20 10 21
REMARK SMILES IDX 9 22 8 23 7 24 6 25 5 26 4 27 3 28 2 29 1 30
REMARK H PARENT
REMARK Flexibility Score: inf
ROOT
ATOM      1  C   UNL     1     -12.485  36.568  -4.449  1.00  0.00     0.000 C 
ENDROOT
BRANCH   1   2
ATOM      2  C   UNL     1     -12.894  35.576  -5.557  1.00  0.00     0.000 C 
BRANCH   2   3
ATOM      3  C   UNL     1     -13.527  36.220  -6.806  1.00  0.00     0.000 C 
BRANCH   3   4
ATOM      4  C   UNL     1     -14.005  35.223  -7.880  1.00  0.00     0.000 C 
BRANCH   4   5
ATOM      5  C   UNL     1     -13.268  35.315  -9.232  1.00  0.00     0.000 C 
BRANCH   5   6
ATOM      6  C   UNL     1     -14.126  34.991 -10.469  1.00  0.00     0.000 C 
BRANCH   6   7
ATOM      7  C   UNL     1     -15.255  33.989 -10.169  1.00  0.00     0.000 C 
BRANCH   7   8
ATOM      8  C   UNL     1     -15.773  33.289 -11.437  1.00  0.00     0.000 C 
BRANCH   8   9
ATOM      9  C   UNL     1     -17.287  33.038 -11.403  1.00  0.00     0.000 C 
BRANCH   9  10
ATOM     10  C   UNL     1     -18.007  34.145 -10.621  1.00  0.00     0.000 C 
BRANCH  10  11
ATOM     11  C   UNL     1     -18.391  33.718  -9.193  1.00  0.00     0.000 C 
BRANCH  11  12
ATOM     12  C   UNL     1     -19.867  33.291  -9.055  1.00  0.00     0.006 C 
BRANCH  12  13
ATOM     13  C   UNL     1     -20.341  33.323  -7.595  1.00  0.00     0.053 C 
BRANCH  13  14
ATOM     14  C   UNL     1     -21.709  33.922  -7.499  1.00  0.00     0.041 C 
ATOM     15  O   UNL     1     -21.935  35.065  -7.977  1.00  0.00    -0.550 OA
ATOM     16  O   UNL     1     -22.724  33.237  -6.841  1.00  0.00    -0.550 OA
ENDBRANCH  13  14
ENDBRANCH  12  13
ENDBRANCH  11  12
ENDBRANCH  10  11
ENDBRANCH   9  10
ENDBRANCH   8   9
ENDBRANCH   7   8
ENDBRANCH   6   7
ENDBRANCH   5   6
ENDBRANCH   4   5
ENDBRANCH   3   4
ENDBRANCH   2   3
ENDBRANCH   1   2
BRANCH   1  17
ATOM     17  C   UNL     1     -11.389  36.059  -3.494  1.00  0.00     0.000 C 
BRANCH  17  18
ATOM     18  C   UNL     1     -11.732  36.164  -1.996  1.00  0.00     0.000 C 
BRANCH  18  19
ATOM     19  C   UNL     1     -10.514  36.468  -1.097  1.00  0.00     0.000 C 
BRANCH  19  20
ATOM     20  C   UNL     1      -9.526  37.453  -1.748  1.00  0.00     0.000 C 
BRANCH  20  21
ATOM     21  C   UNL     1      -8.582  38.105  -0.724  1.00  0.00     0.000 C 
BRANCH  21  22
ATOM     22  C   UNL     1      -7.667  37.082  -0.028  1.00  0.00    -0.000 C 
BRANCH  22  23
ATOM     23  C   UNL     1      -6.443  37.750   0.635  1.00  0.00    -0.000 C 
BRANCH  23  24
ATOM     24  C   UNL     1      -5.602  36.785   1.494  1.00  0.00    -0.000 C 
BRANCH  24  25
ATOM     25  C   UNL     1      -5.328  35.418   0.845  1.00  0.00    -0.000 C 
BRANCH  25  26
ATOM     26  C   UNL     1      -6.043  34.266   1.568  1.00  0.00    -0.000 C 
BRANCH  26  27
ATOM     27  C   UNL     1      -7.067  33.591   0.646  1.00  0.00    -0.000 C 
BRANCH  27  28
ATOM     28  C   UNL     1      -7.851  32.508   1.396  1.00  0.00    -0.000 C 
BRANCH  28  29
ATOM     29  C   UNL     1      -7.497  31.111   0.876  1.00  0.00    -0.003 C 
ATOM     30  C   UNL     1      -7.027  30.202   2.008  1.00  0.00     0.004 C 
ENDBRANCH  28  29
ENDBRANCH  27  28
ENDBRANCH  26  27
ENDBRANCH  25  26
ENDBRANCH  24  25
ENDBRANCH  23  24
ENDBRANCH  22  23
ENDBRANCH  21  22
ENDBRANCH  20  21
ENDBRANCH  19  20
ENDBRANCH  18  19
ENDBRANCH  17  18
ENDBRANCH   1  17
TORSDOF 26
ENDMDL
