MODEL 1
REMARK VINA RESULT:    -5.507      0.000      0.000
REMARK INTER + INTRA:          -5.668
REMARK INTER:                  -5.668
REMARK INTRA:                   0.000
REMARK UNBOUND:                 0.000
REMARK SMILES O=c1ccc2ccc(O)cc2o1
REMARK SMILES IDX 6 1 7 2 8 3 10 4 11 5 5 6 4 7 3 8 2 9 1 10 12 11 9 12
REMARK H PARENT 9 13
REMARK Flexibility Score: inf
ROOT
ATOM      1  C   UNL     1      29.137  23.803  51.045  1.00  0.00     0.016 A 
ATOM      2  C   UNL     1      28.289  23.974  52.144  1.00  0.00     0.047 A 
ATOM      3  C   UNL     1      26.924  24.230  51.951  1.00  0.00     0.119 A 
ATOM      4  C   UNL     1      26.405  24.313  50.653  1.00  0.00     0.094 A 
ATOM      5  C   UNL     1      27.246  24.143  49.547  1.00  0.00     0.142 A 
ATOM      6  C   UNL     1      28.621  23.886  49.745  1.00  0.00     0.018 A 
ATOM      7  C   UNL     1      29.435  23.719  48.621  1.00  0.00     0.019 A 
ATOM      8  C   UNL     1      28.873  23.812  47.347  1.00  0.00     0.094 A 
ATOM      9  C   UNL     1      27.503  24.068  47.229  1.00  0.00     0.336 A 
ATOM     10  O   UNL     1      26.976  24.154  46.089  1.00  0.00    -0.246 OA
ATOM     11  O   UNL     1      26.750  24.222  48.315  1.00  0.00    -0.423 OA
ENDROOT
BRANCH   3  12
ATOM     12  O   UNL     1      26.073  24.403  53.041  1.00  0.00    -0.508 OA
ATOM     13  H   UNL     1      26.009  25.290  53.527  1.00  0.00     0.293 HD
ENDBRANCH   3  12
TORSDOF 1
ENDMDL
MODEL 2
REMARK VINA RESULT:    -5.408      1.991      2.297
REMARK INTER + INTRA:          -5.566
REMARK INTER:                  -5.566
REMARK INTRA:                   0.000
REMARK UNBOUND:                 0.000
REMARK SMILES O=c1ccc2ccc(O)cc2o1
REMARK SMILES IDX 6 1 7 2 8 3 10 4 11 5 5 6 4 7 3 8 2 9 1 10 12 11 9 12
REMARK H PARENT 9 13
REMARK Flexibility Score: inf
ROOT
ATOM      1  C   UNL     1      28.956  22.001  50.218  1.00  0.00     0.016 A 
ATOM      2  C   UNL     1      27.662  22.159  50.725  1.00  0.00     0.047 A 
ATOM      3  C   UNL     1      26.812  23.142  50.197  1.00  0.00     0.119 A 
ATOM      4  C   UNL     1      27.259  23.968  49.158  1.00  0.00     0.094 A 
ATOM      5  C   UNL     1      28.553  23.816  48.645  1.00  0.00     0.142 A 
ATOM      6  C   UNL     1      29.406  22.826  49.179  1.00  0.00     0.018 A 
ATOM      7  C   UNL     1      30.693  22.698  48.646  1.00  0.00     0.019 A 
ATOM      8  C   UNL     1      31.093  23.545  47.612  1.00  0.00     0.094 A 
ATOM      9  C   UNL     1      30.192  24.502  47.133  1.00  0.00     0.336 A 
ATOM     10  O   UNL     1      30.534  25.275  46.200  1.00  0.00    -0.246 OA
ATOM     11  O   UNL     1      28.974  24.603  47.658  1.00  0.00    -0.423 OA
ENDROOT
BRANCH   3  12
ATOM     12  O   UNL     1      25.521  23.306  50.696  1.00  0.00    -0.508 OA
ATOM     13  H   UNL     1      24.721  22.880  50.243  1.00  0.00     0.293 HD
ENDBRANCH   3  12
TORSDOF 1
ENDMDL
MODEL 3
REMARK VINA RESULT:    -5.395      2.390      3.190
REMARK INTER + INTRA:          -5.553
REMARK INTER:                  -5.553
REMARK INTRA:                   0.000
REMARK UNBOUND:                 0.000
REMARK SMILES O=c1ccc2ccc(O)cc2o1
REMARK SMILES IDX 6 1 7 2 8 3 10 4 11 5 5 6 4 7 3 8 2 9 1 10 12 11 9 12
REMARK H PARENT 9 13
REMARK Flexibility Score: inf
ROOT
ATOM      1  C   UNL     1      27.285  24.220  49.384  1.00  0.00     0.016 A 
ATOM      2  C   UNL     1      26.483  24.491  50.497  1.00  0.00     0.047 A 
ATOM      3  C   UNL     1      26.920  24.145  51.784  1.00  0.00     0.119 A 
ATOM      4  C   UNL     1      28.164  23.526  51.957  1.00  0.00     0.094 A 
ATOM      5  C   UNL     1      28.973  23.250  50.848  1.00  0.00     0.142 A 
ATOM      6  C   UNL     1      28.530  23.599  49.553  1.00  0.00     0.018 A 
ATOM      7  C   UNL     1      29.360  23.312  48.466  1.00  0.00     0.019 A 
ATOM      8  C   UNL     1      30.590  22.693  48.687  1.00  0.00     0.094 A 
ATOM      9  C   UNL     1      30.962  22.376  49.998  1.00  0.00     0.336 A 
ATOM     10  O   UNL     1      32.069  21.819  50.219  1.00  0.00    -0.246 OA
ATOM     11  O   UNL     1      30.155  22.661  51.016  1.00  0.00    -0.423 OA
ENDROOT
BRANCH   3  12
ATOM     12  O   UNL     1      26.128  24.413  52.899  1.00  0.00    -0.508 OA
ATOM     13  H   UNL     1      26.004  23.729  53.636  1.00  0.00     0.293 HD
ENDBRANCH   3  12
TORSDOF 1
ENDMDL
MODEL 4
REMARK VINA RESULT:    -5.239      1.459      1.906
REMARK INTER + INTRA:          -5.392
REMARK INTER:                  -5.392
REMARK INTRA:                   0.000
REMARK UNBOUND:                 0.000
REMARK SMILES O=c1ccc2ccc(O)cc2o1
REMARK SMILES IDX 6 1 7 2 8 3 10 4 11 5 5 6 4 7 3 8 2 9 1 10 12 11 9 12
REMARK H PARENT 9 13
REMARK Flexibility Score: inf
ROOT
ATOM      1  C   UNL     1      26.394  22.635  51.035  1.00  0.00     0.016 A 
ATOM      2  C   UNL     1      26.584  23.282  52.260  1.00  0.00     0.047 A 
ATOM      3  C   UNL     1      27.451  24.381  52.352  1.00  0.00     0.119 A 
ATOM      4  C   UNL     1      28.130  24.832  51.213  1.00  0.00     0.094 A 
ATOM      5  C   UNL     1      27.945  24.190  49.983  1.00  0.00     0.142 A 
ATOM      6  C   UNL     1      27.071  23.084  49.894  1.00  0.00     0.018 A 
ATOM      7  C   UNL     1      26.908  22.464  48.652  1.00  0.00     0.019 A 
ATOM      8  C   UNL     1      27.606  22.949  47.546  1.00  0.00     0.094 A 
ATOM      9  C   UNL     1      28.454  24.050  47.710  1.00  0.00     0.336 A 
ATOM     10  O   UNL     1      29.092  24.504  46.724  1.00  0.00    -0.246 OA
ATOM     11  O   UNL     1      28.592  24.622  48.903  1.00  0.00    -0.423 OA
ENDROOT
BRANCH   3  12
ATOM     12  O   UNL     1      27.646  25.031  53.569  1.00  0.00    -0.508 OA
ATOM     13  H   UNL     1      27.051  25.799  53.859  1.00  0.00     0.293 HD
ENDBRANCH   3  12
TORSDOF 1
ENDMDL
MODEL 5
REMARK VINA RESULT:    -5.179      1.987      4.452
REMARK INTER + INTRA:          -5.330
REMARK INTER:                  -5.330
REMARK INTRA:                   0.000
REMARK UNBOUND:                 0.000
REMARK SMILES O=c1ccc2ccc(O)cc2o1
REMARK SMILES IDX 6 1 7 2 8 3 10 4 11 5 5 6 4 7 3 8 2 9 1 10 12 11 9 12
REMARK H PARENT 9 13
REMARK Flexibility Score: inf
ROOT
ATOM      1  C   UNL     1      29.478  24.308  47.727  1.00  0.00     0.016 A 
ATOM      2  C   UNL     1      29.076  24.649  46.432  1.00  0.00     0.047 A 
ATOM      3  C   UNL     1      27.839  24.209  45.937  1.00  0.00     0.119 A 
ATOM      4  C   UNL     1      27.002  23.427  46.743  1.00  0.00     0.094 A 
ATOM      5  C   UNL     1      27.397  23.082  48.041  1.00  0.00     0.142 A 
ATOM      6  C   UNL     1      28.643  23.526  48.536  1.00  0.00     0.018 A 
ATOM      7  C   UNL     1      29.009  23.165  49.836  1.00  0.00     0.019 A 
ATOM      8  C   UNL     1      28.142  22.384  50.600  1.00  0.00     0.094 A 
ATOM      9  C   UNL     1      26.924  21.982  50.043  1.00  0.00     0.336 A 
ATOM     10  O   UNL     1      26.127  21.278  50.718  1.00  0.00    -0.246 OA
ATOM     11  O   UNL     1      26.599  22.339  48.804  1.00  0.00    -0.423 OA
ENDROOT
BRANCH   3  12
ATOM     12  O   UNL     1      27.431  24.543  44.647  1.00  0.00    -0.508 OA
ATOM     13  H   UNL     1      27.335  23.840  43.924  1.00  0.00     0.293 HD
ENDBRANCH   3  12
TORSDOF 1
ENDMDL
MODEL 6
REMARK VINA RESULT:    -5.133      1.823      1.847
REMARK INTER + INTRA:          -5.283
REMARK INTER:                  -5.283
REMARK INTRA:                   0.000
REMARK UNBOUND:                 0.000
REMARK SMILES O=c1ccc2ccc(O)cc2o1
REMARK SMILES IDX 6 1 7 2 8 3 10 4 11 5 5 6 4 7 3 8 2 9 1 10 12 11 9 12
REMARK H PARENT 9 13
REMARK Flexibility Score: inf
ROOT
ATOM      1  C   UNL     1      29.535  23.329  50.649  1.00  0.00     0.016 A 
ATOM      2  C   UNL     1      29.127  22.499  51.698  1.00  0.00     0.047 A 
ATOM      3  C   UNL     1      27.973  21.711  51.569  1.00  0.00     0.119 A 
ATOM      4  C   UNL     1      27.226  21.756  50.385  1.00  0.00     0.094 A 
ATOM      5  C   UNL     1      27.627  22.584  49.331  1.00  0.00     0.142 A 
ATOM      6  C   UNL     1      28.789  23.375  49.464  1.00  0.00     0.018 A 
ATOM      7  C   UNL     1      29.164  24.192  48.393  1.00  0.00     0.019 A 
ATOM      8  C   UNL     1      28.388  24.203  47.234  1.00  0.00     0.094 A 
ATOM      9  C   UNL     1      27.249  23.391  47.175  1.00  0.00     0.336 A 
ATOM     10  O   UNL     1      26.536  23.386  46.137  1.00  0.00    -0.246 OA
ATOM     11  O   UNL     1      26.914  22.623  48.207  1.00  0.00    -0.423 OA
ENDROOT
BRANCH   3  12
ATOM     12  O   UNL     1      27.560  20.882  52.610  1.00  0.00    -0.508 OA
ATOM     13  H   UNL     1      27.205  21.262  53.479  1.00  0.00     0.293 HD
ENDBRANCH   3  12
TORSDOF 1
ENDMDL
MODEL 7
REMARK VINA RESULT:    -5.102     13.009     14.140
REMARK INTER + INTRA:          -5.251
REMARK INTER:                  -5.251
REMARK INTRA:                   0.000
REMARK UNBOUND:                 0.000
REMARK SMILES O=c1ccc2ccc(O)cc2o1
REMARK SMILES IDX 6 1 7 2 8 3 10 4 11 5 5 6 4 7 3 8 2 9 1 10 12 11 9 12
REMARK H PARENT 9 13
REMARK Flexibility Score: inf
ROOT
ATOM      1  C   UNL     1      20.410  22.859  40.076  1.00  0.00     0.016 A 
ATOM      2  C   UNL     1      20.517  21.620  39.437  1.00  0.00     0.047 A 
ATOM      3  C   UNL     1      20.149  21.484  38.090  1.00  0.00     0.119 A 
ATOM      4  C   UNL     1      19.672  22.594  37.382  1.00  0.00     0.094 A 
ATOM      5  C   UNL     1      19.560  23.838  38.013  1.00  0.00     0.142 A 
ATOM      6  C   UNL     1      19.932  23.971  39.370  1.00  0.00     0.018 A 
ATOM      7  C   UNL     1      19.810  25.226  39.973  1.00  0.00     0.019 A 
ATOM      8  C   UNL     1      19.329  26.301  39.226  1.00  0.00     0.094 A 
ATOM      9  C   UNL     1      18.981  26.094  37.887  1.00  0.00     0.336 A 
ATOM     10  O   UNL     1      18.546  27.053  37.196  1.00  0.00    -0.246 OA
ATOM     11  O   UNL     1      19.107  24.890  37.337  1.00  0.00    -0.423 OA
ENDROOT
BRANCH   3  12
ATOM     12  O   UNL     1      20.253  20.253  37.446  1.00  0.00    -0.508 OA
ATOM     13  H   UNL     1      21.127  19.943  37.036  1.00  0.00     0.293 HD
ENDBRANCH   3  12
TORSDOF 1
ENDMDL
MODEL 8
REMARK VINA RESULT:    -5.052      1.880      4.684
REMARK INTER + INTRA:          -5.199
REMARK INTER:                  -5.199
REMARK INTRA:                   0.000
REMARK UNBOUND:                 0.000
REMARK SMILES O=c1ccc2ccc(O)cc2o1
REMARK SMILES IDX 6 1 7 2 8 3 10 4 11 5 5 6 4 7 3 8 2 9 1 10 12 11 9 12
REMARK H PARENT 9 13
REMARK Flexibility Score: inf
ROOT
ATOM      1  C   UNL     1      27.001  22.358  48.704  1.00  0.00     0.016 A 
ATOM      2  C   UNL     1      27.878  23.185  47.996  1.00  0.00     0.047 A 
ATOM      3  C   UNL     1      28.613  24.175  48.665  1.00  0.00     0.119 A 
ATOM      4  C   UNL     1      28.469  24.335  50.049  1.00  0.00     0.094 A 
ATOM      5  C   UNL     1      27.594  23.511  50.766  1.00  0.00     0.142 A 
ATOM      6  C   UNL     1      26.855  22.516  50.089  1.00  0.00     0.018 A 
ATOM      7  C   UNL     1      25.989  21.709  50.832  1.00  0.00     0.019 A 
ATOM      8  C   UNL     1      25.879  21.907  52.208  1.00  0.00     0.094 A 
ATOM      9  C   UNL     1      26.643  22.912  52.811  1.00  0.00     0.336 A 
ATOM     10  O   UNL     1      26.559  23.106  54.052  1.00  0.00    -0.246 OA
ATOM     11  O   UNL     1      27.460  23.667  52.081  1.00  0.00    -0.423 OA
ENDROOT
BRANCH   3  12
ATOM     12  O   UNL     1      29.489  25.003  47.967  1.00  0.00    -0.508 OA
ATOM     13  H   UNL     1      29.577  24.948  46.959  1.00  0.00     0.293 HD
ENDBRANCH   3  12
TORSDOF 1
ENDMDL
MODEL 9
REMARK VINA RESULT:    -5.003      2.132      4.787
REMARK INTER + INTRA:          -5.149
REMARK INTER:                  -5.149
REMARK INTRA:                   0.000
REMARK UNBOUND:                 0.000
REMARK SMILES O=c1ccc2ccc(O)cc2o1
REMARK SMILES IDX 6 1 7 2 8 3 10 4 11 5 5 6 4 7 3 8 2 9 1 10 12 11 9 12
REMARK H PARENT 9 13
REMARK Flexibility Score: inf
ROOT
ATOM      1  C   UNL     1      28.053  24.225  48.616  1.00  0.00     0.016 A 
ATOM      2  C   UNL     1      29.199  23.755  47.968  1.00  0.00     0.047 A 
ATOM      3  C   UNL     1      30.164  23.025  48.678  1.00  0.00     0.119 A 
ATOM      4  C   UNL     1      29.979  22.765  50.042  1.00  0.00     0.094 A 
ATOM      5  C   UNL     1      28.835  23.232  50.698  1.00  0.00     0.142 A 
ATOM      6  C   UNL     1      27.866  23.967  49.981  1.00  0.00     0.018 A 
ATOM      7  C   UNL     1      26.733  24.420  50.664  1.00  0.00     0.019 A 
ATOM      8  C   UNL     1      26.594  24.137  52.023  1.00  0.00     0.094 A 
ATOM      9  C   UNL     1      27.595  23.403  52.667  1.00  0.00     0.336 A 
ATOM     10  O   UNL     1      27.487  23.136  53.893  1.00  0.00    -0.246 OA
ATOM     11  O   UNL     1      28.663  22.983  51.994  1.00  0.00    -0.423 OA
ENDROOT
BRANCH   3  12
ATOM     12  O   UNL     1      31.309  22.553  48.039  1.00  0.00    -0.508 OA
ATOM     13  H   UNL     1      32.027  23.185  47.705  1.00  0.00     0.293 HD
ENDBRANCH   3  12
TORSDOF 1
ENDMDL
