MODEL 1
REMARK VINA RESULT:    12.366      0.000      0.000
REMARK INTER + INTRA:          35.464
REMARK INTER:                  31.161
REMARK INTRA:                   4.303
REMARK UNBOUND:                 4.303
REMARK SMILES CCCCCCCCCCCCCCCCCCCCCCCCCCCC(=O)[O-]
REMARK SMILES IDX 15 1 16 2 17 3 18 4 19 5 20 6 21 7 22 8 23 9 24 10 25 11
REMARK SMILES IDX 26 12 27 13 28 14 29 15 30 16 14 17 13 18 12 19 11 20 10 21
REMARK SMILES IDX 9 22 8 23 7 24 6 25 5 26 4 27 3 28 2 29 1 30
REMARK H PARENT
REMARK Flexibility Score: inf
ROOT
ATOM      1  C   UNL     1      45.165 -25.249  -1.168  1.00  0.00     0.000 C 
ENDROOT
BRANCH   1   2
ATOM      2  C   UNL     1      46.112 -25.651  -2.315  1.00  0.00     0.000 C 
BRANCH   2   3
ATOM      3  C   UNL     1      45.621 -25.170  -3.689  1.00  0.00     0.000 C 
BRANCH   3   4
ATOM      4  C   UNL     1      44.086 -25.088  -3.749  1.00  0.00     0.000 C 
BRANCH   4   5
ATOM      5  C   UNL     1      43.488 -24.136  -2.697  1.00  0.00     0.000 C 
BRANCH   5   6
ATOM      6  C   UNL     1      42.206 -24.642  -1.999  1.00  0.00     0.000 C 
BRANCH   6   7
ATOM      7  C   UNL     1      40.907 -23.913  -2.387  1.00  0.00     0.000 C 
BRANCH   7   8
ATOM      8  C   UNL     1      40.692 -22.604  -1.606  1.00  0.00     0.000 C 
BRANCH   8   9
ATOM      9  C   UNL     1      39.374 -21.906  -1.988  1.00  0.00     0.000 C 
BRANCH   9  10
ATOM     10  C   UNL     1      39.045 -20.720  -1.068  1.00  0.00     0.000 C 
BRANCH  10  11
ATOM     11  C   UNL     1      40.156 -20.439  -0.040  1.00  0.00     0.000 C 
BRANCH  11  12
ATOM     12  C   UNL     1      40.166 -19.004   0.529  1.00  0.00     0.006 C 
BRANCH  12  13
ATOM     13  C   UNL     1      38.883 -18.200   0.256  1.00  0.00     0.053 C 
BRANCH  13  14
ATOM     14  C   UNL     1      37.646 -18.971   0.620  1.00  0.00     0.041 C 
ATOM     15  O   UNL     1      36.848 -18.520   1.487  1.00  0.00    -0.550 OA
ATOM     16  O   UNL     1      37.394 -20.203   0.029  1.00  0.00    -0.550 OA
ENDBRANCH  13  14
ENDBRANCH  12  13
ENDBRANCH  11  12
ENDBRANCH  10  11
ENDBRANCH   9  10
ENDBRANCH   8   9
ENDBRANCH   7   8
ENDBRANCH   6   7
ENDBRANCH   5   6
ENDBRANCH   4   5
ENDBRANCH   3   4
ENDBRANCH   2   3
ENDBRANCH   1   2
BRANCH   1  17
ATOM     17  C   UNL     1      45.518 -23.866  -0.590  1.00  0.00     0.000 C 
BRANCH  17  18
ATOM     18  C   UNL     1      45.917 -23.962   0.894  1.00  0.00     0.000 C 
BRANCH  18  19
ATOM     19  C   UNL     1      45.822 -25.392   1.449  1.00  0.00     0.000 C 
BRANCH  19  20
ATOM     20  C   UNL     1      44.393 -25.789   1.853  1.00  0.00     0.000 C 
BRANCH  20  21
ATOM     21  C   UNL     1      44.398 -27.131   2.601  1.00  0.00     0.000 C 
BRANCH  21  22
ATOM     22  C   UNL     1      45.797 -27.544   3.079  1.00  0.00    -0.000 C 
BRANCH  22  23
ATOM     23  C   UNL     1      45.798 -28.099   4.514  1.00  0.00    -0.000 C 
BRANCH  23  24
ATOM     24  C   UNL     1      46.110 -27.008   5.561  1.00  0.00    -0.000 C 
BRANCH  24  25
ATOM     25  C   UNL     1      45.143 -27.000   6.762  1.00  0.00    -0.000 C 
BRANCH  25  26
ATOM     26  C   UNL     1      45.029 -28.334   7.517  1.00  0.00    -0.000 C 
BRANCH  26  27
ATOM     27  C   UNL     1      45.853 -28.357   8.814  1.00  0.00    -0.000 C 
BRANCH  27  28
ATOM     28  C   UNL     1      45.251 -29.284   9.885  1.00  0.00    -0.000 C 
BRANCH  28  29
ATOM     29  C   UNL     1      45.685 -30.759   9.750  1.00  0.00    -0.003 C 
ATOM     30  C   UNL     1      45.401 -31.570  11.015  1.00  0.00     0.004 C 
ENDBRANCH  28  29
ENDBRANCH  27  28
ENDBRANCH  26  27
ENDBRANCH  25  26
ENDBRANCH  24  25
ENDBRANCH  23  24
ENDBRANCH  22  23
ENDBRANCH  21  22
ENDBRANCH  20  21
ENDBRANCH  19  20
ENDBRANCH  18  19
ENDBRANCH  17  18
ENDBRANCH   1  17
TORSDOF 26
ENDMDL
MODEL 2
REMARK VINA RESULT:    14.658      1.671      2.570
REMARK INTER + INTRA:          41.241
REMARK INTER:                  38.616
REMARK INTRA:                   2.626
REMARK UNBOUND:                 4.303
REMARK SMILES CCCCCCCCCCCCCCCCCCCCCCCCCCCC(=O)[O-]
REMARK SMILES IDX 15 1 16 2 17 3 18 4 19 5 20 6 21 7 22 8 23 9 24 10 25 11
REMARK SMILES IDX 26 12 27 13 28 14 29 15 30 16 14 17 13 18 12 19 11 20 10 21
REMARK SMILES IDX 9 22 8 23 7 24 6 25 5 26 4 27 3 28 2 29 1 30
REMARK H PARENT
REMARK Flexibility Score: inf
ROOT
ATOM      1  C   UNL     1      45.168 -25.230  -1.170  1.00  0.00     0.000 C 
ENDROOT
BRANCH   1   2
ATOM      2  C   UNL     1      46.056 -25.666  -2.352  1.00  0.00     0.000 C 
BRANCH   2   3
ATOM      3  C   UNL     1      45.525 -25.178  -3.708  1.00  0.00     0.000 C 
BRANCH   3   4
ATOM      4  C   UNL     1      44.000 -24.971  -3.683  1.00  0.00     0.000 C 
BRANCH   4   5
ATOM      5  C   UNL     1      43.549 -23.916  -2.656  1.00  0.00     0.000 C 
BRANCH   5   6
ATOM      6  C   UNL     1      42.286 -24.280  -1.843  1.00  0.00     0.000 C 
BRANCH   6   7
ATOM      7  C   UNL     1      41.030 -23.448  -2.161  1.00  0.00     0.000 C 
BRANCH   7   8
ATOM      8  C   UNL     1      41.016 -22.081  -1.452  1.00  0.00     0.000 C 
BRANCH   8   9
ATOM      9  C   UNL     1      39.752 -21.881  -0.597  1.00  0.00     0.000 C 
BRANCH   9  10
ATOM     10  C   UNL     1      38.463 -22.237  -1.355  1.00  0.00     0.000 C 
BRANCH  10  11
ATOM     11  C   UNL     1      38.736 -22.781  -2.769  1.00  0.00     0.000 C 
BRANCH  11  12
ATOM     12  C   UNL     1      37.613 -23.665  -3.352  1.00  0.00     0.006 C 
BRANCH  12  13
ATOM     13  C   UNL     1      36.254 -22.957  -3.497  1.00  0.00     0.053 C 
BRANCH  13  14
ATOM     14  C   UNL     1      36.410 -21.505  -3.846  1.00  0.00     0.041 C 
ATOM     15  O   UNL     1      36.868 -21.168  -4.972  1.00  0.00    -0.550 OA
ATOM     16  O   UNL     1      36.081 -20.525  -2.917  1.00  0.00    -0.550 OA
ENDBRANCH  13  14
ENDBRANCH  12  13
ENDBRANCH  11  12
ENDBRANCH  10  11
ENDBRANCH   9  10
ENDBRANCH   8   9
ENDBRANCH   7   8
ENDBRANCH   6   7
ENDBRANCH   5   6
ENDBRANCH   4   5
ENDBRANCH   3   4
ENDBRANCH   2   3
ENDBRANCH   1   2
BRANCH   1  17
ATOM     17  C   UNL     1      45.566 -23.844  -0.633  1.00  0.00     0.000 C 
BRANCH  17  18
ATOM     18  C   UNL     1      46.009 -23.918   0.840  1.00  0.00     0.000 C 
BRANCH  18  19
ATOM     19  C   UNL     1      45.912 -25.336   1.424  1.00  0.00     0.000 C 
BRANCH  19  20
ATOM     20  C   UNL     1      44.487 -25.714   1.858  1.00  0.00     0.000 C 
BRANCH  20  21
ATOM     21  C   UNL     1      44.503 -27.003   2.695  1.00  0.00     0.000 C 
BRANCH  21  22
ATOM     22  C   UNL     1      45.899 -27.351   3.231  1.00  0.00    -0.000 C 
BRANCH  22  23
ATOM     23  C   UNL     1      45.880 -27.789   4.706  1.00  0.00    -0.000 C 
BRANCH  23  24
ATOM     24  C   UNL     1      46.116 -26.605   5.669  1.00  0.00    -0.000 C 
BRANCH  24  25
ATOM     25  C   UNL     1      45.143 -26.568   6.864  1.00  0.00    -0.000 C 
BRANCH  25  26
ATOM     26  C   UNL     1      45.134 -27.832   7.738  1.00  0.00    -0.000 C 
BRANCH  26  27
ATOM     27  C   UNL     1      45.945 -27.668   9.033  1.00  0.00    -0.000 C 
BRANCH  27  28
ATOM     28  C   UNL     1      45.408 -28.535  10.186  1.00  0.00    -0.000 C 
BRANCH  28  29
ATOM     29  C   UNL     1      45.212 -30.019   9.811  1.00  0.00    -0.003 C 
ATOM     30  C   UNL     1      45.530 -30.961  10.973  1.00  0.00     0.004 C 
ENDBRANCH  28  29
ENDBRANCH  27  28
ENDBRANCH  26  27
ENDBRANCH  25  26
ENDBRANCH  24  25
ENDBRANCH  23  24
ENDBRANCH  22  23
ENDBRANCH  21  22
ENDBRANCH  20  21
ENDBRANCH  19  20
ENDBRANCH  18  19
ENDBRANCH  17  18
ENDBRANCH   1  17
TORSDOF 26
ENDMDL
MODEL 3
REMARK VINA RESULT:    14.785      1.429      2.371
REMARK INTER + INTRA:          41.562
REMARK INTER:                  41.781
REMARK INTRA:                  -0.220
REMARK UNBOUND:                 4.303
REMARK SMILES CCCCCCCCCCCCCCCCCCCCCCCCCCCC(=O)[O-]
REMARK SMILES IDX 15 1 16 2 17 3 18 4 19 5 20 6 21 7 22 8 23 9 24 10 25 11
REMARK SMILES IDX 26 12 27 13 28 14 29 15 30 16 14 17 13 18 12 19 11 20 10 21
REMARK SMILES IDX 9 22 8 23 7 24 6 25 5 26 4 27 3 28 2 29 1 30
REMARK H PARENT
REMARK Flexibility Score: inf
ROOT
ATOM      1  C   UNL     1      45.547 -25.453   0.377  1.00  0.00     0.000 C 
ENDROOT
BRANCH   1   2
ATOM      2  C   UNL     1      45.488 -26.178  -0.982  1.00  0.00     0.000 C 
BRANCH   2   3
ATOM      3  C   UNL     1      46.039 -25.326  -2.136  1.00  0.00     0.000 C 
BRANCH   3   4
ATOM      4  C   UNL     1      45.009 -24.292  -2.624  1.00  0.00     0.000 C 
BRANCH   4   5
ATOM      5  C   UNL     1      43.608 -24.503  -2.022  1.00  0.00     0.000 C 
BRANCH   5   6
ATOM      6  C   UNL     1      43.004 -23.274  -1.304  1.00  0.00     0.000 C 
BRANCH   6   7
ATOM      7  C   UNL     1      41.974 -22.470  -2.118  1.00  0.00     0.000 C 
BRANCH   7   8
ATOM      8  C   UNL     1      40.567 -22.482  -1.492  1.00  0.00     0.000 C 
BRANCH   8   9
ATOM      9  C   UNL     1      39.524 -21.789  -2.387  1.00  0.00     0.000 C 
BRANCH   9  10
ATOM     10  C   UNL     1      38.116 -21.801  -1.772  1.00  0.00     0.000 C 
BRANCH  10  11
ATOM     11  C   UNL     1      37.980 -20.835  -0.581  1.00  0.00     0.000 C 
BRANCH  11  12
ATOM     12  C   UNL     1      37.071 -19.613  -0.837  1.00  0.00     0.006 C 
BRANCH  12  13
ATOM     13  C   UNL     1      37.079 -18.564   0.288  1.00  0.00     0.053 C 
BRANCH  13  14
ATOM     14  C   UNL     1      38.455 -18.018   0.540  1.00  0.00     0.041 C 
ATOM     15  O   UNL     1      38.623 -17.064   1.349  1.00  0.00    -0.550 OA
ATOM     16  O   UNL     1      39.547 -18.538  -0.145  1.00  0.00    -0.550 OA
ENDBRANCH  13  14
ENDBRANCH  12  13
ENDBRANCH  11  12
ENDBRANCH  10  11
ENDBRANCH   9  10
ENDBRANCH   8   9
ENDBRANCH   7   8
ENDBRANCH   6   7
ENDBRANCH   5   6
ENDBRANCH   4   5
ENDBRANCH   3   4
ENDBRANCH   2   3
ENDBRANCH   1   2
BRANCH   1  17
ATOM     17  C   UNL     1      46.101 -26.362   1.489  1.00  0.00     0.000 C 
BRANCH  17  18
ATOM     18  C   UNL     1      45.640 -27.820   1.304  1.00  0.00     0.000 C 
BRANCH  18  19
ATOM     19  C   UNL     1      46.121 -28.747   2.432  1.00  0.00     0.000 C 
BRANCH  19  20
ATOM     20  C   UNL     1      45.939 -28.140   3.832  1.00  0.00     0.000 C 
BRANCH  20  21
ATOM     21  C   UNL     1      45.921 -29.244   4.900  1.00  0.00     0.000 C 
BRANCH  21  22
ATOM     22  C   UNL     1      44.689 -29.172   5.814  1.00  0.00    -0.000 C 
BRANCH  22  23
ATOM     23  C   UNL     1      45.056 -28.958   7.293  1.00  0.00    -0.000 C 
BRANCH  23  24
ATOM     24  C   UNL     1      44.606 -27.573   7.810  1.00  0.00    -0.000 C 
BRANCH  24  25
ATOM     25  C   UNL     1      45.503 -27.002   8.926  1.00  0.00    -0.000 C 
BRANCH  25  26
ATOM     26  C   UNL     1      46.107 -28.047   9.878  1.00  0.00    -0.000 C 
BRANCH  26  27
ATOM     27  C   UNL     1      45.099 -29.134  10.287  1.00  0.00    -0.000 C 
BRANCH  27  28
ATOM     28  C   UNL     1      45.781 -30.415  10.800  1.00  0.00    -0.000 C 
BRANCH  28  29
ATOM     29  C   UNL     1      44.917 -31.684  10.650  1.00  0.00    -0.003 C 
ATOM     30  C   UNL     1      44.761 -32.116   9.191  1.00  0.00     0.004 C 
ENDBRANCH  28  29
ENDBRANCH  27  28
ENDBRANCH  26  27
ENDBRANCH  25  26
ENDBRANCH  24  25
ENDBRANCH  23  24
ENDBRANCH  22  23
ENDBRANCH  21  22
ENDBRANCH  20  21
ENDBRANCH  19  20
ENDBRANCH  18  19
ENDBRANCH  17  18
ENDBRANCH   1  17
TORSDOF 26
ENDMDL
