MODEL 1
REMARK VINA RESULT:    15.200      0.000      0.000
REMARK INTER + INTRA:          17.584
REMARK INTER:                  17.865
REMARK INTRA:                  -0.281
REMARK UNBOUND:                -0.281
REMARK SMILES O=c1cc(-c2ccc(O)c(O)c2)oc2cc(O)cc(O)c12
REMARK SMILES IDX 4 1 3 2 2 3 1 4 21 5 19 6 18 7 16 8 15 9 14 10 13 11 5 12
REMARK SMILES IDX 6 13 7 14 8 15 12 16 10 17 9 18 11 20 20 22 17 24
REMARK H PARENT 9 19 11 21 20 23 17 25
REMARK Flexibility Score: inf
ROOT
ATOM      1  C   UNL     1      24.392  31.478   1.254  1.00  0.00     0.138 A 
ATOM      2  C   UNL     1      25.499  31.916   0.514  1.00  0.00     0.100 A 
ATOM      3  C   UNL     1      26.707  31.223   0.604  1.00  0.00     0.197 A 
ATOM      4  O   UNL     1      27.664  31.603  -0.119  1.00  0.00    -0.289 OA
ATOM      5  C   UNL     1      26.813  30.105   1.464  1.00  0.00     0.107 A 
ATOM      6  C   UNL     1      28.006  29.347   1.666  1.00  0.00     0.134 A 
ATOM      7  C   UNL     1      27.963  28.190   2.453  1.00  0.00     0.093 A 
ATOM      8  C   UNL     1      26.787  27.796   3.093  1.00  0.00     0.123 A 
ATOM      9  C   UNL     1      25.629  28.560   2.945  1.00  0.00     0.094 A 
ATOM     10  C   UNL     1      25.631  29.701   2.139  1.00  0.00     0.146 A 
ATOM     11  O   UNL     1      24.504  30.393   2.012  1.00  0.00    -0.456 OA
ENDROOT
BRANCH   1  12
ATOM     12  C   UNL     1      23.084  32.178   1.197  1.00  0.00     0.021 A 
ATOM     13  C   UNL     1      22.448  32.354  -0.045  1.00  0.00     0.016 A 
ATOM     14  C   UNL     1      21.212  33.002  -0.125  1.00  0.00     0.051 A 
ATOM     15  C   UNL     1      20.587  33.477   1.034  1.00  0.00     0.157 A 
ATOM     16  C   UNL     1      22.443  32.648   2.361  1.00  0.00     0.062 A 
ATOM     17  C   UNL     1      21.202  33.296   2.279  1.00  0.00     0.158 A 
BRANCH  15  18
ATOM     18  O   UNL     1      19.356  34.125   0.958  1.00  0.00    -0.504 OA
ATOM     19  H   UNL     1      18.706  34.122   1.736  1.00  0.00     0.293 HD
ENDBRANCH  15  18
BRANCH  17  20
ATOM     20  O   UNL     1      20.572  33.760   3.432  1.00  0.00    -0.504 OA
ATOM     21  H   UNL     1      20.093  33.130   4.066  1.00  0.00     0.293 HD
ENDBRANCH  17  20
ENDBRANCH   1  12
BRANCH   6  22
ATOM     22  O   UNL     1      29.254  29.700   1.144  1.00  0.00    -0.507 OA
ATOM     23  H   UNL     1      29.969  29.046   0.866  1.00  0.00     0.293 HD
ENDBRANCH   6  22
BRANCH   8  24
ATOM     24  O   UNL     1      26.785  26.647   3.880  1.00  0.00    -0.508 OA
ATOM     25  H   UNL     1      27.144  25.766   3.531  1.00  0.00     0.293 HD
ENDBRANCH   8  24
TORSDOF 5
ENDMDL
MODEL 2
REMARK VINA RESULT:    16.233      0.957      0.993
REMARK INTER + INTRA:          18.799
REMARK INTER:                  19.115
REMARK INTRA:                  -0.316
REMARK UNBOUND:                -0.281
REMARK SMILES O=c1cc(-c2ccc(O)c(O)c2)oc2cc(O)cc(O)c12
REMARK SMILES IDX 4 1 3 2 2 3 1 4 21 5 19 6 18 7 16 8 15 9 14 10 13 11 5 12
REMARK SMILES IDX 6 13 7 14 8 15 12 16 10 17 9 18 11 20 20 22 17 24
REMARK H PARENT 9 19 11 21 20 23 17 25
REMARK Flexibility Score: inf
ROOT
ATOM      1  C   UNL     1      24.650  31.400   1.005  1.00  0.00     0.138 A 
ATOM      2  C   UNL     1      25.812  31.791   0.325  1.00  0.00     0.100 A 
ATOM      3  C   UNL     1      27.006  31.104   0.546  1.00  0.00     0.197 A 
ATOM      4  O   UNL     1      28.017  31.439  -0.125  1.00  0.00    -0.289 OA
ATOM      5  C   UNL     1      27.042  30.040   1.478  1.00  0.00     0.107 A 
ATOM      6  C   UNL     1      28.213  29.296   1.815  1.00  0.00     0.134 A 
ATOM      7  C   UNL     1      28.104  28.188   2.665  1.00  0.00     0.093 A 
ATOM      8  C   UNL     1      26.882  27.835   3.238  1.00  0.00     0.123 A 
ATOM      9  C   UNL     1      25.742  28.589   2.958  1.00  0.00     0.094 A 
ATOM     10  C   UNL     1      25.810  29.679   2.087  1.00  0.00     0.146 A 
ATOM     11  O   UNL     1      24.700  30.363   1.833  1.00  0.00    -0.456 OA
ENDROOT
BRANCH   1  12
ATOM     12  C   UNL     1      23.354  32.097   0.808  1.00  0.00     0.021 A 
ATOM     13  C   UNL     1      23.329  33.338   0.149  1.00  0.00     0.016 A 
ATOM     14  C   UNL     1      22.121  34.009  -0.057  1.00  0.00     0.051 A 
ATOM     15  C   UNL     1      20.917  33.448   0.383  1.00  0.00     0.157 A 
ATOM     16  C   UNL     1      22.137  31.531   1.237  1.00  0.00     0.062 A 
ATOM     17  C   UNL     1      20.924  32.205   1.029  1.00  0.00     0.158 A 
BRANCH  15  18
ATOM     18  O   UNL     1      19.710  34.115   0.182  1.00  0.00    -0.504 OA
ATOM     19  H   UNL     1      19.103  33.888  -0.597  1.00  0.00     0.293 HD
ENDBRANCH  15  18
BRANCH  17  20
ATOM     20  O   UNL     1      19.723  31.643   1.456  1.00  0.00    -0.504 OA
ATOM     21  H   UNL     1      19.254  31.967   2.294  1.00  0.00     0.293 HD
ENDBRANCH  17  20
ENDBRANCH   1  12
BRANCH   6  22
ATOM     22  O   UNL     1      29.497  29.615   1.367  1.00  0.00    -0.507 OA
ATOM     23  H   UNL     1      29.747  29.787   0.405  1.00  0.00     0.293 HD
ENDBRANCH   6  22
BRANCH   8  24
ATOM     24  O   UNL     1      26.815  26.736   4.091  1.00  0.00    -0.508 OA
ATOM     25  H   UNL     1      26.751  25.791   3.732  1.00  0.00     0.293 HD
ENDBRANCH   8  24
TORSDOF 5
ENDMDL
MODEL 3
REMARK VINA RESULT:    16.833      2.077      2.937
REMARK INTER + INTRA:          19.504
REMARK INTER:                  19.768
REMARK INTRA:                  -0.265
REMARK UNBOUND:                -0.281
REMARK SMILES O=c1cc(-c2ccc(O)c(O)c2)oc2cc(O)cc(O)c12
REMARK SMILES IDX 4 1 3 2 2 3 1 4 21 5 19 6 18 7 16 8 15 9 14 10 13 11 5 12
REMARK SMILES IDX 6 13 7 14 8 15 12 16 10 17 9 18 11 20 20 22 17 24
REMARK H PARENT 9 19 11 21 20 23 17 25
REMARK Flexibility Score: inf
ROOT
ATOM      1  C   UNL     1      26.249  30.369   1.327  1.00  0.00     0.138 A 
ATOM      2  C   UNL     1      26.371  29.230   0.520  1.00  0.00     0.100 A 
ATOM      3  C   UNL     1      27.426  28.342   0.734  1.00  0.00     0.197 A 
ATOM      4  O   UNL     1      27.475  27.298   0.033  1.00  0.00    -0.289 OA
ATOM      5  C   UNL     1      28.381  28.615   1.741  1.00  0.00     0.107 A 
ATOM      6  C   UNL     1      29.521  27.803   2.021  1.00  0.00     0.134 A 
ATOM      7  C   UNL     1      30.334  28.110   3.120  1.00  0.00     0.093 A 
ATOM      8  C   UNL     1      30.084  29.231   3.910  1.00  0.00     0.123 A 
ATOM      9  C   UNL     1      29.004  30.063   3.613  1.00  0.00     0.094 A 
ATOM     10  C   UNL     1      28.154  29.765   2.544  1.00  0.00     0.146 A 
ATOM     11  O   UNL     1      27.127  30.572   2.303  1.00  0.00    -0.456 OA
ENDROOT
BRANCH   1  12
ATOM     12  C   UNL     1      25.146  31.346   1.143  1.00  0.00     0.021 A 
ATOM     13  C   UNL     1      25.201  32.258   0.075  1.00  0.00     0.016 A 
ATOM     14  C   UNL     1      24.172  33.182  -0.125  1.00  0.00     0.051 A 
ATOM     15  C   UNL     1      23.066  33.204   0.733  1.00  0.00     0.157 A 
ATOM     16  C   UNL     1      24.024  31.366   1.996  1.00  0.00     0.062 A 
ATOM     17  C   UNL     1      22.991  32.292   1.793  1.00  0.00     0.158 A 
BRANCH  15  18
ATOM     18  O   UNL     1      22.039  34.125   0.538  1.00  0.00    -0.504 OA
ATOM     19  H   UNL     1      21.304  34.252   1.224  1.00  0.00     0.293 HD
ENDBRANCH  15  18
BRANCH  17  20
ATOM     20  O   UNL     1      21.883  32.309   2.639  1.00  0.00    -0.504 OA
ATOM     21  H   UNL     1      21.982  32.437   3.640  1.00  0.00     0.293 HD
ENDBRANCH  17  20
ENDBRANCH   1  12
BRANCH   6  22
ATOM     22  O   UNL     1      29.911  26.709   1.243  1.00  0.00    -0.507 OA
ATOM     23  H   UNL     1      30.775  26.646   0.727  1.00  0.00     0.293 HD
ENDBRANCH   6  22
BRANCH   8  24
ATOM     24  O   UNL     1      30.923  29.514   4.986  1.00  0.00    -0.508 OA
ATOM     25  H   UNL     1      30.586  29.487   5.941  1.00  0.00     0.293 HD
ENDBRANCH   8  24
TORSDOF 5
ENDMDL
MODEL 4
REMARK VINA RESULT:    17.261      1.529      2.127
REMARK INTER + INTRA:          20.007
REMARK INTER:                  20.291
REMARK INTRA:                  -0.284
REMARK UNBOUND:                -0.281
REMARK SMILES O=c1cc(-c2ccc(O)c(O)c2)oc2cc(O)cc(O)c12
REMARK SMILES IDX 4 1 3 2 2 3 1 4 21 5 19 6 18 7 16 8 15 9 14 10 13 11 5 12
REMARK SMILES IDX 6 13 7 14 8 15 12 16 10 17 9 18 11 20 20 22 17 24
REMARK H PARENT 9 19 11 21 20 23 17 25
REMARK Flexibility Score: inf
ROOT
ATOM      1  C   UNL     1      25.885  30.419   1.383  1.00  0.00     0.138 A 
ATOM      2  C   UNL     1      27.227  30.820   1.328  1.00  0.00     0.100 A 
ATOM      3  C   UNL     1      28.238  29.873   1.499  1.00  0.00     0.197 A 
ATOM      4  O   UNL     1      29.432  30.253   1.384  1.00  0.00    -0.289 OA
ATOM      5  C   UNL     1      27.900  28.524   1.757  1.00  0.00     0.107 A 
ATOM      6  C   UNL     1      28.847  27.480   1.988  1.00  0.00     0.134 A 
ATOM      7  C   UNL     1      28.399  26.160   2.117  1.00  0.00     0.093 A 
ATOM      8  C   UNL     1      27.039  25.853   2.085  1.00  0.00     0.123 A 
ATOM      9  C   UNL     1      26.102  26.873   1.914  1.00  0.00     0.094 A 
ATOM     10  C   UNL     1      26.518  28.196   1.747  1.00  0.00     0.146 A 
ATOM     11  O   UNL     1      25.597  29.136   1.571  1.00  0.00    -0.456 OA
ENDROOT
BRANCH   1  12
ATOM     12  C   UNL     1      24.771  31.385   1.209  1.00  0.00     0.021 A 
ATOM     13  C   UNL     1      24.738  32.204   0.067  1.00  0.00     0.016 A 
ATOM     14  C   UNL     1      23.696  33.115  -0.125  1.00  0.00     0.051 A 
ATOM     15  C   UNL     1      22.664  33.216   0.816  1.00  0.00     0.157 A 
ATOM     16  C   UNL     1      23.723  31.483   2.146  1.00  0.00     0.062 A 
ATOM     17  C   UNL     1      22.676  32.397   1.952  1.00  0.00     0.158 A 
BRANCH  15  18
ATOM     18  O   UNL     1      21.624  34.124   0.630  1.00  0.00    -0.504 OA
ATOM     19  H   UNL     1      20.929  34.290   1.348  1.00  0.00     0.293 HD
ENDBRANCH  15  18
BRANCH  17  20
ATOM     20  O   UNL     1      21.642  32.492   2.881  1.00  0.00    -0.504 OA
ATOM     21  H   UNL     1      20.904  31.799   2.926  1.00  0.00     0.293 HD
ENDBRANCH  17  20
ENDBRANCH   1  12
BRANCH   6  22
ATOM     22  O   UNL     1      30.222  27.689   2.124  1.00  0.00    -0.507 OA
ATOM     23  H   UNL     1      30.782  27.364   2.897  1.00  0.00     0.293 HD
ENDBRANCH   6  22
BRANCH   8  24
ATOM     24  O   UNL     1      26.629  24.530   2.232  1.00  0.00    -0.508 OA
ATOM     25  H   UNL     1      27.071  23.910   2.901  1.00  0.00     0.293 HD
ENDBRANCH   8  24
TORSDOF 5
ENDMDL
