MODEL 1
REMARK VINA RESULT:    -7.469      0.000      0.000
REMARK INTER + INTRA:          -8.988
REMARK INTER:                  -8.779
REMARK INTRA:                  -0.209
REMARK UNBOUND:                -0.209
REMARK SMILES O=c1c(O)c(-c2ccc(O)cc2)oc2cc(O)cc(O)c12
REMARK SMILES IDX 5 1 3 2 2 3 1 4 21 5 19 6 18 7 16 8 15 9 14 10 13 11 6 12
REMARK SMILES IDX 7 13 8 14 9 15 12 16 11 17 10 18 4 20 20 22 17 24
REMARK H PARENT 10 19 4 21 20 23 17 25
REMARK Flexibility Score: inf
ROOT
ATOM      1  C   UNL     1       9.301  75.764  -1.803  1.00  0.00     0.180 A 
ATOM      2  C   UNL     1       8.886  75.896  -3.143  1.00  0.00     0.208 A 
ATOM      3  C   UNL     1       8.970  74.782  -3.992  1.00  0.00     0.238 A 
ATOM      4  O   UNL     1       8.612  74.890  -5.197  1.00  0.00    -0.285 OA
ATOM      5  C   UNL     1       9.444  73.554  -3.486  1.00  0.00     0.111 A 
ATOM      6  C   UNL     1       9.555  72.382  -4.273  1.00  0.00     0.134 A 
ATOM      7  C   UNL     1      10.028  71.196  -3.693  1.00  0.00     0.093 A 
ATOM      8  C   UNL     1      10.390  71.159  -2.342  1.00  0.00     0.123 A 
ATOM      9  C   UNL     1      10.283  72.311  -1.562  1.00  0.00     0.094 A 
ATOM     10  C   UNL     1       9.815  73.503  -2.122  1.00  0.00     0.146 A 
ATOM     11  O   UNL     1       9.728  74.586  -1.358  1.00  0.00    -0.452 OA
ENDROOT
BRANCH   1  12
ATOM     12  C   UNL     1       9.261  76.897  -0.852  1.00  0.00     0.021 A 
ATOM     13  C   UNL     1       8.367  76.860   0.231  1.00  0.00     0.016 A 
ATOM     14  C   UNL     1       8.328  77.909   1.154  1.00  0.00     0.047 A 
ATOM     15  C   UNL     1       9.194  79.002   1.014  1.00  0.00     0.115 A 
ATOM     16  C   UNL     1      10.142  77.989  -0.974  1.00  0.00     0.016 A 
ATOM     17  C   UNL     1      10.101  79.036  -0.050  1.00  0.00     0.047 A 
BRANCH  15  18
ATOM     18  O   UNL     1       9.165  80.054   1.927  1.00  0.00    -0.508 OA
ATOM     19  H   UNL     1      10.015  80.502   2.246  1.00  0.00     0.293 HD
ENDBRANCH  15  18
ENDBRANCH   1  12
BRANCH   2  20
ATOM     20  O   UNL     1       8.374  77.110  -3.607  1.00  0.00    -0.502 OA
ATOM     21  H   UNL     1       7.436  77.424  -3.384  1.00  0.00     0.293 HD
ENDBRANCH   2  20
BRANCH   6  22
ATOM     22  O   UNL     1       9.201  72.388  -5.624  1.00  0.00    -0.507 OA
ATOM     23  H   UNL     1       8.284  72.092  -5.935  1.00  0.00     0.293 HD
ENDBRANCH   6  22
BRANCH   8  24
ATOM     24  O   UNL     1      10.859  69.980  -1.765  1.00  0.00    -0.508 OA
ATOM     25  H   UNL     1      10.232  69.327  -1.311  1.00  0.00     0.293 HD
ENDBRANCH   8  24
TORSDOF 5
ENDMDL
MODEL 2
REMARK VINA RESULT:    -7.451      1.793      6.862
REMARK INTER + INTRA:          -8.966
REMARK INTER:                  -8.675
REMARK INTRA:                  -0.291
REMARK UNBOUND:                -0.209
REMARK SMILES O=c1c(O)c(-c2ccc(O)cc2)oc2cc(O)cc(O)c12
REMARK SMILES IDX 5 1 3 2 2 3 1 4 21 5 19 6 18 7 16 8 15 9 14 10 13 11 6 12
REMARK SMILES IDX 7 13 8 14 9 15 12 16 11 17 10 18 4 20 20 22 17 24
REMARK H PARENT 10 19 4 21 20 23 17 25
REMARK Flexibility Score: inf
ROOT
ATOM      1  C   UNL     1       9.035  75.105  -1.210  1.00  0.00     0.180 A 
ATOM      2  C   UNL     1       7.776  75.271  -0.601  1.00  0.00     0.208 A 
ATOM      3  C   UNL     1       7.618  76.273   0.369  1.00  0.00     0.238 A 
ATOM      4  O   UNL     1       6.498  76.423   0.930  1.00  0.00    -0.285 OA
ATOM      5  C   UNL     1       8.710  77.102   0.698  1.00  0.00     0.111 A 
ATOM      6  C   UNL     1       8.634  78.138   1.661  1.00  0.00     0.134 A 
ATOM      7  C   UNL     1       9.763  78.926   1.926  1.00  0.00     0.093 A 
ATOM      8  C   UNL     1      10.965  78.700   1.246  1.00  0.00     0.123 A 
ATOM      9  C   UNL     1      11.045  77.681   0.296  1.00  0.00     0.094 A 
ATOM     10  C   UNL     1       9.931  76.883   0.019  1.00  0.00     0.146 A 
ATOM     11  O   UNL     1      10.037  75.917  -0.885  1.00  0.00    -0.452 OA
ENDROOT
BRANCH   1  12
ATOM     12  C   UNL     1       9.286  74.060  -2.227  1.00  0.00     0.021 A 
ATOM     13  C   UNL     1       9.053  74.344  -3.583  1.00  0.00     0.016 A 
ATOM     14  C   UNL     1       9.303  73.378  -4.564  1.00  0.00     0.047 A 
ATOM     15  C   UNL     1       9.806  72.122  -4.200  1.00  0.00     0.115 A 
ATOM     16  C   UNL     1       9.809  72.802  -1.873  1.00  0.00     0.016 A 
ATOM     17  C   UNL     1      10.059  71.839  -2.855  1.00  0.00     0.047 A 
BRANCH  15  18
ATOM     18  O   UNL     1      10.059  71.151  -5.167  1.00  0.00    -0.508 OA
ATOM     19  H   UNL     1      10.346  70.214  -4.913  1.00  0.00     0.293 HD
ENDBRANCH  15  18
ENDBRANCH   1  12
BRANCH   2  20
ATOM     20  O   UNL     1       6.698  74.468  -0.981  1.00  0.00    -0.502 OA
ATOM     21  H   UNL     1       5.830  74.855  -1.334  1.00  0.00     0.293 HD
ENDBRANCH   2  20
BRANCH   6  22
ATOM     22  O   UNL     1       7.448  78.387   2.355  1.00  0.00    -0.507 OA
ATOM     23  H   UNL     1       6.559  78.476   1.877  1.00  0.00     0.293 HD
ENDBRANCH   6  22
BRANCH   8  24
ATOM     24  O   UNL     1      12.086  79.484   1.509  1.00  0.00    -0.508 OA
ATOM     25  H   UNL     1      12.890  79.113   2.002  1.00  0.00     0.293 HD
ENDBRANCH   8  24
TORSDOF 5
ENDMDL
MODEL 3
REMARK VINA RESULT:    -7.322      1.816      6.947
REMARK INTER + INTRA:          -8.815
REMARK INTER:                  -8.544
REMARK INTRA:                  -0.271
REMARK UNBOUND:                -0.209
REMARK SMILES O=c1c(O)c(-c2ccc(O)cc2)oc2cc(O)cc(O)c12
REMARK SMILES IDX 5 1 3 2 2 3 1 4 21 5 19 6 18 7 16 8 15 9 14 10 13 11 6 12
REMARK SMILES IDX 7 13 8 14 9 15 12 16 11 17 10 18 4 20 20 22 17 24
REMARK H PARENT 10 19 4 21 20 23 17 25
REMARK Flexibility Score: inf
ROOT
ATOM      1  C   UNL     1      10.003  75.082  -1.301  1.00  0.00     0.180 A 
ATOM      2  C   UNL     1      11.219  75.734  -1.018  1.00  0.00     0.208 A 
ATOM      3  C   UNL     1      11.217  76.813  -0.120  1.00  0.00     0.238 A 
ATOM      4  O   UNL     1      12.298  77.412   0.134  1.00  0.00    -0.285 OA
ATOM      5  C   UNL     1      10.010  77.207   0.494  1.00  0.00     0.111 A 
ATOM      6  C   UNL     1       9.922  78.280   1.414  1.00  0.00     0.134 A 
ATOM      7  C   UNL     1       8.685  78.605   1.988  1.00  0.00     0.093 A 
ATOM      8  C   UNL     1       7.535  77.877   1.662  1.00  0.00     0.123 A 
ATOM      9  C   UNL     1       7.616  76.819   0.756  1.00  0.00     0.094 A 
ATOM     10  C   UNL     1       8.839  76.481   0.171  1.00  0.00     0.146 A 
ATOM     11  O   UNL     1       8.887  75.472  -0.692  1.00  0.00    -0.452 OA
ENDROOT
BRANCH   1  12
ATOM     12  C   UNL     1       9.920  73.951  -2.252  1.00  0.00     0.021 A 
ATOM     13  C   UNL     1       9.559  74.194  -3.587  1.00  0.00     0.016 A 
ATOM     14  C   UNL     1       9.495  73.144  -4.508  1.00  0.00     0.047 A 
ATOM     15  C   UNL     1       9.808  71.838  -4.107  1.00  0.00     0.115 A 
ATOM     16  C   UNL     1      10.252  72.639  -1.863  1.00  0.00     0.016 A 
ATOM     17  C   UNL     1      10.188  71.591  -2.784  1.00  0.00     0.047 A 
BRANCH  15  18
ATOM     18  O   UNL     1       9.748  70.783  -5.015  1.00  0.00    -0.508 OA
ATOM     19  H   UNL     1       9.863  70.934  -6.010  1.00  0.00     0.293 HD
ENDBRANCH  15  18
ENDBRANCH   1  12
BRANCH   2  20
ATOM     20  O   UNL     1      12.409  75.293  -1.602  1.00  0.00    -0.502 OA
ATOM     21  H   UNL     1      12.801  74.378  -1.409  1.00  0.00     0.293 HD
ENDBRANCH   2  20
BRANCH   6  22
ATOM     22  O   UNL     1      11.052  79.023   1.760  1.00  0.00    -0.507 OA
ATOM     23  H   UNL     1      11.069  80.033   1.684  1.00  0.00     0.293 HD
ENDBRANCH   6  22
BRANCH   8  24
ATOM     24  O   UNL     1       6.306  78.199   2.234  1.00  0.00    -0.508 OA
ATOM     25  H   UNL     1       5.463  78.271   1.675  1.00  0.00     0.293 HD
ENDBRANCH   8  24
TORSDOF 5
ENDMDL
MODEL 4
REMARK VINA RESULT:    -6.919      1.968      6.911
REMARK INTER + INTRA:          -8.341
REMARK INTER:                  -8.106
REMARK INTRA:                  -0.235
REMARK UNBOUND:                -0.209
REMARK SMILES O=c1c(O)c(-c2ccc(O)cc2)oc2cc(O)cc(O)c12
REMARK SMILES IDX 5 1 3 2 2 3 1 4 21 5 19 6 18 7 16 8 15 9 14 10 13 11 6 12
REMARK SMILES IDX 7 13 8 14 9 15 12 16 11 17 10 18 4 20 20 22 17 24
REMARK H PARENT 10 19 4 21 20 23 17 25
REMARK Flexibility Score: inf
ROOT
ATOM      1  C   UNL     1       9.668  75.217  -2.715  1.00  0.00     0.180 A 
ATOM      2  C   UNL     1       8.772  75.401  -1.644  1.00  0.00     0.208 A 
ATOM      3  C   UNL     1       8.927  76.524  -0.817  1.00  0.00     0.238 A 
ATOM      4  O   UNL     1       8.137  76.694   0.153  1.00  0.00    -0.285 OA
ATOM      5  C   UNL     1       9.955  77.450  -1.083  1.00  0.00     0.111 A 
ATOM      6  C   UNL     1      10.177  78.610  -0.301  1.00  0.00     0.134 A 
ATOM      7  C   UNL     1      11.217  79.488  -0.637  1.00  0.00     0.093 A 
ATOM      8  C   UNL     1      12.039  79.231  -1.740  1.00  0.00     0.123 A 
ATOM      9  C   UNL     1      11.825  78.090  -2.514  1.00  0.00     0.094 A 
ATOM     10  C   UNL     1      10.795  77.201  -2.194  1.00  0.00     0.146 A 
ATOM     11  O   UNL     1      10.617  76.120  -2.945  1.00  0.00    -0.452 OA
ENDROOT
BRANCH   1  12
ATOM     12  C   UNL     1       9.583  74.049  -3.620  1.00  0.00     0.021 A 
ATOM     13  C   UNL     1       9.154  74.231  -4.945  1.00  0.00     0.016 A 
ATOM     14  C   UNL     1       9.086  73.145  -5.825  1.00  0.00     0.047 A 
ATOM     15  C   UNL     1       9.462  71.867  -5.393  1.00  0.00     0.115 A 
ATOM     16  C   UNL     1       9.978  72.765  -3.201  1.00  0.00     0.016 A 
ATOM     17  C   UNL     1       9.910  71.681  -4.081  1.00  0.00     0.047 A 
BRANCH  15  18
ATOM     18  O   UNL     1       9.399  70.777  -6.259  1.00  0.00    -0.508 OA
ATOM     19  H   UNL     1      10.218  70.447  -6.755  1.00  0.00     0.293 HD
ENDBRANCH  15  18
ENDBRANCH   1  12
BRANCH   2  20
ATOM     20  O   UNL     1       7.731  74.495  -1.431  1.00  0.00    -0.502 OA
ATOM     21  H   UNL     1       6.851  74.768  -1.008  1.00  0.00     0.293 HD
ENDBRANCH   2  20
BRANCH   6  22
ATOM     22  O   UNL     1       9.373  78.894   0.805  1.00  0.00    -0.507 OA
ATOM     23  H   UNL     1       9.726  79.408   1.603  1.00  0.00     0.293 HD
ENDBRANCH   6  22
BRANCH   8  24
ATOM     24  O   UNL     1      13.072  80.104  -2.074  1.00  0.00    -0.508 OA
ATOM     25  H   UNL     1      13.772  79.858  -2.764  1.00  0.00     0.293 HD
ENDBRANCH   8  24
TORSDOF 5
ENDMDL
MODEL 5
REMARK VINA RESULT:    -6.857      2.051      2.420
REMARK INTER + INTRA:          -8.268
REMARK INTER:                  -8.145
REMARK INTRA:                  -0.123
REMARK UNBOUND:                -0.209
REMARK SMILES O=c1c(O)c(-c2ccc(O)cc2)oc2cc(O)cc(O)c12
REMARK SMILES IDX 5 1 3 2 2 3 1 4 21 5 19 6 18 7 16 8 15 9 14 10 13 11 6 12
REMARK SMILES IDX 7 13 8 14 9 15 12 16 11 17 10 18 4 20 20 22 17 24
REMARK H PARENT 10 19 4 21 20 23 17 25
REMARK Flexibility Score: inf
ROOT
ATOM      1  C   UNL     1       9.181  75.201  -1.798  1.00  0.00     0.180 A 
ATOM      2  C   UNL     1       8.566  74.891  -3.027  1.00  0.00     0.208 A 
ATOM      3  C   UNL     1       9.294  74.171  -3.987  1.00  0.00     0.238 A 
ATOM      4  O   UNL     1       8.757  73.897  -5.096  1.00  0.00    -0.285 OA
ATOM      5  C   UNL     1      10.610  73.757  -3.699  1.00  0.00     0.111 A 
ATOM      6  C   UNL     1      11.410  73.024  -4.609  1.00  0.00     0.134 A 
ATOM      7  C   UNL     1      12.708  72.641  -4.243  1.00  0.00     0.093 A 
ATOM      8  C   UNL     1      13.221  72.974  -2.984  1.00  0.00     0.123 A 
ATOM      9  C   UNL     1      12.437  73.696  -2.083  1.00  0.00     0.094 A 
ATOM     10  C   UNL     1      11.141  74.089  -2.430  1.00  0.00     0.146 A 
ATOM     11  O   UNL     1      10.419  74.780  -1.555  1.00  0.00    -0.452 OA
ENDROOT
BRANCH   1  12
ATOM     12  C   UNL     1       8.487  75.972  -0.743  1.00  0.00     0.021 A 
ATOM     13  C   UNL     1       8.955  77.251  -0.401  1.00  0.00     0.016 A 
ATOM     14  C   UNL     1       8.302  78.008   0.577  1.00  0.00     0.047 A 
ATOM     15  C   UNL     1       7.161  77.500   1.214  1.00  0.00     0.115 A 
ATOM     16  C   UNL     1       7.329  75.478  -0.114  1.00  0.00     0.016 A 
ATOM     17  C   UNL     1       6.677  76.235   0.863  1.00  0.00     0.047 A 
BRANCH  15  18
ATOM     18  O   UNL     1       6.502  78.243   2.190  1.00  0.00    -0.508 OA
ATOM     19  H   UNL     1       6.143  79.170   1.997  1.00  0.00     0.293 HD
ENDBRANCH  15  18
ENDBRANCH   1  12
BRANCH   2  20
ATOM     20  O   UNL     1       7.243  75.270  -3.269  1.00  0.00    -0.502 OA
ATOM     21  H   UNL     1       6.707  75.821  -2.608  1.00  0.00     0.293 HD
ENDBRANCH   2  20
BRANCH   6  22
ATOM     22  O   UNL     1      10.925  72.676  -5.871  1.00  0.00    -0.507 OA
ATOM     23  H   UNL     1       9.932  72.643  -6.071  1.00  0.00     0.293 HD
ENDBRANCH   6  22
BRANCH   8  24
ATOM     24  O   UNL     1      14.510  72.592  -2.620  1.00  0.00    -0.508 OA
ATOM     25  H   UNL     1      14.877  71.676  -2.851  1.00  0.00     0.293 HD
ENDBRANCH   8  24
TORSDOF 5
ENDMDL
MODEL 6
REMARK VINA RESULT:    -6.643      4.037      7.264
REMARK INTER + INTRA:          -8.016
REMARK INTER:                  -7.854
REMARK INTRA:                  -0.162
REMARK UNBOUND:                -0.209
REMARK SMILES O=c1c(O)c(-c2ccc(O)cc2)oc2cc(O)cc(O)c12
REMARK SMILES IDX 5 1 3 2 2 3 1 4 21 5 19 6 18 7 16 8 15 9 14 10 13 11 6 12
REMARK SMILES IDX 7 13 8 14 9 15 12 16 11 17 10 18 4 20 20 22 17 24
REMARK H PARENT 10 19 4 21 20 23 17 25
REMARK Flexibility Score: inf
ROOT
ATOM      1  C   UNL     1      12.882  75.502  -2.407  1.00  0.00     0.180 A 
ATOM      2  C   UNL     1      13.296  76.054  -3.635  1.00  0.00     0.208 A 
ATOM      3  C   UNL     1      13.888  77.326  -3.642  1.00  0.00     0.238 A 
ATOM      4  O   UNL     1      14.252  77.836  -4.737  1.00  0.00    -0.285 OA
ATOM      5  C   UNL     1      14.076  78.014  -2.426  1.00  0.00     0.111 A 
ATOM      6  C   UNL     1      14.669  79.298  -2.345  1.00  0.00     0.134 A 
ATOM      7  C   UNL     1      14.829  79.913  -1.095  1.00  0.00     0.093 A 
ATOM      8  C   UNL     1      14.409  79.269   0.075  1.00  0.00     0.123 A 
ATOM      9  C   UNL     1      13.825  78.005   0.001  1.00  0.00     0.094 A 
ATOM     10  C   UNL     1      13.655  77.376  -1.236  1.00  0.00     0.146 A 
ATOM     11  O   UNL     1      13.090  76.174  -1.278  1.00  0.00    -0.452 OA
ENDROOT
BRANCH   1  12
ATOM     12  C   UNL     1      12.233  74.175  -2.319  1.00  0.00     0.021 A 
ATOM     13  C   UNL     1      10.870  74.093  -1.990  1.00  0.00     0.016 A 
ATOM     14  C   UNL     1      10.229  72.852  -1.923  1.00  0.00     0.047 A 
ATOM     15  C   UNL     1      10.942  71.678  -2.202  1.00  0.00     0.115 A 
ATOM     16  C   UNL     1      12.935  72.993  -2.617  1.00  0.00     0.016 A 
ATOM     17  C   UNL     1      12.294  71.753  -2.550  1.00  0.00     0.047 A 
BRANCH  15  18
ATOM     18  O   UNL     1      10.315  70.435  -2.138  1.00  0.00    -0.508 OA
ATOM     19  H   UNL     1      10.847  69.573  -2.156  1.00  0.00     0.293 HD
ENDBRANCH  15  18
ENDBRANCH   1  12
BRANCH   2  20
ATOM     20  O   UNL     1      13.143  75.331  -4.821  1.00  0.00    -0.502 OA
ATOM     21  H   UNL     1      12.311  75.402  -5.396  1.00  0.00     0.293 HD
ENDBRANCH   2  20
BRANCH   6  22
ATOM     22  O   UNL     1      15.099  79.964  -3.494  1.00  0.00    -0.507 OA
ATOM     23  H   UNL     1      15.810  79.575  -4.101  1.00  0.00     0.293 HD
ENDBRANCH   6  22
BRANCH   8  24
ATOM     24  O   UNL     1      14.570  79.880   1.317  1.00  0.00    -0.508 OA
ATOM     25  H   UNL     1      14.528  80.887   1.422  1.00  0.00     0.293 HD
ENDBRANCH   8  24
TORSDOF 5
ENDMDL
MODEL 7
REMARK VINA RESULT:    -6.546      2.711      6.858
REMARK INTER + INTRA:          -7.902
REMARK INTER:                  -7.609
REMARK INTRA:                  -0.293
REMARK UNBOUND:                -0.209
REMARK SMILES O=c1c(O)c(-c2ccc(O)cc2)oc2cc(O)cc(O)c12
REMARK SMILES IDX 5 1 3 2 2 3 1 4 21 5 19 6 18 7 16 8 15 9 14 10 13 11 6 12
REMARK SMILES IDX 7 13 8 14 9 15 12 16 11 17 10 18 4 20 20 22 17 24
REMARK H PARENT 10 19 4 21 20 23 17 25
REMARK Flexibility Score: inf
ROOT
ATOM      1  C   UNL     1      11.264  74.943  -3.163  1.00  0.00     0.180 A 
ATOM      2  C   UNL     1      12.416  75.665  -3.532  1.00  0.00     0.208 A 
ATOM      3  C   UNL     1      12.844  76.724  -2.717  1.00  0.00     0.238 A 
ATOM      4  O   UNL     1      13.868  77.384  -3.043  1.00  0.00    -0.285 OA
ATOM      5  C   UNL     1      12.130  77.030  -1.540  1.00  0.00     0.111 A 
ATOM      6  C   UNL     1      12.496  78.078  -0.661  1.00  0.00     0.134 A 
ATOM      7  C   UNL     1      11.739  78.313   0.495  1.00  0.00     0.093 A 
ATOM      8  C   UNL     1      10.623  77.521   0.790  1.00  0.00     0.123 A 
ATOM      9  C   UNL     1      10.258  76.487  -0.073  1.00  0.00     0.094 A 
ATOM     10  C   UNL     1      10.999  76.238  -1.232  1.00  0.00     0.146 A 
ATOM     11  O   UNL     1      10.625  75.251  -2.038  1.00  0.00    -0.452 OA
ENDROOT
BRANCH   1  12
ATOM     12  C   UNL     1      10.740  73.826  -3.980  1.00  0.00     0.021 A 
ATOM     13  C   UNL     1      11.045  72.503  -3.621  1.00  0.00     0.016 A 
ATOM     14  C   UNL     1      10.542  71.432  -4.366  1.00  0.00     0.047 A 
ATOM     15  C   UNL     1       9.714  71.671  -5.470  1.00  0.00     0.115 A 
ATOM     16  C   UNL     1       9.890  74.057  -5.079  1.00  0.00     0.016 A 
ATOM     17  C   UNL     1       9.389  72.985  -5.822  1.00  0.00     0.047 A 
BRANCH  15  18
ATOM     18  O   UNL     1       9.207  70.612  -6.221  1.00  0.00    -0.508 OA
ATOM     19  H   UNL     1       8.454  70.030  -5.874  1.00  0.00     0.293 HD
ENDBRANCH  15  18
ENDBRANCH   1  12
BRANCH   2  20
ATOM     20  O   UNL     1      13.134  75.310  -4.677  1.00  0.00    -0.502 OA
ATOM     21  H   UNL     1      12.774  74.654  -5.362  1.00  0.00     0.293 HD
ENDBRANCH   2  20
BRANCH   6  22
ATOM     22  O   UNL     1      13.605  78.884  -0.928  1.00  0.00    -0.507 OA
ATOM     23  H   UNL     1      13.504  79.834  -1.264  1.00  0.00     0.293 HD
ENDBRANCH   6  22
BRANCH   8  24
ATOM     24  O   UNL     1       9.871  77.755   1.939  1.00  0.00    -0.508 OA
ATOM     25  H   UNL     1       9.968  78.612   2.471  1.00  0.00     0.293 HD
ENDBRANCH   8  24
TORSDOF 5
ENDMDL
MODEL 8
REMARK VINA RESULT:    -6.528      2.059      2.185
REMARK INTER + INTRA:          -7.881
REMARK INTER:                  -7.745
REMARK INTRA:                  -0.136
REMARK UNBOUND:                -0.209
REMARK SMILES O=c1c(O)c(-c2ccc(O)cc2)oc2cc(O)cc(O)c12
REMARK SMILES IDX 5 1 3 2 2 3 1 4 21 5 19 6 18 7 16 8 15 9 14 10 13 11 6 12
REMARK SMILES IDX 7 13 8 14 9 15 12 16 11 17 10 18 4 20 20 22 17 24
REMARK H PARENT 10 19 4 21 20 23 17 25
REMARK Flexibility Score: inf
ROOT
ATOM      1  C   UNL     1      10.079  75.946  -0.869  1.00  0.00     0.180 A 
ATOM      2  C   UNL     1      10.960  76.510  -1.814  1.00  0.00     0.208 A 
ATOM      3  C   UNL     1      11.571  75.670  -2.757  1.00  0.00     0.238 A 
ATOM      4  O   UNL     1      12.370  76.162  -3.601  1.00  0.00    -0.285 OA
ATOM      5  C   UNL     1      11.279  74.291  -2.756  1.00  0.00     0.111 A 
ATOM      6  C   UNL     1      11.848  73.376  -3.675  1.00  0.00     0.134 A 
ATOM      7  C   UNL     1      11.499  72.020  -3.614  1.00  0.00     0.093 A 
ATOM      8  C   UNL     1      10.591  71.560  -2.653  1.00  0.00     0.123 A 
ATOM      9  C   UNL     1      10.027  72.457  -1.745  1.00  0.00     0.094 A 
ATOM     10  C   UNL     1      10.364  73.813  -1.788  1.00  0.00     0.146 A 
ATOM     11  O   UNL     1       9.816  74.643  -0.908  1.00  0.00    -0.452 OA
ENDROOT
BRANCH   1  12
ATOM     12  C   UNL     1       9.411  76.762   0.169  1.00  0.00     0.021 A 
ATOM     13  C   UNL     1       8.008  76.802   0.221  1.00  0.00     0.016 A 
ATOM     14  C   UNL     1       7.355  77.548   1.207  1.00  0.00     0.047 A 
ATOM     15  C   UNL     1       8.099  78.252   2.163  1.00  0.00     0.115 A 
ATOM     16  C   UNL     1      10.151  77.456   1.146  1.00  0.00     0.016 A 
ATOM     17  C   UNL     1       9.496  78.201   2.131  1.00  0.00     0.047 A 
BRANCH  15  18
ATOM     18  O   UNL     1       7.461  79.000   3.150  1.00  0.00    -0.508 OA
ATOM     19  H   UNL     1       6.602  78.682   3.582  1.00  0.00     0.293 HD
ENDBRANCH  15  18
ENDBRANCH   1  12
BRANCH   2  20
ATOM     20  O   UNL     1      11.194  77.887  -1.825  1.00  0.00    -0.502 OA
ATOM     21  H   UNL     1      10.685  78.520  -2.432  1.00  0.00     0.293 HD
ENDBRANCH   2  20
BRANCH   6  22
ATOM     22  O   UNL     1      12.756  73.806  -4.645  1.00  0.00    -0.507 OA
ATOM     23  H   UNL     1      12.761  74.760  -4.985  1.00  0.00     0.293 HD
ENDBRANCH   6  22
BRANCH   8  24
ATOM     24  O   UNL     1      10.244  70.212  -2.593  1.00  0.00    -0.508 OA
ATOM     25  H   UNL     1      10.715  69.517  -3.161  1.00  0.00     0.293 HD
ENDBRANCH   8  24
TORSDOF 5
ENDMDL
MODEL 9
REMARK VINA RESULT:    -6.487      2.052      3.034
REMARK INTER + INTRA:          -7.833
REMARK INTER:                  -7.942
REMARK INTRA:                   0.108
REMARK UNBOUND:                -0.209
REMARK SMILES O=c1c(O)c(-c2ccc(O)cc2)oc2cc(O)cc(O)c12
REMARK SMILES IDX 5 1 3 2 2 3 1 4 21 5 19 6 18 7 16 8 15 9 14 10 13 11 6 12
REMARK SMILES IDX 7 13 8 14 9 15 12 16 11 17 10 18 4 20 20 22 17 24
REMARK H PARENT 10 19 4 21 20 23 17 25
REMARK Flexibility Score: inf
ROOT
ATOM      1  C   UNL     1       9.811  75.305  -1.082  1.00  0.00     0.180 A 
ATOM      2  C   UNL     1      11.195  75.339  -0.819  1.00  0.00     0.208 A 
ATOM      3  C   UNL     1      12.041  74.476  -1.532  1.00  0.00     0.238 A 
ATOM      4  O   UNL     1      13.281  74.489  -1.297  1.00  0.00    -0.285 OA
ATOM      5  C   UNL     1      11.498  73.613  -2.505  1.00  0.00     0.111 A 
ATOM      6  C   UNL     1      12.282  72.716  -3.271  1.00  0.00     0.134 A 
ATOM      7  C   UNL     1      11.667  71.896  -4.227  1.00  0.00     0.093 A 
ATOM      8  C   UNL     1      10.284  71.955  -4.434  1.00  0.00     0.123 A 
ATOM      9  C   UNL     1       9.507  72.837  -3.682  1.00  0.00     0.094 A 
ATOM     10  C   UNL     1      10.101  73.662  -2.723  1.00  0.00     0.146 A 
ATOM     11  O   UNL     1       9.337  74.489  -2.018  1.00  0.00    -0.452 OA
ENDROOT
BRANCH   1  12
ATOM     12  C   UNL     1       8.852  76.169  -0.358  1.00  0.00     0.021 A 
ATOM     13  C   UNL     1       7.681  75.607   0.176  1.00  0.00     0.016 A 
ATOM     14  C   UNL     1       6.771  76.400   0.882  1.00  0.00     0.047 A 
ATOM     15  C   UNL     1       7.030  77.763   1.076  1.00  0.00     0.115 A 
ATOM     16  C   UNL     1       9.114  77.536  -0.142  1.00  0.00     0.016 A 
ATOM     17  C   UNL     1       8.203  78.326   0.565  1.00  0.00     0.047 A 
BRANCH  15  18
ATOM     18  O   UNL     1       6.131  78.564   1.777  1.00  0.00    -0.508 OA
ATOM     19  H   UNL     1       6.197  78.679   2.782  1.00  0.00     0.293 HD
ENDBRANCH  15  18
ENDBRANCH   1  12
BRANCH   2  20
ATOM     20  O   UNL     1      11.714  76.238   0.116  1.00  0.00    -0.502 OA
ATOM     21  H   UNL     1      12.618  76.104   0.554  1.00  0.00     0.293 HD
ENDBRANCH   2  20
BRANCH   6  22
ATOM     22  O   UNL     1      13.664  72.634  -3.087  1.00  0.00    -0.507 OA
ATOM     23  H   UNL     1      14.177  73.345  -2.580  1.00  0.00     0.293 HD
ENDBRANCH   6  22
BRANCH   8  24
ATOM     24  O   UNL     1       9.674  71.141  -5.385  1.00  0.00    -0.508 OA
ATOM     25  H   UNL     1       8.957  70.472  -5.129  1.00  0.00     0.293 HD
ENDBRANCH   8  24
TORSDOF 5
ENDMDL
