MODEL 1
REMARK VINA RESULT:    -3.576      0.000      0.000
REMARK INTER + INTRA:          -4.346
REMARK INTER:                  -4.203
REMARK INTRA:                  -0.143
REMARK UNBOUND:                -0.143
REMARK SMILES O=C([O-])C=Cc1ccc(O)c(O)c1
REMARK SMILES IDX 6 1 13 2 7 3 11 4 8 5 9 6 5 7 4 8 2 9 1 10 3 11 12 12 10 14
REMARK H PARENT 12 13 10 15
REMARK Flexibility Score: inf
ROOT
ATOM      1  C   UNL     1      72.070  41.293  21.508  1.00  0.00    -0.022 A 
ATOM      2  C   UNL     1      71.279  41.868  20.498  1.00  0.00     0.058 A 
ATOM      3  C   UNL     1      71.485  40.352  22.377  1.00  0.00     0.012 A 
ATOM      4  C   UNL     1      69.923  41.532  20.372  1.00  0.00     0.157 A 
ATOM      5  C   UNL     1      70.134  40.016  22.250  1.00  0.00     0.051 A 
ATOM      6  C   UNL     1      69.349  40.603  21.254  1.00  0.00     0.157 A 
ENDROOT
BRANCH   1   7
ATOM      7  C   UNL     1      73.501  41.675  21.592  1.00  0.00     0.010 C 
ATOM      8  C   UNL     1      74.429  40.952  22.235  1.00  0.00     0.025 C 
BRANCH   8   9
ATOM      9  C   UNL     1      75.836  41.377  22.303  1.00  0.00     0.064 C 
ATOM     10  O   UNL     1      76.315  42.089  21.381  1.00  0.00    -0.545 OA
ATOM     11  O   UNL     1      76.648  41.007  23.370  1.00  0.00    -0.545 OA
ENDBRANCH   8   9
ENDBRANCH   1   7
BRANCH   4  12
ATOM     12  O   UNL     1      69.148  42.118  19.372  1.00  0.00    -0.504 OA
ATOM     13  H   UNL     1      69.235  41.842  18.401  1.00  0.00     0.293 HD
ENDBRANCH   4  12
BRANCH   6  14
ATOM     14  O   UNL     1      68.003  40.249  21.154  1.00  0.00    -0.504 OA
ATOM     15  H   UNL     1      67.281  40.727  21.681  1.00  0.00     0.293 HD
ENDBRANCH   6  14
TORSDOF 4
ENDMDL
MODEL 2
REMARK VINA RESULT:    -3.533      1.325      2.157
REMARK INTER + INTRA:          -4.296
REMARK INTER:                  -4.166
REMARK INTRA:                  -0.130
REMARK UNBOUND:                -0.143
REMARK SMILES O=C([O-])C=Cc1ccc(O)c(O)c1
REMARK SMILES IDX 6 1 13 2 7 3 11 4 8 5 9 6 5 7 4 8 2 9 1 10 3 11 12 12 10 14
REMARK H PARENT 12 13 10 15
REMARK Flexibility Score: inf
ROOT
ATOM      1  C   UNL     1      73.145  41.239  20.910  1.00  0.00    -0.022 A 
ATOM      2  C   UNL     1      72.454  40.735  22.024  1.00  0.00     0.058 A 
ATOM      3  C   UNL     1      72.405  41.755  19.827  1.00  0.00     0.012 A 
ATOM      4  C   UNL     1      71.052  40.718  22.051  1.00  0.00     0.157 A 
ATOM      5  C   UNL     1      71.008  41.739  19.854  1.00  0.00     0.051 A 
ATOM      6  C   UNL     1      70.327  41.221  20.959  1.00  0.00     0.157 A 
ENDROOT
BRANCH   1   7
ATOM      7  C   UNL     1      74.628  41.243  20.936  1.00  0.00     0.010 C 
ATOM      8  C   UNL     1      75.355  41.733  21.950  1.00  0.00     0.025 C 
BRANCH   8   9
ATOM      9  C   UNL     1      76.826  41.727  21.926  1.00  0.00     0.064 C 
ATOM     10  O   UNL     1      77.430  41.781  20.822  1.00  0.00    -0.545 OA
ATOM     11  O   UNL     1      77.563  41.664  23.104  1.00  0.00    -0.545 OA
ENDBRANCH   8   9
ENDBRANCH   1   7
BRANCH   4  12
ATOM     12  O   UNL     1      70.379  40.205  23.159  1.00  0.00    -0.504 OA
ATOM     13  H   UNL     1      70.644  39.322  23.580  1.00  0.00     0.293 HD
ENDBRANCH   4  12
BRANCH   6  14
ATOM     14  O   UNL     1      68.932  41.218  20.955  1.00  0.00    -0.504 OA
ATOM     15  H   UNL     1      68.396  41.492  20.140  1.00  0.00     0.293 HD
ENDBRANCH   6  14
TORSDOF 4
ENDMDL
MODEL 3
REMARK VINA RESULT:    -3.528      1.139      5.993
REMARK INTER + INTRA:          -4.291
REMARK INTER:                  -4.165
REMARK INTRA:                  -0.126
REMARK UNBOUND:                -0.143
REMARK SMILES O=C([O-])C=Cc1ccc(O)c(O)c1
REMARK SMILES IDX 6 1 13 2 7 3 11 4 8 5 9 6 5 7 4 8 2 9 1 10 3 11 12 12 10 14
REMARK H PARENT 12 13 10 15
REMARK Flexibility Score: inf
ROOT
ATOM      1  C   UNL     1      72.828  41.084  21.116  1.00  0.00    -0.022 A 
ATOM      2  C   UNL     1      73.174  40.237  22.182  1.00  0.00     0.058 A 
ATOM      3  C   UNL     1      73.773  42.023  20.659  1.00  0.00     0.012 A 
ATOM      4  C   UNL     1      74.428  40.341  22.802  1.00  0.00     0.157 A 
ATOM      5  C   UNL     1      75.023  42.125  21.275  1.00  0.00     0.051 A 
ATOM      6  C   UNL     1      75.354  41.291  22.347  1.00  0.00     0.157 A 
ENDROOT
BRANCH   1   7
ATOM      7  C   UNL     1      71.492  40.927  20.489  1.00  0.00     0.010 C 
ATOM      8  C   UNL     1      70.392  41.567  20.908  1.00  0.00     0.025 C 
BRANCH   8   9
ATOM      9  C   UNL     1      69.085  41.371  20.263  1.00  0.00     0.064 C 
ATOM     10  O   UNL     1      68.902  41.789  19.089  1.00  0.00    -0.545 OA
ATOM     11  O   UNL     1      68.045  40.728  20.925  1.00  0.00    -0.545 OA
ENDBRANCH   8   9
ENDBRANCH   1   7
BRANCH   4  12
ATOM     12  O   UNL     1      74.753  39.501  23.867  1.00  0.00    -0.504 OA
ATOM     13  H   UNL     1      74.079  39.268  24.585  1.00  0.00     0.293 HD
ENDBRANCH   4  12
BRANCH   6  14
ATOM     14  O   UNL     1      76.610  41.419  22.942  1.00  0.00    -0.504 OA
ATOM     15  H   UNL     1      77.349  41.971  22.523  1.00  0.00     0.293 HD
ENDBRANCH   6  14
TORSDOF 4
ENDMDL
MODEL 4
REMARK VINA RESULT:    -3.466      1.447      6.184
REMARK INTER + INTRA:          -4.218
REMARK INTER:                  -4.078
REMARK INTRA:                  -0.139
REMARK UNBOUND:                -0.143
REMARK SMILES O=C([O-])C=Cc1ccc(O)c(O)c1
REMARK SMILES IDX 6 1 13 2 7 3 11 4 8 5 9 6 5 7 4 8 2 9 1 10 3 11 12 12 10 14
REMARK H PARENT 12 13 10 15
REMARK Flexibility Score: inf
ROOT
ATOM      1  C   UNL     1      73.731  41.178  21.388  1.00  0.00    -0.022 A 
ATOM      2  C   UNL     1      74.692  41.497  22.363  1.00  0.00     0.058 A 
ATOM      3  C   UNL     1      74.150  40.989  20.057  1.00  0.00     0.012 A 
ATOM      4  C   UNL     1      76.042  41.651  22.015  1.00  0.00     0.157 A 
ATOM      5  C   UNL     1      75.495  41.141  19.711  1.00  0.00     0.051 A 
ATOM      6  C   UNL     1      76.443  41.474  20.682  1.00  0.00     0.157 A 
ENDROOT
BRANCH   1   7
ATOM      7  C   UNL     1      72.318  41.017  21.810  1.00  0.00     0.010 C 
ATOM      8  C   UNL     1      71.283  40.999  20.958  1.00  0.00     0.025 C 
BRANCH   8   9
ATOM      9  C   UNL     1      69.896  40.848  21.424  1.00  0.00     0.064 C 
ATOM     10  O   UNL     1      69.538  39.774  21.976  1.00  0.00    -0.545 OA
ATOM     11  O   UNL     1      68.969  41.874  21.266  1.00  0.00    -0.545 OA
ENDBRANCH   8   9
ENDBRANCH   1   7
BRANCH   4  12
ATOM     12  O   UNL     1      76.983  41.977  22.991  1.00  0.00    -0.504 OA
ATOM     13  H   UNL     1      76.766  42.619  23.744  1.00  0.00     0.293 HD
ENDBRANCH   4  12
BRANCH   6  14
ATOM     14  O   UNL     1      77.778  41.621  20.304  1.00  0.00    -0.504 OA
ATOM     15  H   UNL     1      78.474  42.010  20.930  1.00  0.00     0.293 HD
ENDBRANCH   6  14
TORSDOF 4
ENDMDL
MODEL 5
REMARK VINA RESULT:    -3.248      2.007      5.990
REMARK INTER + INTRA:          -3.961
REMARK INTER:                  -3.830
REMARK INTRA:                  -0.131
REMARK UNBOUND:                -0.143
REMARK SMILES O=C([O-])C=Cc1ccc(O)c(O)c1
REMARK SMILES IDX 6 1 13 2 7 3 11 4 8 5 9 6 5 7 4 8 2 9 1 10 3 11 12 12 10 14
REMARK H PARENT 12 13 10 15
REMARK Flexibility Score: inf
ROOT
ATOM      1  C   UNL     1      74.305  41.211  21.450  1.00  0.00    -0.022 A 
ATOM      2  C   UNL     1      74.544  40.907  20.100  1.00  0.00     0.058 A 
ATOM      3  C   UNL     1      75.358  41.732  22.227  1.00  0.00     0.012 A 
ATOM      4  C   UNL     1      75.816  41.092  19.538  1.00  0.00     0.157 A 
ATOM      5  C   UNL     1      76.625  41.918  21.667  1.00  0.00     0.051 A 
ATOM      6  C   UNL     1      76.860  41.598  20.327  1.00  0.00     0.157 A 
ENDROOT
BRANCH   1   7
ATOM      7  C   UNL     1      72.939  41.006  21.993  1.00  0.00     0.010 C 
ATOM      8  C   UNL     1      71.820  41.373  21.354  1.00  0.00     0.025 C 
BRANCH   8   9
ATOM      9  C   UNL     1      70.486  41.160  21.937  1.00  0.00     0.064 C 
ATOM     10  O   UNL     1      70.291  40.176  22.699  1.00  0.00    -0.545 OA
ATOM     11  O   UNL     1      69.435  42.029  21.664  1.00  0.00    -0.545 OA
ENDBRANCH   8   9
ENDBRANCH   1   7
BRANCH   4  12
ATOM     12  O   UNL     1      76.042  40.776  18.199  1.00  0.00    -0.504 OA
ATOM     13  H   UNL     1      75.293  40.786  17.517  1.00  0.00     0.293 HD
ENDBRANCH   4  12
BRANCH   6  14
ATOM     14  O   UNL     1      78.136  41.794  19.798  1.00  0.00    -0.504 OA
ATOM     15  H   UNL     1      78.873  42.249  20.325  1.00  0.00     0.293 HD
ENDBRANCH   6  14
TORSDOF 4
ENDMDL
MODEL 6
REMARK VINA RESULT:    -3.159      2.312      2.891
REMARK INTER + INTRA:          -3.856
REMARK INTER:                  -3.713
REMARK INTRA:                  -0.143
REMARK UNBOUND:                -0.143
REMARK SMILES O=C([O-])C=Cc1ccc(O)c(O)c1
REMARK SMILES IDX 6 1 13 2 7 3 11 4 8 5 9 6 5 7 4 8 2 9 1 10 3 11 12 12 10 14
REMARK H PARENT 12 13 10 15
REMARK Flexibility Score: inf
ROOT
ATOM      1  C   UNL     1      73.641  41.061  20.969  1.00  0.00    -0.022 A 
ATOM      2  C   UNL     1      72.839  41.827  21.831  1.00  0.00     0.058 A 
ATOM      3  C   UNL     1      73.154  39.822  20.509  1.00  0.00     0.012 A 
ATOM      4  C   UNL     1      71.585  41.358  22.250  1.00  0.00     0.157 A 
ATOM      5  C   UNL     1      71.905  39.355  20.925  1.00  0.00     0.051 A 
ATOM      6  C   UNL     1      71.119  40.114  21.796  1.00  0.00     0.157 A 
ENDROOT
BRANCH   1   7
ATOM      7  C   UNL     1      74.955  41.608  20.548  1.00  0.00     0.010 C 
ATOM      8  C   UNL     1      75.717  41.062  19.590  1.00  0.00     0.025 C 
BRANCH   8   9
ATOM      9  C   UNL     1      77.020  41.633  19.214  1.00  0.00     0.064 C 
ATOM     10  O   UNL     1      77.820  42.002  20.114  1.00  0.00    -0.545 OA
ATOM     11  O   UNL     1      77.386  41.770  17.879  1.00  0.00    -0.545 OA
ENDBRANCH   8   9
ENDBRANCH   1   7
BRANCH   4  12
ATOM     12  O   UNL     1      70.804  42.124  23.114  1.00  0.00    -0.504 OA
ATOM     13  H   UNL     1      69.967  42.596  22.796  1.00  0.00     0.293 HD
ENDBRANCH   4  12
BRANCH   6  14
ATOM     14  O   UNL     1      69.877  39.619  22.194  1.00  0.00    -0.504 OA
ATOM     15  H   UNL     1      69.498  38.757  21.822  1.00  0.00     0.293 HD
ENDBRANCH   6  14
TORSDOF 4
ENDMDL
MODEL 7
REMARK VINA RESULT:    -3.007      2.223      2.992
REMARK INTER + INTRA:          -3.678
REMARK INTER:                  -3.550
REMARK INTRA:                  -0.128
REMARK UNBOUND:                -0.143
REMARK SMILES O=C([O-])C=Cc1ccc(O)c(O)c1
REMARK SMILES IDX 6 1 13 2 7 3 11 4 8 5 9 6 5 7 4 8 2 9 1 10 3 11 12 12 10 14
REMARK H PARENT 12 13 10 15
REMARK Flexibility Score: inf
ROOT
ATOM      1  C   UNL     1      74.195  41.084  21.524  1.00  0.00    -0.022 A 
ATOM      2  C   UNL     1      73.761  39.806  21.132  1.00  0.00     0.058 A 
ATOM      3  C   UNL     1      73.278  41.952  22.147  1.00  0.00     0.012 A 
ATOM      4  C   UNL     1      72.431  39.409  21.331  1.00  0.00     0.157 A 
ATOM      5  C   UNL     1      71.953  41.556  22.347  1.00  0.00     0.051 A 
ATOM      6  C   UNL     1      71.523  40.290  21.940  1.00  0.00     0.157 A 
ENDROOT
BRANCH   1   7
ATOM      7  C   UNL     1      75.615  41.451  21.299  1.00  0.00     0.010 C 
ATOM      8  C   UNL     1      76.271  41.225  20.152  1.00  0.00     0.025 C 
BRANCH   8   9
ATOM      9  C   UNL     1      77.684  41.596  19.979  1.00  0.00     0.064 C 
ATOM     10  O   UNL     1      78.060  42.125  18.899  1.00  0.00    -0.545 OA
ATOM     11  O   UNL     1      78.615  41.375  20.988  1.00  0.00    -0.545 OA
ENDBRANCH   8   9
ENDBRANCH   1   7
BRANCH   4  12
ATOM     12  O   UNL     1      72.011  38.142  20.928  1.00  0.00    -0.504 OA
ATOM     13  H   UNL     1      72.549  37.588  20.272  1.00  0.00     0.293 HD
ENDBRANCH   4  12
BRANCH   6  14
ATOM     14  O   UNL     1      70.194  39.925  22.151  1.00  0.00    -0.504 OA
ATOM     15  H   UNL     1      69.866  38.977  22.003  1.00  0.00     0.293 HD
ENDBRANCH   6  14
TORSDOF 4
ENDMDL
MODEL 8
REMARK VINA RESULT:    -2.982      1.434      2.052
REMARK INTER + INTRA:          -3.649
REMARK INTER:                  -3.523
REMARK INTRA:                  -0.125
REMARK UNBOUND:                -0.143
REMARK SMILES O=C([O-])C=Cc1ccc(O)c(O)c1
REMARK SMILES IDX 6 1 13 2 7 3 11 4 8 5 9 6 5 7 4 8 2 9 1 10 3 11 12 12 10 14
REMARK H PARENT 12 13 10 15
REMARK Flexibility Score: inf
ROOT
ATOM      1  C   UNL     1      73.298  40.728  21.640  1.00  0.00    -0.022 A 
ATOM      2  C   UNL     1      73.386  41.044  20.273  1.00  0.00     0.058 A 
ATOM      3  C   UNL     1      72.030  40.704  22.252  1.00  0.00     0.012 A 
ATOM      4  C   UNL     1      72.236  41.357  19.535  1.00  0.00     0.157 A 
ATOM      5  C   UNL     1      70.883  41.015  21.516  1.00  0.00     0.051 A 
ATOM      6  C   UNL     1      70.980  41.344  20.161  1.00  0.00     0.157 A 
ENDROOT
BRANCH   1   7
ATOM      7  C   UNL     1      74.544  40.394  22.373  1.00  0.00     0.010 C 
ATOM      8  C   UNL     1      75.477  41.297  22.707  1.00  0.00     0.025 C 
BRANCH   8   9
ATOM      9  C   UNL     1      76.704  40.918  23.424  1.00  0.00     0.064 C 
ATOM     10  O   UNL     1      77.806  41.421  23.080  1.00  0.00    -0.545 OA
ATOM     11  O   UNL     1      76.669  40.013  24.480  1.00  0.00    -0.545 OA
ENDBRANCH   8   9
ENDBRANCH   1   7
BRANCH   4  12
ATOM     12  O   UNL     1      72.339  41.680  18.182  1.00  0.00    -0.504 OA
ATOM     13  H   UNL     1      71.858  42.479  17.788  1.00  0.00     0.293 HD
ENDBRANCH   4  12
BRANCH   6  14
ATOM     14  O   UNL     1      69.817  41.652  19.454  1.00  0.00    -0.504 OA
ATOM     15  H   UNL     1      69.000  41.052  19.475  1.00  0.00     0.293 HD
ENDBRANCH   6  14
TORSDOF 4
ENDMDL
