MODEL 1
REMARK VINA RESULT:    -2.763      0.000      0.000
REMARK INTER + INTRA:          -7.471
REMARK INTER:                  -5.024
REMARK INTRA:                  -2.447
REMARK UNBOUND:                -2.447
REMARK SMILES CCCCCCCCCCCCCCCC(=O)[O-]
REMARK SMILES IDX 9 1 10 2 11 3 12 4 13 5 14 6 15 7 16 8 17 9 18 10 8 11 7 12
REMARK SMILES IDX 6 13 5 14 4 15 3 16 2 17 1 18
REMARK H PARENT
REMARK Flexibility Score: inf
ROOT
ATOM      1  C   UNL     1      59.849  25.231  49.597  1.00  0.00     0.000 C 
ENDROOT
BRANCH   1   2
ATOM      2  C   UNL     1      60.627  24.073  50.241  1.00  0.00     0.000 C 
BRANCH   2   3
ATOM      3  C   UNL     1      62.131  24.374  50.372  1.00  0.00     0.000 C 
BRANCH   3   4
ATOM      4  C   UNL     1      62.476  25.824  49.996  1.00  0.00     0.000 C 
BRANCH   4   5
ATOM      5  C   UNL     1      63.700  26.356  50.763  1.00  0.00     0.000 C 
BRANCH   5   6
ATOM      6  C   UNL     1      64.708  27.075  49.847  1.00  0.00     0.006 C 
BRANCH   6   7
ATOM      7  C   UNL     1      64.181  27.361  48.431  1.00  0.00     0.053 C 
BRANCH   7   8
ATOM      8  C   UNL     1      64.756  28.621  47.862  1.00  0.00     0.041 C 
ATOM      9  O   UNL     1      64.471  29.735  48.375  1.00  0.00    -0.550 OA
ATOM     10  O   UNL     1      65.577  28.568  46.742  1.00  0.00    -0.550 OA
ENDBRANCH   7   8
ENDBRANCH   6   7
ENDBRANCH   5   6
ENDBRANCH   4   5
ENDBRANCH   3   4
ENDBRANCH   2   3
ENDBRANCH   1   2
BRANCH   1  11
ATOM     11  C   UNL     1      58.407  25.338  50.124  1.00  0.00     0.000 C 
BRANCH  11  12
ATOM     12  C   UNL     1      58.329  25.239  51.655  1.00  0.00    -0.000 C 
BRANCH  12  13
ATOM     13  C   UNL     1      58.589  26.586  52.348  1.00  0.00    -0.000 C 
BRANCH  13  14
ATOM     14  C   UNL     1      60.023  26.658  52.887  1.00  0.00    -0.000 C 
BRANCH  14  15
ATOM     15  C   UNL     1      60.695  27.981  52.488  1.00  0.00    -0.000 C 
BRANCH  15  16
ATOM     16  C   UNL     1      60.063  28.613  51.237  1.00  0.00    -0.000 C 
BRANCH  16  17
ATOM     17  C   UNL     1      61.112  29.122  50.239  1.00  0.00    -0.003 C 
ATOM     18  C   UNL     1      62.209  29.912  50.949  1.00  0.00     0.004 C 
ENDBRANCH  16  17
ENDBRANCH  15  16
ENDBRANCH  14  15
ENDBRANCH  13  14
ENDBRANCH  12  13
ENDBRANCH  11  12
ENDBRANCH   1  11
TORSDOF 14
ENDMDL
MODEL 2
REMARK VINA RESULT:    -2.739      9.821     12.056
REMARK INTER + INTRA:          -7.427
REMARK INTER:                  -5.746
REMARK INTRA:                  -1.682
REMARK UNBOUND:                -2.447
REMARK SMILES CCCCCCCCCCCCCCCC(=O)[O-]
REMARK SMILES IDX 9 1 10 2 11 3 12 4 13 5 14 6 15 7 16 8 17 9 18 10 8 11 7 12
REMARK SMILES IDX 6 13 5 14 4 15 3 16 2 17 1 18
REMARK H PARENT
REMARK Flexibility Score: inf
ROOT
ATOM      1  C   UNL     1      65.437  30.675  60.566  1.00  0.00     0.000 C 
ENDROOT
BRANCH   1   2
ATOM      2  C   UNL     1      64.432  29.998  61.509  1.00  0.00     0.000 C 
BRANCH   2   3
ATOM      3  C   UNL     1      63.931  28.647  60.966  1.00  0.00     0.000 C 
BRANCH   3   4
ATOM      4  C   UNL     1      62.511  28.310  61.446  1.00  0.00     0.000 C 
BRANCH   4   5
ATOM      5  C   UNL     1      61.432  29.117  60.702  1.00  0.00     0.000 C 
BRANCH   5   6
ATOM      6  C   UNL     1      61.342  28.751  59.208  1.00  0.00     0.006 C 
BRANCH   6   7
ATOM      7  C   UNL     1      61.337  29.963  58.262  1.00  0.00     0.053 C 
BRANCH   7   8
ATOM      8  C   UNL     1      60.073  30.758  58.373  1.00  0.00     0.041 C 
ATOM      9  O   UNL     1      58.968  30.239  58.063  1.00  0.00    -0.550 OA
ATOM     10  O   UNL     1      60.119  32.085  58.786  1.00  0.00    -0.550 OA
ENDBRANCH   7   8
ENDBRANCH   6   7
ENDBRANCH   5   6
ENDBRANCH   4   5
ENDBRANCH   3   4
ENDBRANCH   2   3
ENDBRANCH   1   2
BRANCH   1  11
ATOM     11  C   UNL     1      65.054  32.130  60.241  1.00  0.00     0.000 C 
BRANCH  11  12
ATOM     12  C   UNL     1      63.706  32.237  59.510  1.00  0.00    -0.000 C 
BRANCH  12  13
ATOM     13  C   UNL     1      63.339  33.687  59.158  1.00  0.00    -0.000 C 
BRANCH  13  14
ATOM     14  C   UNL     1      64.592  34.507  58.829  1.00  0.00    -0.000 C 
BRANCH  14  15
ATOM     15  C   UNL     1      64.631  35.805  59.650  1.00  0.00    -0.000 C 
BRANCH  15  16
ATOM     16  C   UNL     1      63.478  35.902  60.661  1.00  0.00    -0.000 C 
BRANCH  16  17
ATOM     17  C   UNL     1      63.970  35.936  62.116  1.00  0.00    -0.003 C 
ATOM     18  C   UNL     1      65.383  35.372  62.231  1.00  0.00     0.004 C 
ENDBRANCH  16  17
ENDBRANCH  15  16
ENDBRANCH  14  15
ENDBRANCH  13  14
ENDBRANCH  12  13
ENDBRANCH  11  12
ENDBRANCH   1  11
TORSDOF 14
ENDMDL
MODEL 3
REMARK VINA RESULT:    -2.734     11.666     12.854
REMARK INTER + INTRA:          -7.418
REMARK INTER:                  -6.330
REMARK INTRA:                  -1.088
REMARK UNBOUND:                -2.447
REMARK SMILES CCCCCCCCCCCCCCCC(=O)[O-]
REMARK SMILES IDX 9 1 10 2 11 3 12 4 13 5 14 6 15 7 16 8 17 9 18 10 8 11 7 12
REMARK SMILES IDX 6 13 5 14 4 15 3 16 2 17 1 18
REMARK H PARENT
REMARK Flexibility Score: inf
ROOT
ATOM      1  C   UNL     1      66.543  27.780  59.222  1.00  0.00     0.000 C 
ENDROOT
BRANCH   1   2
ATOM      2  C   UNL     1      67.736  28.682  59.575  1.00  0.00     0.000 C 
BRANCH   2   3
ATOM      3  C   UNL     1      67.922  28.846  61.094  1.00  0.00     0.000 C 
BRANCH   3   4
ATOM      4  C   UNL     1      69.319  28.413  61.566  1.00  0.00     0.000 C 
BRANCH   4   5
ATOM      5  C   UNL     1      70.313  28.261  60.401  1.00  0.00     0.000 C 
BRANCH   5   6
ATOM      6  C   UNL     1      71.700  28.845  60.725  1.00  0.00     0.006 C 
BRANCH   6   7
ATOM      7  C   UNL     1      71.664  30.255  61.338  1.00  0.00     0.053 C 
BRANCH   7   8
ATOM      8  C   UNL     1      72.681  31.164  60.719  1.00  0.00     0.041 C 
ATOM      9  O   UNL     1      73.744  30.691  60.239  1.00  0.00    -0.550 OA
ATOM     10  O   UNL     1      72.469  32.537  60.705  1.00  0.00    -0.550 OA
ENDBRANCH   7   8
ENDBRANCH   6   7
ENDBRANCH   5   6
ENDBRANCH   4   5
ENDBRANCH   3   4
ENDBRANCH   2   3
ENDBRANCH   1   2
BRANCH   1  11
ATOM     11  C   UNL     1      65.582  27.582  60.407  1.00  0.00     0.000 C 
BRANCH  11  12
ATOM     12  C   UNL     1      64.336  28.477  60.314  1.00  0.00    -0.000 C 
BRANCH  12  13
ATOM     13  C   UNL     1      64.479  29.775  61.123  1.00  0.00    -0.000 C 
BRANCH  13  14
ATOM     14  C   UNL     1      64.650  30.984  60.196  1.00  0.00    -0.000 C 
BRANCH  14  15
ATOM     15  C   UNL     1      65.028  32.241  60.995  1.00  0.00    -0.000 C 
BRANCH  15  16
ATOM     16  C   UNL     1      64.909  33.529  60.165  1.00  0.00    -0.000 C 
BRANCH  16  17
ATOM     17  C   UNL     1      64.381  34.714  60.986  1.00  0.00    -0.003 C 
ATOM     18  C   UNL     1      65.424  35.192  61.993  1.00  0.00     0.004 C 
ENDBRANCH  16  17
ENDBRANCH  15  16
ENDBRANCH  14  15
ENDBRANCH  13  14
ENDBRANCH  12  13
ENDBRANCH  11  12
ENDBRANCH   1  11
TORSDOF 14
ENDMDL
MODEL 4
REMARK VINA RESULT:    -2.695     11.001     12.415
REMARK INTER + INTRA:          -7.348
REMARK INTER:                  -5.564
REMARK INTRA:                  -1.784
REMARK UNBOUND:                -2.447
REMARK SMILES CCCCCCCCCCCCCCCC(=O)[O-]
REMARK SMILES IDX 9 1 10 2 11 3 12 4 13 5 14 6 15 7 16 8 17 9 18 10 8 11 7 12
REMARK SMILES IDX 6 13 5 14 4 15 3 16 2 17 1 18
REMARK H PARENT
REMARK Flexibility Score: inf
ROOT
ATOM      1  C   UNL     1      66.310  28.190  58.993  1.00  0.00     0.000 C 
ENDROOT
BRANCH   1   2
ATOM      2  C   UNL     1      66.629  27.750  60.429  1.00  0.00     0.000 C 
BRANCH   2   3
ATOM      3  C   UNL     1      68.118  27.412  60.625  1.00  0.00     0.000 C 
BRANCH   3   4
ATOM      4  C   UNL     1      68.763  28.227  61.757  1.00  0.00     0.000 C 
BRANCH   4   5
ATOM      5  C   UNL     1      69.679  29.345  61.229  1.00  0.00     0.000 C 
BRANCH   5   6
ATOM      6  C   UNL     1      71.122  28.864  60.986  1.00  0.00     0.006 C 
BRANCH   6   7
ATOM      7  C   UNL     1      72.202  29.875  61.407  1.00  0.00     0.053 C 
BRANCH   7   8
ATOM      8  C   UNL     1      72.418  30.932  60.367  1.00  0.00     0.041 C 
ATOM      9  O   UNL     1      72.446  30.623  59.147  1.00  0.00    -0.550 OA
ATOM     10  O   UNL     1      72.624  32.252  60.750  1.00  0.00    -0.550 OA
ENDBRANCH   7   8
ENDBRANCH   6   7
ENDBRANCH   5   6
ENDBRANCH   4   5
ENDBRANCH   3   4
ENDBRANCH   2   3
ENDBRANCH   1   2
BRANCH   1  11
ATOM     11  C   UNL     1      66.011  29.697  58.889  1.00  0.00     0.000 C 
BRANCH  11  12
ATOM     12  C   UNL     1      66.122  30.415  60.244  1.00  0.00    -0.000 C 
BRANCH  12  13
ATOM     13  C   UNL     1      64.751  30.786  60.829  1.00  0.00    -0.000 C 
BRANCH  13  14
ATOM     14  C   UNL     1      63.646  30.641  59.776  1.00  0.00    -0.000 C 
BRANCH  14  15
ATOM     15  C   UNL     1      62.618  29.581  60.200  1.00  0.00    -0.000 C 
BRANCH  15  16
ATOM     16  C   UNL     1      62.940  28.955  61.566  1.00  0.00    -0.000 C 
BRANCH  16  17
ATOM     17  C   UNL     1      62.965  27.421  61.523  1.00  0.00    -0.003 C 
ATOM     18  C   UNL     1      62.973  26.912  60.083  1.00  0.00     0.004 C 
ENDBRANCH  16  17
ENDBRANCH  15  16
ENDBRANCH  14  15
ENDBRANCH  13  14
ENDBRANCH  12  13
ENDBRANCH  11  12
ENDBRANCH   1  11
TORSDOF 14
ENDMDL
MODEL 5
REMARK VINA RESULT:    -2.694      3.816      5.686
REMARK INTER + INTRA:          -7.345
REMARK INTER:                  -5.486
REMARK INTRA:                  -1.859
REMARK UNBOUND:                -2.447
REMARK SMILES CCCCCCCCCCCCCCCC(=O)[O-]
REMARK SMILES IDX 9 1 10 2 11 3 12 4 13 5 14 6 15 7 16 8 17 9 18 10 8 11 7 12
REMARK SMILES IDX 6 13 5 14 4 15 3 16 2 17 1 18
REMARK H PARENT
REMARK Flexibility Score: inf
ROOT
ATOM      1  C   UNL     1      61.384  28.303  51.711  1.00  0.00     0.000 C 
ENDROOT
BRANCH   1   2
ATOM      2  C   UNL     1      61.922  27.420  50.574  1.00  0.00     0.000 C 
BRANCH   2   3
ATOM      3  C   UNL     1      60.911  27.260  49.424  1.00  0.00     0.000 C 
BRANCH   3   4
ATOM      4  C   UNL     1      60.186  25.905  49.463  1.00  0.00     0.000 C 
BRANCH   4   5
ATOM      5  C   UNL     1      60.973  24.839  50.247  1.00  0.00     0.000 C 
BRANCH   5   6
ATOM      6  C   UNL     1      60.291  23.459  50.220  1.00  0.00     0.006 C 
BRANCH   6   7
ATOM      7  C   UNL     1      61.138  22.349  49.575  1.00  0.00     0.053 C 
BRANCH   7   8
ATOM      8  C   UNL     1      61.040  21.058  50.328  1.00  0.00     0.041 C 
ATOM      9  O   UNL     1      59.975  20.753  50.925  1.00  0.00    -0.550 OA
ATOM     10  O   UNL     1      62.138  20.209  50.400  1.00  0.00    -0.550 OA
ENDBRANCH   7   8
ENDBRANCH   6   7
ENDBRANCH   5   6
ENDBRANCH   4   5
ENDBRANCH   3   4
ENDBRANCH   2   3
ENDBRANCH   1   2
BRANCH   1  11
ATOM     11  C   UNL     1      60.067  29.006  51.341  1.00  0.00     0.000 C 
BRANCH  11  12
ATOM     12  C   UNL     1      58.904  28.608  52.264  1.00  0.00    -0.000 C 
BRANCH  12  13
ATOM     13  C   UNL     1      59.174  27.299  53.024  1.00  0.00    -0.000 C 
BRANCH  13  14
ATOM     14  C   UNL     1      58.268  26.173  52.515  1.00  0.00    -0.000 C 
BRANCH  14  15
ATOM     15  C   UNL     1      57.205  26.716  51.547  1.00  0.00    -0.000 C 
BRANCH  15  16
ATOM     16  C   UNL     1      56.757  25.672  50.512  1.00  0.00    -0.000 C 
BRANCH  16  17
ATOM     17  C   UNL     1      55.252  25.741  50.216  1.00  0.00    -0.003 C 
ATOM     18  C   UNL     1      54.761  27.186  50.202  1.00  0.00     0.004 C 
ENDBRANCH  16  17
ENDBRANCH  15  16
ENDBRANCH  14  15
ENDBRANCH  13  14
ENDBRANCH  12  13
ENDBRANCH  11  12
ENDBRANCH   1  11
TORSDOF 14
ENDMDL
MODEL 6
REMARK VINA RESULT:    -2.683      5.800      7.843
REMARK INTER + INTRA:          -7.327
REMARK INTER:                  -5.920
REMARK INTRA:                  -1.407
REMARK UNBOUND:                -2.447
REMARK SMILES CCCCCCCCCCCCCCCC(=O)[O-]
REMARK SMILES IDX 9 1 10 2 11 3 12 4 13 5 14 6 15 7 16 8 17 9 18 10 8 11 7 12
REMARK SMILES IDX 6 13 5 14 4 15 3 16 2 17 1 18
REMARK H PARENT
REMARK Flexibility Score: inf
ROOT
ATOM      1  C   UNL     1      61.873  23.125  51.158  1.00  0.00     0.000 C 
ENDROOT
BRANCH   1   2
ATOM      2  C   UNL     1      61.315  22.993  49.732  1.00  0.00     0.000 C 
BRANCH   2   3
ATOM      3  C   UNL     1      60.933  21.544  49.381  1.00  0.00     0.000 C 
BRANCH   3   4
ATOM      4  C   UNL     1      60.371  20.775  50.587  1.00  0.00     0.000 C 
BRANCH   4   5
ATOM      5  C   UNL     1      60.176  19.277  50.291  1.00  0.00     0.000 C 
BRANCH   5   6
ATOM      6  C   UNL     1      59.470  18.532  51.438  1.00  0.00     0.006 C 
BRANCH   6   7
ATOM      7  C   UNL     1      58.973  17.125  51.066  1.00  0.00     0.053 C 
BRANCH   7   8
ATOM      8  C   UNL     1      57.973  17.159  49.951  1.00  0.00     0.041 C 
ATOM      9  O   UNL     1      56.868  17.741  50.109  1.00  0.00    -0.550 OA
ATOM     10  O   UNL     1      58.248  16.517  48.749  1.00  0.00    -0.550 OA
ENDBRANCH   7   8
ENDBRANCH   6   7
ENDBRANCH   5   6
ENDBRANCH   4   5
ENDBRANCH   3   4
ENDBRANCH   2   3
ENDBRANCH   1   2
BRANCH   1  11
ATOM     11  C   UNL     1      62.595  24.465  51.387  1.00  0.00     0.000 C 
BRANCH  11  12
ATOM     12  C   UNL     1      62.907  25.200  50.074  1.00  0.00    -0.000 C 
BRANCH  12  13
ATOM     13  C   UNL     1      62.389  26.647  50.069  1.00  0.00    -0.000 C 
BRANCH  13  14
ATOM     14  C   UNL     1      60.944  26.712  49.564  1.00  0.00    -0.000 C 
BRANCH  14  15
ATOM     15  C   UNL     1      59.974  27.041  50.710  1.00  0.00    -0.000 C 
BRANCH  15  16
ATOM     16  C   UNL     1      59.190  25.812  51.194  1.00  0.00    -0.000 C 
BRANCH  16  17
ATOM     17  C   UNL     1      58.314  25.198  50.093  1.00  0.00    -0.003 C 
ATOM     18  C   UNL     1      56.841  25.537  50.309  1.00  0.00     0.004 C 
ENDBRANCH  16  17
ENDBRANCH  15  16
ENDBRANCH  14  15
ENDBRANCH  13  14
ENDBRANCH  12  13
ENDBRANCH  11  12
ENDBRANCH   1  11
TORSDOF 14
ENDMDL
MODEL 7
REMARK VINA RESULT:    -2.680     10.400     11.982
REMARK INTER + INTRA:          -7.320
REMARK INTER:                  -5.197
REMARK INTRA:                  -2.123
REMARK UNBOUND:                -2.447
REMARK SMILES CCCCCCCCCCCCCCCC(=O)[O-]
REMARK SMILES IDX 9 1 10 2 11 3 12 4 13 5 14 6 15 7 16 8 17 9 18 10 8 11 7 12
REMARK SMILES IDX 6 13 5 14 4 15 3 16 2 17 1 18
REMARK H PARENT
REMARK Flexibility Score: inf
ROOT
ATOM      1  C   UNL     1      63.188  27.665  60.537  1.00  0.00     0.000 C 
ENDROOT
BRANCH   1   2
ATOM      2  C   UNL     1      63.710  26.424  61.276  1.00  0.00     0.000 C 
BRANCH   2   3
ATOM      3  C   UNL     1      62.626  25.347  61.460  1.00  0.00     0.000 C 
BRANCH   3   4
ATOM      4  C   UNL     1      61.500  25.462  60.420  1.00  0.00     0.000 C 
BRANCH   4   5
ATOM      5  C   UNL     1      60.124  25.088  60.999  1.00  0.00     0.000 C 
BRANCH   5   6
ATOM      6  C   UNL     1      59.599  26.130  62.004  1.00  0.00     0.006 C 
BRANCH   6   7
ATOM      7  C   UNL     1      58.537  27.082  61.430  1.00  0.00     0.053 C 
BRANCH   7   8
ATOM      8  C   UNL     1      57.204  26.901  62.089  1.00  0.00     0.041 C 
ATOM      9  O   UNL     1      56.701  27.835  62.766  1.00  0.00    -0.550 OA
ATOM     10  O   UNL     1      56.536  25.687  61.985  1.00  0.00    -0.550 OA
ENDBRANCH   7   8
ENDBRANCH   6   7
ENDBRANCH   5   6
ENDBRANCH   4   5
ENDBRANCH   3   4
ENDBRANCH   2   3
ENDBRANCH   1   2
BRANCH   1  11
ATOM     11  C   UNL     1      62.666  28.748  61.498  1.00  0.00     0.000 C 
BRANCH  11  12
ATOM     12  C   UNL     1      61.326  29.347  61.041  1.00  0.00    -0.000 C 
BRANCH  12  13
ATOM     13  C   UNL     1      61.120  29.246  59.522  1.00  0.00    -0.000 C 
BRANCH  13  14
ATOM     14  C   UNL     1      61.015  30.638  58.889  1.00  0.00    -0.000 C 
BRANCH  14  15
ATOM     15  C   UNL     1      62.335  31.036  58.210  1.00  0.00    -0.000 C 
BRANCH  15  16
ATOM     16  C   UNL     1      63.259  31.840  59.138  1.00  0.00    -0.000 C 
BRANCH  16  17
ATOM     17  C   UNL     1      64.604  31.140  59.384  1.00  0.00    -0.003 C 
ATOM     18  C   UNL     1      65.117  31.416  60.794  1.00  0.00     0.004 C 
ENDBRANCH  16  17
ENDBRANCH  15  16
ENDBRANCH  14  15
ENDBRANCH  13  14
ENDBRANCH  12  13
ENDBRANCH  11  12
ENDBRANCH   1  11
TORSDOF 14
ENDMDL
MODEL 8
REMARK VINA RESULT:    -2.679      3.770      5.938
REMARK INTER + INTRA:          -7.318
REMARK INTER:                  -5.298
REMARK INTRA:                  -2.021
REMARK UNBOUND:                -2.447
REMARK SMILES CCCCCCCCCCCCCCCC(=O)[O-]
REMARK SMILES IDX 9 1 10 2 11 3 12 4 13 5 14 6 15 7 16 8 17 9 18 10 8 11 7 12
REMARK SMILES IDX 6 13 5 14 4 15 3 16 2 17 1 18
REMARK H PARENT
REMARK Flexibility Score: inf
ROOT
ATOM      1  C   UNL     1      62.246  24.398  51.203  1.00  0.00     0.000 C 
ENDROOT
BRANCH   1   2
ATOM      2  C   UNL     1      61.729  23.401  50.154  1.00  0.00     0.000 C 
BRANCH   2   3
ATOM      3  C   UNL     1      60.206  23.193  50.239  1.00  0.00     0.000 C 
BRANCH   3   4
ATOM      4  C   UNL     1      59.501  24.315  51.017  1.00  0.00     0.000 C 
BRANCH   4   5
ATOM      5  C   UNL     1      58.727  25.275  50.096  1.00  0.00     0.000 C 
BRANCH   5   6
ATOM      6  C   UNL     1      57.644  26.073  50.846  1.00  0.00     0.006 C 
BRANCH   6   7
ATOM      7  C   UNL     1      56.271  25.384  50.893  1.00  0.00     0.053 C 
BRANCH   7   8
ATOM      8  C   UNL     1      55.312  25.972  49.904  1.00  0.00     0.041 C 
ATOM      9  O   UNL     1      54.930  25.296  48.913  1.00  0.00    -0.550 OA
ATOM     10  O   UNL     1      54.870  27.281  50.057  1.00  0.00    -0.550 OA
ENDBRANCH   7   8
ENDBRANCH   6   7
ENDBRANCH   5   6
ENDBRANCH   4   5
ENDBRANCH   3   4
ENDBRANCH   2   3
ENDBRANCH   1   2
BRANCH   1  11
ATOM     11  C   UNL     1      63.059  25.544  50.577  1.00  0.00     0.000 C 
BRANCH  11  12
ATOM     12  C   UNL     1      62.209  26.442  49.663  1.00  0.00    -0.000 C 
BRANCH  12  13
ATOM     13  C   UNL     1      62.915  27.759  49.306  1.00  0.00    -0.000 C 
BRANCH  13  14
ATOM     14  C   UNL     1      62.240  28.949  49.996  1.00  0.00    -0.000 C 
BRANCH  14  15
ATOM     15  C   UNL     1      60.758  28.653  50.279  1.00  0.00    -0.000 C 
BRANCH  15  16
ATOM     16  C   UNL     1      60.246  29.351  51.548  1.00  0.00    -0.000 C 
BRANCH  16  17
ATOM     17  C   UNL     1      59.703  28.360  52.588  1.00  0.00    -0.003 C 
ATOM     18  C   UNL     1      60.765  27.337  52.980  1.00  0.00     0.004 C 
ENDBRANCH  16  17
ENDBRANCH  15  16
ENDBRANCH  14  15
ENDBRANCH  13  14
ENDBRANCH  12  13
ENDBRANCH  11  12
ENDBRANCH   1  11
TORSDOF 14
ENDMDL
MODEL 9
REMARK VINA RESULT:    -2.661     10.770     11.949
REMARK INTER + INTRA:          -7.285
REMARK INTER:                  -5.542
REMARK INTRA:                  -1.743
REMARK UNBOUND:                -2.447
REMARK SMILES CCCCCCCCCCCCCCCC(=O)[O-]
REMARK SMILES IDX 9 1 10 2 11 3 12 4 13 5 14 6 15 7 16 8 17 9 18 10 8 11 7 12
REMARK SMILES IDX 6 13 5 14 4 15 3 16 2 17 1 18
REMARK H PARENT
REMARK Flexibility Score: inf
ROOT
ATOM      1  C   UNL     1      64.859  27.078  59.568  1.00  0.00     0.000 C 
ENDROOT
BRANCH   1   2
ATOM      2  C   UNL     1      66.182  27.859  59.588  1.00  0.00     0.000 C 
BRANCH   2   3
ATOM      3  C   UNL     1      66.717  28.076  61.015  1.00  0.00     0.000 C 
BRANCH   3   4
ATOM      4  C   UNL     1      68.116  28.711  61.029  1.00  0.00     0.000 C 
BRANCH   4   5
ATOM      5  C   UNL     1      68.529  29.254  59.649  1.00  0.00     0.000 C 
BRANCH   5   6
ATOM      6  C   UNL     1      70.039  29.112  59.382  1.00  0.00     0.006 C 
BRANCH   6   7
ATOM      7  C   UNL     1      70.785  28.259  60.421  1.00  0.00     0.053 C 
BRANCH   7   8
ATOM      8  C   UNL     1      71.890  29.022  61.086  1.00  0.00     0.041 C 
ATOM      9  O   UNL     1      73.045  28.527  61.160  1.00  0.00    -0.550 OA
ATOM     10  O   UNL     1      71.634  30.264  61.655  1.00  0.00    -0.550 OA
ENDBRANCH   7   8
ENDBRANCH   6   7
ENDBRANCH   5   6
ENDBRANCH   4   5
ENDBRANCH   3   4
ENDBRANCH   2   3
ENDBRANCH   1   2
BRANCH   1  11
ATOM     11  C   UNL     1      64.330  26.776  60.981  1.00  0.00     0.000 C 
BRANCH  11  12
ATOM     12  C   UNL     1      62.962  27.424  61.250  1.00  0.00    -0.000 C 
BRANCH  12  13
ATOM     13  C   UNL     1      63.053  28.948  61.420  1.00  0.00    -0.000 C 
BRANCH  13  14
ATOM     14  C   UNL     1      62.452  29.673  60.211  1.00  0.00    -0.000 C 
BRANCH  14  15
ATOM     15  C   UNL     1      63.465  30.649  59.593  1.00  0.00    -0.000 C 
BRANCH  15  16
ATOM     16  C   UNL     1      64.587  31.034  60.570  1.00  0.00    -0.000 C 
BRANCH  16  17
ATOM     17  C   UNL     1      65.152  32.436  60.297  1.00  0.00    -0.003 C 
ATOM     18  C   UNL     1      64.060  33.382  59.804  1.00  0.00     0.004 C 
ENDBRANCH  16  17
ENDBRANCH  15  16
ENDBRANCH  14  15
ENDBRANCH  13  14
ENDBRANCH  12  13
ENDBRANCH  11  12
ENDBRANCH   1  11
TORSDOF 14
ENDMDL
