MODEL 1
REMARK VINA RESULT:    -3.120      0.000      0.000
REMARK INTER + INTRA:         -11.811
REMARK INTER:                  -7.861
REMARK INTRA:                  -3.950
REMARK UNBOUND:                -3.950
REMARK SMILES CCCCCCCCCCCCCCCCCCCCCCCCCCCC(=O)[O-]
REMARK SMILES IDX 15 1 16 2 17 3 18 4 19 5 20 6 21 7 22 8 23 9 24 10 25 11
REMARK SMILES IDX 26 12 27 13 28 14 29 15 30 16 14 17 13 18 12 19 11 20 10 21
REMARK SMILES IDX 9 22 8 23 7 24 6 25 5 26 4 27 3 28 2 29 1 30
REMARK H PARENT
REMARK Flexibility Score: inf
ROOT
ATOM      1  C   UNL     1       9.449  -0.299   4.831  1.00  0.00     0.000 C 
ENDROOT
BRANCH   1   2
ATOM      2  C   UNL     1       9.041   1.158   4.543  1.00  0.00     0.000 C 
BRANCH   2   3
ATOM      3  C   UNL     1       7.559   1.290   4.155  1.00  0.00     0.000 C 
BRANCH   3   4
ATOM      4  C   UNL     1       6.804   2.311   5.019  1.00  0.00     0.000 C 
BRANCH   4   5
ATOM      5  C   UNL     1       6.240   3.450   4.154  1.00  0.00     0.000 C 
BRANCH   5   6
ATOM      6  C   UNL     1       6.638   4.843   4.668  1.00  0.00     0.000 C 
BRANCH   6   7
ATOM      7  C   UNL     1       7.430   4.790   5.985  1.00  0.00     0.000 C 
BRANCH   7   8
ATOM      8  C   UNL     1       6.977   5.871   6.983  1.00  0.00     0.000 C 
BRANCH   8   9
ATOM      9  C   UNL     1       6.567   5.322   8.363  1.00  0.00     0.000 C 
BRANCH   9  10
ATOM     10  C   UNL     1       6.227   3.822   8.315  1.00  0.00     0.000 C 
BRANCH  10  11
ATOM     11  C   UNL     1       4.721   3.548   8.449  1.00  0.00     0.000 C 
BRANCH  11  12
ATOM     12  C   UNL     1       4.332   2.082   8.154  1.00  0.00     0.006 C 
BRANCH  12  13
ATOM     13  C   UNL     1       3.279   1.557   9.138  1.00  0.00     0.053 C 
BRANCH  13  14
ATOM     14  C   UNL     1       1.945   1.439   8.471  1.00  0.00     0.041 C 
ATOM     15  O   UNL     1       1.868   1.128   7.253  1.00  0.00    -0.550 OA
ATOM     16  O   UNL     1       0.781   1.668   9.196  1.00  0.00    -0.550 OA
ENDBRANCH  13  14
ENDBRANCH  12  13
ENDBRANCH  11  12
ENDBRANCH  10  11
ENDBRANCH   9  10
ENDBRANCH   8   9
ENDBRANCH   7   8
ENDBRANCH   6   7
ENDBRANCH   5   6
ENDBRANCH   4   5
ENDBRANCH   3   4
ENDBRANCH   2   3
ENDBRANCH   1   2
BRANCH   1  17
ATOM     17  C   UNL     1       9.602  -0.595   6.338  1.00  0.00     0.000 C 
BRANCH  17  18
ATOM     18  C   UNL     1       9.683   0.666   7.221  1.00  0.00     0.000 C 
BRANCH  18  19
ATOM     19  C   UNL     1       8.546   0.817   8.249  1.00  0.00     0.000 C 
BRANCH  19  20
ATOM     20  C   UNL     1       7.243   0.070   7.898  1.00  0.00     0.000 C 
BRANCH  20  21
ATOM     21  C   UNL     1       6.829  -1.029   8.899  1.00  0.00     0.000 C 
BRANCH  21  22
ATOM     22  C   UNL     1       7.841  -1.294  10.029  1.00  0.00    -0.000 C 
BRANCH  22  23
ATOM     23  C   UNL     1       8.801  -2.449   9.712  1.00  0.00    -0.000 C 
BRANCH  23  24
ATOM     24  C   UNL     1       8.120  -3.499   8.819  1.00  0.00    -0.000 C 
BRANCH  24  25
ATOM     25  C   UNL     1       9.105  -4.208   7.876  1.00  0.00    -0.000 C 
BRANCH  25  26
ATOM     26  C   UNL     1       8.595  -4.275   6.426  1.00  0.00    -0.000 C 
BRANCH  26  27
ATOM     27  C   UNL     1       8.578  -5.711   5.874  1.00  0.00    -0.000 C 
BRANCH  27  28
ATOM     28  C   UNL     1       7.166  -6.323   5.856  1.00  0.00    -0.000 C 
BRANCH  28  29
ATOM     29  C   UNL     1       6.760  -6.905   7.220  1.00  0.00    -0.003 C 
ATOM     30  C   UNL     1       5.685  -7.986   7.108  1.00  0.00     0.004 C 
ENDBRANCH  28  29
ENDBRANCH  27  28
ENDBRANCH  26  27
ENDBRANCH  25  26
ENDBRANCH  24  25
ENDBRANCH  23  24
ENDBRANCH  22  23
ENDBRANCH  21  22
ENDBRANCH  20  21
ENDBRANCH  19  20
ENDBRANCH  18  19
ENDBRANCH  17  18
ENDBRANCH   1  17
TORSDOF 26
ENDMDL
MODEL 2
REMARK VINA RESULT:    -3.114      2.990      7.623
REMARK INTER + INTRA:         -11.796
REMARK INTER:                  -7.949
REMARK INTRA:                  -3.846
REMARK UNBOUND:                -3.950
REMARK SMILES CCCCCCCCCCCCCCCCCCCCCCCCCCCC(=O)[O-]
REMARK SMILES IDX 15 1 16 2 17 3 18 4 19 5 20 6 21 7 22 8 23 9 24 10 25 11
REMARK SMILES IDX 26 12 27 13 28 14 29 15 30 16 14 17 13 18 12 19 11 20 10 21
REMARK SMILES IDX 9 22 8 23 7 24 6 25 5 26 4 27 3 28 2 29 1 30
REMARK H PARENT
REMARK Flexibility Score: inf
ROOT
ATOM      1  C   UNL     1       6.576   2.248   4.507  1.00  0.00     0.000 C 
ENDROOT
BRANCH   1   2
ATOM      2  C   UNL     1       7.523   1.037   4.414  1.00  0.00     0.000 C 
BRANCH   2   3
ATOM      3  C   UNL     1       9.006   1.444   4.428  1.00  0.00     0.000 C 
BRANCH   3   4
ATOM      4  C   UNL     1       9.949   0.273   4.117  1.00  0.00     0.000 C 
BRANCH   4   5
ATOM      5  C   UNL     1       9.467  -1.016   4.803  1.00  0.00     0.000 C 
BRANCH   5   6
ATOM      6  C   UNL     1       9.891  -2.287   4.050  1.00  0.00     0.000 C 
BRANCH   6   7
ATOM      7  C   UNL     1       9.845  -3.547   4.932  1.00  0.00     0.000 C 
BRANCH   7   8
ATOM      8  C   UNL     1       9.026  -3.331   6.218  1.00  0.00     0.000 C 
BRANCH   8   9
ATOM      9  C   UNL     1       8.668  -4.632   6.962  1.00  0.00     0.000 C 
BRANCH   9  10
ATOM     10  C   UNL     1       8.606  -5.845   6.018  1.00  0.00     0.000 C 
BRANCH  10  11
ATOM     11  C   UNL     1       7.170  -6.337   5.774  1.00  0.00     0.000 C 
BRANCH  11  12
ATOM     12  C   UNL     1       6.724  -7.446   6.753  1.00  0.00     0.006 C 
BRANCH  12  13
ATOM     13  C   UNL     1       5.259  -7.282   7.178  1.00  0.00     0.053 C 
BRANCH  13  14
ATOM     14  C   UNL     1       4.656  -8.609   7.517  1.00  0.00     0.041 C 
ATOM     15  O   UNL     1       5.337  -9.482   8.119  1.00  0.00    -0.550 OA
ATOM     16  O   UNL     1       3.337  -8.882   7.176  1.00  0.00    -0.550 OA
ENDBRANCH  13  14
ENDBRANCH  12  13
ENDBRANCH  11  12
ENDBRANCH  10  11
ENDBRANCH   9  10
ENDBRANCH   8   9
ENDBRANCH   7   8
ENDBRANCH   6   7
ENDBRANCH   5   6
ENDBRANCH   4   5
ENDBRANCH   3   4
ENDBRANCH   2   3
ENDBRANCH   1   2
BRANCH   1  17
ATOM     17  C   UNL     1       6.398   2.764   5.951  1.00  0.00     0.000 C 
BRANCH  17  18
ATOM     18  C   UNL     1       6.909   4.201   6.172  1.00  0.00     0.000 C 
BRANCH  18  19
ATOM     19  C   UNL     1       7.760   4.404   7.439  1.00  0.00     0.000 C 
BRANCH  19  20
ATOM     20  C   UNL     1       7.010   4.194   8.771  1.00  0.00     0.000 C 
BRANCH  20  21
ATOM     21  C   UNL     1       5.877   5.204   9.049  1.00  0.00     0.000 C 
BRANCH  21  22
ATOM     22  C   UNL     1       4.452   4.649   8.868  1.00  0.00    -0.000 C 
BRANCH  22  23
ATOM     23  C   UNL     1       4.262   3.271   9.518  1.00  0.00    -0.000 C 
BRANCH  23  24
ATOM     24  C   UNL     1       3.792   2.236   8.483  1.00  0.00    -0.000 C 
BRANCH  24  25
ATOM     25  C   UNL     1       4.262   0.809   8.811  1.00  0.00    -0.000 C 
BRANCH  25  26
ATOM     26  C   UNL     1       5.743   0.754   9.227  1.00  0.00    -0.000 C 
BRANCH  26  27
ATOM     27  C   UNL     1       6.402  -0.591   8.877  1.00  0.00    -0.000 C 
BRANCH  27  28
ATOM     28  C   UNL     1       7.511  -0.450   7.820  1.00  0.00    -0.000 C 
BRANCH  28  29
ATOM     29  C   UNL     1       8.402   0.780   8.062  1.00  0.00    -0.003 C 
ATOM     30  C   UNL     1       9.849   0.410   8.386  1.00  0.00     0.004 C 
ENDBRANCH  28  29
ENDBRANCH  27  28
ENDBRANCH  26  27
ENDBRANCH  25  26
ENDBRANCH  24  25
ENDBRANCH  23  24
ENDBRANCH  22  23
ENDBRANCH  21  22
ENDBRANCH  20  21
ENDBRANCH  19  20
ENDBRANCH  18  19
ENDBRANCH  17  18
ENDBRANCH   1  17
TORSDOF 26
ENDMDL
MODEL 3
REMARK VINA RESULT:    -3.063      2.231      4.238
REMARK INTER + INTRA:         -11.668
REMARK INTER:                  -7.245
REMARK INTRA:                  -4.423
REMARK UNBOUND:                -3.950
REMARK SMILES CCCCCCCCCCCCCCCCCCCCCCCCCCCC(=O)[O-]
REMARK SMILES IDX 15 1 16 2 17 3 18 4 19 5 20 6 21 7 22 8 23 9 24 10 25 11
REMARK SMILES IDX 26 12 27 13 28 14 29 15 30 16 14 17 13 18 12 19 11 20 10 21
REMARK SMILES IDX 9 22 8 23 7 24 6 25 5 26 4 27 3 28 2 29 1 30
REMARK H PARENT
REMARK Flexibility Score: inf
ROOT
ATOM      1  C   UNL     1       7.882   0.855   5.670  1.00  0.00     0.000 C 
ENDROOT
BRANCH   1   2
ATOM      2  C   UNL     1       8.951   1.041   6.762  1.00  0.00     0.000 C 
BRANCH   2   3
ATOM      3  C   UNL     1       8.472   0.566   8.144  1.00  0.00     0.000 C 
BRANCH   3   4
ATOM      4  C   UNL     1       7.109   1.153   8.537  1.00  0.00     0.000 C 
BRANCH   4   5
ATOM      5  C   UNL     1       6.176   0.057   9.080  1.00  0.00     0.000 C 
BRANCH   5   6
ATOM      6  C   UNL     1       4.692   0.453   9.021  1.00  0.00     0.000 C 
BRANCH   6   7
ATOM      7  C   UNL     1       4.451   1.753   8.237  1.00  0.00     0.000 C 
BRANCH   7   8
ATOM      8  C   UNL     1       3.572   2.751   9.014  1.00  0.00     0.000 C 
BRANCH   8   9
ATOM      9  C   UNL     1       4.338   3.970   9.562  1.00  0.00     0.000 C 
BRANCH   9  10
ATOM     10  C   UNL     1       5.009   4.786   8.444  1.00  0.00     0.000 C 
BRANCH  10  11
ATOM     11  C   UNL     1       6.544   4.782   8.543  1.00  0.00     0.000 C 
BRANCH  11  12
ATOM     12  C   UNL     1       7.248   4.553   7.187  1.00  0.00     0.006 C 
BRANCH  12  13
ATOM     13  C   UNL     1       6.244   4.335   6.047  1.00  0.00     0.053 C 
BRANCH  13  14
ATOM     14  C   UNL     1       6.950   4.253   4.730  1.00  0.00     0.041 C 
ATOM     15  O   UNL     1       6.296   4.079   3.667  1.00  0.00    -0.550 OA
ATOM     16  O   UNL     1       8.333   4.377   4.672  1.00  0.00    -0.550 OA
ENDBRANCH  13  14
ENDBRANCH  12  13
ENDBRANCH  11  12
ENDBRANCH  10  11
ENDBRANCH   9  10
ENDBRANCH   8   9
ENDBRANCH   7   8
ENDBRANCH   6   7
ENDBRANCH   5   6
ENDBRANCH   4   5
ENDBRANCH   3   4
ENDBRANCH   2   3
ENDBRANCH   1   2
BRANCH   1  17
ATOM     17  C   UNL     1       8.479   0.785   4.249  1.00  0.00     0.000 C 
BRANCH  17  18
ATOM     18  C   UNL     1       9.695  -0.152   4.124  1.00  0.00     0.000 C 
BRANCH  18  19
ATOM     19  C   UNL     1       9.366  -1.656   4.138  1.00  0.00     0.000 C 
BRANCH  19  20
ATOM     20  C   UNL     1       9.763  -2.401   5.430  1.00  0.00     0.000 C 
BRANCH  20  21
ATOM     21  C   UNL     1       8.594  -2.732   6.380  1.00  0.00     0.000 C 
BRANCH  21  22
ATOM     22  C   UNL     1       8.998  -3.437   7.688  1.00  0.00    -0.000 C 
BRANCH  22  23
ATOM     23  C   UNL     1       8.118  -3.032   8.879  1.00  0.00    -0.000 C 
BRANCH  23  24
ATOM     24  C   UNL     1       7.711  -4.263   9.705  1.00  0.00    -0.000 C 
BRANCH  24  25
ATOM     25  C   UNL     1       7.895  -5.583   8.938  1.00  0.00    -0.000 C 
BRANCH  25  26
ATOM     26  C   UNL     1       6.575  -6.354   8.758  1.00  0.00    -0.000 C 
BRANCH  26  27
ATOM     27  C   UNL     1       6.482  -7.053   7.391  1.00  0.00    -0.000 C 
BRANCH  27  28
ATOM     28  C   UNL     1       7.857  -7.233   6.724  1.00  0.00    -0.000 C 
BRANCH  28  29
ATOM     29  C   UNL     1       7.889  -6.685   5.287  1.00  0.00    -0.003 C 
ATOM     30  C   UNL     1       9.247  -6.093   4.908  1.00  0.00     0.004 C 
ENDBRANCH  28  29
ENDBRANCH  27  28
ENDBRANCH  26  27
ENDBRANCH  25  26
ENDBRANCH  24  25
ENDBRANCH  23  24
ENDBRANCH  22  23
ENDBRANCH  21  22
ENDBRANCH  20  21
ENDBRANCH  19  20
ENDBRANCH  18  19
ENDBRANCH  17  18
ENDBRANCH   1  17
TORSDOF 26
ENDMDL
MODEL 4
REMARK VINA RESULT:    -2.998      2.139      4.886
REMARK INTER + INTRA:         -11.505
REMARK INTER:                  -8.135
REMARK INTRA:                  -3.370
REMARK UNBOUND:                -3.950
REMARK SMILES CCCCCCCCCCCCCCCCCCCCCCCCCCCC(=O)[O-]
REMARK SMILES IDX 15 1 16 2 17 3 18 4 19 5 20 6 21 7 22 8 23 9 24 10 25 11
REMARK SMILES IDX 26 12 27 13 28 14 29 15 30 16 14 17 13 18 12 19 11 20 10 21
REMARK SMILES IDX 9 22 8 23 7 24 6 25 5 26 4 27 3 28 2 29 1 30
REMARK H PARENT
REMARK Flexibility Score: inf
ROOT
ATOM      1  C   UNL     1       8.231  -0.586   7.786  1.00  0.00     0.000 C 
ENDROOT
BRANCH   1   2
ATOM      2  C   UNL     1       7.467  -0.276   9.085  1.00  0.00     0.000 C 
BRANCH   2   3
ATOM      3  C   UNL     1       5.948  -0.465   8.937  1.00  0.00     0.000 C 
BRANCH   3   4
ATOM      4  C   UNL     1       5.139   0.681   9.562  1.00  0.00     0.000 C 
BRANCH   4   5
ATOM      5  C   UNL     1       3.985   1.104   8.639  1.00  0.00     0.000 C 
BRANCH   5   6
ATOM      6  C   UNL     1       3.183   2.293   9.191  1.00  0.00     0.000 C 
BRANCH   6   7
ATOM      7  C   UNL     1       4.080   3.435   9.698  1.00  0.00     0.000 C 
BRANCH   7   8
ATOM      8  C   UNL     1       4.838   4.134   8.554  1.00  0.00     0.000 C 
BRANCH   8   9
ATOM      9  C   UNL     1       6.351   4.284   8.802  1.00  0.00     0.000 C 
BRANCH   9  10
ATOM     10  C   UNL     1       7.177   3.265   7.998  1.00  0.00     0.000 C 
BRANCH  10  11
ATOM     11  C   UNL     1       6.510   2.874   6.669  1.00  0.00     0.000 C 
BRANCH  11  12
ATOM     12  C   UNL     1       7.500   2.778   5.487  1.00  0.00     0.006 C 
BRANCH  12  13
ATOM     13  C   UNL     1       6.967   1.882   4.362  1.00  0.00     0.053 C 
BRANCH  13  14
ATOM     14  C   UNL     1       5.827   2.544   3.655  1.00  0.00     0.041 C 
ATOM     15  O   UNL     1       5.900   3.758   3.327  1.00  0.00    -0.550 OA
ATOM     16  O   UNL     1       4.681   1.819   3.350  1.00  0.00    -0.550 OA
ENDBRANCH  13  14
ENDBRANCH  12  13
ENDBRANCH  11  12
ENDBRANCH  10  11
ENDBRANCH   9  10
ENDBRANCH   8   9
ENDBRANCH   7   8
ENDBRANCH   6   7
ENDBRANCH   5   6
ENDBRANCH   4   5
ENDBRANCH   3   4
ENDBRANCH   2   3
ENDBRANCH   1   2
BRANCH   1  17
ATOM     17  C   UNL     1       8.103  -2.061   7.349  1.00  0.00     0.000 C 
BRANCH  17  18
ATOM     18  C   UNL     1       8.805  -3.058   8.290  1.00  0.00     0.000 C 
BRANCH  18  19
ATOM     19  C   UNL     1       9.444  -4.274   7.595  1.00  0.00     0.000 C 
BRANCH  19  20
ATOM     20  C   UNL     1       9.193  -4.366   6.076  1.00  0.00     0.000 C 
BRANCH  20  21
ATOM     21  C   UNL     1       8.782  -5.762   5.563  1.00  0.00     0.000 C 
BRANCH  21  22
ATOM     22  C   UNL     1       7.370  -6.217   5.975  1.00  0.00    -0.000 C 
BRANCH  22  23
ATOM     23  C   UNL     1       7.352  -7.624   6.588  1.00  0.00    -0.000 C 
BRANCH  23  24
ATOM     24  C   UNL     1       7.427  -7.556   8.122  1.00  0.00    -0.000 C 
BRANCH  24  25
ATOM     25  C   UNL     1       6.665  -6.355   8.704  1.00  0.00    -0.000 C 
BRANCH  25  26
ATOM     26  C   UNL     1       5.180  -6.664   8.965  1.00  0.00    -0.000 C 
BRANCH  26  27
ATOM     27  C   UNL     1       4.981  -7.963   9.765  1.00  0.00    -0.000 C 
BRANCH  27  28
ATOM     28  C   UNL     1       3.894  -8.870   9.161  1.00  0.00    -0.000 C 
BRANCH  28  29
ATOM     29  C   UNL     1       3.912  -8.866   7.624  1.00  0.00    -0.003 C 
ATOM     30  C   UNL     1       3.113 -10.020   7.018  1.00  0.00     0.004 C 
ENDBRANCH  28  29
ENDBRANCH  27  28
ENDBRANCH  26  27
ENDBRANCH  25  26
ENDBRANCH  24  25
ENDBRANCH  23  24
ENDBRANCH  22  23
ENDBRANCH  21  22
ENDBRANCH  20  21
ENDBRANCH  19  20
ENDBRANCH  18  19
ENDBRANCH  17  18
ENDBRANCH   1  17
TORSDOF 26
ENDMDL
MODEL 5
REMARK VINA RESULT:    -2.976      2.073      4.458
REMARK INTER + INTRA:         -11.449
REMARK INTER:                  -8.309
REMARK INTRA:                  -3.140
REMARK UNBOUND:                -3.950
REMARK SMILES CCCCCCCCCCCCCCCCCCCCCCCCCCCC(=O)[O-]
REMARK SMILES IDX 15 1 16 2 17 3 18 4 19 5 20 6 21 7 22 8 23 9 24 10 25 11
REMARK SMILES IDX 26 12 27 13 28 14 29 15 30 16 14 17 13 18 12 19 11 20 10 21
REMARK SMILES IDX 9 22 8 23 7 24 6 25 5 26 4 27 3 28 2 29 1 30
REMARK H PARENT
REMARK Flexibility Score: inf
ROOT
ATOM      1  C   UNL     1       6.675  -1.237   9.369  1.00  0.00     0.000 C 
ENDROOT
BRANCH   1   2
ATOM      2  C   UNL     1       6.254   0.208   9.043  1.00  0.00     0.000 C 
BRANCH   2   3
ATOM      3  C   UNL     1       4.735   0.419   9.153  1.00  0.00     0.000 C 
BRANCH   3   4
ATOM      4  C   UNL     1       4.215   1.516   8.211  1.00  0.00     0.000 C 
BRANCH   4   5
ATOM      5  C   UNL     1       3.522   2.636   9.004  1.00  0.00     0.000 C 
BRANCH   5   6
ATOM      6  C   UNL     1       4.501   3.717   9.490  1.00  0.00     0.000 C 
BRANCH   6   7
ATOM      7  C   UNL     1       4.833   4.754   8.404  1.00  0.00     0.000 C 
BRANCH   7   8
ATOM      8  C   UNL     1       6.329   4.759   8.039  1.00  0.00     0.000 C 
BRANCH   8   9
ATOM      9  C   UNL     1       7.143   3.632   8.702  1.00  0.00     0.000 C 
BRANCH   9  10
ATOM     10  C   UNL     1       8.305   3.152   7.815  1.00  0.00     0.000 C 
BRANCH  10  11
ATOM     11  C   UNL     1       7.987   3.249   6.314  1.00  0.00     0.000 C 
BRANCH  11  12
ATOM     12  C   UNL     1       7.050   2.129   5.809  1.00  0.00     0.006 C 
BRANCH  12  13
ATOM     13  C   UNL     1       7.082   1.999   4.280  1.00  0.00     0.053 C 
BRANCH  13  14
ATOM     14  C   UNL     1       5.868   2.628   3.672  1.00  0.00     0.041 C 
ATOM     15  O   UNL     1       4.857   1.927   3.398  1.00  0.00    -0.550 OA
ATOM     16  O   UNL     1       5.848   3.993   3.412  1.00  0.00    -0.550 OA
ENDBRANCH  13  14
ENDBRANCH  12  13
ENDBRANCH  11  12
ENDBRANCH  10  11
ENDBRANCH   9  10
ENDBRANCH   8   9
ENDBRANCH   7   8
ENDBRANCH   6   7
ENDBRANCH   5   6
ENDBRANCH   4   5
ENDBRANCH   3   4
ENDBRANCH   2   3
ENDBRANCH   1   2
BRANCH   1  17
ATOM     17  C   UNL     1       8.096  -1.577   8.871  1.00  0.00     0.000 C 
BRANCH  17  18
ATOM     18  C   UNL     1       8.556  -0.737   7.664  1.00  0.00     0.000 C 
BRANCH  18  19
ATOM     19  C   UNL     1       8.260  -1.357   6.286  1.00  0.00     0.000 C 
BRANCH  19  20
ATOM     20  C   UNL     1       9.487  -1.939   5.553  1.00  0.00     0.000 C 
BRANCH  20  21
ATOM     21  C   UNL     1       9.885  -3.367   5.979  1.00  0.00     0.000 C 
BRANCH  21  22
ATOM     22  C   UNL     1       8.714  -4.269   6.410  1.00  0.00    -0.000 C 
BRANCH  22  23
ATOM     23  C   UNL     1       9.133  -5.731   6.620  1.00  0.00    -0.000 C 
BRANCH  23  24
ATOM     24  C   UNL     1       8.349  -6.666   5.684  1.00  0.00    -0.000 C 
BRANCH  24  25
ATOM     25  C   UNL     1       6.863  -6.778   6.061  1.00  0.00    -0.000 C 
BRANCH  25  26
ATOM     26  C   UNL     1       6.649  -7.417   7.444  1.00  0.00    -0.000 C 
BRANCH  26  27
ATOM     27  C   UNL     1       5.184  -7.340   7.908  1.00  0.00    -0.000 C 
BRANCH  27  28
ATOM     28  C   UNL     1       4.338  -8.518   7.397  1.00  0.00    -0.000 C 
BRANCH  28  29
ATOM     29  C   UNL     1       5.163  -9.804   7.225  1.00  0.00    -0.003 C 
ATOM     30  C   UNL     1       4.769 -10.900   8.216  1.00  0.00     0.004 C 
ENDBRANCH  28  29
ENDBRANCH  27  28
ENDBRANCH  26  27
ENDBRANCH  25  26
ENDBRANCH  24  25
ENDBRANCH  23  24
ENDBRANCH  22  23
ENDBRANCH  21  22
ENDBRANCH  20  21
ENDBRANCH  19  20
ENDBRANCH  18  19
ENDBRANCH  17  18
ENDBRANCH   1  17
TORSDOF 26
ENDMDL
MODEL 6
REMARK VINA RESULT:    -2.966     16.216     19.807
REMARK INTER + INTRA:         -11.423
REMARK INTER:                  -9.654
REMARK INTRA:                  -1.769
REMARK UNBOUND:                -3.950
REMARK SMILES CCCCCCCCCCCCCCCCCCCCCCCCCCCC(=O)[O-]
REMARK SMILES IDX 15 1 16 2 17 3 18 4 19 5 20 6 21 7 22 8 23 9 24 10 25 11
REMARK SMILES IDX 26 12 27 13 28 14 29 15 30 16 14 17 13 18 12 19 11 20 10 21
REMARK SMILES IDX 9 22 8 23 7 24 6 25 5 26 4 27 3 28 2 29 1 30
REMARK H PARENT
REMARK Flexibility Score: inf
ROOT
ATOM      1  C   UNL     1      -8.077 -12.423  -0.010  1.00  0.00     0.000 C 
ENDROOT
BRANCH   1   2
ATOM      2  C   UNL     1      -8.496 -11.085  -0.646  1.00  0.00     0.000 C 
BRANCH   2   3
ATOM      3  C   UNL     1      -8.720 -11.196  -2.163  1.00  0.00     0.000 C 
BRANCH   3   4
ATOM      4  C   UNL     1      -9.464  -9.986  -2.747  1.00  0.00     0.000 C 
BRANCH   4   5
ATOM      5  C   UNL     1      -9.413 -10.002  -4.284  1.00  0.00     0.000 C 
BRANCH   5   6
ATOM      6  C   UNL     1      -9.819  -8.658  -4.908  1.00  0.00     0.000 C 
BRANCH   6   7
ATOM      7  C   UNL     1      -9.104  -7.458  -4.264  1.00  0.00     0.000 C 
BRANCH   7   8
ATOM      8  C   UNL     1     -10.040  -6.249  -4.079  1.00  0.00     0.000 C 
BRANCH   8   9
ATOM      9  C   UNL     1      -9.736  -5.069  -5.021  1.00  0.00     0.000 C 
BRANCH   9  10
ATOM     10  C   UNL     1      -8.340  -4.470  -4.773  1.00  0.00     0.000 C 
BRANCH  10  11
ATOM     11  C   UNL     1      -8.391  -2.990  -4.363  1.00  0.00     0.000 C 
BRANCH  11  12
ATOM     12  C   UNL     1      -8.265  -2.015  -5.555  1.00  0.00     0.006 C 
BRANCH  12  13
ATOM     13  C   UNL     1      -7.961  -2.749  -6.867  1.00  0.00     0.053 C 
BRANCH  13  14
ATOM     14  C   UNL     1      -8.968  -2.394  -7.916  1.00  0.00     0.041 C 
ATOM     15  O   UNL     1      -9.412  -3.277  -8.698  1.00  0.00    -0.550 OA
ATOM     16  O   UNL     1      -9.426  -1.086  -8.027  1.00  0.00    -0.550 OA
ENDBRANCH  13  14
ENDBRANCH  12  13
ENDBRANCH  11  12
ENDBRANCH  10  11
ENDBRANCH   9  10
ENDBRANCH   8   9
ENDBRANCH   7   8
ENDBRANCH   6   7
ENDBRANCH   5   6
ENDBRANCH   4   5
ENDBRANCH   3   4
ENDBRANCH   2   3
ENDBRANCH   1   2
BRANCH   1  17
ATOM     17  C   UNL     1      -8.768 -12.689   1.344  1.00  0.00     0.000 C 
BRANCH  17  18
ATOM     18  C   UNL     1      -9.625 -11.514   1.854  1.00  0.00     0.000 C 
BRANCH  18  19
ATOM     19  C   UNL     1      -9.370 -11.105   3.316  1.00  0.00     0.000 C 
BRANCH  19  20
ATOM     20  C   UNL     1      -8.146 -11.772   3.977  1.00  0.00     0.000 C 
BRANCH  20  21
ATOM     21  C   UNL     1      -8.452 -12.584   5.253  1.00  0.00     0.000 C 
BRANCH  21  22
ATOM     22  C   UNL     1      -7.720 -12.106   6.520  1.00  0.00    -0.000 C 
BRANCH  22  23
ATOM     23  C   UNL     1      -7.266 -10.642   6.430  1.00  0.00    -0.000 C 
BRANCH  23  24
ATOM     24  C   UNL     1      -7.176 -10.008   7.827  1.00  0.00    -0.000 C 
BRANCH  24  25
ATOM     25  C   UNL     1      -6.477 -10.917   8.851  1.00  0.00    -0.000 C 
BRANCH  25  26
ATOM     26  C   UNL     1      -5.281 -10.232   9.534  1.00  0.00    -0.000 C 
BRANCH  26  27
ATOM     27  C   UNL     1      -4.205  -9.786   8.529  1.00  0.00    -0.000 C 
BRANCH  27  28
ATOM     28  C   UNL     1      -3.825  -8.303   8.687  1.00  0.00    -0.000 C 
BRANCH  28  29
ATOM     29  C   UNL     1      -4.550  -7.399   7.676  1.00  0.00    -0.003 C 
ATOM     30  C   UNL     1      -4.406  -7.886   6.234  1.00  0.00     0.004 C 
ENDBRANCH  28  29
ENDBRANCH  27  28
ENDBRANCH  26  27
ENDBRANCH  25  26
ENDBRANCH  24  25
ENDBRANCH  23  24
ENDBRANCH  22  23
ENDBRANCH  21  22
ENDBRANCH  20  21
ENDBRANCH  19  20
ENDBRANCH  18  19
ENDBRANCH  17  18
ENDBRANCH   1  17
TORSDOF 26
ENDMDL
MODEL 7
REMARK VINA RESULT:    -2.948      2.261      4.448
REMARK INTER + INTRA:         -11.378
REMARK INTER:                  -7.113
REMARK INTRA:                  -4.266
REMARK UNBOUND:                -3.950
REMARK SMILES CCCCCCCCCCCCCCCCCCCCCCCCCCCC(=O)[O-]
REMARK SMILES IDX 15 1 16 2 17 3 18 4 19 5 20 6 21 7 22 8 23 9 24 10 25 11
REMARK SMILES IDX 26 12 27 13 28 14 29 15 30 16 14 17 13 18 12 19 11 20 10 21
REMARK SMILES IDX 9 22 8 23 7 24 6 25 5 26 4 27 3 28 2 29 1 30
REMARK H PARENT
REMARK Flexibility Score: inf
ROOT
ATOM      1  C   UNL     1       9.223   0.694   4.182  1.00  0.00     0.000 C 
ENDROOT
BRANCH   1   2
ATOM      2  C   UNL     1      10.095   1.117   5.378  1.00  0.00     0.000 C 
BRANCH   2   3
ATOM      3  C   UNL     1       9.357   0.989   6.721  1.00  0.00     0.000 C 
BRANCH   3   4
ATOM      4  C   UNL     1      10.113   0.121   7.737  1.00  0.00     0.000 C 
BRANCH   4   5
ATOM      5  C   UNL     1       9.133  -0.606   8.673  1.00  0.00     0.000 C 
BRANCH   5   6
ATOM      6  C   UNL     1       7.713  -0.700   8.094  1.00  0.00     0.000 C 
BRANCH   6   7
ATOM      7  C   UNL     1       6.695  -1.271   9.096  1.00  0.00     0.000 C 
BRANCH   7   8
ATOM      8  C   UNL     1       5.960  -0.166   9.877  1.00  0.00     0.000 C 
BRANCH   8   9
ATOM      9  C   UNL     1       5.133   0.785   8.992  1.00  0.00     0.000 C 
BRANCH   9  10
ATOM     10  C   UNL     1       5.568   2.253   9.148  1.00  0.00     0.000 C 
BRANCH  10  11
ATOM     11  C   UNL     1       5.430   3.056   7.844  1.00  0.00     0.000 C 
BRANCH  11  12
ATOM     12  C   UNL     1       6.097   2.377   6.628  1.00  0.00     0.006 C 
BRANCH  12  13
ATOM     13  C   UNL     1       6.710   3.400   5.662  1.00  0.00     0.053 C 
BRANCH  13  14
ATOM     14  C   UNL     1       6.195   3.189   4.273  1.00  0.00     0.041 C 
ATOM     15  O   UNL     1       5.969   2.025   3.848  1.00  0.00    -0.550 OA
ATOM     16  O   UNL     1       5.956   4.280   3.446  1.00  0.00    -0.550 OA
ENDBRANCH  13  14
ENDBRANCH  12  13
ENDBRANCH  11  12
ENDBRANCH  10  11
ENDBRANCH   9  10
ENDBRANCH   8   9
ENDBRANCH   7   8
ENDBRANCH   6   7
ENDBRANCH   5   6
ENDBRANCH   4   5
ENDBRANCH   3   4
ENDBRANCH   2   3
ENDBRANCH   1   2
BRANCH   1  17
ATOM     17  C   UNL     1       8.739  -0.769   4.276  1.00  0.00     0.000 C 
BRANCH  17  18
ATOM     18  C   UNL     1       9.825  -1.812   3.952  1.00  0.00     0.000 C 
BRANCH  18  19
ATOM     19  C   UNL     1      10.123  -2.817   5.080  1.00  0.00     0.000 C 
BRANCH  19  20
ATOM     20  C   UNL     1       8.954  -3.073   6.053  1.00  0.00     0.000 C 
BRANCH  20  21
ATOM     21  C   UNL     1       8.754  -4.547   6.463  1.00  0.00     0.000 C 
BRANCH  21  22
ATOM     22  C   UNL     1       9.567  -4.997   7.691  1.00  0.00    -0.000 C 
BRANCH  22  23
ATOM     23  C   UNL     1       8.993  -4.467   9.012  1.00  0.00    -0.000 C 
BRANCH  23  24
ATOM     24  C   UNL     1       7.519  -4.875   9.173  1.00  0.00    -0.000 C 
BRANCH  24  25
ATOM     25  C   UNL     1       7.319  -6.399   9.173  1.00  0.00    -0.000 C 
BRANCH  25  26
ATOM     26  C   UNL     1       6.058  -6.831   8.405  1.00  0.00    -0.000 C 
BRANCH  26  27
ATOM     27  C   UNL     1       6.384  -7.422   7.023  1.00  0.00    -0.000 C 
BRANCH  27  28
ATOM     28  C   UNL     1       6.918  -8.862   7.105  1.00  0.00    -0.000 C 
BRANCH  28  29
ATOM     29  C   UNL     1       7.980  -9.158   6.032  1.00  0.00    -0.003 C 
ATOM     30  C   UNL     1       9.269  -8.363   6.238  1.00  0.00     0.004 C 
ENDBRANCH  28  29
ENDBRANCH  27  28
ENDBRANCH  26  27
ENDBRANCH  25  26
ENDBRANCH  24  25
ENDBRANCH  23  24
ENDBRANCH  22  23
ENDBRANCH  21  22
ENDBRANCH  20  21
ENDBRANCH  19  20
ENDBRANCH  18  19
ENDBRANCH  17  18
ENDBRANCH   1  17
TORSDOF 26
ENDMDL
MODEL 8
REMARK VINA RESULT:    -2.928      2.778      7.314
REMARK INTER + INTRA:         -11.329
REMARK INTER:                  -6.224
REMARK INTRA:                  -5.105
REMARK UNBOUND:                -3.950
REMARK SMILES CCCCCCCCCCCCCCCCCCCCCCCCCCCC(=O)[O-]
REMARK SMILES IDX 15 1 16 2 17 3 18 4 19 5 20 6 21 7 22 8 23 9 24 10 25 11
REMARK SMILES IDX 26 12 27 13 28 14 29 15 30 16 14 17 13 18 12 19 11 20 10 21
REMARK SMILES IDX 9 22 8 23 7 24 6 25 5 26 4 27 3 28 2 29 1 30
REMARK H PARENT
REMARK Flexibility Score: inf
ROOT
ATOM      1  C   UNL     1       6.315   2.594   4.834  1.00  0.00     0.000 C 
ENDROOT
BRANCH   1   2
ATOM      2  C   UNL     1       7.349   1.510   5.190  1.00  0.00     0.000 C 
BRANCH   2   3
ATOM      3  C   UNL     1       8.489   1.421   4.162  1.00  0.00     0.000 C 
BRANCH   3   4
ATOM      4  C   UNL     1       9.407   0.211   4.393  1.00  0.00     0.000 C 
BRANCH   4   5
ATOM      5  C   UNL     1      10.066   0.280   5.780  1.00  0.00     0.000 C 
BRANCH   5   6
ATOM      6  C   UNL     1       9.875  -1.007   6.597  1.00  0.00     0.000 C 
BRANCH   6   7
ATOM      7  C   UNL     1       8.940  -2.018   5.910  1.00  0.00     0.000 C 
BRANCH   7   8
ATOM      8  C   UNL     1       8.745  -3.296   6.747  1.00  0.00     0.000 C 
BRANCH   8   9
ATOM      9  C   UNL     1       8.279  -3.036   8.192  1.00  0.00     0.000 C 
BRANCH   9  10
ATOM     10  C   UNL     1       8.084  -4.341   8.984  1.00  0.00     0.000 C 
BRANCH  10  11
ATOM     11  C   UNL     1       9.047  -5.455   8.543  1.00  0.00     0.000 C 
BRANCH  11  12
ATOM     12  C   UNL     1       8.348  -6.811   8.296  1.00  0.00     0.006 C 
BRANCH  12  13
ATOM     13  C   UNL     1       7.204  -6.691   7.281  1.00  0.00     0.053 C 
BRANCH  13  14
ATOM     14  C   UNL     1       5.919  -7.175   7.876  1.00  0.00     0.041 C 
ATOM     15  O   UNL     1       5.833  -7.396   9.114  1.00  0.00    -0.550 OA
ATOM     16  O   UNL     1       4.808  -7.375   7.065  1.00  0.00    -0.550 OA
ENDBRANCH  13  14
ENDBRANCH  12  13
ENDBRANCH  11  12
ENDBRANCH  10  11
ENDBRANCH   9  10
ENDBRANCH   8   9
ENDBRANCH   7   8
ENDBRANCH   6   7
ENDBRANCH   5   6
ENDBRANCH   4   5
ENDBRANCH   3   4
ENDBRANCH   2   3
ENDBRANCH   1   2
BRANCH   1  17
ATOM     17  C   UNL     1       6.915   4.016   4.819  1.00  0.00     0.000 C 
BRANCH  17  18
ATOM     18  C   UNL     1       6.568   4.857   6.063  1.00  0.00     0.000 C 
BRANCH  18  19
ATOM     19  C   UNL     1       7.757   5.173   6.990  1.00  0.00     0.000 C 
BRANCH  19  20
ATOM     20  C   UNL     1       9.091   4.509   6.591  1.00  0.00     0.000 C 
BRANCH  20  21
ATOM     21  C   UNL     1       9.631   3.470   7.595  1.00  0.00     0.000 C 
BRANCH  21  22
ATOM     22  C   UNL     1       8.551   2.688   8.365  1.00  0.00    -0.000 C 
BRANCH  22  23
ATOM     23  C   UNL     1       9.141   1.689   9.371  1.00  0.00    -0.000 C 
BRANCH  23  24
ATOM     24  C   UNL     1       8.207   0.482   9.559  1.00  0.00    -0.000 C 
BRANCH  24  25
ATOM     25  C   UNL     1       7.059   0.452   8.537  1.00  0.00    -0.000 C 
BRANCH  25  26
ATOM     26  C   UNL     1       5.787  -0.209   9.095  1.00  0.00    -0.000 C 
BRANCH  26  27
ATOM     27  C   UNL     1       4.579   0.743   9.093  1.00  0.00    -0.000 C 
BRANCH  27  28
ATOM     28  C   UNL     1       4.724   1.882   8.069  1.00  0.00    -0.000 C 
BRANCH  28  29
ATOM     29  C   UNL     1       4.317   3.248   8.646  1.00  0.00    -0.003 C 
ATOM     30  C   UNL     1       5.387   3.852   9.556  1.00  0.00     0.004 C 
ENDBRANCH  28  29
ENDBRANCH  27  28
ENDBRANCH  26  27
ENDBRANCH  25  26
ENDBRANCH  24  25
ENDBRANCH  23  24
ENDBRANCH  22  23
ENDBRANCH  21  22
ENDBRANCH  20  21
ENDBRANCH  19  20
ENDBRANCH  18  19
ENDBRANCH  17  18
ENDBRANCH   1  17
TORSDOF 26
ENDMDL
MODEL 9
REMARK VINA RESULT:    -2.928      3.311      8.533
REMARK INTER + INTRA:         -11.328
REMARK INTER:                  -6.362
REMARK INTRA:                  -4.966
REMARK UNBOUND:                -3.950
REMARK SMILES CCCCCCCCCCCCCCCCCCCCCCCCCCCC(=O)[O-]
REMARK SMILES IDX 15 1 16 2 17 3 18 4 19 5 20 6 21 7 22 8 23 9 24 10 25 11
REMARK SMILES IDX 26 12 27 13 28 14 29 15 30 16 14 17 13 18 12 19 11 20 10 21
REMARK SMILES IDX 9 22 8 23 7 24 6 25 5 26 4 27 3 28 2 29 1 30
REMARK H PARENT
REMARK Flexibility Score: inf
ROOT
ATOM      1  C   UNL     1       8.180   0.761   5.405  1.00  0.00     0.000 C 
ENDROOT
BRANCH   1   2
ATOM      2  C   UNL     1       9.459   1.378   6.000  1.00  0.00     0.000 C 
BRANCH   2   3
ATOM      3  C   UNL     1       9.226   1.994   7.389  1.00  0.00     0.000 C 
BRANCH   3   4
ATOM      4  C   UNL     1       7.741   2.258   7.684  1.00  0.00     0.000 C 
BRANCH   4   5
ATOM      5  C   UNL     1       7.285   1.485   8.932  1.00  0.00     0.000 C 
BRANCH   5   6
ATOM      6  C   UNL     1       6.260   0.386   8.613  1.00  0.00     0.000 C 
BRANCH   6   7
ATOM      7  C   UNL     1       6.832  -1.032   8.782  1.00  0.00     0.000 C 
BRANCH   7   8
ATOM      8  C   UNL     1       8.326  -1.020   9.153  1.00  0.00     0.000 C 
BRANCH   8   9
ATOM      9  C   UNL     1       9.240  -1.680   8.103  1.00  0.00     0.000 C 
BRANCH   9  10
ATOM     10  C   UNL     1       8.457  -2.583   7.134  1.00  0.00     0.000 C 
BRANCH  10  11
ATOM     11  C   UNL     1       8.807  -4.071   7.292  1.00  0.00     0.000 C 
BRANCH  11  12
ATOM     12  C   UNL     1       9.077  -4.787   5.950  1.00  0.00     0.006 C 
BRANCH  12  13
ATOM     13  C   UNL     1       9.253  -6.300   6.131  1.00  0.00     0.053 C 
BRANCH  13  14
ATOM     14  C   UNL     1       8.204  -7.049   5.370  1.00  0.00     0.041 C 
ATOM     15  O   UNL     1       8.203  -7.038   4.110  1.00  0.00    -0.550 OA
ATOM     16  O   UNL     1       7.229  -7.767   6.051  1.00  0.00    -0.550 OA
ENDBRANCH  13  14
ENDBRANCH  12  13
ENDBRANCH  11  12
ENDBRANCH  10  11
ENDBRANCH   9  10
ENDBRANCH   8   9
ENDBRANCH   7   8
ENDBRANCH   6   7
ENDBRANCH   5   6
ENDBRANCH   4   5
ENDBRANCH   3   4
ENDBRANCH   2   3
ENDBRANCH   1   2
BRANCH   1  17
ATOM     17  C   UNL     1       7.699   1.487   4.130  1.00  0.00     0.000 C 
BRANCH  17  18
ATOM     18  C   UNL     1       6.294   2.110   4.255  1.00  0.00     0.000 C 
BRANCH  18  19
ATOM     19  C   UNL     1       6.224   3.624   3.984  1.00  0.00     0.000 C 
BRANCH  19  20
ATOM     20  C   UNL     1       6.384   4.519   5.231  1.00  0.00     0.000 C 
BRANCH  20  21
ATOM     21  C   UNL     1       7.509   5.569   5.142  1.00  0.00     0.000 C 
BRANCH  21  22
ATOM     22  C   UNL     1       8.938   5.003   5.242  1.00  0.00    -0.000 C 
BRANCH  22  23
ATOM     23  C   UNL     1       9.697   5.514   6.475  1.00  0.00    -0.000 C 
BRANCH  23  24
ATOM     24  C   UNL     1       9.228   6.925   6.863  1.00  0.00    -0.000 C 
BRANCH  24  25
ATOM     25  C   UNL     1       8.724   7.009   8.312  1.00  0.00    -0.000 C 
BRANCH  25  26
ATOM     26  C   UNL     1       8.331   5.635   8.884  1.00  0.00    -0.000 C 
BRANCH  26  27
ATOM     27  C   UNL     1       6.871   5.594   9.366  1.00  0.00    -0.000 C 
BRANCH  27  28
ATOM     28  C   UNL     1       5.908   6.309   8.402  1.00  0.00    -0.000 C 
BRANCH  28  29
ATOM     29  C   UNL     1       4.528   5.633   8.341  1.00  0.00    -0.003 C 
ATOM     30  C   UNL     1       4.595   4.124   8.574  1.00  0.00     0.004 C 
ENDBRANCH  28  29
ENDBRANCH  27  28
ENDBRANCH  26  27
ENDBRANCH  25  26
ENDBRANCH  24  25
ENDBRANCH  23  24
ENDBRANCH  22  23
ENDBRANCH  21  22
ENDBRANCH  20  21
ENDBRANCH  19  20
ENDBRANCH  18  19
ENDBRANCH  17  18
ENDBRANCH   1  17
TORSDOF 26
ENDMDL
