MODEL 1
REMARK VINA RESULT:    -4.124      0.000      0.000
REMARK INTER + INTRA:         -10.189
REMARK INTER:                  -7.982
REMARK INTRA:                  -2.207
REMARK UNBOUND:                -2.207
REMARK SMILES CCCCCCCCCCCCCCCCCC(=O)[O-]
REMARK SMILES IDX 10 1 11 2 12 3 13 4 14 5 15 6 16 7 17 8 18 9 19 10 20 11
REMARK SMILES IDX 9 12 8 13 7 14 6 15 5 16 4 17 3 18 2 19 1 20
REMARK H PARENT
REMARK Flexibility Score: inf
ROOT
ATOM      1  C   UNL     1      48.240  -0.502  74.407  1.00  0.00     0.000 C 
ENDROOT
BRANCH   1   2
ATOM      2  C   UNL     1      48.816   0.163  73.146  1.00  0.00     0.000 C 
BRANCH   2   3
ATOM      3  C   UNL     1      48.900  -0.807  71.956  1.00  0.00     0.000 C 
BRANCH   3   4
ATOM      4  C   UNL     1      50.279  -1.480  71.823  1.00  0.00     0.000 C 
BRANCH   4   5
ATOM      5  C   UNL     1      51.482  -0.591  72.187  1.00  0.00     0.000 C 
BRANCH   5   6
ATOM      6  C   UNL     1      52.811  -1.367  72.232  1.00  0.00     0.000 C 
BRANCH   6   7
ATOM      7  C   UNL     1      52.897  -2.315  73.439  1.00  0.00     0.006 C 
BRANCH   7   8
ATOM      8  C   UNL     1      53.208  -3.762  73.032  1.00  0.00     0.053 C 
BRANCH   8   9
ATOM      9  C   UNL     1      54.685  -3.961  72.910  1.00  0.00     0.041 C 
ATOM     10  O   UNL     1      55.242  -3.895  71.782  1.00  0.00    -0.550 OA
ATOM     11  O   UNL     1      55.441  -4.275  74.033  1.00  0.00    -0.550 OA
ENDBRANCH   8   9
ENDBRANCH   7   8
ENDBRANCH   6   7
ENDBRANCH   5   6
ENDBRANCH   4   5
ENDBRANCH   3   4
ENDBRANCH   2   3
ENDBRANCH   1   2
BRANCH   1  12
ATOM     12  C   UNL     1      49.306  -1.250  75.223  1.00  0.00     0.000 C 
BRANCH  12  13
ATOM     13  C   UNL     1      48.843  -2.679  75.546  1.00  0.00    -0.000 C 
BRANCH  13  14
ATOM     14  C   UNL     1      49.877  -3.744  75.143  1.00  0.00    -0.000 C 
BRANCH  14  15
ATOM     15  C   UNL     1      49.501  -4.466  73.837  1.00  0.00    -0.000 C 
BRANCH  15  16
ATOM     16  C   UNL     1      48.089  -4.104  73.348  1.00  0.00    -0.000 C 
BRANCH  16  17
ATOM     17  C   UNL     1      47.069  -5.230  73.595  1.00  0.00    -0.000 C 
BRANCH  17  18
ATOM     18  C   UNL     1      46.116  -4.928  74.766  1.00  0.00    -0.000 C 
BRANCH  18  19
ATOM     19  C   UNL     1      45.535  -6.169  75.468  1.00  0.00    -0.003 C 
ATOM     20  C   UNL     1      44.023  -6.306  75.286  1.00  0.00     0.004 C 
ENDBRANCH  18  19
ENDBRANCH  17  18
ENDBRANCH  16  17
ENDBRANCH  15  16
ENDBRANCH  14  15
ENDBRANCH  13  14
ENDBRANCH  12  13
ENDBRANCH   1  12
TORSDOF 16
ENDMDL
MODEL 2
REMARK VINA RESULT:    -4.106      1.557      2.697
REMARK INTER + INTRA:         -10.154
REMARK INTER:                  -7.557
REMARK INTRA:                  -2.597
REMARK UNBOUND:                -2.207
REMARK SMILES CCCCCCCCCCCCCCCCCC(=O)[O-]
REMARK SMILES IDX 10 1 11 2 12 3 13 4 14 5 15 6 16 7 17 8 18 9 19 10 20 11
REMARK SMILES IDX 9 12 8 13 7 14 6 15 5 16 4 17 3 18 2 19 1 20
REMARK H PARENT
REMARK Flexibility Score: inf
ROOT
ATOM      1  C   UNL     1      48.973  -2.562  76.093  1.00  0.00     0.000 C 
ENDROOT
BRANCH   1   2
ATOM      2  C   UNL     1      49.248  -1.085  75.768  1.00  0.00     0.000 C 
BRANCH   2   3
ATOM      3  C   UNL     1      48.187  -0.480  74.833  1.00  0.00     0.000 C 
BRANCH   3   4
ATOM      4  C   UNL     1      48.794   0.214  73.601  1.00  0.00     0.000 C 
BRANCH   4   5
ATOM      5  C   UNL     1      48.573  -0.513  72.261  1.00  0.00     0.000 C 
BRANCH   5   6
ATOM      6  C   UNL     1      49.851  -1.177  71.720  1.00  0.00     0.000 C 
BRANCH   6   7
ATOM      7  C   UNL     1      51.115  -0.710  72.461  1.00  0.00     0.006 C 
BRANCH   7   8
ATOM      8  C   UNL     1      52.008  -1.879  72.899  1.00  0.00     0.053 C 
BRANCH   8   9
ATOM      9  C   UNL     1      53.333  -1.807  72.208  1.00  0.00     0.041 C 
ATOM     10  O   UNL     1      53.651  -0.781  71.551  1.00  0.00    -0.550 OA
ATOM     11  O   UNL     1      54.196  -2.896  72.243  1.00  0.00    -0.550 OA
ENDBRANCH   8   9
ENDBRANCH   7   8
ENDBRANCH   6   7
ENDBRANCH   5   6
ENDBRANCH   4   5
ENDBRANCH   3   4
ENDBRANCH   2   3
ENDBRANCH   1   2
BRANCH   1  12
ATOM     12  C   UNL     1      50.168  -3.473  75.771  1.00  0.00     0.000 C 
BRANCH  12  13
ATOM     13  C   UNL     1      49.698  -4.773  75.099  1.00  0.00    -0.000 C 
BRANCH  13  14
ATOM     14  C   UNL     1      50.344  -4.996  73.721  1.00  0.00    -0.000 C 
BRANCH  14  15
ATOM     15  C   UNL     1      49.432  -4.551  72.564  1.00  0.00    -0.000 C 
BRANCH  15  16
ATOM     16  C   UNL     1      47.942  -4.568  72.946  1.00  0.00    -0.000 C 
BRANCH  16  17
ATOM     17  C   UNL     1      47.169  -5.712  72.266  1.00  0.00    -0.000 C 
BRANCH  17  18
ATOM     18  C   UNL     1      46.423  -6.609  73.270  1.00  0.00    -0.000 C 
BRANCH  18  19
ATOM     19  C   UNL     1      47.329  -7.455  74.184  1.00  0.00    -0.003 C 
ATOM     20  C   UNL     1      48.347  -8.291  73.410  1.00  0.00     0.004 C 
ENDBRANCH  18  19
ENDBRANCH  17  18
ENDBRANCH  16  17
ENDBRANCH  15  16
ENDBRANCH  14  15
ENDBRANCH  13  14
ENDBRANCH  12  13
ENDBRANCH   1  12
TORSDOF 16
ENDMDL
MODEL 3
REMARK VINA RESULT:    -4.060      3.937      6.186
REMARK INTER + INTRA:         -10.065
REMARK INTER:                  -7.884
REMARK INTRA:                  -2.181
REMARK UNBOUND:                -2.207
REMARK SMILES CCCCCCCCCCCCCCCCCC(=O)[O-]
REMARK SMILES IDX 10 1 11 2 12 3 13 4 14 5 15 6 16 7 17 8 18 9 19 10 20 11
REMARK SMILES IDX 9 12 8 13 7 14 6 15 5 16 4 17 3 18 2 19 1 20
REMARK H PARENT
REMARK Flexibility Score: inf
ROOT
ATOM      1  C   UNL     1      50.911  -0.948  72.238  1.00  0.00     0.000 C 
ENDROOT
BRANCH   1   2
ATOM      2  C   UNL     1      51.501  -2.348  72.474  1.00  0.00     0.000 C 
BRANCH   2   3
ATOM      3  C   UNL     1      50.599  -3.467  71.925  1.00  0.00     0.000 C 
BRANCH   3   4
ATOM      4  C   UNL     1      50.052  -4.394  73.026  1.00  0.00     0.000 C 
BRANCH   4   5
ATOM      5  C   UNL     1      48.792  -5.193  72.646  1.00  0.00     0.000 C 
BRANCH   5   6
ATOM      6  C   UNL     1      47.506  -4.616  73.264  1.00  0.00     0.000 C 
BRANCH   6   7
ATOM      7  C   UNL     1      47.311  -5.048  74.726  1.00  0.00     0.006 C 
BRANCH   7   8
ATOM      8  C   UNL     1      45.918  -4.695  75.266  1.00  0.00     0.053 C 
BRANCH   8   9
ATOM      9  C   UNL     1      44.961  -5.814  75.006  1.00  0.00     0.041 C 
ATOM     10  O   UNL     1      45.005  -6.861  75.704  1.00  0.00    -0.550 OA
ATOM     11  O   UNL     1      44.055  -5.725  73.955  1.00  0.00    -0.550 OA
ENDBRANCH   8   9
ENDBRANCH   7   8
ENDBRANCH   6   7
ENDBRANCH   5   6
ENDBRANCH   4   5
ENDBRANCH   3   4
ENDBRANCH   2   3
ENDBRANCH   1   2
BRANCH   1  12
ATOM     12  C   UNL     1      49.453  -0.993  71.754  1.00  0.00     0.000 C 
BRANCH  12  13
ATOM     13  C   UNL     1      48.515  -0.350  72.787  1.00  0.00    -0.000 C 
BRANCH  13  14
ATOM     14  C   UNL     1      49.118  -0.326  74.202  1.00  0.00    -0.000 C 
BRANCH  14  15
ATOM     15  C   UNL     1      48.739  -1.569  75.025  1.00  0.00    -0.000 C 
BRANCH  15  16
ATOM     16  C   UNL     1      49.755  -1.873  76.138  1.00  0.00    -0.000 C 
BRANCH  16  17
ATOM     17  C   UNL     1      49.511  -3.238  76.807  1.00  0.00    -0.000 C 
BRANCH  17  18
ATOM     18  C   UNL     1      50.389  -3.460  78.052  1.00  0.00    -0.000 C 
BRANCH  18  19
ATOM     19  C   UNL     1      50.310  -4.873  78.659  1.00  0.00    -0.003 C 
ATOM     20  C   UNL     1      48.878  -5.317  78.954  1.00  0.00     0.004 C 
ENDBRANCH  18  19
ENDBRANCH  17  18
ENDBRANCH  16  17
ENDBRANCH  15  16
ENDBRANCH  14  15
ENDBRANCH  13  14
ENDBRANCH  12  13
ENDBRANCH   1  12
TORSDOF 16
ENDMDL
MODEL 4
REMARK VINA RESULT:    -4.018      3.067      4.648
REMARK INTER + INTRA:          -9.983
REMARK INTER:                  -7.297
REMARK INTRA:                  -2.686
REMARK UNBOUND:                -2.207
REMARK SMILES CCCCCCCCCCCCCCCCCC(=O)[O-]
REMARK SMILES IDX 10 1 11 2 12 3 13 4 14 5 15 6 16 7 17 8 18 9 19 10 20 11
REMARK SMILES IDX 9 12 8 13 7 14 6 15 5 16 4 17 3 18 2 19 1 20
REMARK H PARENT
REMARK Flexibility Score: inf
ROOT
ATOM      1  C   UNL     1      50.077  -1.387  71.844  1.00  0.00     0.000 C 
ENDROOT
BRANCH   1   2
ATOM      2  C   UNL     1      51.235  -0.441  72.203  1.00  0.00     0.000 C 
BRANCH   2   3
ATOM      3  C   UNL     1      52.600  -1.151  72.188  1.00  0.00     0.000 C 
BRANCH   3   4
ATOM      4  C   UNL     1      52.525  -2.612  72.666  1.00  0.00     0.000 C 
BRANCH   4   5
ATOM      5  C   UNL     1      52.443  -2.801  74.193  1.00  0.00     0.000 C 
BRANCH   5   6
ATOM      6  C   UNL     1      51.640  -4.049  74.601  1.00  0.00     0.000 C 
BRANCH   6   7
ATOM      7  C   UNL     1      50.787  -4.602  73.449  1.00  0.00     0.006 C 
BRANCH   7   8
ATOM      8  C   UNL     1      49.522  -5.319  73.941  1.00  0.00     0.053 C 
BRANCH   8   9
ATOM      9  C   UNL     1      48.482  -5.333  72.867  1.00  0.00     0.041 C 
ATOM     10  O   UNL     1      47.905  -4.266  72.529  1.00  0.00    -0.550 OA
ATOM     11  O   UNL     1      48.108  -6.534  72.275  1.00  0.00    -0.550 OA
ENDBRANCH   8   9
ENDBRANCH   7   8
ENDBRANCH   6   7
ENDBRANCH   5   6
ENDBRANCH   4   5
ENDBRANCH   3   4
ENDBRANCH   2   3
ENDBRANCH   1   2
BRANCH   1  12
ATOM     12  C   UNL     1      48.700  -0.790  72.174  1.00  0.00     0.000 C 
BRANCH  12  13
ATOM     13  C   UNL     1      48.620  -0.388  73.655  1.00  0.00    -0.000 C 
BRANCH  13  14
ATOM     14  C   UNL     1      48.840  -1.577  74.606  1.00  0.00    -0.000 C 
BRANCH  14  15
ATOM     15  C   UNL     1      49.311  -1.136  76.003  1.00  0.00    -0.000 C 
BRANCH  15  16
ATOM     16  C   UNL     1      49.604  -2.326  76.931  1.00  0.00    -0.000 C 
BRANCH  16  17
ATOM     17  C   UNL     1      48.451  -3.345  76.970  1.00  0.00    -0.000 C 
BRANCH  17  18
ATOM     18  C   UNL     1      48.862  -4.689  77.600  1.00  0.00    -0.000 C 
BRANCH  18  19
ATOM     19  C   UNL     1      49.808  -4.577  78.809  1.00  0.00    -0.003 C 
ATOM     20  C   UNL     1      51.137  -5.301  78.599  1.00  0.00     0.004 C 
ENDBRANCH  18  19
ENDBRANCH  17  18
ENDBRANCH  16  17
ENDBRANCH  15  16
ENDBRANCH  14  15
ENDBRANCH  13  14
ENDBRANCH  12  13
ENDBRANCH   1  12
TORSDOF 16
ENDMDL
MODEL 5
REMARK VINA RESULT:    -4.003      2.942      6.006
REMARK INTER + INTRA:          -9.954
REMARK INTER:                  -7.709
REMARK INTRA:                  -2.245
REMARK UNBOUND:                -2.207
REMARK SMILES CCCCCCCCCCCCCCCCCC(=O)[O-]
REMARK SMILES IDX 10 1 11 2 12 3 13 4 14 5 15 6 16 7 17 8 18 9 19 10 20 11
REMARK SMILES IDX 9 12 8 13 7 14 6 15 5 16 4 17 3 18 2 19 1 20
REMARK H PARENT
REMARK Flexibility Score: inf
ROOT
ATOM      1  C   UNL     1      47.187  -4.794  73.958  1.00  0.00     0.000 C 
ENDROOT
BRANCH   1   2
ATOM      2  C   UNL     1      47.872  -4.463  75.294  1.00  0.00     0.000 C 
BRANCH   2   3
ATOM      3  C   UNL     1      48.173  -2.962  75.445  1.00  0.00     0.000 C 
BRANCH   3   4
ATOM      4  C   UNL     1      48.734  -2.597  76.832  1.00  0.00     0.000 C 
BRANCH   4   5
ATOM      5  C   UNL     1      48.310  -3.532  77.980  1.00  0.00     0.000 C 
BRANCH   5   6
ATOM      6  C   UNL     1      49.278  -3.492  79.176  1.00  0.00     0.000 C 
BRANCH   6   7
ATOM      7  C   UNL     1      50.514  -4.380  78.961  1.00  0.00     0.006 C 
BRANCH   7   8
ATOM      8  C   UNL     1      50.147  -5.831  78.619  1.00  0.00     0.053 C 
BRANCH   8   9
ATOM      9  C   UNL     1      51.384  -6.645  78.415  1.00  0.00     0.041 C 
ATOM     10  O   UNL     1      52.512  -6.172  78.714  1.00  0.00    -0.550 OA
ATOM     11  O   UNL     1      51.299  -7.908  77.841  1.00  0.00    -0.550 OA
ENDBRANCH   8   9
ENDBRANCH   7   8
ENDBRANCH   6   7
ENDBRANCH   5   6
ENDBRANCH   4   5
ENDBRANCH   3   4
ENDBRANCH   2   3
ENDBRANCH   1   2
BRANCH   1  12
ATOM     12  C   UNL     1      47.941  -4.222  72.747  1.00  0.00     0.000 C 
BRANCH  12  13
ATOM     13  C   UNL     1      49.269  -4.965  72.531  1.00  0.00    -0.000 C 
BRANCH  13  14
ATOM     14  C   UNL     1      50.451  -4.011  72.288  1.00  0.00    -0.000 C 
BRANCH  14  15
ATOM     15  C   UNL     1      51.299  -3.788  73.552  1.00  0.00    -0.000 C 
BRANCH  15  16
ATOM     16  C   UNL     1      51.591  -2.302  73.814  1.00  0.00    -0.000 C 
BRANCH  16  17
ATOM     17  C   UNL     1      51.997  -1.543  72.537  1.00  0.00    -0.000 C 
BRANCH  17  18
ATOM     18  C   UNL     1      51.097  -0.327  72.252  1.00  0.00    -0.000 C 
BRANCH  18  19
ATOM     19  C   UNL     1      49.704  -0.383  72.904  1.00  0.00    -0.003 C 
ATOM     20  C   UNL     1      48.588  -0.693  71.907  1.00  0.00     0.004 C 
ENDBRANCH  18  19
ENDBRANCH  17  18
ENDBRANCH  16  17
ENDBRANCH  15  16
ENDBRANCH  14  15
ENDBRANCH  13  14
ENDBRANCH  12  13
ENDBRANCH   1  12
TORSDOF 16
ENDMDL
MODEL 6
REMARK VINA RESULT:    -3.993      3.531      5.328
REMARK INTER + INTRA:          -9.935
REMARK INTER:                  -7.644
REMARK INTRA:                  -2.290
REMARK UNBOUND:                -2.207
REMARK SMILES CCCCCCCCCCCCCCCCCC(=O)[O-]
REMARK SMILES IDX 10 1 11 2 12 3 13 4 14 5 15 6 16 7 17 8 18 9 19 10 20 11
REMARK SMILES IDX 9 12 8 13 7 14 6 15 5 16 4 17 3 18 2 19 1 20
REMARK H PARENT
REMARK Flexibility Score: inf
ROOT
ATOM      1  C   UNL     1      53.124  -2.506  73.854  1.00  0.00     0.000 C 
ENDROOT
BRANCH   1   2
ATOM      2  C   UNL     1      53.202  -2.342  72.327  1.00  0.00     0.000 C 
BRANCH   2   3
ATOM      3  C   UNL     1      52.897  -0.904  71.874  1.00  0.00     0.000 C 
BRANCH   3   4
ATOM      4  C   UNL     1      51.481  -0.439  72.260  1.00  0.00     0.000 C 
BRANCH   4   5
ATOM      5  C   UNL     1      50.333  -1.315  71.727  1.00  0.00     0.000 C 
BRANCH   5   6
ATOM      6  C   UNL     1      49.011  -1.100  72.486  1.00  0.00     0.000 C 
BRANCH   6   7
ATOM      7  C   UNL     1      49.071   0.103  73.441  1.00  0.00     0.006 C 
BRANCH   7   8
ATOM      8  C   UNL     1      48.180  -0.079  74.677  1.00  0.00     0.053 C 
BRANCH   8   9
ATOM      9  C   UNL     1      48.612   0.847  75.770  1.00  0.00     0.041 C 
ATOM     10  O   UNL     1      48.468   2.091  75.640  1.00  0.00    -0.550 OA
ATOM     11  O   UNL     1      49.224   0.341  76.910  1.00  0.00    -0.550 OA
ENDBRANCH   8   9
ENDBRANCH   7   8
ENDBRANCH   6   7
ENDBRANCH   5   6
ENDBRANCH   4   5
ENDBRANCH   3   4
ENDBRANCH   2   3
ENDBRANCH   1   2
BRANCH   1  12
ATOM     12  C   UNL     1      51.984  -3.439  74.293  1.00  0.00     0.000 C 
BRANCH  12  13
ATOM     13  C   UNL     1      51.078  -2.746  75.323  1.00  0.00    -0.000 C 
BRANCH  13  14
ATOM     14  C   UNL     1      49.662  -3.347  75.367  1.00  0.00    -0.000 C 
BRANCH  14  15
ATOM     15  C   UNL     1      49.018  -3.235  76.760  1.00  0.00    -0.000 C 
BRANCH  15  16
ATOM     16  C   UNL     1      50.053  -3.002  77.873  1.00  0.00    -0.000 C 
BRANCH  16  17
ATOM     17  C   UNL     1      49.949  -4.039  79.005  1.00  0.00    -0.000 C 
BRANCH  17  18
ATOM     18  C   UNL     1      50.539  -5.408  78.619  1.00  0.00    -0.000 C 
BRANCH  18  19
ATOM     19  C   UNL     1      49.523  -6.565  78.578  1.00  0.00    -0.003 C 
ATOM     20  C   UNL     1      48.097  -6.121  78.901  1.00  0.00     0.004 C 
ENDBRANCH  18  19
ENDBRANCH  17  18
ENDBRANCH  16  17
ENDBRANCH  15  16
ENDBRANCH  14  15
ENDBRANCH  13  14
ENDBRANCH  12  13
ENDBRANCH   1  12
TORSDOF 16
ENDMDL
MODEL 7
REMARK VINA RESULT:    -3.971      2.413      4.658
REMARK INTER + INTRA:          -9.892
REMARK INTER:                  -8.055
REMARK INTRA:                  -1.837
REMARK UNBOUND:                -2.207
REMARK SMILES CCCCCCCCCCCCCCCCCC(=O)[O-]
REMARK SMILES IDX 10 1 11 2 12 3 13 4 14 5 15 6 16 7 17 8 18 9 19 10 20 11
REMARK SMILES IDX 9 12 8 13 7 14 6 15 5 16 4 17 3 18 2 19 1 20
REMARK H PARENT
REMARK Flexibility Score: inf
ROOT
ATOM      1  C   UNL     1      47.956  -4.796  72.620  1.00  0.00     0.000 C 
ENDROOT
BRANCH   1   2
ATOM      2  C   UNL     1      49.299  -4.967  73.350  1.00  0.00     0.000 C 
BRANCH   2   3
ATOM      3  C   UNL     1      49.458  -3.987  74.525  1.00  0.00     0.000 C 
BRANCH   3   4
ATOM      4  C   UNL     1      48.431  -2.840  74.496  1.00  0.00     0.000 C 
BRANCH   4   5
ATOM      5  C   UNL     1      49.014  -1.442  74.216  1.00  0.00     0.000 C 
BRANCH   5   6
ATOM      6  C   UNL     1      48.785  -0.975  72.768  1.00  0.00     0.000 C 
BRANCH   6   7
ATOM      7  C   UNL     1      49.987  -1.272  71.858  1.00  0.00     0.006 C 
BRANCH   7   8
ATOM      8  C   UNL     1      51.224  -0.441  72.222  1.00  0.00     0.053 C 
BRANCH   8   9
ATOM      9  C   UNL     1      52.444  -1.305  72.240  1.00  0.00     0.041 C 
ATOM     10  O   UNL     1      52.426  -2.416  72.832  1.00  0.00    -0.550 OA
ATOM     11  O   UNL     1      53.622  -0.860  71.650  1.00  0.00    -0.550 OA
ENDBRANCH   8   9
ENDBRANCH   7   8
ENDBRANCH   6   7
ENDBRANCH   5   6
ENDBRANCH   4   5
ENDBRANCH   3   4
ENDBRANCH   2   3
ENDBRANCH   1   2
BRANCH   1  12
ATOM     12  C   UNL     1      46.873  -5.756  73.137  1.00  0.00     0.000 C 
BRANCH  12  13
ATOM     13  C   UNL     1      47.488  -7.106  73.539  1.00  0.00    -0.000 C 
BRANCH  13  14
ATOM     14  C   UNL     1      46.898  -7.660  74.848  1.00  0.00    -0.000 C 
BRANCH  14  15
ATOM     15  C   UNL     1      47.845  -7.472  76.046  1.00  0.00    -0.000 C 
BRANCH  15  16
ATOM     16  C   UNL     1      47.212  -6.640  77.174  1.00  0.00    -0.000 C 
BRANCH  16  17
ATOM     17  C   UNL     1      48.075  -6.616  78.448  1.00  0.00    -0.000 C 
BRANCH  17  18
ATOM     18  C   UNL     1      48.399  -5.188  78.924  1.00  0.00    -0.000 C 
BRANCH  18  19
ATOM     19  C   UNL     1      49.900  -4.843  78.966  1.00  0.00    -0.003 C 
ATOM     20  C   UNL     1      50.786  -5.958  78.411  1.00  0.00     0.004 C 
ENDBRANCH  18  19
ENDBRANCH  17  18
ENDBRANCH  16  17
ENDBRANCH  15  16
ENDBRANCH  14  15
ENDBRANCH  13  14
ENDBRANCH  12  13
ENDBRANCH   1  12
TORSDOF 16
ENDMDL
MODEL 8
REMARK VINA RESULT:    -3.950      3.161      6.440
REMARK INTER + INTRA:          -9.852
REMARK INTER:                  -7.416
REMARK INTRA:                  -2.437
REMARK UNBOUND:                -2.207
REMARK SMILES CCCCCCCCCCCCCCCCCC(=O)[O-]
REMARK SMILES IDX 10 1 11 2 12 3 13 4 14 5 15 6 16 7 17 8 18 9 19 10 20 11
REMARK SMILES IDX 9 12 8 13 7 14 6 15 5 16 4 17 3 18 2 19 1 20
REMARK H PARENT
REMARK Flexibility Score: inf
ROOT
ATOM      1  C   UNL     1      49.293  -3.029  75.294  1.00  0.00     0.000 C 
ENDROOT
BRANCH   1   2
ATOM      2  C   UNL     1      48.031  -3.675  74.698  1.00  0.00     0.000 C 
BRANCH   2   3
ATOM      3  C   UNL     1      46.989  -4.032  75.772  1.00  0.00     0.000 C 
BRANCH   3   4
ATOM      4  C   UNL     1      46.634  -5.530  75.792  1.00  0.00     0.000 C 
BRANCH   4   5
ATOM      5  C   UNL     1      47.761  -6.467  76.263  1.00  0.00     0.000 C 
BRANCH   5   6
ATOM      6  C   UNL     1      47.497  -7.073  77.653  1.00  0.00     0.000 C 
BRANCH   6   7
ATOM      7  C   UNL     1      47.920  -6.133  78.793  1.00  0.00     0.006 C 
BRANCH   7   8
ATOM      8  C   UNL     1      49.434  -5.880  78.819  1.00  0.00     0.053 C 
BRANCH   8   9
ATOM      9  C   UNL     1      49.714  -4.428  79.043  1.00  0.00     0.041 C 
ATOM     10  O   UNL     1      50.902  -4.011  79.085  1.00  0.00    -0.550 OA
ATOM     11  O   UNL     1      48.666  -3.542  79.262  1.00  0.00    -0.550 OA
ENDBRANCH   8   9
ENDBRANCH   7   8
ENDBRANCH   6   7
ENDBRANCH   5   6
ENDBRANCH   4   5
ENDBRANCH   3   4
ENDBRANCH   2   3
ENDBRANCH   1   2
BRANCH   1  12
ATOM     12  C   UNL     1      50.432  -4.039  75.505  1.00  0.00     0.000 C 
BRANCH  12  13
ATOM     13  C   UNL     1      50.790  -4.742  74.186  1.00  0.00    -0.000 C 
BRANCH  13  14
ATOM     14  C   UNL     1      52.166  -4.320  73.643  1.00  0.00    -0.000 C 
BRANCH  14  15
ATOM     15  C   UNL     1      52.059  -3.449  72.379  1.00  0.00    -0.000 C 
BRANCH  15  16
ATOM     16  C   UNL     1      52.408  -1.975  72.646  1.00  0.00    -0.000 C 
BRANCH  16  17
ATOM     17  C   UNL     1      51.239  -1.023  72.334  1.00  0.00    -0.000 C 
BRANCH  17  18
ATOM     18  C   UNL     1      49.980  -1.762  71.845  1.00  0.00    -0.000 C 
BRANCH  18  19
ATOM     19  C   UNL     1      48.692  -0.917  71.840  1.00  0.00    -0.003 C 
ATOM     20  C   UNL     1      48.541  -0.050  73.089  1.00  0.00     0.004 C 
ENDBRANCH  18  19
ENDBRANCH  17  18
ENDBRANCH  16  17
ENDBRANCH  15  16
ENDBRANCH  14  15
ENDBRANCH  13  14
ENDBRANCH  12  13
ENDBRANCH   1  12
TORSDOF 16
ENDMDL
MODEL 9
REMARK VINA RESULT:    -3.949      2.503      3.865
REMARK INTER + INTRA:          -9.849
REMARK INTER:                  -7.325
REMARK INTRA:                  -2.524
REMARK UNBOUND:                -2.207
REMARK SMILES CCCCCCCCCCCCCCCCCC(=O)[O-]
REMARK SMILES IDX 10 1 11 2 12 3 13 4 14 5 15 6 16 7 17 8 18 9 19 10 20 11
REMARK SMILES IDX 9 12 8 13 7 14 6 15 5 16 4 17 3 18 2 19 1 20
REMARK H PARENT
REMARK Flexibility Score: inf
ROOT
ATOM      1  C   UNL     1      50.054  -5.129  74.765  1.00  0.00     0.000 C 
ENDROOT
BRANCH   1   2
ATOM      2  C   UNL     1      48.632  -4.591  74.994  1.00  0.00     0.000 C 
BRANCH   2   3
ATOM      3  C   UNL     1      47.920  -4.232  73.679  1.00  0.00     0.000 C 
BRANCH   3   4
ATOM      4  C   UNL     1      48.855  -3.575  72.647  1.00  0.00     0.000 C 
BRANCH   4   5
ATOM      5  C   UNL     1      48.666  -2.058  72.460  1.00  0.00     0.000 C 
BRANCH   5   6
ATOM      6  C   UNL     1      49.945  -1.349  71.980  1.00  0.00     0.000 C 
BRANCH   6   7
ATOM      7  C   UNL     1      51.213  -1.910  72.644  1.00  0.00     0.006 C 
BRANCH   7   8
ATOM      8  C   UNL     1      52.496  -1.256  72.113  1.00  0.00     0.053 C 
BRANCH   8   9
ATOM      9  C   UNL     1      53.681  -2.117  72.416  1.00  0.00     0.041 C 
ATOM     10  O   UNL     1      54.434  -2.510  71.486  1.00  0.00    -0.550 OA
ATOM     11  O   UNL     1      53.924  -2.533  73.720  1.00  0.00    -0.550 OA
ENDBRANCH   8   9
ENDBRANCH   7   8
ENDBRANCH   6   7
ENDBRANCH   5   6
ENDBRANCH   4   5
ENDBRANCH   3   4
ENDBRANCH   2   3
ENDBRANCH   1   2
BRANCH   1  12
ATOM     12  C   UNL     1      51.104  -4.421  75.637  1.00  0.00     0.000 C 
BRANCH  12  13
ATOM     13  C   UNL     1      50.618  -3.023  76.050  1.00  0.00    -0.000 C 
BRANCH  13  14
ATOM     14  C   UNL     1      50.865  -2.725  77.539  1.00  0.00    -0.000 C 
BRANCH  14  15
ATOM     15  C   UNL     1      50.598  -3.945  78.437  1.00  0.00    -0.000 C 
BRANCH  15  16
ATOM     16  C   UNL     1      49.116  -4.079  78.826  1.00  0.00    -0.000 C 
BRANCH  16  17
ATOM     17  C   UNL     1      48.659  -5.545  78.921  1.00  0.00    -0.000 C 
BRANCH  17  18
ATOM     18  C   UNL     1      49.773  -6.544  78.559  1.00  0.00    -0.000 C 
BRANCH  18  19
ATOM     19  C   UNL     1      49.416  -7.534  77.434  1.00  0.00    -0.003 C 
ATOM     20  C   UNL     1      47.927  -7.870  77.383  1.00  0.00     0.004 C 
ENDBRANCH  18  19
ENDBRANCH  17  18
ENDBRANCH  16  17
ENDBRANCH  15  16
ENDBRANCH  14  15
ENDBRANCH  13  14
ENDBRANCH  12  13
ENDBRANCH   1  12
TORSDOF 16
ENDMDL
