MODEL 1
REMARK VINA RESULT:    -4.898      0.000      0.000
REMARK INTER + INTRA:         -14.832
REMARK INTER:                 -11.198
REMARK INTRA:                  -3.634
REMARK UNBOUND:                -3.634
REMARK SMILES CCCCCCCCCCCCCCCCCCCCCCCC(=O)[O-]
REMARK SMILES IDX 13 1 14 2 15 3 16 4 17 5 18 6 19 7 20 8 21 9 22 10 23 11
REMARK SMILES IDX 24 12 25 13 26 14 12 15 11 16 10 17 9 18 8 19 7 20 6 21 5 22
REMARK SMILES IDX 4 23 3 24 2 25 1 26
REMARK H PARENT
REMARK Flexibility Score: inf
ROOT
ATOM      1  C   UNL     1      19.491  12.735  45.279  1.00  0.00     0.000 C 
ENDROOT
BRANCH   1   2
ATOM      2  C   UNL     1      19.361  11.630  46.340  1.00  0.00     0.000 C 
BRANCH   2   3
ATOM      3  C   UNL     1      20.407  10.532  46.117  1.00  0.00     0.000 C 
BRANCH   3   4
ATOM      4  C   UNL     1      19.774   9.297  45.457  1.00  0.00     0.000 C 
BRANCH   4   5
ATOM      5  C   UNL     1      20.801   8.413  44.727  1.00  0.00     0.000 C 
BRANCH   5   6
ATOM      6  C   UNL     1      22.262   8.897  44.824  1.00  0.00     0.000 C 
BRANCH   6   7
ATOM      7  C   UNL     1      22.938   9.201  43.473  1.00  0.00     0.000 C 
BRANCH   7   8
ATOM      8  C   UNL     1      22.627   8.191  42.351  1.00  0.00     0.000 C 
BRANCH   8   9
ATOM      9  C   UNL     1      21.919   8.786  41.116  1.00  0.00     0.000 C 
BRANCH   9  10
ATOM     10  C   UNL     1      20.413   9.074  41.292  1.00  0.00     0.006 C 
BRANCH  10  11
ATOM     11  C   UNL     1      19.474   8.128  40.523  1.00  0.00     0.053 C 
BRANCH  11  12
ATOM     12  C   UNL     1      18.388   8.860  39.790  1.00  0.00     0.041 C 
ATOM     13  O   UNL     1      17.282   8.296  39.581  1.00  0.00    -0.550 OA
ATOM     14  O   UNL     1      18.561  10.186  39.406  1.00  0.00    -0.550 OA
ENDBRANCH  11  12
ENDBRANCH  10  11
ENDBRANCH   9  10
ENDBRANCH   8   9
ENDBRANCH   7   8
ENDBRANCH   6   7
ENDBRANCH   5   6
ENDBRANCH   4   5
ENDBRANCH   3   4
ENDBRANCH   2   3
ENDBRANCH   1   2
BRANCH   1  15
ATOM     15  C   UNL     1      20.863  12.734  44.587  1.00  0.00     0.000 C 
BRANCH  15  16
ATOM     16  C   UNL     1      20.782  12.270  43.122  1.00  0.00     0.000 C 
BRANCH  16  17
ATOM     17  C   UNL     1      22.001  12.706  42.288  1.00  0.00     0.000 C 
BRANCH  17  18
ATOM     18  C   UNL     1      23.330  12.772  43.062  1.00  0.00    -0.000 C 
BRANCH  18  19
ATOM     19  C   UNL     1      24.004  14.152  42.974  1.00  0.00    -0.000 C 
BRANCH  19  20
ATOM     20  C   UNL     1      24.739  14.372  41.643  1.00  0.00    -0.000 C 
BRANCH  20  21
ATOM     21  C   UNL     1      24.100  15.483  40.789  1.00  0.00    -0.000 C 
BRANCH  21  22
ATOM     22  C   UNL     1      23.071  16.301  41.588  1.00  0.00    -0.000 C 
BRANCH  22  23
ATOM     23  C   UNL     1      21.653  16.169  41.004  1.00  0.00    -0.000 C 
BRANCH  23  24
ATOM     24  C   UNL     1      20.593  16.856  41.879  1.00  0.00    -0.000 C 
BRANCH  24  25
ATOM     25  C   UNL     1      20.111  15.935  43.012  1.00  0.00    -0.003 C 
ATOM     26  C   UNL     1      18.785  15.263  42.658  1.00  0.00     0.004 C 
ENDBRANCH  24  25
ENDBRANCH  23  24
ENDBRANCH  22  23
ENDBRANCH  21  22
ENDBRANCH  20  21
ENDBRANCH  19  20
ENDBRANCH  18  19
ENDBRANCH  17  18
ENDBRANCH  16  17
ENDBRANCH  15  16
ENDBRANCH   1  15
TORSDOF 22
ENDMDL
MODEL 2
REMARK VINA RESULT:    -4.832     11.310     14.255
REMARK INTER + INTRA:         -14.680
REMARK INTER:                 -11.465
REMARK INTRA:                  -3.214
REMARK UNBOUND:                -3.634
REMARK SMILES CCCCCCCCCCCCCCCCCCCCCCCC(=O)[O-]
REMARK SMILES IDX 13 1 14 2 15 3 16 4 17 5 18 6 19 7 20 8 21 9 22 10 23 11
REMARK SMILES IDX 24 12 25 13 26 14 12 15 11 16 10 17 9 18 8 19 7 20 6 21 5 22
REMARK SMILES IDX 4 23 3 24 2 25 1 26
REMARK H PARENT
REMARK Flexibility Score: inf
ROOT
ATOM      1  C   UNL     1       6.257  16.614  42.045  1.00  0.00     0.000 C 
ENDROOT
BRANCH   1   2
ATOM      2  C   UNL     1       4.976  15.969  42.601  1.00  0.00     0.000 C 
BRANCH   2   3
ATOM      3  C   UNL     1       5.072  14.440  42.559  1.00  0.00     0.000 C 
BRANCH   3   4
ATOM      4  C   UNL     1       5.135  13.933  41.111  1.00  0.00     0.000 C 
BRANCH   4   5
ATOM      5  C   UNL     1       5.045  12.400  41.006  1.00  0.00     0.000 C 
BRANCH   5   6
ATOM      6  C   UNL     1       5.289  11.642  42.326  1.00  0.00     0.000 C 
BRANCH   6   7
ATOM      7  C   UNL     1       6.014  10.291  42.177  1.00  0.00     0.000 C 
BRANCH   7   8
ATOM      8  C   UNL     1       7.302  10.151  43.011  1.00  0.00     0.000 C 
BRANCH   8   9
ATOM      9  C   UNL     1       7.227   9.124  44.160  1.00  0.00     0.000 C 
BRANCH   9  10
ATOM     10  C   UNL     1       8.096   9.446  45.393  1.00  0.00     0.006 C 
BRANCH  10  11
ATOM     11  C   UNL     1       9.316   8.529  45.589  1.00  0.00     0.053 C 
BRANCH  11  12
ATOM     12  C   UNL     1      10.619   9.263  45.453  1.00  0.00     0.041 C 
ATOM     13  O   UNL     1      11.702   8.621  45.449  1.00  0.00    -0.550 OA
ATOM     14  O   UNL     1      10.641  10.639  45.252  1.00  0.00    -0.550 OA
ENDBRANCH  11  12
ENDBRANCH  10  11
ENDBRANCH   9  10
ENDBRANCH   8   9
ENDBRANCH   7   8
ENDBRANCH   6   7
ENDBRANCH   5   6
ENDBRANCH   4   5
ENDBRANCH   3   4
ENDBRANCH   2   3
ENDBRANCH   1   2
BRANCH   1  15
ATOM     15  C   UNL     1       7.403  16.633  43.067  1.00  0.00     0.000 C 
BRANCH  15  16
ATOM     16  C   UNL     1       8.778  16.833  42.406  1.00  0.00     0.000 C 
BRANCH  16  17
ATOM     17  C   UNL     1       9.041  15.839  41.260  1.00  0.00     0.000 C 
BRANCH  17  18
ATOM     18  C   UNL     1       9.864  14.598  41.650  1.00  0.00    -0.000 C 
BRANCH  18  19
ATOM     19  C   UNL     1       8.992  13.351  41.878  1.00  0.00    -0.000 C 
BRANCH  19  20
ATOM     20  C   UNL     1       8.634  12.627  40.571  1.00  0.00    -0.000 C 
BRANCH  20  21
ATOM     21  C   UNL     1       9.712  12.795  39.484  1.00  0.00    -0.000 C 
BRANCH  21  22
ATOM     22  C   UNL     1       9.889  11.514  38.651  1.00  0.00    -0.000 C 
BRANCH  22  23
ATOM     23  C   UNL     1       8.811  10.464  38.974  1.00  0.00    -0.000 C 
BRANCH  23  24
ATOM     24  C   UNL     1       9.406   9.178  39.569  1.00  0.00    -0.000 C 
BRANCH  24  25
ATOM     25  C   UNL     1       8.311   8.160  39.928  1.00  0.00    -0.003 C 
ATOM     26  C   UNL     1       6.994   8.487  39.226  1.00  0.00     0.004 C 
ENDBRANCH  24  25
ENDBRANCH  23  24
ENDBRANCH  22  23
ENDBRANCH  21  22
ENDBRANCH  20  21
ENDBRANCH  19  20
ENDBRANCH  18  19
ENDBRANCH  17  18
ENDBRANCH  16  17
ENDBRANCH  15  16
ENDBRANCH   1  15
TORSDOF 22
ENDMDL
MODEL 3
REMARK VINA RESULT:    -4.709      2.393      6.794
REMARK INTER + INTRA:         -14.400
REMARK INTER:                 -11.833
REMARK INTRA:                  -2.568
REMARK UNBOUND:                -3.634
REMARK SMILES CCCCCCCCCCCCCCCCCCCCCCCC(=O)[O-]
REMARK SMILES IDX 13 1 14 2 15 3 16 4 17 5 18 6 19 7 20 8 21 9 22 10 23 11
REMARK SMILES IDX 24 12 25 13 26 14 12 15 11 16 10 17 9 18 8 19 7 20 6 21 5 22
REMARK SMILES IDX 4 23 3 24 2 25 1 26
REMARK H PARENT
REMARK Flexibility Score: inf
ROOT
ATOM      1  C   UNL     1      23.296  14.493  41.785  1.00  0.00     0.000 C 
ENDROOT
BRANCH   1   2
ATOM      2  C   UNL     1      23.328  15.731  40.872  1.00  0.00     0.000 C 
BRANCH   2   3
ATOM      3  C   UNL     1      23.455  17.016  41.698  1.00  0.00     0.000 C 
BRANCH   3   4
ATOM      4  C   UNL     1      22.239  17.201  42.617  1.00  0.00     0.000 C 
BRANCH   4   5
ATOM      5  C   UNL     1      20.899  17.000  41.887  1.00  0.00     0.000 C 
BRANCH   5   6
ATOM      6  C   UNL     1      19.729  16.554  42.787  1.00  0.00     0.000 C 
BRANCH   6   7
ATOM      7  C   UNL     1      19.130  15.177  42.443  1.00  0.00     0.000 C 
BRANCH   7   8
ATOM      8  C   UNL     1      20.042  13.976  42.762  1.00  0.00     0.000 C 
BRANCH   8   9
ATOM      9  C   UNL     1      20.525  13.895  44.226  1.00  0.00     0.000 C 
BRANCH   9  10
ATOM     10  C   UNL     1      19.883  12.777  45.072  1.00  0.00     0.006 C 
BRANCH  10  11
ATOM     11  C   UNL     1      20.229  11.344  44.631  1.00  0.00     0.053 C 
BRANCH  11  12
ATOM     12  C   UNL     1      20.555  10.445  45.789  1.00  0.00     0.041 C 
ATOM     13  O   UNL     1      19.631  10.019  46.531  1.00  0.00    -0.550 OA
ATOM     14  O   UNL     1      21.859  10.013  46.006  1.00  0.00    -0.550 OA
ENDBRANCH  11  12
ENDBRANCH  10  11
ENDBRANCH   9  10
ENDBRANCH   8   9
ENDBRANCH   7   8
ENDBRANCH   6   7
ENDBRANCH   5   6
ENDBRANCH   4   5
ENDBRANCH   3   4
ENDBRANCH   2   3
ENDBRANCH   1   2
BRANCH   1  15
ATOM     15  C   UNL     1      24.701  13.982  42.139  1.00  0.00     0.000 C 
BRANCH  15  16
ATOM     16  C   UNL     1      24.755  13.326  43.529  1.00  0.00     0.000 C 
BRANCH  16  17
ATOM     17  C   UNL     1      23.707  12.212  43.707  1.00  0.00     0.000 C 
BRANCH  17  18
ATOM     18  C   UNL     1      23.599  11.225  42.530  1.00  0.00    -0.000 C 
BRANCH  18  19
ATOM     19  C   UNL     1      23.367   9.775  42.987  1.00  0.00    -0.000 C 
BRANCH  19  20
ATOM     20  C   UNL     1      22.157   9.121  42.302  1.00  0.00    -0.000 C 
BRANCH  20  21
ATOM     21  C   UNL     1      22.536   8.379  41.007  1.00  0.00    -0.000 C 
BRANCH  21  22
ATOM     22  C   UNL     1      22.070   9.141  39.754  1.00  0.00    -0.000 C 
BRANCH  22  23
ATOM     23  C   UNL     1      20.853   8.469  39.092  1.00  0.00    -0.000 C 
BRANCH  23  24
ATOM     24  C   UNL     1      19.542   9.216  39.384  1.00  0.00    -0.000 C 
BRANCH  24  25
ATOM     25  C   UNL     1      18.612   8.395  40.292  1.00  0.00    -0.003 C 
ATOM     26  C   UNL     1      17.307   8.041  39.579  1.00  0.00     0.004 C 
ENDBRANCH  24  25
ENDBRANCH  23  24
ENDBRANCH  22  23
ENDBRANCH  21  22
ENDBRANCH  20  21
ENDBRANCH  19  20
ENDBRANCH  18  19
ENDBRANCH  17  18
ENDBRANCH  16  17
ENDBRANCH  15  16
ENDBRANCH   1  15
TORSDOF 22
ENDMDL
MODEL 4
REMARK VINA RESULT:    -4.647      1.368      5.514
REMARK INTER + INTRA:         -14.257
REMARK INTER:                 -10.425
REMARK INTRA:                  -3.832
REMARK UNBOUND:                -3.634
REMARK SMILES CCCCCCCCCCCCCCCCCCCCCCCC(=O)[O-]
REMARK SMILES IDX 13 1 14 2 15 3 16 4 17 5 18 6 19 7 20 8 21 9 22 10 23 11
REMARK SMILES IDX 24 12 25 13 26 14 12 15 11 16 10 17 9 18 8 19 7 20 6 21 5 22
REMARK SMILES IDX 4 23 3 24 2 25 1 26
REMARK H PARENT
REMARK Flexibility Score: inf
ROOT
ATOM      1  C   UNL     1      22.931  15.204  41.285  1.00  0.00     0.000 C 
ENDROOT
BRANCH   1   2
ATOM      2  C   UNL     1      21.731  16.037  40.805  1.00  0.00     0.000 C 
BRANCH   2   3
ATOM      3  C   UNL     1      21.330  17.076  41.859  1.00  0.00     0.000 C 
BRANCH   3   4
ATOM      4  C   UNL     1      20.706  16.398  43.088  1.00  0.00     0.000 C 
BRANCH   4   5
ATOM      5  C   UNL     1      19.674  15.318  42.719  1.00  0.00     0.000 C 
BRANCH   5   6
ATOM      6  C   UNL     1      19.628  14.109  43.674  1.00  0.00     0.000 C 
BRANCH   6   7
ATOM      7  C   UNL     1      20.805  13.125  43.536  1.00  0.00     0.000 C 
BRANCH   7   8
ATOM      8  C   UNL     1      20.697  12.148  42.348  1.00  0.00     0.000 C 
BRANCH   8   9
ATOM      9  C   UNL     1      21.934  11.252  42.127  1.00  0.00     0.000 C 
BRANCH   9  10
ATOM     10  C   UNL     1      21.683   9.971  41.304  1.00  0.00     0.006 C 
BRANCH  10  11
ATOM     11  C   UNL     1      20.204   9.572  41.153  1.00  0.00     0.053 C 
BRANCH  11  12
ATOM     12  C   UNL     1      19.882   9.060  39.779  1.00  0.00     0.041 C 
ATOM     13  O   UNL     1      18.734   9.244  39.295  1.00  0.00    -0.550 OA
ATOM     14  O   UNL     1      20.860   8.452  39.000  1.00  0.00    -0.550 OA
ENDBRANCH  11  12
ENDBRANCH  10  11
ENDBRANCH   9  10
ENDBRANCH   8   9
ENDBRANCH   7   8
ENDBRANCH   6   7
ENDBRANCH   5   6
ENDBRANCH   4   5
ENDBRANCH   3   4
ENDBRANCH   2   3
ENDBRANCH   1   2
BRANCH   1  15
ATOM     15  C   UNL     1      24.081  16.073  41.817  1.00  0.00     0.000 C 
BRANCH  15  16
ATOM     16  C   UNL     1      25.054  15.280  42.706  1.00  0.00     0.000 C 
BRANCH  16  17
ATOM     17  C   UNL     1      24.363  14.150  43.491  1.00  0.00     0.000 C 
BRANCH  17  18
ATOM     18  C   UNL     1      25.082  12.789  43.441  1.00  0.00    -0.000 C 
BRANCH  18  19
ATOM     19  C   UNL     1      24.826  11.933  44.693  1.00  0.00    -0.000 C 
BRANCH  19  20
ATOM     20  C   UNL     1      24.814  10.426  44.393  1.00  0.00    -0.000 C 
BRANCH  20  21
ATOM     21  C   UNL     1      24.008   9.620  45.428  1.00  0.00    -0.000 C 
BRANCH  21  22
ATOM     22  C   UNL     1      23.231   8.463  44.776  1.00  0.00    -0.000 C 
BRANCH  22  23
ATOM     23  C   UNL     1      21.709   8.665  44.875  1.00  0.00    -0.000 C 
BRANCH  23  24
ATOM     24  C   UNL     1      21.337   9.957  45.619  1.00  0.00    -0.000 C 
BRANCH  24  25
ATOM     25  C   UNL     1      19.829  10.245  45.537  1.00  0.00    -0.003 C 
ATOM     26  C   UNL     1      19.465  11.527  46.283  1.00  0.00     0.004 C 
ENDBRANCH  24  25
ENDBRANCH  23  24
ENDBRANCH  22  23
ENDBRANCH  21  22
ENDBRANCH  20  21
ENDBRANCH  19  20
ENDBRANCH  18  19
ENDBRANCH  17  18
ENDBRANCH  16  17
ENDBRANCH  15  16
ENDBRANCH   1  15
TORSDOF 22
ENDMDL
MODEL 5
REMARK VINA RESULT:    -4.529      5.730      9.309
REMARK INTER + INTRA:         -13.988
REMARK INTER:                 -13.094
REMARK INTRA:                  -0.894
REMARK UNBOUND:                -3.634
REMARK SMILES CCCCCCCCCCCCCCCCCCCCCCCC(=O)[O-]
REMARK SMILES IDX 13 1 14 2 15 3 16 4 17 5 18 6 19 7 20 8 21 9 22 10 23 11
REMARK SMILES IDX 24 12 25 13 26 14 12 15 11 16 10 17 9 18 8 19 7 20 6 21 5 22
REMARK SMILES IDX 4 23 3 24 2 25 1 26
REMARK H PARENT
REMARK Flexibility Score: inf
ROOT
ATOM      1  C   UNL     1      18.065  16.373  42.323  1.00  0.00     0.000 C 
ENDROOT
BRANCH   1   2
ATOM      2  C   UNL     1      17.338  17.727  42.268  1.00  0.00     0.000 C 
BRANCH   2   3
ATOM      3  C   UNL     1      15.860  17.540  41.907  1.00  0.00     0.000 C 
BRANCH   3   4
ATOM      4  C   UNL     1      15.028  18.750  42.355  1.00  0.00     0.000 C 
BRANCH   4   5
ATOM      5  C   UNL     1      13.552  18.656  41.927  1.00  0.00     0.000 C 
BRANCH   5   6
ATOM      6  C   UNL     1      12.824  17.374  42.379  1.00  0.00     0.000 C 
BRANCH   6   7
ATOM      7  C   UNL     1      11.324  17.321  42.033  1.00  0.00     0.000 C 
BRANCH   7   8
ATOM      8  C   UNL     1      10.710  15.908  42.026  1.00  0.00     0.000 C 
BRANCH   8   9
ATOM      9  C   UNL     1       9.200  15.850  42.339  1.00  0.00     0.000 C 
BRANCH   9  10
ATOM     10  C   UNL     1       8.460  14.608  41.801  1.00  0.00     0.006 C 
BRANCH  10  11
ATOM     11  C   UNL     1       9.163  13.882  40.641  1.00  0.00     0.053 C 
BRANCH  11  12
ATOM     12  C   UNL     1       8.846  12.416  40.599  1.00  0.00     0.041 C 
ATOM     13  O   UNL     1       9.329  11.695  39.687  1.00  0.00    -0.550 OA
ATOM     14  O   UNL     1       8.086  11.825  41.604  1.00  0.00    -0.550 OA
ENDBRANCH  11  12
ENDBRANCH  10  11
ENDBRANCH   9  10
ENDBRANCH   8   9
ENDBRANCH   7   8
ENDBRANCH   6   7
ENDBRANCH   5   6
ENDBRANCH   4   5
ENDBRANCH   3   4
ENDBRANCH   2   3
ENDBRANCH   1   2
BRANCH   1  15
ATOM     15  C   UNL     1      19.561  16.516  42.644  1.00  0.00     0.000 C 
BRANCH  15  16
ATOM     16  C   UNL     1      20.378  15.292  42.196  1.00  0.00     0.000 C 
BRANCH  16  17
ATOM     17  C   UNL     1      19.810  13.964  42.730  1.00  0.00     0.000 C 
BRANCH  17  18
ATOM     18  C   UNL     1      20.839  13.039  43.404  1.00  0.00    -0.000 C 
BRANCH  18  19
ATOM     19  C   UNL     1      22.043  12.725  42.499  1.00  0.00    -0.000 C 
BRANCH  19  20
ATOM     20  C   UNL     1      22.270  11.217  42.312  1.00  0.00    -0.000 C 
BRANCH  20  21
ATOM     21  C   UNL     1      21.035  10.495  41.743  1.00  0.00    -0.000 C 
BRANCH  21  22
ATOM     22  C   UNL     1      21.416   9.193  41.018  1.00  0.00    -0.000 C 
BRANCH  22  23
ATOM     23  C   UNL     1      20.929   9.184  39.557  1.00  0.00    -0.000 C 
BRANCH  23  24
ATOM     24  C   UNL     1      19.410   9.391  39.446  1.00  0.00    -0.000 C 
BRANCH  24  25
ATOM     25  C   UNL     1      18.631   8.222  40.071  1.00  0.00    -0.003 C 
ATOM     26  C   UNL     1      17.221   8.121  39.494  1.00  0.00     0.004 C 
ENDBRANCH  24  25
ENDBRANCH  23  24
ENDBRANCH  22  23
ENDBRANCH  21  22
ENDBRANCH  20  21
ENDBRANCH  19  20
ENDBRANCH  18  19
ENDBRANCH  17  18
ENDBRANCH  16  17
ENDBRANCH  15  16
ENDBRANCH   1  15
TORSDOF 22
ENDMDL
MODEL 6
REMARK VINA RESULT:    -4.473      6.547      9.979
REMARK INTER + INTRA:         -13.859
REMARK INTER:                 -12.889
REMARK INTRA:                  -0.970
REMARK UNBOUND:                -3.634
REMARK SMILES CCCCCCCCCCCCCCCCCCCCCCCC(=O)[O-]
REMARK SMILES IDX 13 1 14 2 15 3 16 4 17 5 18 6 19 7 20 8 21 9 22 10 23 11
REMARK SMILES IDX 24 12 25 13 26 14 12 15 11 16 10 17 9 18 8 19 7 20 6 21 5 22
REMARK SMILES IDX 4 23 3 24 2 25 1 26
REMARK H PARENT
REMARK Flexibility Score: inf
ROOT
ATOM      1  C   UNL     1      17.637  17.631  42.323  1.00  0.00     0.000 C 
ENDROOT
BRANCH   1   2
ATOM      2  C   UNL     1      16.143  17.496  41.985  1.00  0.00     0.000 C 
BRANCH   2   3
ATOM      3  C   UNL     1      15.407  18.820  42.222  1.00  0.00     0.000 C 
BRANCH   3   4
ATOM      4  C   UNL     1      13.918  18.691  41.870  1.00  0.00     0.000 C 
BRANCH   4   5
ATOM      5  C   UNL     1      13.181  17.661  42.745  1.00  0.00     0.000 C 
BRANCH   5   6
ATOM      6  C   UNL     1      12.146  16.796  41.998  1.00  0.00     0.000 C 
BRANCH   6   7
ATOM      7  C   UNL     1      10.711  17.357  41.994  1.00  0.00     0.000 C 
BRANCH   7   8
ATOM      8  C   UNL     1       9.603  16.300  41.816  1.00  0.00     0.000 C 
BRANCH   8   9
ATOM      9  C   UNL     1      10.093  14.837  41.802  1.00  0.00     0.000 C 
BRANCH   9  10
ATOM     10  C   UNL     1       8.997  13.771  42.006  1.00  0.00     0.006 C 
BRANCH  10  11
ATOM     11  C   UNL     1       7.653  14.309  42.529  1.00  0.00     0.053 C 
BRANCH  11  12
ATOM     12  C   UNL     1       6.478  13.768  41.767  1.00  0.00     0.041 C 
ATOM     13  O   UNL     1       6.645  12.840  40.932  1.00  0.00    -0.550 OA
ATOM     14  O   UNL     1       5.191  14.227  42.027  1.00  0.00    -0.550 OA
ENDBRANCH  11  12
ENDBRANCH  10  11
ENDBRANCH   9  10
ENDBRANCH   8   9
ENDBRANCH   7   8
ENDBRANCH   6   7
ENDBRANCH   5   6
ENDBRANCH   4   5
ENDBRANCH   3   4
ENDBRANCH   2   3
ENDBRANCH   1   2
BRANCH   1  15
ATOM     15  C   UNL     1      18.381  16.287  42.269  1.00  0.00     0.000 C 
BRANCH  15  16
ATOM     16  C   UNL     1      19.852  16.412  42.700  1.00  0.00     0.000 C 
BRANCH  16  17
ATOM     17  C   UNL     1      20.400  15.123  43.341  1.00  0.00     0.000 C 
BRANCH  17  18
ATOM     18  C   UNL     1      19.838  13.814  42.755  1.00  0.00    -0.000 C 
BRANCH  18  19
ATOM     19  C   UNL     1      20.519  12.561  43.331  1.00  0.00    -0.000 C 
BRANCH  19  20
ATOM     20  C   UNL     1      20.985  11.582  42.244  1.00  0.00    -0.000 C 
BRANCH  20  21
ATOM     21  C   UNL     1      21.146  10.143  42.768  1.00  0.00    -0.000 C 
BRANCH  21  22
ATOM     22  C   UNL     1      20.905   9.100  41.663  1.00  0.00    -0.000 C 
BRANCH  22  23
ATOM     23  C   UNL     1      20.321   9.737  40.389  1.00  0.00    -0.000 C 
BRANCH  23  24
ATOM     24  C   UNL     1      19.638   8.704  39.479  1.00  0.00    -0.000 C 
BRANCH  24  25
ATOM     25  C   UNL     1      18.503   7.968  40.210  1.00  0.00    -0.003 C 
ATOM     26  C   UNL     1      17.147   8.262  39.571  1.00  0.00     0.004 C 
ENDBRANCH  24  25
ENDBRANCH  23  24
ENDBRANCH  22  23
ENDBRANCH  21  22
ENDBRANCH  20  21
ENDBRANCH  19  20
ENDBRANCH  18  19
ENDBRANCH  17  18
ENDBRANCH  16  17
ENDBRANCH  15  16
ENDBRANCH   1  15
TORSDOF 22
ENDMDL
MODEL 7
REMARK VINA RESULT:    -4.452      7.662     11.769
REMARK INTER + INTRA:         -13.812
REMARK INTER:                 -12.699
REMARK INTRA:                  -1.112
REMARK UNBOUND:                -3.634
REMARK SMILES CCCCCCCCCCCCCCCCCCCCCCCC(=O)[O-]
REMARK SMILES IDX 13 1 14 2 15 3 16 4 17 5 18 6 19 7 20 8 21 9 22 10 23 11
REMARK SMILES IDX 24 12 25 13 26 14 12 15 11 16 10 17 9 18 8 19 7 20 6 21 5 22
REMARK SMILES IDX 4 23 3 24 2 25 1 26
REMARK H PARENT
REMARK Flexibility Score: inf
ROOT
ATOM      1  C   UNL     1      11.262  16.331  42.061  1.00  0.00     0.000 C 
ENDROOT
BRANCH   1   2
ATOM      2  C   UNL     1      12.070  17.639  42.072  1.00  0.00     0.000 C 
BRANCH   2   3
ATOM      3  C   UNL     1      13.412  17.448  42.789  1.00  0.00     0.000 C 
BRANCH   3   4
ATOM      4  C   UNL     1      14.233  18.746  42.771  1.00  0.00     0.000 C 
BRANCH   4   5
ATOM      5  C   UNL     1      15.475  18.659  41.866  1.00  0.00     0.000 C 
BRANCH   5   6
ATOM      6  C   UNL     1      16.271  17.343  41.978  1.00  0.00     0.000 C 
BRANCH   6   7
ATOM      7  C   UNL     1      17.767  17.513  42.306  1.00  0.00     0.000 C 
BRANCH   7   8
ATOM      8  C   UNL     1      18.578  16.203  42.328  1.00  0.00     0.000 C 
BRANCH   8   9
ATOM      9  C   UNL     1      20.098  16.380  42.524  1.00  0.00     0.000 C 
BRANCH   9  10
ATOM     10  C   UNL     1      20.918  15.074  42.552  1.00  0.00     0.006 C 
BRANCH  10  11
ATOM     11  C   UNL     1      20.098  13.794  42.790  1.00  0.00     0.053 C 
BRANCH  11  12
ATOM     12  C   UNL     1      20.645  12.957  43.909  1.00  0.00     0.041 C 
ATOM     13  O   UNL     1      21.839  12.560  43.870  1.00  0.00    -0.550 OA
ATOM     14  O   UNL     1      19.870  12.678  45.031  1.00  0.00    -0.550 OA
ENDBRANCH  11  12
ENDBRANCH  10  11
ENDBRANCH   9  10
ENDBRANCH   8   9
ENDBRANCH   7   8
ENDBRANCH   6   7
ENDBRANCH   5   6
ENDBRANCH   4   5
ENDBRANCH   3   4
ENDBRANCH   2   3
ENDBRANCH   1   2
BRANCH   1  15
ATOM     15  C   UNL     1       9.786  16.548  41.696  1.00  0.00     0.000 C 
BRANCH  15  16
ATOM     16  C   UNL     1       8.944  15.273  41.869  1.00  0.00     0.000 C 
BRANCH  16  17
ATOM     17  C   UNL     1       9.321  14.166  40.867  1.00  0.00     0.000 C 
BRANCH  17  18
ATOM     18  C   UNL     1       8.329  12.991  40.790  1.00  0.00    -0.000 C 
BRANCH  18  19
ATOM     19  C   UNL     1       7.617  12.722  42.127  1.00  0.00    -0.000 C 
BRANCH  19  20
ATOM     20  C   UNL     1       8.311  11.638  42.965  1.00  0.00    -0.000 C 
BRANCH  20  21
ATOM     21  C   UNL     1       8.645  10.377  42.146  1.00  0.00    -0.000 C 
BRANCH  21  22
ATOM     22  C   UNL     1       8.686   9.116  43.027  1.00  0.00    -0.000 C 
BRANCH  22  23
ATOM     23  C   UNL     1       8.419   9.441  44.508  1.00  0.00    -0.000 C 
BRANCH  23  24
ATOM     24  C   UNL     1       9.407   8.732  45.448  1.00  0.00    -0.000 C 
BRANCH  24  25
ATOM     25  C   UNL     1      10.657   8.246  44.696  1.00  0.00    -0.003 C 
ATOM     26  C   UNL     1      11.922   8.450  45.528  1.00  0.00     0.004 C 
ENDBRANCH  24  25
ENDBRANCH  23  24
ENDBRANCH  22  23
ENDBRANCH  21  22
ENDBRANCH  20  21
ENDBRANCH  19  20
ENDBRANCH  18  19
ENDBRANCH  17  18
ENDBRANCH  16  17
ENDBRANCH  15  16
ENDBRANCH   1  15
TORSDOF 22
ENDMDL
MODEL 8
REMARK VINA RESULT:    -4.444      7.791     12.039
REMARK INTER + INTRA:         -13.794
REMARK INTER:                 -12.319
REMARK INTRA:                  -1.475
REMARK UNBOUND:                -3.634
REMARK SMILES CCCCCCCCCCCCCCCCCCCCCCCC(=O)[O-]
REMARK SMILES IDX 13 1 14 2 15 3 16 4 17 5 18 6 19 7 20 8 21 9 22 10 23 11
REMARK SMILES IDX 24 12 25 13 26 14 12 15 11 16 10 17 9 18 8 19 7 20 6 21 5 22
REMARK SMILES IDX 4 23 3 24 2 25 1 26
REMARK H PARENT
REMARK Flexibility Score: inf
ROOT
ATOM      1  C   UNL     1      10.617  16.385  41.941  1.00  0.00     0.000 C 
ENDROOT
BRANCH   1   2
ATOM      2  C   UNL     1      11.495  17.644  42.036  1.00  0.00     0.000 C 
BRANCH   2   3
ATOM      3  C   UNL     1      12.936  17.279  42.410  1.00  0.00     0.000 C 
BRANCH   3   4
ATOM      4  C   UNL     1      13.781  18.542  42.636  1.00  0.00     0.000 C 
BRANCH   4   5
ATOM      5  C   UNL     1      14.945  18.673  41.638  1.00  0.00     0.000 C 
BRANCH   5   6
ATOM      6  C   UNL     1      15.890  17.456  41.578  1.00  0.00     0.000 C 
BRANCH   6   7
ATOM      7  C   UNL     1      17.258  17.660  42.259  1.00  0.00     0.000 C 
BRANCH   7   8
ATOM      8  C   UNL     1      18.146  16.402  42.317  1.00  0.00     0.000 C 
BRANCH   8   9
ATOM      9  C   UNL     1      19.660  16.678  42.434  1.00  0.00     0.000 C 
BRANCH   9  10
ATOM     10  C   UNL     1      20.560  15.426  42.457  1.00  0.00     0.006 C 
BRANCH  10  11
ATOM     11  C   UNL     1      19.852  14.120  42.859  1.00  0.00     0.053 C 
BRANCH  11  12
ATOM     12  C   UNL     1      20.793  13.106  43.440  1.00  0.00     0.041 C 
ATOM     13  O   UNL     1      20.338  12.117  44.072  1.00  0.00    -0.550 OA
ATOM     14  O   UNL     1      22.164  13.202  43.222  1.00  0.00    -0.550 OA
ENDBRANCH  11  12
ENDBRANCH  10  11
ENDBRANCH   9  10
ENDBRANCH   8   9
ENDBRANCH   7   8
ENDBRANCH   6   7
ENDBRANCH   5   6
ENDBRANCH   4   5
ENDBRANCH   3   4
ENDBRANCH   2   3
ENDBRANCH   1   2
BRANCH   1  15
ATOM     15  C   UNL     1       9.145  16.662  42.281  1.00  0.00     0.000 C 
BRANCH  15  16
ATOM     16  C   UNL     1       8.338  15.370  42.493  1.00  0.00     0.000 C 
BRANCH  16  17
ATOM     17  C   UNL     1       8.341  14.452  41.256  1.00  0.00     0.000 C 
BRANCH  17  18
ATOM     18  C   UNL     1       7.781  13.037  41.493  1.00  0.00    -0.000 C 
BRANCH  18  19
ATOM     19  C   UNL     1       8.704  12.168  42.365  1.00  0.00    -0.000 C 
BRANCH  19  20
ATOM     20  C   UNL     1       8.023  10.881  42.854  1.00  0.00    -0.000 C 
BRANCH  20  21
ATOM     21  C   UNL     1       8.533   9.625  42.123  1.00  0.00    -0.000 C 
BRANCH  21  22
ATOM     22  C   UNL     1       7.511   9.104  41.098  1.00  0.00    -0.000 C 
BRANCH  22  23
ATOM     23  C   UNL     1       8.195   8.563  39.829  1.00  0.00    -0.000 C 
BRANCH  23  24
ATOM     24  C   UNL     1       9.452   9.364  39.454  1.00  0.00    -0.000 C 
BRANCH  24  25
ATOM     25  C   UNL     1       9.147  10.432  38.391  1.00  0.00    -0.003 C 
ATOM     26  C   UNL     1       9.928  11.718  38.654  1.00  0.00     0.004 C 
ENDBRANCH  24  25
ENDBRANCH  23  24
ENDBRANCH  22  23
ENDBRANCH  21  22
ENDBRANCH  20  21
ENDBRANCH  19  20
ENDBRANCH  18  19
ENDBRANCH  17  18
ENDBRANCH  16  17
ENDBRANCH  15  16
ENDBRANCH   1  15
TORSDOF 22
ENDMDL
MODEL 9
REMARK VINA RESULT:    -4.332     11.132     14.600
REMARK INTER + INTRA:         -13.538
REMARK INTER:                 -11.479
REMARK INTRA:                  -2.059
REMARK UNBOUND:                -3.634
REMARK SMILES CCCCCCCCCCCCCCCCCCCCCCCC(=O)[O-]
REMARK SMILES IDX 13 1 14 2 15 3 16 4 17 5 18 6 19 7 20 8 21 9 22 10 23 11
REMARK SMILES IDX 24 12 25 13 26 14 12 15 11 16 10 17 9 18 8 19 7 20 6 21 5 22
REMARK SMILES IDX 4 23 3 24 2 25 1 26
REMARK H PARENT
REMARK Flexibility Score: inf
ROOT
ATOM      1  C   UNL     1       5.231  15.730  42.457  1.00  0.00     0.000 C 
ENDROOT
BRANCH   1   2
ATOM      2  C   UNL     1       6.176  16.790  43.048  1.00  0.00     0.000 C 
BRANCH   2   3
ATOM      3  C   UNL     1       7.612  16.259  43.127  1.00  0.00     0.000 C 
BRANCH   3   4
ATOM      4  C   UNL     1       8.459  16.790  41.961  1.00  0.00     0.000 C 
BRANCH   4   5
ATOM      5  C   UNL     1       9.958  16.478  42.116  1.00  0.00     0.000 C 
BRANCH   5   6
ATOM      6  C   UNL     1      10.368  15.046  41.718  1.00  0.00     0.000 C 
BRANCH   6   7
ATOM      7  C   UNL     1       9.232  14.006  41.764  1.00  0.00     0.000 C 
BRANCH   7   8
ATOM      8  C   UNL     1       8.958  13.287  40.429  1.00  0.00     0.000 C 
BRANCH   8   9
ATOM      9  C   UNL     1       9.033  11.747  40.490  1.00  0.00     0.000 C 
BRANCH   9  10
ATOM     10  C   UNL     1       9.434  11.051  39.173  1.00  0.00     0.006 C 
BRANCH  10  11
ATOM     11  C   UNL     1       9.334   9.515  39.190  1.00  0.00     0.053 C 
BRANCH  11  12
ATOM     12  C   UNL     1       7.921   9.029  39.326  1.00  0.00     0.041 C 
ATOM     13  O   UNL     1       7.626   8.203  40.230  1.00  0.00    -0.550 OA
ATOM     14  O   UNL     1       6.913   9.539  38.515  1.00  0.00    -0.550 OA
ENDBRANCH  11  12
ENDBRANCH  10  11
ENDBRANCH   9  10
ENDBRANCH   8   9
ENDBRANCH   7   8
ENDBRANCH   6   7
ENDBRANCH   5   6
ENDBRANCH   4   5
ENDBRANCH   3   4
ENDBRANCH   2   3
ENDBRANCH   1   2
BRANCH   1  15
ATOM     15  C   UNL     1       5.968  14.452  42.028  1.00  0.00     0.000 C 
BRANCH  15  16
ATOM     16  C   UNL     1       5.101  13.191  42.185  1.00  0.00     0.000 C 
BRANCH  16  17
ATOM     17  C   UNL     1       5.241  12.216  41.001  1.00  0.00     0.000 C 
BRANCH  17  18
ATOM     18  C   UNL     1       5.396  10.735  41.392  1.00  0.00    -0.000 C 
BRANCH  18  19
ATOM     19  C   UNL     1       6.321  10.531  42.604  1.00  0.00    -0.000 C 
BRANCH  19  20
ATOM     20  C   UNL     1       5.732   9.572  43.649  1.00  0.00    -0.000 C 
BRANCH  20  21
ATOM     21  C   UNL     1       6.499   8.239  43.732  1.00  0.00    -0.000 C 
BRANCH  21  22
ATOM     22  C   UNL     1       7.481   8.216  44.916  1.00  0.00    -0.000 C 
BRANCH  22  23
ATOM     23  C   UNL     1       8.946   8.307  44.450  1.00  0.00    -0.000 C 
BRANCH  23  24
ATOM     24  C   UNL     1       9.527   9.719  44.621  1.00  0.00    -0.000 C 
BRANCH  24  25
ATOM     25  C   UNL     1      10.852   9.696  45.403  1.00  0.00    -0.003 C 
ATOM     26  C   UNL     1      11.532   8.331  45.306  1.00  0.00     0.004 C 
ENDBRANCH  24  25
ENDBRANCH  23  24
ENDBRANCH  22  23
ENDBRANCH  21  22
ENDBRANCH  20  21
ENDBRANCH  19  20
ENDBRANCH  18  19
ENDBRANCH  17  18
ENDBRANCH  16  17
ENDBRANCH  15  16
ENDBRANCH   1  15
TORSDOF 22
ENDMDL
