MODEL 1
REMARK VINA RESULT:    -3.432      0.000      0.000
REMARK INTER + INTRA:          -8.032
REMARK INTER:                  -6.240
REMARK INTRA:                  -1.792
REMARK UNBOUND:                -1.792
REMARK SMILES CCCCCCCCCCCCCCCC(=O)[O-]
REMARK SMILES IDX 9 1 10 2 11 3 12 4 13 5 14 6 15 7 16 8 17 9 18 10 8 11 7 12
REMARK SMILES IDX 6 13 5 14 4 15 3 16 2 17 1 18
REMARK H PARENT
REMARK Flexibility Score: inf
ROOT
ATOM      1  C   UNL     1      12.049  22.439  19.876  1.00  0.00     0.000 C 
ENDROOT
BRANCH   1   2
ATOM      2  C   UNL     1      11.479  21.016  19.972  1.00  0.00     0.000 C 
BRANCH   2   3
ATOM      3  C   UNL     1      10.081  20.972  20.614  1.00  0.00     0.000 C 
BRANCH   3   4
ATOM      4  C   UNL     1       9.062  21.845  19.850  1.00  0.00     0.000 C 
BRANCH   4   5
ATOM      5  C   UNL     1       7.605  21.368  19.999  1.00  0.00     0.000 C 
BRANCH   5   6
ATOM      6  C   UNL     1       6.875  21.908  21.242  1.00  0.00     0.006 C 
BRANCH   6   7
ATOM      7  C   UNL     1       5.842  20.919  21.797  1.00  0.00     0.053 C 
BRANCH   7   8
ATOM      8  C   UNL     1       6.046  20.724  23.266  1.00  0.00     0.041 C 
ATOM      9  O   UNL     1       5.684  19.652  23.819  1.00  0.00    -0.550 OA
ATOM     10  O   UNL     1       6.586  21.748  24.034  1.00  0.00    -0.550 OA
ENDBRANCH   7   8
ENDBRANCH   6   7
ENDBRANCH   5   6
ENDBRANCH   4   5
ENDBRANCH   3   4
ENDBRANCH   2   3
ENDBRANCH   1   2
BRANCH   1  11
ATOM     11  C   UNL     1      12.985  22.624  18.669  1.00  0.00     0.000 C 
BRANCH  11  12
ATOM     12  C   UNL     1      12.213  22.807  17.352  1.00  0.00    -0.000 C 
BRANCH  12  13
ATOM     13  C   UNL     1      12.620  21.781  16.281  1.00  0.00    -0.000 C 
BRANCH  13  14
ATOM     14  C   UNL     1      11.650  20.589  16.195  1.00  0.00    -0.000 C 
BRANCH  14  15
ATOM     15  C   UNL     1      10.159  20.949  16.341  1.00  0.00    -0.000 C 
BRANCH  15  16
ATOM     16  C   UNL     1       9.225  19.777  15.996  1.00  0.00    -0.000 C 
BRANCH  16  17
ATOM     17  C   UNL     1       8.558  19.168  17.240  1.00  0.00    -0.003 C 
ATOM     18  C   UNL     1       9.466  18.189  17.982  1.00  0.00     0.004 C 
ENDBRANCH  16  17
ENDBRANCH  15  16
ENDBRANCH  14  15
ENDBRANCH  13  14
ENDBRANCH  12  13
ENDBRANCH  11  12
ENDBRANCH   1  11
TORSDOF 14
ENDMDL
MODEL 2
REMARK VINA RESULT:    -3.417      1.458      3.901
REMARK INTER + INTRA:          -8.006
REMARK INTER:                  -6.130
REMARK INTRA:                  -1.876
REMARK UNBOUND:                -1.792
REMARK SMILES CCCCCCCCCCCCCCCC(=O)[O-]
REMARK SMILES IDX 9 1 10 2 11 3 12 4 13 5 14 6 15 7 16 8 17 9 18 10 8 11 7 12
REMARK SMILES IDX 6 13 5 14 4 15 3 16 2 17 1 18
REMARK H PARENT
REMARK Flexibility Score: inf
ROOT
ATOM      1  C   UNL     1       9.154  18.154  17.923  1.00  0.00     0.000 C 
ENDROOT
BRANCH   1   2
ATOM      2  C   UNL     1       8.802  18.963  16.665  1.00  0.00     0.000 C 
BRANCH   2   3
ATOM      3  C   UNL     1       7.311  19.333  16.589  1.00  0.00     0.000 C 
BRANCH   3   4
ATOM      4  C   UNL     1       7.090  20.861  16.559  1.00  0.00     0.000 C 
BRANCH   4   5
ATOM      5  C   UNL     1       6.956  21.494  17.957  1.00  0.00     0.000 C 
BRANCH   5   6
ATOM      6  C   UNL     1       6.402  20.552  19.040  1.00  0.00     0.006 C 
BRANCH   6   7
ATOM      7  C   UNL     1       6.859  20.940  20.452  1.00  0.00     0.053 C 
BRANCH   7   8
ATOM      8  C   UNL     1       5.704  20.900  21.401  1.00  0.00     0.041 C 
ATOM      9  O   UNL     1       4.527  20.808  20.963  1.00  0.00    -0.550 OA
ATOM     10  O   UNL     1       5.922  21.018  22.768  1.00  0.00    -0.550 OA
ENDBRANCH   7   8
ENDBRANCH   6   7
ENDBRANCH   5   6
ENDBRANCH   4   5
ENDBRANCH   3   4
ENDBRANCH   2   3
ENDBRANCH   1   2
BRANCH   1  11
ATOM     11  C   UNL     1      10.392  18.702  18.654  1.00  0.00     0.000 C 
BRANCH  11  12
ATOM     12  C   UNL     1      10.190  20.145  19.147  1.00  0.00    -0.000 C 
BRANCH  12  13
ATOM     13  C   UNL     1      11.145  20.518  20.292  1.00  0.00    -0.000 C 
BRANCH  13  14
ATOM     14  C   UNL     1      12.006  21.754  19.975  1.00  0.00    -0.000 C 
BRANCH  14  15
ATOM     15  C   UNL     1      11.658  22.470  18.656  1.00  0.00    -0.000 C 
BRANCH  15  16
ATOM     16  C   UNL     1      12.836  22.510  17.669  1.00  0.00    -0.000 C 
BRANCH  16  17
ATOM     17  C   UNL     1      12.413  22.159  16.232  1.00  0.00    -0.003 C 
ATOM     18  C   UNL     1      12.170  20.664  16.033  1.00  0.00     0.004 C 
ENDBRANCH  16  17
ENDBRANCH  15  16
ENDBRANCH  14  15
ENDBRANCH  13  14
ENDBRANCH  12  13
ENDBRANCH  11  12
ENDBRANCH   1  11
TORSDOF 14
ENDMDL
MODEL 3
REMARK VINA RESULT:    -3.362      1.100      3.119
REMARK INTER + INTRA:          -7.906
REMARK INTER:                  -5.916
REMARK INTRA:                  -1.990
REMARK UNBOUND:                -1.792
REMARK SMILES CCCCCCCCCCCCCCCC(=O)[O-]
REMARK SMILES IDX 9 1 10 2 11 3 12 4 13 5 14 6 15 7 16 8 17 9 18 10 8 11 7 12
REMARK SMILES IDX 6 13 5 14 4 15 3 16 2 17 1 18
REMARK H PARENT
REMARK Flexibility Score: inf
ROOT
ATOM      1  C   UNL     1       8.952  19.871  18.270  1.00  0.00     0.000 C 
ENDROOT
BRANCH   1   2
ATOM      2  C   UNL     1       8.422  21.267  17.908  1.00  0.00     0.000 C 
BRANCH   2   3
ATOM      3  C   UNL     1       7.523  21.868  19.003  1.00  0.00     0.000 C 
BRANCH   3   4
ATOM      4  C   UNL     1       7.579  21.056  20.315  1.00  0.00     0.000 C 
BRANCH   4   5
ATOM      5  C   UNL     1       7.919  21.906  21.554  1.00  0.00     0.000 C 
BRANCH   5   6
ATOM      6  C   UNL     1       7.122  21.545  22.820  1.00  0.00     0.006 C 
BRANCH   6   7
ATOM      7  C   UNL     1       5.879  20.700  22.515  1.00  0.00     0.053 C 
BRANCH   7   8
ATOM      8  C   UNL     1       5.280  20.180  23.783  1.00  0.00     0.041 C 
ATOM      9  O   UNL     1       4.456  20.880  24.429  1.00  0.00    -0.550 OA
ATOM     10  O   UNL     1       5.674  18.945  24.282  1.00  0.00    -0.550 OA
ENDBRANCH   7   8
ENDBRANCH   6   7
ENDBRANCH   5   6
ENDBRANCH   4   5
ENDBRANCH   3   4
ENDBRANCH   2   3
ENDBRANCH   1   2
BRANCH   1  11
ATOM     11  C   UNL     1      10.153  19.449  17.405  1.00  0.00     0.000 C 
BRANCH  11  12
ATOM     12  C   UNL     1      10.491  20.492  16.327  1.00  0.00    -0.000 C 
BRANCH  12  13
ATOM     13  C   UNL     1      11.988  20.514  15.976  1.00  0.00    -0.000 C 
BRANCH  13  14
ATOM     14  C   UNL     1      12.657  21.863  16.295  1.00  0.00    -0.000 C 
BRANCH  14  15
ATOM     15  C   UNL     1      11.972  22.686  17.402  1.00  0.00    -0.000 C 
BRANCH  15  16
ATOM     16  C   UNL     1      12.507  22.360  18.807  1.00  0.00    -0.000 C 
BRANCH  16  17
ATOM     17  C   UNL     1      11.389  22.283  19.860  1.00  0.00    -0.003 C 
ATOM     18  C   UNL     1      11.442  21.001  20.689  1.00  0.00     0.004 C 
ENDBRANCH  16  17
ENDBRANCH  15  16
ENDBRANCH  14  15
ENDBRANCH  13  14
ENDBRANCH  12  13
ENDBRANCH  11  12
ENDBRANCH   1  11
TORSDOF 14
ENDMDL
MODEL 4
REMARK VINA RESULT:    -3.355      2.235      2.621
REMARK INTER + INTRA:          -7.894
REMARK INTER:                  -5.815
REMARK INTRA:                  -2.078
REMARK UNBOUND:                -1.792
REMARK SMILES CCCCCCCCCCCCCCCC(=O)[O-]
REMARK SMILES IDX 9 1 10 2 11 3 12 4 13 5 14 6 15 7 16 8 17 9 18 10 8 11 7 12
REMARK SMILES IDX 6 13 5 14 4 15 3 16 2 17 1 18
REMARK H PARENT
REMARK Flexibility Score: inf
ROOT
ATOM      1  C   UNL     1      12.564  22.975  19.850  1.00  0.00     0.000 C 
ENDROOT
BRANCH   1   2
ATOM      2  C   UNL     1      11.894  21.629  20.164  1.00  0.00     0.000 C 
BRANCH   2   3
ATOM      3  C   UNL     1      10.739  21.756  21.172  1.00  0.00     0.000 C 
BRANCH   3   4
ATOM      4  C   UNL     1       9.424  21.154  20.631  1.00  0.00     0.000 C 
BRANCH   4   5
ATOM      5  C   UNL     1       8.732  22.031  19.569  1.00  0.00     0.000 C 
BRANCH   5   6
ATOM      6  C   UNL     1       7.196  21.957  19.575  1.00  0.00     0.006 C 
BRANCH   6   7
ATOM      7  C   UNL     1       6.673  20.515  19.623  1.00  0.00     0.053 C 
BRANCH   7   8
ATOM      8  C   UNL     1       5.627  20.308  18.574  1.00  0.00     0.041 C 
ATOM      9  O   UNL     1       5.918  20.433  17.355  1.00  0.00    -0.550 OA
ATOM     10  O   UNL     1       4.317  20.029  18.944  1.00  0.00    -0.550 OA
ENDBRANCH   7   8
ENDBRANCH   6   7
ENDBRANCH   5   6
ENDBRANCH   4   5
ENDBRANCH   3   4
ENDBRANCH   2   3
ENDBRANCH   1   2
BRANCH   1  11
ATOM     11  C   UNL     1      13.120  23.041  18.416  1.00  0.00     0.000 C 
BRANCH  11  12
ATOM     12  C   UNL     1      12.074  22.637  17.364  1.00  0.00    -0.000 C 
BRANCH  12  13
ATOM     13  C   UNL     1      12.666  21.754  16.252  1.00  0.00    -0.000 C 
BRANCH  13  14
ATOM     14  C   UNL     1      11.851  20.471  16.010  1.00  0.00    -0.000 C 
BRANCH  14  15
ATOM     15  C   UNL     1      10.558  20.353  16.839  1.00  0.00    -0.000 C 
BRANCH  15  16
ATOM     16  C   UNL     1      10.566  19.143  17.789  1.00  0.00    -0.000 C 
BRANCH  16  17
ATOM     17  C   UNL     1       9.173  18.511  17.949  1.00  0.00    -0.003 C 
ATOM     18  C   UNL     1       8.488  18.238  16.611  1.00  0.00     0.004 C 
ENDBRANCH  16  17
ENDBRANCH  15  16
ENDBRANCH  14  15
ENDBRANCH  13  14
ENDBRANCH  12  13
ENDBRANCH  11  12
ENDBRANCH   1  11
TORSDOF 14
ENDMDL
MODEL 5
REMARK VINA RESULT:    -3.327      2.979      3.616
REMARK INTER + INTRA:          -7.841
REMARK INTER:                  -5.605
REMARK INTRA:                  -2.236
REMARK UNBOUND:                -1.792
REMARK SMILES CCCCCCCCCCCCCCCC(=O)[O-]
REMARK SMILES IDX 9 1 10 2 11 3 12 4 13 5 14 6 15 7 16 8 17 9 18 10 8 11 7 12
REMARK SMILES IDX 6 13 5 14 4 15 3 16 2 17 1 18
REMARK H PARENT
REMARK Flexibility Score: inf
ROOT
ATOM      1  C   UNL     1      11.509  21.197  19.976  1.00  0.00     0.000 C 
ENDROOT
BRANCH   1   2
ATOM      2  C   UNL     1      10.023  21.146  20.364  1.00  0.00     0.000 C 
BRANCH   2   3
ATOM      3  C   UNL     1       9.338  22.521  20.292  1.00  0.00     0.000 C 
BRANCH   3   4
ATOM      4  C   UNL     1       8.084  22.502  19.392  1.00  0.00     0.000 C 
BRANCH   4   5
ATOM      5  C   UNL     1       7.211  21.245  19.574  1.00  0.00     0.000 C 
BRANCH   5   6
ATOM      6  C   UNL     1       6.015  21.147  18.611  1.00  0.00     0.006 C 
BRANCH   6   7
ATOM      7  C   UNL     1       5.821  19.732  18.052  1.00  0.00     0.053 C 
BRANCH   7   8
ATOM      8  C   UNL     1       5.717  19.772  16.561  1.00  0.00     0.041 C 
ATOM      9  O   UNL     1       6.124  20.781  15.924  1.00  0.00    -0.550 OA
ATOM     10  O   UNL     1       5.122  18.721  15.876  1.00  0.00    -0.550 OA
ENDBRANCH   7   8
ENDBRANCH   6   7
ENDBRANCH   5   6
ENDBRANCH   4   5
ENDBRANCH   3   4
ENDBRANCH   2   3
ENDBRANCH   1   2
BRANCH   1  11
ATOM     11  C   UNL     1      12.014  22.632  19.747  1.00  0.00     0.000 C 
BRANCH  11  12
ATOM     12  C   UNL     1      12.963  22.733  18.542  1.00  0.00    -0.000 C 
BRANCH  12  13
ATOM     13  C   UNL     1      12.215  22.743  17.199  1.00  0.00    -0.000 C 
BRANCH  13  14
ATOM     14  C   UNL     1      12.687  21.632  16.243  1.00  0.00    -0.000 C 
BRANCH  14  15
ATOM     15  C   UNL     1      11.655  20.521  15.974  1.00  0.00    -0.000 C 
BRANCH  15  16
ATOM     16  C   UNL     1      10.278  20.823  16.587  1.00  0.00    -0.000 C 
BRANCH  16  17
ATOM     17  C   UNL     1       9.353  19.595  16.593  1.00  0.00    -0.003 C 
ATOM     18  C   UNL     1       9.479  18.763  17.869  1.00  0.00     0.004 C 
ENDBRANCH  16  17
ENDBRANCH  15  16
ENDBRANCH  14  15
ENDBRANCH  13  14
ENDBRANCH  12  13
ENDBRANCH  11  12
ENDBRANCH   1  11
TORSDOF 14
ENDMDL
MODEL 6
REMARK VINA RESULT:    -3.325      0.918      3.211
REMARK INTER + INTRA:          -7.838
REMARK INTER:                  -5.879
REMARK INTRA:                  -1.958
REMARK UNBOUND:                -1.792
REMARK SMILES CCCCCCCCCCCCCCCC(=O)[O-]
REMARK SMILES IDX 9 1 10 2 11 3 12 4 13 5 14 6 15 7 16 8 17 9 18 10 8 11 7 12
REMARK SMILES IDX 6 13 5 14 4 15 3 16 2 17 1 18
REMARK H PARENT
REMARK Flexibility Score: inf
ROOT
ATOM      1  C   UNL     1       9.786  19.077  17.666  1.00  0.00     0.000 C 
ENDROOT
BRANCH   1   2
ATOM      2  C   UNL     1       8.515  19.024  16.804  1.00  0.00     0.000 C 
BRANCH   2   3
ATOM      3  C   UNL     1       7.321  19.742  17.456  1.00  0.00     0.000 C 
BRANCH   3   4
ATOM      4  C   UNL     1       7.582  20.080  18.939  1.00  0.00     0.000 C 
BRANCH   4   5
ATOM      5  C   UNL     1       7.523  21.589  19.249  1.00  0.00     0.000 C 
BRANCH   5   6
ATOM      6  C   UNL     1       7.215  21.932  20.717  1.00  0.00     0.006 C 
BRANCH   6   7
ATOM      7  C   UNL     1       6.174  20.992  21.338  1.00  0.00     0.053 C 
BRANCH   7   8
ATOM      8  C   UNL     1       6.361  20.918  22.821  1.00  0.00     0.041 C 
ATOM      9  O   UNL     1       5.898  19.944  23.470  1.00  0.00    -0.550 OA
ATOM     10  O   UNL     1       7.000  21.952  23.494  1.00  0.00    -0.550 OA
ENDBRANCH   7   8
ENDBRANCH   6   7
ENDBRANCH   5   6
ENDBRANCH   4   5
ENDBRANCH   3   4
ENDBRANCH   2   3
ENDBRANCH   1   2
BRANCH   1  11
ATOM     11  C   UNL     1      10.928  19.858  16.991  1.00  0.00     0.000 C 
BRANCH  11  12
ATOM     12  C   UNL     1      10.411  21.026  16.135  1.00  0.00    -0.000 C 
BRANCH  12  13
ATOM     13  C   UNL     1      11.329  22.259  16.201  1.00  0.00    -0.000 C 
BRANCH  13  14
ATOM     14  C   UNL     1      12.612  22.006  17.013  1.00  0.00    -0.000 C 
BRANCH  14  15
ATOM     15  C   UNL     1      12.866  23.003  18.159  1.00  0.00    -0.000 C 
BRANCH  15  16
ATOM     16  C   UNL     1      12.674  22.376  19.550  1.00  0.00    -0.000 C 
BRANCH  16  17
ATOM     17  C   UNL     1      11.194  22.123  19.884  1.00  0.00    -0.003 C 
ATOM     18  C   UNL     1      10.981  20.860  20.717  1.00  0.00     0.004 C 
ENDBRANCH  16  17
ENDBRANCH  15  16
ENDBRANCH  14  15
ENDBRANCH  13  14
ENDBRANCH  12  13
ENDBRANCH  11  12
ENDBRANCH   1  11
TORSDOF 14
ENDMDL
MODEL 7
REMARK VINA RESULT:    -3.295      0.983      1.352
REMARK INTER + INTRA:          -7.784
REMARK INTER:                  -5.810
REMARK INTRA:                  -1.974
REMARK UNBOUND:                -1.792
REMARK SMILES CCCCCCCCCCCCCCCC(=O)[O-]
REMARK SMILES IDX 9 1 10 2 11 3 12 4 13 5 14 6 15 7 16 8 17 9 18 10 8 11 7 12
REMARK SMILES IDX 6 13 5 14 4 15 3 16 2 17 1 18
REMARK H PARENT
REMARK Flexibility Score: inf
ROOT
ATOM      1  C   UNL     1      11.861  21.636  20.050  1.00  0.00     0.000 C 
ENDROOT
BRANCH   1   2
ATOM      2  C   UNL     1      11.122  21.655  21.397  1.00  0.00     0.000 C 
BRANCH   2   3
ATOM      3  C   UNL     1       9.599  21.803  21.242  1.00  0.00     0.000 C 
BRANCH   3   4
ATOM      4  C   UNL     1       9.182  22.033  19.773  1.00  0.00     0.000 C 
BRANCH   4   5
ATOM      5  C   UNL     1       7.656  22.096  19.565  1.00  0.00     0.000 C 
BRANCH   5   6
ATOM      6  C   UNL     1       6.880  20.894  20.128  1.00  0.00     0.006 C 
BRANCH   6   7
ATOM      7  C   UNL     1       5.564  21.303  20.803  1.00  0.00     0.053 C 
BRANCH   7   8
ATOM      8  C   UNL     1       5.691  21.203  22.290  1.00  0.00     0.041 C 
ATOM      9  O   UNL     1       6.601  20.500  22.803  1.00  0.00    -0.550 OA
ATOM     10  O   UNL     1       4.770  21.843  23.111  1.00  0.00    -0.550 OA
ENDBRANCH   7   8
ENDBRANCH   6   7
ENDBRANCH   5   6
ENDBRANCH   4   5
ENDBRANCH   3   4
ENDBRANCH   2   3
ENDBRANCH   1   2
BRANCH   1  11
ATOM     11  C   UNL     1      12.932  22.736  19.945  1.00  0.00     0.000 C 
BRANCH  11  12
ATOM     12  C   UNL     1      13.231  23.124  18.488  1.00  0.00    -0.000 C 
BRANCH  12  13
ATOM     13  C   UNL     1      12.120  22.685  17.519  1.00  0.00    -0.000 C 
BRANCH  13  14
ATOM     14  C   UNL     1      12.620  21.710  16.438  1.00  0.00    -0.000 C 
BRANCH  14  15
ATOM     15  C   UNL     1      11.705  20.498  16.180  1.00  0.00    -0.000 C 
BRANCH  15  16
ATOM     16  C   UNL     1      10.230  20.780  16.515  1.00  0.00    -0.000 C 
BRANCH  16  17
ATOM     17  C   UNL     1       9.500  19.539  17.055  1.00  0.00    -0.003 C 
ATOM     18  C   UNL     1      10.300  18.800  18.126  1.00  0.00     0.004 C 
ENDBRANCH  16  17
ENDBRANCH  15  16
ENDBRANCH  14  15
ENDBRANCH  13  14
ENDBRANCH  12  13
ENDBRANCH  11  12
ENDBRANCH   1  11
TORSDOF 14
ENDMDL
MODEL 8
REMARK VINA RESULT:    -3.284      3.164      4.774
REMARK INTER + INTRA:          -7.764
REMARK INTER:                  -6.090
REMARK INTRA:                  -1.674
REMARK UNBOUND:                -1.792
REMARK SMILES CCCCCCCCCCCCCCCC(=O)[O-]
REMARK SMILES IDX 9 1 10 2 11 3 12 4 13 5 14 6 15 7 16 8 17 9 18 10 8 11 7 12
REMARK SMILES IDX 6 13 5 14 4 15 3 16 2 17 1 18
REMARK H PARENT
REMARK Flexibility Score: inf
ROOT
ATOM      1  C   UNL     1      10.308  20.991  16.394  1.00  0.00     0.000 C 
ENDROOT
BRANCH   1   2
ATOM      2  C   UNL     1       9.235  19.967  15.992  1.00  0.00     0.000 C 
BRANCH   2   3
ATOM      3  C   UNL     1       8.684  19.176  17.191  1.00  0.00     0.000 C 
BRANCH   3   4
ATOM      4  C   UNL     1       7.348  19.755  17.707  1.00  0.00     0.000 C 
BRANCH   4   5
ATOM      5  C   UNL     1       6.540  20.501  16.628  1.00  0.00     0.000 C 
BRANCH   5   6
ATOM      6  C   UNL     1       5.168  19.881  16.309  1.00  0.00     0.006 C 
BRANCH   6   7
ATOM      7  C   UNL     1       4.408  19.446  17.568  1.00  0.00     0.053 C 
BRANCH   7   8
ATOM      8  C   UNL     1       3.710  18.145  17.329  1.00  0.00     0.041 C 
ATOM      9  O   UNL     1       3.051  17.600  18.254  1.00  0.00    -0.550 OA
ATOM     10  O   UNL     1       3.830  17.506  16.101  1.00  0.00    -0.550 OA
ENDBRANCH   7   8
ENDBRANCH   6   7
ENDBRANCH   5   6
ENDBRANCH   4   5
ENDBRANCH   3   4
ENDBRANCH   2   3
ENDBRANCH   1   2
BRANCH   1  11
ATOM     11  C   UNL     1      11.738  20.478  16.152  1.00  0.00     0.000 C 
BRANCH  11  12
ATOM     12  C   UNL     1      12.788  21.595  16.268  1.00  0.00    -0.000 C 
BRANCH  12  13
ATOM     13  C   UNL     1      12.290  22.790  17.098  1.00  0.00    -0.000 C 
BRANCH  13  14
ATOM     14  C   UNL     1      13.089  22.991  18.399  1.00  0.00    -0.000 C 
BRANCH  14  15
ATOM     15  C   UNL     1      12.501  22.291  19.639  1.00  0.00    -0.000 C 
BRANCH  15  16
ATOM     16  C   UNL     1      10.968  22.383  19.706  1.00  0.00    -0.000 C 
BRANCH  16  17
ATOM     17  C   UNL     1      10.335  21.169  20.406  1.00  0.00    -0.003 C 
ATOM     18  C   UNL     1      10.920  19.839  19.933  1.00  0.00     0.004 C 
ENDBRANCH  16  17
ENDBRANCH  15  16
ENDBRANCH  14  15
ENDBRANCH  13  14
ENDBRANCH  12  13
ENDBRANCH  11  12
ENDBRANCH   1  11
TORSDOF 14
ENDMDL
MODEL 9
REMARK VINA RESULT:    -3.262     20.088     21.844
REMARK INTER + INTRA:          -7.724
REMARK INTER:                  -5.755
REMARK INTRA:                  -1.970
REMARK UNBOUND:                -1.792
REMARK SMILES CCCCCCCCCCCCCCCC(=O)[O-]
REMARK SMILES IDX 9 1 10 2 11 3 12 4 13 5 14 6 15 7 16 8 17 9 18 10 8 11 7 12
REMARK SMILES IDX 6 13 5 14 4 15 3 16 2 17 1 18
REMARK H PARENT
REMARK Flexibility Score: inf
ROOT
ATOM      1  C   UNL     1      11.790   4.410  31.729  1.00  0.00     0.000 C 
ENDROOT
BRANCH   1   2
ATOM      2  C   UNL     1      10.484   4.871  31.063  1.00  0.00     0.000 C 
BRANCH   2   3
ATOM      3  C   UNL     1       9.355   3.832  31.175  1.00  0.00     0.000 C 
BRANCH   3   4
ATOM      4  C   UNL     1       8.232   4.078  30.145  1.00  0.00     0.000 C 
BRANCH   4   5
ATOM      5  C   UNL     1       6.842   4.275  30.779  1.00  0.00     0.000 C 
BRANCH   5   6
ATOM      6  C   UNL     1       6.853   4.461  32.306  1.00  0.00     0.006 C 
BRANCH   6   7
ATOM      7  C   UNL     1       6.424   5.871  32.734  1.00  0.00     0.053 C 
BRANCH   7   8
ATOM      8  C   UNL     1       4.986   5.874  33.144  1.00  0.00     0.041 C 
ATOM      9  O   UNL     1       4.085   6.099  32.293  1.00  0.00    -0.550 OA
ATOM     10  O   UNL     1       4.642   5.684  34.477  1.00  0.00    -0.550 OA
ENDBRANCH   7   8
ENDBRANCH   6   7
ENDBRANCH   5   6
ENDBRANCH   4   5
ENDBRANCH   3   4
ENDBRANCH   2   3
ENDBRANCH   1   2
BRANCH   1  11
ATOM     11  C   UNL     1      11.587   3.197  32.655  1.00  0.00     0.000 C 
BRANCH  11  12
ATOM     12  C   UNL     1      12.728   3.042  33.674  1.00  0.00    -0.000 C 
BRANCH  12  13
ATOM     13  C   UNL     1      12.217   2.929  35.120  1.00  0.00    -0.000 C 
BRANCH  13  14
ATOM     14  C   UNL     1      12.626   4.128  35.994  1.00  0.00    -0.000 C 
BRANCH  14  15
ATOM     15  C   UNL     1      11.561   5.234  36.123  1.00  0.00    -0.000 C 
BRANCH  15  16
ATOM     16  C   UNL     1      10.124   4.696  36.016  1.00  0.00    -0.000 C 
BRANCH  16  17
ATOM     17  C   UNL     1       9.279   5.472  34.992  1.00  0.00    -0.003 C 
ATOM     18  C   UNL     1      10.083   6.530  34.239  1.00  0.00     0.004 C 
ENDBRANCH  16  17
ENDBRANCH  15  16
ENDBRANCH  14  15
ENDBRANCH  13  14
ENDBRANCH  12  13
ENDBRANCH  11  12
ENDBRANCH   1  11
TORSDOF 14
ENDMDL
