MODEL 1
REMARK VINA RESULT:    -4.620      0.000      0.000
REMARK INTER + INTRA:         -11.443
REMARK INTER:                  -8.672
REMARK INTRA:                  -2.772
REMARK UNBOUND:                -2.772
REMARK SMILES CCCCCCCCC=CCCCCCCCC(=O)[O-]
REMARK SMILES IDX 10 1 9 2 11 3 12 4 13 5 14 6 15 7 16 8 17 9 18 10 19 11
REMARK SMILES IDX 20 12 8 13 7 14 6 15 5 16 4 17 3 18 2 19 1 20
REMARK H PARENT
REMARK Flexibility Score: inf
ROOT
ATOM      1  C   UNL     1      15.233  32.135  -4.832  1.00  0.00    -0.031 C 
ATOM      2  C   UNL     1      16.257  31.724  -4.061  1.00  0.00    -0.031 C 
ENDROOT
BRANCH   1   3
ATOM      3  C   UNL     1      13.969  32.785  -4.314  1.00  0.00     0.027 C 
BRANCH   3   4
ATOM      4  C   UNL     1      12.804  32.600  -5.294  1.00  0.00     0.004 C 
BRANCH   4   5
ATOM      5  C   UNL     1      13.234  32.851  -6.750  1.00  0.00     0.000 C 
BRANCH   5   6
ATOM      6  C   UNL     1      12.917  31.664  -7.672  1.00  0.00     0.000 C 
BRANCH   6   7
ATOM      7  C   UNL     1      12.881  30.323  -6.916  1.00  0.00     0.000 C 
BRANCH   7   8
ATOM      8  C   UNL     1      14.097  29.437  -7.230  1.00  0.00     0.006 C 
BRANCH   8   9
ATOM      9  C   UNL     1      14.682  28.775  -5.975  1.00  0.00     0.053 C 
BRANCH   9  10
ATOM     10  C   UNL     1      16.075  28.296  -6.241  1.00  0.00     0.041 C 
ATOM     11  O   UNL     1      16.664  27.565  -5.401  1.00  0.00    -0.550 OA
ATOM     12  O   UNL     1      16.742  28.701  -7.390  1.00  0.00    -0.550 OA
ENDBRANCH   9  10
ENDBRANCH   8   9
ENDBRANCH   7   8
ENDBRANCH   6   7
ENDBRANCH   5   6
ENDBRANCH   4   5
ENDBRANCH   3   4
ENDBRANCH   1   3
BRANCH   2  13
ATOM     13  C   UNL     1      16.338  31.910  -2.569  1.00  0.00     0.027 C 
BRANCH  13  14
ATOM     14  C   UNL     1      16.460  30.557  -1.851  1.00  0.00     0.004 C 
BRANCH  14  15
ATOM     15  C   UNL     1      15.641  29.449  -2.530  1.00  0.00     0.000 C 
BRANCH  15  16
ATOM     16  C   UNL     1      14.892  28.564  -1.518  1.00  0.00     0.000 C 
BRANCH  16  17
ATOM     17  C   UNL     1      13.457  29.049  -1.259  1.00  0.00    -0.000 C 
BRANCH  17  18
ATOM     18  C   UNL     1      12.894  29.887  -2.422  1.00  0.00    -0.000 C 
BRANCH  18  19
ATOM     19  C   UNL     1      11.928  29.086  -3.309  1.00  0.00    -0.003 C 
ATOM     20  C   UNL     1      10.746  29.922  -3.800  1.00  0.00     0.004 C 
ENDBRANCH  18  19
ENDBRANCH  17  18
ENDBRANCH  16  17
ENDBRANCH  15  16
ENDBRANCH  14  15
ENDBRANCH  13  14
ENDBRANCH   2  13
TORSDOF 15
ENDMDL
MODEL 2
REMARK VINA RESULT:    -4.579      1.969      5.053
REMARK INTER + INTRA:         -11.366
REMARK INTER:                  -9.361
REMARK INTRA:                  -2.005
REMARK UNBOUND:                -2.772
REMARK SMILES CCCCCCCCC=CCCCCCCCC(=O)[O-]
REMARK SMILES IDX 10 1 9 2 11 3 12 4 13 5 14 6 15 7 16 8 17 9 18 10 19 11
REMARK SMILES IDX 20 12 8 13 7 14 6 15 5 16 4 17 3 18 2 19 1 20
REMARK H PARENT
REMARK Flexibility Score: inf
ROOT
ATOM      1  C   UNL     1      15.255  32.363  -4.092  1.00  0.00    -0.031 C 
ATOM      2  C   UNL     1      15.903  31.323  -4.647  1.00  0.00    -0.031 C 
ENDROOT
BRANCH   1   3
ATOM      3  C   UNL     1      13.814  32.730  -4.369  1.00  0.00     0.027 C 
BRANCH   3   4
ATOM      4  C   UNL     1      12.883  32.209  -3.266  1.00  0.00     0.004 C 
BRANCH   4   5
ATOM      5  C   UNL     1      12.099  30.966  -3.721  1.00  0.00     0.000 C 
BRANCH   5   6
ATOM      6  C   UNL     1      12.501  29.700  -2.950  1.00  0.00     0.000 C 
BRANCH   6   7
ATOM      7  C   UNL     1      13.624  29.962  -1.929  1.00  0.00     0.000 C 
BRANCH   7   8
ATOM      8  C   UNL     1      14.412  28.689  -1.581  1.00  0.00     0.006 C 
BRANCH   8   9
ATOM      9  C   UNL     1      15.883  28.772  -2.007  1.00  0.00     0.053 C 
BRANCH   9  10
ATOM     10  C   UNL     1      16.508  27.412  -1.992  1.00  0.00     0.041 C 
ATOM     11  O   UNL     1      16.661  26.774  -3.067  1.00  0.00    -0.550 OA
ATOM     12  O   UNL     1      16.870  26.827  -0.786  1.00  0.00    -0.550 OA
ENDBRANCH   9  10
ENDBRANCH   8   9
ENDBRANCH   7   8
ENDBRANCH   6   7
ENDBRANCH   5   6
ENDBRANCH   4   5
ENDBRANCH   3   4
ENDBRANCH   1   3
BRANCH   2  13
ATOM     13  C   UNL     1      15.276  30.316  -5.576  1.00  0.00     0.027 C 
BRANCH  13  14
ATOM     14  C   UNL     1      16.126  29.039  -5.658  1.00  0.00     0.004 C 
BRANCH  14  15
ATOM     15  C   UNL     1      16.485  28.658  -7.103  1.00  0.00     0.000 C 
BRANCH  15  16
ATOM     16  C   UNL     1      15.297  28.818  -8.068  1.00  0.00     0.000 C 
BRANCH  16  17
ATOM     17  C   UNL     1      15.744  29.007  -9.527  1.00  0.00    -0.000 C 
BRANCH  17  18
ATOM     18  C   UNL     1      14.634  29.598 -10.416  1.00  0.00    -0.000 C 
BRANCH  18  19
ATOM     19  C   UNL     1      13.300  29.747  -9.667  1.00  0.00    -0.003 C 
ATOM     20  C   UNL     1      12.864  31.205  -9.520  1.00  0.00     0.004 C 
ENDBRANCH  18  19
ENDBRANCH  17  18
ENDBRANCH  16  17
ENDBRANCH  15  16
ENDBRANCH  14  15
ENDBRANCH  13  14
ENDBRANCH   2  13
TORSDOF 15
ENDMDL
MODEL 3
REMARK VINA RESULT:    -4.546      2.090      3.219
REMARK INTER + INTRA:         -11.305
REMARK INTER:                  -8.529
REMARK INTRA:                  -2.776
REMARK UNBOUND:                -2.772
REMARK SMILES CCCCCCCCC=CCCCCCCCC(=O)[O-]
REMARK SMILES IDX 10 1 9 2 11 3 12 4 13 5 14 6 15 7 16 8 17 9 18 10 19 11
REMARK SMILES IDX 20 12 8 13 7 14 6 15 5 16 4 17 3 18 2 19 1 20
REMARK H PARENT
REMARK Flexibility Score: inf
ROOT
ATOM      1  C   UNL     1      15.817  30.964  -4.497  1.00  0.00    -0.031 C 
ATOM      2  C   UNL     1      16.011  30.935  -3.166  1.00  0.00    -0.031 C 
ENDROOT
BRANCH   1   3
ATOM      3  C   UNL     1      15.585  29.745  -5.362  1.00  0.00     0.027 C 
BRANCH   3   4
ATOM      4  C   UNL     1      14.567  30.035  -6.473  1.00  0.00     0.004 C 
BRANCH   4   5
ATOM      5  C   UNL     1      13.641  28.833  -6.729  1.00  0.00     0.000 C 
BRANCH   5   6
ATOM      6  C   UNL     1      12.885  28.944  -8.062  1.00  0.00     0.000 C 
BRANCH   6   7
ATOM      7  C   UNL     1      13.131  30.290  -8.769  1.00  0.00     0.000 C 
BRANCH   7   8
ATOM      8  C   UNL     1      13.882  30.127 -10.100  1.00  0.00     0.006 C 
BRANCH   8   9
ATOM      9  C   UNL     1      14.231  28.665 -10.405  1.00  0.00     0.053 C 
BRANCH   9  10
ATOM     10  C   UNL     1      15.661  28.548 -10.830  1.00  0.00     0.041 C 
ATOM     11  O   UNL     1      16.132  27.430 -11.168  1.00  0.00    -0.550 OA
ATOM     12  O   UNL     1      16.488  29.663 -10.800  1.00  0.00    -0.550 OA
ENDBRANCH   9  10
ENDBRANCH   8   9
ENDBRANCH   7   8
ENDBRANCH   6   7
ENDBRANCH   5   6
ENDBRANCH   4   5
ENDBRANCH   3   4
ENDBRANCH   1   3
BRANCH   2  13
ATOM     13  C   UNL     1      15.956  29.692  -2.316  1.00  0.00     0.027 C 
BRANCH  13  14
ATOM     14  C   UNL     1      14.536  29.454  -1.781  1.00  0.00     0.004 C 
BRANCH  14  15
ATOM     15  C   UNL     1      13.868  28.218  -2.404  1.00  0.00     0.000 C 
BRANCH  15  16
ATOM     16  C   UNL     1      12.588  28.569  -3.184  1.00  0.00     0.000 C 
BRANCH  16  17
ATOM     17  C   UNL     1      12.100  29.999  -2.902  1.00  0.00    -0.000 C 
BRANCH  17  18
ATOM     18  C   UNL     1      11.653  30.735  -4.179  1.00  0.00    -0.000 C 
BRANCH  18  19
ATOM     19  C   UNL     1      12.353  32.093  -4.349  1.00  0.00    -0.003 C 
ATOM     20  C   UNL     1      12.792  32.701  -3.017  1.00  0.00     0.004 C 
ENDBRANCH  18  19
ENDBRANCH  17  18
ENDBRANCH  16  17
ENDBRANCH  15  16
ENDBRANCH  14  15
ENDBRANCH  13  14
ENDBRANCH   2  13
TORSDOF 15
ENDMDL
MODEL 4
REMARK VINA RESULT:    -4.525      2.387      5.875
REMARK INTER + INTRA:         -11.265
REMARK INTER:                  -9.065
REMARK INTRA:                  -2.200
REMARK UNBOUND:                -2.772
REMARK SMILES CCCCCCCCC=CCCCCCCCC(=O)[O-]
REMARK SMILES IDX 10 1 9 2 11 3 12 4 13 5 14 6 15 7 16 8 17 9 18 10 19 11
REMARK SMILES IDX 20 12 8 13 7 14 6 15 5 16 4 17 3 18 2 19 1 20
REMARK H PARENT
REMARK Flexibility Score: inf
ROOT
ATOM      1  C   UNL     1      16.063  28.579  -8.102  1.00  0.00    -0.031 C 
ATOM      2  C   UNL     1      15.914  28.611  -9.439  1.00  0.00    -0.031 C 
ENDROOT
BRANCH   1   3
ATOM      3  C   UNL     1      14.940  28.750  -7.104  1.00  0.00     0.027 C 
BRANCH   3   4
ATOM      4  C   UNL     1      15.342  29.703  -5.970  1.00  0.00     0.004 C 
BRANCH   4   5
ATOM      5  C   UNL     1      14.174  30.608  -5.542  1.00  0.00     0.000 C 
BRANCH   5   6
ATOM      6  C   UNL     1      14.641  32.003  -5.098  1.00  0.00     0.000 C 
BRANCH   6   7
ATOM      7  C   UNL     1      15.873  31.947  -4.177  1.00  0.00     0.000 C 
BRANCH   7   8
ATOM      8  C   UNL     1      15.499  31.697  -2.707  1.00  0.00     0.006 C 
BRANCH   8   9
ATOM      9  C   UNL     1      16.328  30.574  -2.071  1.00  0.00     0.053 C 
BRANCH   9  10
ATOM     10  C   UNL     1      15.531  29.308  -2.012  1.00  0.00     0.041 C 
ATOM     11  O   UNL     1      16.105  28.208  -1.797  1.00  0.00    -0.550 OA
ATOM     12  O   UNL     1      14.163  29.337  -2.248  1.00  0.00    -0.550 OA
ENDBRANCH   9  10
ENDBRANCH   8   9
ENDBRANCH   7   8
ENDBRANCH   6   7
ENDBRANCH   5   6
ENDBRANCH   4   5
ENDBRANCH   3   4
ENDBRANCH   1   3
BRANCH   2  13
ATOM     13  C   UNL     1      14.595  28.752 -10.154  1.00  0.00     0.027 C 
BRANCH  13  14
ATOM     14  C   UNL     1      14.524  30.081 -10.922  1.00  0.00     0.004 C 
BRANCH  14  15
ATOM     15  C   UNL     1      13.264  30.893 -10.586  1.00  0.00     0.000 C 
BRANCH  15  16
ATOM     16  C   UNL     1      13.016  30.998  -9.071  1.00  0.00     0.000 C 
BRANCH  16  17
ATOM     17  C   UNL     1      11.529  31.191  -8.729  1.00  0.00    -0.000 C 
BRANCH  17  18
ATOM     18  C   UNL     1      10.975  30.065  -7.837  1.00  0.00    -0.000 C 
BRANCH  18  19
ATOM     19  C   UNL     1      11.484  28.677  -8.259  1.00  0.00    -0.003 C 
ATOM     20  C   UNL     1      11.030  27.568  -7.309  1.00  0.00     0.004 C 
ENDBRANCH  18  19
ENDBRANCH  17  18
ENDBRANCH  16  17
ENDBRANCH  15  16
ENDBRANCH  14  15
ENDBRANCH  13  14
ENDBRANCH   2  13
TORSDOF 15
ENDMDL
MODEL 5
REMARK VINA RESULT:    -4.509      2.183      5.393
REMARK INTER + INTRA:         -11.235
REMARK INTER:                  -8.933
REMARK INTRA:                  -2.302
REMARK UNBOUND:                -2.772
REMARK SMILES CCCCCCCCC=CCCCCCCCC(=O)[O-]
REMARK SMILES IDX 10 1 9 2 11 3 12 4 13 5 14 6 15 7 16 8 17 9 18 10 19 11
REMARK SMILES IDX 20 12 8 13 7 14 6 15 5 16 4 17 3 18 2 19 1 20
REMARK H PARENT
REMARK Flexibility Score: inf
ROOT
ATOM      1  C   UNL     1      13.125  31.605  -5.472  1.00  0.00    -0.031 C 
ATOM      2  C   UNL     1      13.494  30.533  -6.198  1.00  0.00    -0.031 C 
ENDROOT
BRANCH   1   3
ATOM      3  C   UNL     1      12.710  31.563  -4.019  1.00  0.00     0.027 C 
BRANCH   3   4
ATOM      4  C   UNL     1      13.721  32.295  -3.128  1.00  0.00     0.004 C 
BRANCH   4   5
ATOM      5  C   UNL     1      14.982  32.703  -3.908  1.00  0.00     0.000 C 
BRANCH   5   6
ATOM      6  C   UNL     1      16.213  31.872  -3.515  1.00  0.00     0.000 C 
BRANCH   6   7
ATOM      7  C   UNL     1      16.137  31.353  -2.068  1.00  0.00     0.000 C 
BRANCH   7   8
ATOM      8  C   UNL     1      16.309  29.828  -1.980  1.00  0.00     0.006 C 
BRANCH   8   9
ATOM      9  C   UNL     1      14.987  29.102  -1.696  1.00  0.00     0.053 C 
BRANCH   9  10
ATOM     10  C   UNL     1      15.224  27.633  -1.537  1.00  0.00     0.041 C 
ATOM     11  O   UNL     1      14.250  26.835  -1.490  1.00  0.00    -0.550 OA
ATOM     12  O   UNL     1      16.517  27.150  -1.386  1.00  0.00    -0.550 OA
ENDBRANCH   9  10
ENDBRANCH   8   9
ENDBRANCH   7   8
ENDBRANCH   6   7
ENDBRANCH   5   6
ENDBRANCH   4   5
ENDBRANCH   3   4
ENDBRANCH   1   3
BRANCH   2  13
ATOM     13  C   UNL     1      13.621  29.133  -5.657  1.00  0.00     0.027 C 
BRANCH  13  14
ATOM     14  C   UNL     1      15.083  28.804  -5.318  1.00  0.00     0.004 C 
BRANCH  14  15
ATOM     15  C   UNL     1      16.058  29.227  -6.428  1.00  0.00     0.000 C 
BRANCH  15  16
ATOM     16  C   UNL     1      16.350  28.088  -7.422  1.00  0.00     0.000 C 
BRANCH  16  17
ATOM     17  C   UNL     1      16.255  28.546  -8.886  1.00  0.00    -0.000 C 
BRANCH  17  18
ATOM     18  C   UNL     1      14.946  29.299  -9.189  1.00  0.00    -0.000 C 
BRANCH  18  19
ATOM     19  C   UNL     1      14.124  28.626 -10.299  1.00  0.00    -0.003 C 
ATOM     20  C   UNL     1      14.883  28.534 -11.623  1.00  0.00     0.004 C 
ENDBRANCH  18  19
ENDBRANCH  17  18
ENDBRANCH  16  17
ENDBRANCH  15  16
ENDBRANCH  14  15
ENDBRANCH  13  14
ENDBRANCH   2  13
TORSDOF 15
ENDMDL
MODEL 6
REMARK VINA RESULT:    -4.505      2.158      5.636
REMARK INTER + INTRA:         -11.227
REMARK INTER:                  -8.580
REMARK INTRA:                  -2.646
REMARK UNBOUND:                -2.772
REMARK SMILES CCCCCCCCC=CCCCCCCCC(=O)[O-]
REMARK SMILES IDX 10 1 9 2 11 3 12 4 13 5 14 6 15 7 16 8 17 9 18 10 19 11
REMARK SMILES IDX 20 12 8 13 7 14 6 15 5 16 4 17 3 18 2 19 1 20
REMARK H PARENT
REMARK Flexibility Score: inf
ROOT
ATOM      1  C   UNL     1      14.738  29.163  -6.206  1.00  0.00    -0.031 C 
ATOM      2  C   UNL     1      14.821  28.732  -7.479  1.00  0.00    -0.031 C 
ENDROOT
BRANCH   1   3
ATOM      3  C   UNL     1      15.921  29.526  -5.337  1.00  0.00     0.027 C 
BRANCH   3   4
ATOM      4  C   UNL     1      15.867  30.997  -4.907  1.00  0.00     0.004 C 
BRANCH   4   5
ATOM      5  C   UNL     1      14.478  31.613  -5.144  1.00  0.00     0.000 C 
BRANCH   5   6
ATOM      6  C   UNL     1      14.180  32.782  -4.192  1.00  0.00     0.000 C 
BRANCH   6   7
ATOM      7  C   UNL     1      13.295  32.365  -3.004  1.00  0.00     0.000 C 
BRANCH   7   8
ATOM      8  C   UNL     1      12.574  31.029  -3.248  1.00  0.00     0.006 C 
BRANCH   8   9
ATOM      9  C   UNL     1      12.702  30.065  -2.061  1.00  0.00     0.053 C 
BRANCH   9  10
ATOM     10  C   UNL     1      13.918  29.206  -2.217  1.00  0.00     0.041 C 
ATOM     11  O   UNL     1      15.016  29.565  -1.716  1.00  0.00    -0.550 OA
ATOM     12  O   UNL     1      13.850  28.036  -2.962  1.00  0.00    -0.550 OA
ENDBRANCH   9  10
ENDBRANCH   8   9
ENDBRANCH   7   8
ENDBRANCH   6   7
ENDBRANCH   5   6
ENDBRANCH   4   5
ENDBRANCH   3   4
ENDBRANCH   1   3
BRANCH   2  13
ATOM     13  C   UNL     1      16.103  28.611  -8.262  1.00  0.00     0.027 C 
BRANCH  13  14
ATOM     14  C   UNL     1      15.891  29.017  -9.729  1.00  0.00     0.004 C 
BRANCH  14  15
ATOM     15  C   UNL     1      14.406  29.127 -10.105  1.00  0.00     0.000 C 
BRANCH  15  16
ATOM     16  C   UNL     1      14.043  30.509 -10.677  1.00  0.00     0.000 C 
BRANCH  16  17
ATOM     17  C   UNL     1      12.740  31.070 -10.083  1.00  0.00    -0.000 C 
BRANCH  17  18
ATOM     18  C   UNL     1      12.923  31.600  -8.649  1.00  0.00    -0.000 C 
BRANCH  18  19
ATOM     19  C   UNL     1      11.838  31.084  -7.690  1.00  0.00    -0.003 C 
ATOM     20  C   UNL     1      11.269  29.731  -8.115  1.00  0.00     0.004 C 
ENDBRANCH  18  19
ENDBRANCH  17  18
ENDBRANCH  16  17
ENDBRANCH  15  16
ENDBRANCH  14  15
ENDBRANCH  13  14
ENDBRANCH   2  13
TORSDOF 15
ENDMDL
MODEL 7
REMARK VINA RESULT:    -4.500      1.936      5.618
REMARK INTER + INTRA:         -11.217
REMARK INTER:                  -8.456
REMARK INTRA:                  -2.760
REMARK UNBOUND:                -2.772
REMARK SMILES CCCCCCCCC=CCCCCCCCC(=O)[O-]
REMARK SMILES IDX 10 1 9 2 11 3 12 4 13 5 14 6 15 7 16 8 17 9 18 10 19 11
REMARK SMILES IDX 20 12 8 13 7 14 6 15 5 16 4 17 3 18 2 19 1 20
REMARK H PARENT
REMARK Flexibility Score: inf
ROOT
ATOM      1  C   UNL     1      15.009  28.900  -7.384  1.00  0.00    -0.031 C 
ATOM      2  C   UNL     1      14.852  29.006  -8.717  1.00  0.00    -0.031 C 
ENDROOT
BRANCH   1   3
ATOM      3  C   UNL     1      13.892  29.013  -6.371  1.00  0.00     0.027 C 
BRANCH   3   4
ATOM      4  C   UNL     1      14.260  29.982  -5.240  1.00  0.00     0.004 C 
BRANCH   4   5
ATOM      5  C   UNL     1      15.704  30.496  -5.373  1.00  0.00     0.000 C 
BRANCH   5   6
ATOM      6  C   UNL     1      16.020  31.631  -4.387  1.00  0.00     0.000 C 
BRANCH   6   7
ATOM      7  C   UNL     1      15.275  31.475  -3.050  1.00  0.00     0.000 C 
BRANCH   7   8
ATOM      8  C   UNL     1      15.959  30.472  -2.108  1.00  0.00     0.006 C 
BRANCH   8   9
ATOM      9  C   UNL     1      14.998  29.390  -1.600  1.00  0.00     0.053 C 
BRANCH   9  10
ATOM     10  C   UNL     1      15.491  28.031  -1.987  1.00  0.00     0.041 C 
ATOM     11  O   UNL     1      15.188  27.025  -1.293  1.00  0.00    -0.550 OA
ATOM     12  O   UNL     1      16.331  27.883  -3.083  1.00  0.00    -0.550 OA
ENDBRANCH   9  10
ENDBRANCH   8   9
ENDBRANCH   7   8
ENDBRANCH   6   7
ENDBRANCH   5   6
ENDBRANCH   4   5
ENDBRANCH   3   4
ENDBRANCH   1   3
BRANCH   2  13
ATOM     13  C   UNL     1      13.528  29.182  -9.414  1.00  0.00     0.027 C 
BRANCH  13  14
ATOM     14  C   UNL     1      13.524  30.456 -10.273  1.00  0.00     0.004 C 
BRANCH  14  15
ATOM     15  C   UNL     1      12.742  31.607  -9.623  1.00  0.00     0.000 C 
BRANCH  15  16
ATOM     16  C   UNL     1      11.780  31.121  -8.524  1.00  0.00     0.000 C 
BRANCH  16  17
ATOM     17  C   UNL     1      11.813  32.016  -7.274  1.00  0.00    -0.000 C 
BRANCH  17  18
ATOM     18  C   UNL     1      13.069  32.904  -7.213  1.00  0.00    -0.000 C 
BRANCH  18  19
ATOM     19  C   UNL     1      13.228  33.604  -5.854  1.00  0.00    -0.003 C 
ATOM     20  C   UNL     1      12.223  33.108  -4.814  1.00  0.00     0.004 C 
ENDBRANCH  18  19
ENDBRANCH  17  18
ENDBRANCH  16  17
ENDBRANCH  15  16
ENDBRANCH  14  15
ENDBRANCH  13  14
ENDBRANCH   2  13
TORSDOF 15
ENDMDL
MODEL 8
REMARK VINA RESULT:    -4.491      2.080      3.400
REMARK INTER + INTRA:         -11.201
REMARK INTER:                  -8.884
REMARK INTRA:                  -2.317
REMARK UNBOUND:                -2.772
REMARK SMILES CCCCCCCCC=CCCCCCCCC(=O)[O-]
REMARK SMILES IDX 10 1 9 2 11 3 12 4 13 5 14 6 15 7 16 8 17 9 18 10 19 11
REMARK SMILES IDX 20 12 8 13 7 14 6 15 5 16 4 17 3 18 2 19 1 20
REMARK H PARENT
REMARK Flexibility Score: inf
ROOT
ATOM      1  C   UNL     1      12.566  31.590  -3.260  1.00  0.00    -0.031 C 
ATOM      2  C   UNL     1      13.646  32.378  -3.110  1.00  0.00    -0.031 C 
ENDROOT
BRANCH   1   3
ATOM      3  C   UNL     1      12.153  30.927  -4.555  1.00  0.00     0.027 C 
BRANCH   3   4
ATOM      4  C   UNL     1      12.574  29.452  -4.586  1.00  0.00     0.004 C 
BRANCH   4   5
ATOM      5  C   UNL     1      13.222  29.071  -5.929  1.00  0.00     0.000 C 
BRANCH   5   6
ATOM      6  C   UNL     1      14.737  29.323  -5.945  1.00  0.00     0.000 C 
BRANCH   6   7
ATOM      7  C   UNL     1      15.411  28.785  -7.220  1.00  0.00     0.000 C 
BRANCH   7   8
ATOM      8  C   UNL     1      14.476  28.816  -8.439  1.00  0.00     0.006 C 
BRANCH   8   9
ATOM      9  C   UNL     1      15.149  29.408  -9.684  1.00  0.00     0.053 C 
BRANCH   9  10
ATOM     10  C   UNL     1      15.147  28.412 -10.801  1.00  0.00     0.041 C 
ATOM     11  O   UNL     1      15.941  27.435 -10.780  1.00  0.00    -0.550 OA
ATOM     12  O   UNL     1      14.307  28.594 -11.892  1.00  0.00    -0.550 OA
ENDBRANCH   9  10
ENDBRANCH   8   9
ENDBRANCH   7   8
ENDBRANCH   6   7
ENDBRANCH   5   6
ENDBRANCH   4   5
ENDBRANCH   3   4
ENDBRANCH   1   3
BRANCH   2  13
ATOM     13  C   UNL     1      14.655  32.667  -4.191  1.00  0.00     0.027 C 
BRANCH  13  14
ATOM     14  C   UNL     1      15.998  31.984  -3.886  1.00  0.00     0.004 C 
BRANCH  14  15
ATOM     15  C   UNL     1      16.297  31.910  -2.381  1.00  0.00     0.000 C 
BRANCH  15  16
ATOM     16  C   UNL     1      16.607  30.477  -1.911  1.00  0.00     0.000 C 
BRANCH  16  17
ATOM     17  C   UNL     1      15.337  29.638  -1.703  1.00  0.00    -0.000 C 
BRANCH  17  18
ATOM     18  C   UNL     1      15.385  28.293  -2.452  1.00  0.00    -0.000 C 
BRANCH  18  19
ATOM     19  C   UNL     1      14.384  27.271  -1.890  1.00  0.00    -0.003 C 
ATOM     20  C   UNL     1      13.190  27.932  -1.201  1.00  0.00     0.004 C 
ENDBRANCH  18  19
ENDBRANCH  17  18
ENDBRANCH  16  17
ENDBRANCH  15  16
ENDBRANCH  14  15
ENDBRANCH  13  14
ENDBRANCH   2  13
TORSDOF 15
ENDMDL
MODEL 9
REMARK VINA RESULT:    -4.459      2.057      5.229
REMARK INTER + INTRA:         -11.141
REMARK INTER:                  -8.451
REMARK INTRA:                  -2.690
REMARK UNBOUND:                -2.772
REMARK SMILES CCCCCCCCC=CCCCCCCCC(=O)[O-]
REMARK SMILES IDX 10 1 9 2 11 3 12 4 13 5 14 6 15 7 16 8 17 9 18 10 19 11
REMARK SMILES IDX 20 12 8 13 7 14 6 15 5 16 4 17 3 18 2 19 1 20
REMARK H PARENT
REMARK Flexibility Score: inf
ROOT
ATOM      1  C   UNL     1      14.757  29.227  -5.453  1.00  0.00    -0.031 C 
ATOM      2  C   UNL     1      15.624  28.399  -6.066  1.00  0.00    -0.031 C 
ENDROOT
BRANCH   1   3
ATOM      3  C   UNL     1      14.674  30.718  -5.689  1.00  0.00     0.027 C 
BRANCH   3   4
ATOM      4  C   UNL     1      13.660  31.377  -4.745  1.00  0.00     0.004 C 
BRANCH   4   5
ATOM      5  C   UNL     1      14.332  32.384  -3.796  1.00  0.00     0.000 C 
BRANCH   5   6
ATOM      6  C   UNL     1      15.831  32.104  -3.605  1.00  0.00     0.000 C 
BRANCH   6   7
ATOM      7  C   UNL     1      16.155  31.558  -2.202  1.00  0.00     0.000 C 
BRANCH   7   8
ATOM      8  C   UNL     1      16.289  30.027  -2.183  1.00  0.00     0.006 C 
BRANCH   8   9
ATOM      9  C   UNL     1      14.978  29.325  -1.808  1.00  0.00     0.053 C 
BRANCH   9  10
ATOM     10  C   UNL     1      15.151  27.839  -1.852  1.00  0.00     0.041 C 
ATOM     11  O   UNL     1      14.493  27.101  -1.072  1.00  0.00    -0.550 OA
ATOM     12  O   UNL     1      16.080  27.273  -2.716  1.00  0.00    -0.550 OA
ENDBRANCH   9  10
ENDBRANCH   8   9
ENDBRANCH   7   8
ENDBRANCH   6   7
ENDBRANCH   5   6
ENDBRANCH   4   5
ENDBRANCH   3   4
ENDBRANCH   1   3
BRANCH   2  13
ATOM     13  C   UNL     1      16.599  28.815  -7.136  1.00  0.00     0.027 C 
BRANCH  13  14
ATOM     14  C   UNL     1      16.252  28.161  -8.482  1.00  0.00     0.004 C 
BRANCH  14  15
ATOM     15  C   UNL     1      15.811  29.183  -9.541  1.00  0.00     0.000 C 
BRANCH  15  16
ATOM     16  C   UNL     1      14.373  28.941 -10.033  1.00  0.00     0.000 C 
BRANCH  16  17
ATOM     17  C   UNL     1      13.324  29.638  -9.151  1.00  0.00    -0.000 C 
BRANCH  17  18
ATOM     18  C   UNL     1      12.470  28.641  -8.345  1.00  0.00    -0.000 C 
BRANCH  18  19
ATOM     19  C   UNL     1      11.496  29.344  -7.387  1.00  0.00    -0.003 C 
ATOM     20  C   UNL     1      11.152  28.493  -6.164  1.00  0.00     0.004 C 
ENDBRANCH  18  19
ENDBRANCH  17  18
ENDBRANCH  16  17
ENDBRANCH  15  16
ENDBRANCH  14  15
ENDBRANCH  13  14
ENDBRANCH   2  13
TORSDOF 15
ENDMDL
