MODEL 1
REMARK VINA RESULT:     3.079      0.000      0.000
REMARK INTER + INTRA:           6.624
REMARK INTER:                   5.239
REMARK INTRA:                   1.386
REMARK UNBOUND:                 1.386
REMARK SMILES CCCCCCCCCCCCCC(=O)[O-]
REMARK SMILES IDX 8 1 9 2 10 3 11 4 12 5 13 6 14 7 15 8 16 9 7 10 6 11 5 12
REMARK SMILES IDX 4 13 3 14 2 15 1 16
REMARK H PARENT
REMARK Flexibility Score: inf
ROOT
ATOM      1  C   UNL     1       6.505  40.341  13.814  1.00  0.00     0.000 C 
ENDROOT
BRANCH   1   2
ATOM      2  C   UNL     1       7.682  40.627  14.763  1.00  0.00     0.000 C 
BRANCH   2   3
ATOM      3  C   UNL     1       7.597  39.817  16.068  1.00  0.00     0.000 C 
BRANCH   3   4
ATOM      4  C   UNL     1       7.934  38.331  15.864  1.00  0.00     0.000 C 
BRANCH   4   5
ATOM      5  C   UNL     1       9.418  38.017  16.120  1.00  0.00     0.006 C 
BRANCH   5   6
ATOM      6  C   UNL     1      10.232  37.965  14.820  1.00  0.00     0.053 C 
BRANCH   6   7
ATOM      7  C   UNL     1      11.575  38.607  14.976  1.00  0.00     0.041 C 
ATOM      8  O   UNL     1      11.963  39.474  14.149  1.00  0.00    -0.550 OA
ATOM      9  O   UNL     1      12.413  38.227  16.018  1.00  0.00    -0.550 OA
ENDBRANCH   6   7
ENDBRANCH   5   6
ENDBRANCH   4   5
ENDBRANCH   3   4
ENDBRANCH   2   3
ENDBRANCH   1   2
BRANCH   1  10
ATOM     10  C   UNL     1       5.138  40.598  14.475  1.00  0.00     0.000 C 
BRANCH  10  11
ATOM     11  C   UNL     1       4.986  39.865  15.817  1.00  0.00    -0.000 C 
BRANCH  11  12
ATOM     12  C   UNL     1       4.873  38.342  15.654  1.00  0.00    -0.000 C 
BRANCH  12  13
ATOM     13  C   UNL     1       3.423  37.877  15.833  1.00  0.00    -0.000 C 
BRANCH  13  14
ATOM     14  C   UNL     1       2.437  38.978  15.429  1.00  0.00    -0.000 C 
BRANCH  14  15
ATOM     15  C   UNL     1       1.788  38.666  14.076  1.00  0.00    -0.003 C 
ATOM     16  C   UNL     1       2.744  37.891  13.171  1.00  0.00     0.004 C 
ENDBRANCH  14  15
ENDBRANCH  13  14
ENDBRANCH  12  13
ENDBRANCH  11  12
ENDBRANCH  10  11
ENDBRANCH   1  10
TORSDOF 12
ENDMDL
MODEL 2
REMARK VINA RESULT:     4.382      1.323      1.993
REMARK INTER + INTRA:           8.841
REMARK INTER:                   7.728
REMARK INTRA:                   1.113
REMARK UNBOUND:                 1.386
REMARK SMILES CCCCCCCCCCCCCC(=O)[O-]
REMARK SMILES IDX 8 1 9 2 10 3 11 4 12 5 13 6 14 7 15 8 16 9 7 10 6 11 5 12
REMARK SMILES IDX 4 13 3 14 2 15 1 16
REMARK H PARENT
REMARK Flexibility Score: inf
ROOT
ATOM      1  C   UNL     1       8.387  40.464  14.195  1.00  0.00     0.000 C 
ENDROOT
BRANCH   1   2
ATOM      2  C   UNL     1       9.454  40.381  15.300  1.00  0.00     0.000 C 
BRANCH   2   3
ATOM      3  C   UNL     1       9.358  39.081  16.116  1.00  0.00     0.000 C 
BRANCH   3   4
ATOM      4  C   UNL     1      10.008  37.885  15.401  1.00  0.00     0.000 C 
BRANCH   4   5
ATOM      5  C   UNL     1      11.329  38.255  14.704  1.00  0.00     0.006 C 
BRANCH   5   6
ATOM      6  C   UNL     1      12.554  37.878  15.547  1.00  0.00     0.053 C 
BRANCH   6   7
ATOM      7  C   UNL     1      13.761  38.680  15.170  1.00  0.00     0.041 C 
ATOM      8  O   UNL     1      13.704  39.500  14.216  1.00  0.00    -0.550 OA
ATOM      9  O   UNL     1      14.958  38.503  15.853  1.00  0.00    -0.550 OA
ENDBRANCH   6   7
ENDBRANCH   5   6
ENDBRANCH   4   5
ENDBRANCH   3   4
ENDBRANCH   2   3
ENDBRANCH   1   2
BRANCH   1  10
ATOM     10  C   UNL     1       6.959  40.571  14.761  1.00  0.00     0.000 C 
BRANCH  10  11
ATOM     11  C   UNL     1       6.793  39.812  16.087  1.00  0.00    -0.000 C 
BRANCH  11  12
ATOM     12  C   UNL     1       6.558  38.307  15.887  1.00  0.00    -0.000 C 
BRANCH  12  13
ATOM     13  C   UNL     1       5.208  38.048  15.207  1.00  0.00    -0.000 C 
BRANCH  13  14
ATOM     14  C   UNL     1       4.187  39.129  15.579  1.00  0.00    -0.000 C 
BRANCH  14  15
ATOM     15  C   UNL     1       2.786  38.529  15.740  1.00  0.00    -0.003 C 
ATOM     16  C   UNL     1       2.223  38.071  14.397  1.00  0.00     0.004 C 
ENDBRANCH  14  15
ENDBRANCH  13  14
ENDBRANCH  12  13
ENDBRANCH  11  12
ENDBRANCH  10  11
ENDBRANCH   1  10
TORSDOF 12
ENDMDL
MODEL 3
REMARK VINA RESULT:     4.621      1.376      2.024
REMARK INTER + INTRA:           9.248
REMARK INTER:                   5.883
REMARK INTRA:                   3.365
REMARK UNBOUND:                 1.386
REMARK SMILES CCCCCCCCCCCCCC(=O)[O-]
REMARK SMILES IDX 8 1 9 2 10 3 11 4 12 5 13 6 14 7 15 8 16 9 7 10 6 11 5 12
REMARK SMILES IDX 4 13 3 14 2 15 1 16
REMARK H PARENT
REMARK Flexibility Score: inf
ROOT
ATOM      1  C   UNL     1       6.629  40.188  13.789  1.00  0.00     0.000 C 
ENDROOT
BRANCH   1   2
ATOM      2  C   UNL     1       5.834  41.193  14.641  1.00  0.00     0.000 C 
BRANCH   2   3
ATOM      3  C   UNL     1       6.493  41.462  16.004  1.00  0.00     0.000 C 
BRANCH   3   4
ATOM      4  C   UNL     1       8.023  41.571  15.909  1.00  0.00     0.000 C 
BRANCH   4   5
ATOM      5  C   UNL     1       8.730  40.217  16.099  1.00  0.00     0.006 C 
BRANCH   5   6
ATOM      6  C   UNL     1      10.207  40.273  15.690  1.00  0.00     0.053 C 
BRANCH   6   7
ATOM      7  C   UNL     1      10.758  38.911  15.399  1.00  0.00     0.041 C 
ATOM      8  O   UNL     1      11.782  38.499  16.003  1.00  0.00    -0.550 OA
ATOM      9  O   UNL     1      10.156  38.108  14.438  1.00  0.00    -0.550 OA
ENDBRANCH   6   7
ENDBRANCH   5   6
ENDBRANCH   4   5
ENDBRANCH   3   4
ENDBRANCH   2   3
ENDBRANCH   1   2
BRANCH   1  10
ATOM     10  C   UNL     1       7.382  39.154  14.646  1.00  0.00     0.000 C 
BRANCH  10  11
ATOM     11  C   UNL     1       6.434  38.170  15.350  1.00  0.00    -0.000 C 
BRANCH  11  12
ATOM     12  C   UNL     1       5.110  37.975  14.595  1.00  0.00    -0.000 C 
BRANCH  12  13
ATOM     13  C   UNL     1       3.931  37.879  15.570  1.00  0.00    -0.000 C 
BRANCH  13  14
ATOM     14  C   UNL     1       3.331  39.261  15.848  1.00  0.00    -0.000 C 
BRANCH  14  15
ATOM     15  C   UNL     1       1.926  39.381  15.249  1.00  0.00    -0.003 C 
ATOM     16  C   UNL     1       1.262  38.012  15.118  1.00  0.00     0.004 C 
ENDBRANCH  14  15
ENDBRANCH  13  14
ENDBRANCH  12  13
ENDBRANCH  11  12
ENDBRANCH  10  11
ENDBRANCH   1  10
TORSDOF 12
ENDMDL
