MODEL 1
REMARK VINA RESULT:    -4.155      0.000      0.000
REMARK INTER + INTRA:         -12.757
REMARK INTER:                  -9.500
REMARK INTRA:                  -3.257
REMARK UNBOUND:                -3.257
REMARK SMILES CCCCCCCCCCCCCCCCCCCCCCCC(=O)[O-]
REMARK SMILES IDX 13 1 14 2 15 3 16 4 17 5 18 6 19 7 20 8 21 9 22 10 23 11
REMARK SMILES IDX 24 12 25 13 26 14 12 15 11 16 10 17 9 18 8 19 7 20 6 21 5 22
REMARK SMILES IDX 4 23 3 24 2 25 1 26
REMARK H PARENT
REMARK Flexibility Score: inf
ROOT
ATOM      1  C   UNL     1      12.768  62.629   7.238  1.00  0.00     0.000 C 
ENDROOT
BRANCH   1   2
ATOM      2  C   UNL     1      11.497  62.183   7.993  1.00  0.00     0.000 C 
BRANCH   2   3
ATOM      3  C   UNL     1      10.916  63.264   8.922  1.00  0.00     0.000 C 
BRANCH   3   4
ATOM      4  C   UNL     1       9.430  63.545   8.649  1.00  0.00     0.000 C 
BRANCH   4   5
ATOM      5  C   UNL     1       9.111  65.049   8.529  1.00  0.00     0.000 C 
BRANCH   5   6
ATOM      6  C   UNL     1       7.632  65.430   8.732  1.00  0.00     0.000 C 
BRANCH   6   7
ATOM      7  C   UNL     1       6.641  64.251   8.745  1.00  0.00     0.000 C 
BRANCH   7   8
ATOM      8  C   UNL     1       5.218  64.622   8.273  1.00  0.00     0.000 C 
BRANCH   8   9
ATOM      9  C   UNL     1       4.912  66.123   8.418  1.00  0.00     0.000 C 
BRANCH   9  10
ATOM     10  C   UNL     1       4.206  66.717   7.186  1.00  0.00     0.006 C 
BRANCH  10  11
ATOM     11  C   UNL     1       5.091  66.783   5.927  1.00  0.00     0.053 C 
BRANCH  11  12
ATOM     12  C   UNL     1       4.387  66.286   4.700  1.00  0.00     0.041 C 
ATOM     13  O   UNL     1       3.131  66.180   4.682  1.00  0.00    -0.550 OA
ATOM     14  O   UNL     1       5.126  65.883   3.593  1.00  0.00    -0.550 OA
ENDBRANCH  11  12
ENDBRANCH  10  11
ENDBRANCH   9  10
ENDBRANCH   8   9
ENDBRANCH   7   8
ENDBRANCH   6   7
ENDBRANCH   5   6
ENDBRANCH   4   5
ENDBRANCH   3   4
ENDBRANCH   2   3
ENDBRANCH   1   2
BRANCH   1  15
ATOM     15  C   UNL     1      13.453  63.833   7.909  1.00  0.00     0.000 C 
BRANCH  15  16
ATOM     16  C   UNL     1      13.765  64.962   6.911  1.00  0.00     0.000 C 
BRANCH  16  17
ATOM     17  C   UNL     1      12.642  66.011   6.850  1.00  0.00     0.000 C 
BRANCH  17  18
ATOM     18  C   UNL     1      11.587  65.681   5.781  1.00  0.00    -0.000 C 
BRANCH  18  19
ATOM     19  C   UNL     1      12.202  65.012   4.538  1.00  0.00    -0.000 C 
BRANCH  19  20
ATOM     20  C   UNL     1      11.899  65.786   3.245  1.00  0.00    -0.000 C 
BRANCH  20  21
ATOM     21  C   UNL     1      10.403  65.764   2.883  1.00  0.00    -0.000 C 
BRANCH  21  22
ATOM     22  C   UNL     1       9.792  67.173   2.813  1.00  0.00    -0.000 C 
BRANCH  22  23
ATOM     23  C   UNL     1       8.384  67.246   3.425  1.00  0.00    -0.000 C 
BRANCH  23  24
ATOM     24  C   UNL     1       8.335  68.281   4.561  1.00  0.00    -0.000 C 
BRANCH  24  25
ATOM     25  C   UNL     1       8.643  67.666   5.936  1.00  0.00    -0.003 C 
ATOM     26  C   UNL     1       9.188  68.689   6.934  1.00  0.00     0.004 C 
ENDBRANCH  24  25
ENDBRANCH  23  24
ENDBRANCH  22  23
ENDBRANCH  21  22
ENDBRANCH  20  21
ENDBRANCH  19  20
ENDBRANCH  18  19
ENDBRANCH  17  18
ENDBRANCH  16  17
ENDBRANCH  15  16
ENDBRANCH   1  15
TORSDOF 22
ENDMDL
MODEL 2
REMARK VINA RESULT:    -3.933      1.883      4.124
REMARK INTER + INTRA:         -12.248
REMARK INTER:                  -8.190
REMARK INTRA:                  -4.058
REMARK UNBOUND:                -3.257
REMARK SMILES CCCCCCCCCCCCCCCCCCCCCCCC(=O)[O-]
REMARK SMILES IDX 13 1 14 2 15 3 16 4 17 5 18 6 19 7 20 8 21 9 22 10 23 11
REMARK SMILES IDX 24 12 25 13 26 14 12 15 11 16 10 17 9 18 8 19 7 20 6 21 5 22
REMARK SMILES IDX 4 23 3 24 2 25 1 26
REMARK H PARENT
REMARK Flexibility Score: inf
ROOT
ATOM      1  C   UNL     1       9.588  65.219   8.721  1.00  0.00     0.000 C 
ENDROOT
BRANCH   1   2
ATOM      2  C   UNL     1      10.750  65.733   9.598  1.00  0.00     0.000 C 
BRANCH   2   3
ATOM      3  C   UNL     1      11.044  67.233   9.423  1.00  0.00     0.000 C 
BRANCH   3   4
ATOM      4  C   UNL     1       9.799  68.038   9.017  1.00  0.00     0.000 C 
BRANCH   4   5
ATOM      5  C   UNL     1      10.096  69.120   7.960  1.00  0.00     0.000 C 
BRANCH   5   6
ATOM      6  C   UNL     1       9.599  68.809   6.535  1.00  0.00     0.000 C 
BRANCH   6   7
ATOM      7  C   UNL     1       8.506  67.728   6.439  1.00  0.00     0.000 C 
BRANCH   7   8
ATOM      8  C   UNL     1       7.204  68.209   5.763  1.00  0.00     0.000 C 
BRANCH   8   9
ATOM      9  C   UNL     1       5.959  67.999   6.645  1.00  0.00     0.000 C 
BRANCH   9  10
ATOM     10  C   UNL     1       6.140  66.881   7.688  1.00  0.00     0.006 C 
BRANCH  10  11
ATOM     11  C   UNL     1       5.182  65.689   7.502  1.00  0.00     0.053 C 
BRANCH  11  12
ATOM     12  C   UNL     1       5.243  64.717   8.641  1.00  0.00     0.041 C 
ATOM     13  O   UNL     1       4.775  65.025   9.771  1.00  0.00    -0.550 OA
ATOM     14  O   UNL     1       5.873  63.489   8.471  1.00  0.00    -0.550 OA
ENDBRANCH  11  12
ENDBRANCH  10  11
ENDBRANCH   9  10
ENDBRANCH   8   9
ENDBRANCH   7   8
ENDBRANCH   6   7
ENDBRANCH   5   6
ENDBRANCH   4   5
ENDBRANCH   3   4
ENDBRANCH   2   3
ENDBRANCH   1   2
BRANCH   1  15
ATOM     15  C   UNL     1       9.650  63.697   8.504  1.00  0.00     0.000 C 
BRANCH  15  16
ATOM     16  C   UNL     1      11.023  63.107   8.872  1.00  0.00     0.000 C 
BRANCH  16  17
ATOM     17  C   UNL     1      11.535  62.119   7.810  1.00  0.00     0.000 C 
BRANCH  17  18
ATOM     18  C   UNL     1      12.837  62.593   7.146  1.00  0.00    -0.000 C 
BRANCH  18  19
ATOM     19  C   UNL     1      13.397  63.870   7.799  1.00  0.00    -0.000 C 
BRANCH  19  20
ATOM     20  C   UNL     1      13.933  64.872   6.765  1.00  0.00    -0.000 C 
BRANCH  20  21
ATOM     21  C   UNL     1      13.035  66.115   6.630  1.00  0.00    -0.000 C 
BRANCH  21  22
ATOM     22  C   UNL     1      11.805  65.860   5.743  1.00  0.00    -0.000 C 
BRANCH  22  23
ATOM     23  C   UNL     1      12.141  65.073   4.467  1.00  0.00    -0.000 C 
BRANCH  23  24
ATOM     24  C   UNL     1      11.296  65.567   3.282  1.00  0.00    -0.000 C 
BRANCH  24  25
ATOM     25  C   UNL     1      10.560  66.882   3.587  1.00  0.00    -0.003 C 
ATOM     26  C   UNL     1       9.421  67.165   2.607  1.00  0.00     0.004 C 
ENDBRANCH  24  25
ENDBRANCH  23  24
ENDBRANCH  22  23
ENDBRANCH  21  22
ENDBRANCH  20  21
ENDBRANCH  19  20
ENDBRANCH  18  19
ENDBRANCH  17  18
ENDBRANCH  16  17
ENDBRANCH  15  16
ENDBRANCH   1  15
TORSDOF 22
ENDMDL
MODEL 3
REMARK VINA RESULT:    -3.867      2.413      4.668
REMARK INTER + INTRA:         -12.098
REMARK INTER:                  -8.292
REMARK INTRA:                  -3.806
REMARK UNBOUND:                -3.257
REMARK SMILES CCCCCCCCCCCCCCCCCCCCCCCC(=O)[O-]
REMARK SMILES IDX 13 1 14 2 15 3 16 4 17 5 18 6 19 7 20 8 21 9 22 10 23 11
REMARK SMILES IDX 24 12 25 13 26 14 12 15 11 16 10 17 9 18 8 19 7 20 6 21 5 22
REMARK SMILES IDX 4 23 3 24 2 25 1 26
REMARK H PARENT
REMARK Flexibility Score: inf
ROOT
ATOM      1  C   UNL     1       9.009  64.950   8.636  1.00  0.00     0.000 C 
ENDROOT
BRANCH   1   2
ATOM      2  C   UNL     1       7.523  65.138   9.011  1.00  0.00     0.000 C 
BRANCH   2   3
ATOM      3  C   UNL     1       6.639  63.926   8.668  1.00  0.00     0.000 C 
BRANCH   3   4
ATOM      4  C   UNL     1       5.180  64.318   8.382  1.00  0.00     0.000 C 
BRANCH   4   5
ATOM      5  C   UNL     1       4.769  65.647   9.046  1.00  0.00     0.000 C 
BRANCH   5   6
ATOM      6  C   UNL     1       4.350  66.770   8.078  1.00  0.00     0.000 C 
BRANCH   6   7
ATOM      7  C   UNL     1       4.906  66.649   6.647  1.00  0.00     0.000 C 
BRANCH   7   8
ATOM      8  C   UNL     1       5.779  67.845   6.210  1.00  0.00     0.000 C 
BRANCH   8   9
ATOM      9  C   UNL     1       7.282  67.513   6.189  1.00  0.00     0.000 C 
BRANCH   9  10
ATOM     10  C   UNL     1       8.095  68.328   7.211  1.00  0.00     0.006 C 
BRANCH  10  11
ATOM     11  C   UNL     1       7.233  69.068   8.251  1.00  0.00     0.053 C 
BRANCH  11  12
ATOM     12  C   UNL     1       7.634  68.754   9.661  1.00  0.00     0.041 C 
ATOM     13  O   UNL     1       6.829  68.946  10.613  1.00  0.00    -0.550 OA
ATOM     14  O   UNL     1       8.921  68.304   9.931  1.00  0.00    -0.550 OA
ENDBRANCH  11  12
ENDBRANCH  10  11
ENDBRANCH   9  10
ENDBRANCH   8   9
ENDBRANCH   7   8
ENDBRANCH   6   7
ENDBRANCH   5   6
ENDBRANCH   4   5
ENDBRANCH   3   4
ENDBRANCH   2   3
ENDBRANCH   1   2
BRANCH   1  15
ATOM     15  C   UNL     1       9.420  63.468   8.603  1.00  0.00     0.000 C 
BRANCH  15  16
ATOM     16  C   UNL     1      10.932  63.273   8.808  1.00  0.00     0.000 C 
BRANCH  16  17
ATOM     17  C   UNL     1      11.503  62.163   7.909  1.00  0.00     0.000 C 
BRANCH  17  18
ATOM     18  C   UNL     1      12.692  62.645   7.063  1.00  0.00    -0.000 C 
BRANCH  18  19
ATOM     19  C   UNL     1      13.421  63.841   7.704  1.00  0.00    -0.000 C 
BRANCH  19  20
ATOM     20  C   UNL     1      13.962  64.827   6.657  1.00  0.00    -0.000 C 
BRANCH  20  21
ATOM     21  C   UNL     1      13.456  66.263   6.886  1.00  0.00    -0.000 C 
BRANCH  21  22
ATOM     22  C   UNL     1      11.934  66.326   7.092  1.00  0.00    -0.000 C 
BRANCH  22  23
ATOM     23  C   UNL     1      11.144  65.909   5.841  1.00  0.00    -0.000 C 
BRANCH  23  24
ATOM     24  C   UNL     1      11.249  66.982   4.746  1.00  0.00    -0.000 C 
BRANCH  24  25
ATOM     25  C   UNL     1      11.900  66.450   3.457  1.00  0.00    -0.003 C 
ATOM     26  C   UNL     1      12.029  64.927   3.444  1.00  0.00     0.004 C 
ENDBRANCH  24  25
ENDBRANCH  23  24
ENDBRANCH  22  23
ENDBRANCH  21  22
ENDBRANCH  20  21
ENDBRANCH  19  20
ENDBRANCH  18  19
ENDBRANCH  17  18
ENDBRANCH  16  17
ENDBRANCH  15  16
ENDBRANCH   1  15
TORSDOF 22
ENDMDL
MODEL 4
REMARK VINA RESULT:    -3.849      2.105      5.749
REMARK INTER + INTRA:         -12.057
REMARK INTER:                  -8.004
REMARK INTRA:                  -4.052
REMARK UNBOUND:                -3.257
REMARK SMILES CCCCCCCCCCCCCCCCCCCCCCCC(=O)[O-]
REMARK SMILES IDX 13 1 14 2 15 3 16 4 17 5 18 6 19 7 20 8 21 9 22 10 23 11
REMARK SMILES IDX 24 12 25 13 26 14 12 15 11 16 10 17 9 18 8 19 7 20 6 21 5 22
REMARK SMILES IDX 4 23 3 24 2 25 1 26
REMARK H PARENT
REMARK Flexibility Score: inf
ROOT
ATOM      1  C   UNL     1       9.101  64.884   8.649  1.00  0.00     0.000 C 
ENDROOT
BRANCH   1   2
ATOM      2  C   UNL     1       9.397  63.368   8.667  1.00  0.00     0.000 C 
BRANCH   2   3
ATOM      3  C   UNL     1      10.873  63.027   8.934  1.00  0.00     0.000 C 
BRANCH   3   4
ATOM      4  C   UNL     1      11.443  62.021   7.921  1.00  0.00     0.000 C 
BRANCH   4   5
ATOM      5  C   UNL     1      12.638  62.577   7.122  1.00  0.00     0.000 C 
BRANCH   5   6
ATOM      6  C   UNL     1      13.364  63.775   7.764  1.00  0.00     0.000 C 
BRANCH   6   7
ATOM      7  C   UNL     1      13.673  64.947   6.812  1.00  0.00     0.000 C 
BRANCH   7   8
ATOM      8  C   UNL     1      12.647  65.115   5.670  1.00  0.00     0.000 C 
BRANCH   8   9
ATOM      9  C   UNL     1      11.906  66.463   5.725  1.00  0.00     0.000 C 
BRANCH   9  10
ATOM     10  C   UNL     1      10.388  66.327   5.511  1.00  0.00     0.006 C 
BRANCH  10  11
ATOM     11  C   UNL     1       9.843  67.164   4.338  1.00  0.00     0.053 C 
BRANCH  11  12
ATOM     12  C   UNL     1      10.127  66.541   3.004  1.00  0.00     0.041 C 
ATOM     13  O   UNL     1      10.146  65.287   2.875  1.00  0.00    -0.550 OA
ATOM     14  O   UNL     1      10.429  67.349   1.914  1.00  0.00    -0.550 OA
ENDBRANCH  11  12
ENDBRANCH  10  11
ENDBRANCH   9  10
ENDBRANCH   8   9
ENDBRANCH   7   8
ENDBRANCH   6   7
ENDBRANCH   5   6
ENDBRANCH   4   5
ENDBRANCH   3   4
ENDBRANCH   2   3
ENDBRANCH   1   2
BRANCH   1  15
ATOM     15  C   UNL     1      10.317  65.721   9.085  1.00  0.00     0.000 C 
BRANCH  15  16
ATOM     16  C   UNL     1       9.923  67.139   9.533  1.00  0.00     0.000 C 
BRANCH  16  17
ATOM     17  C   UNL     1       8.584  67.590   8.926  1.00  0.00     0.000 C 
BRANCH  17  18
ATOM     18  C   UNL     1       8.761  68.659   7.837  1.00  0.00    -0.000 C 
BRANCH  18  19
ATOM     19  C   UNL     1       7.514  68.801   6.946  1.00  0.00    -0.000 C 
BRANCH  19  20
ATOM     20  C   UNL     1       6.816  67.456   6.694  1.00  0.00    -0.000 C 
BRANCH  20  21
ATOM     21  C   UNL     1       5.301  67.520   6.963  1.00  0.00    -0.000 C 
BRANCH  21  22
ATOM     22  C   UNL     1       4.670  66.126   7.115  1.00  0.00    -0.000 C 
BRANCH  22  23
ATOM     23  C   UNL     1       5.504  65.186   8.001  1.00  0.00    -0.000 C 
BRANCH  23  24
ATOM     24  C   UNL     1       4.901  65.085   9.411  1.00  0.00    -0.000 C 
BRANCH  24  25
ATOM     25  C   UNL     1       5.513  66.100  10.391  1.00  0.00    -0.003 C 
ATOM     26  C   UNL     1       4.594  67.292  10.660  1.00  0.00     0.004 C 
ENDBRANCH  24  25
ENDBRANCH  23  24
ENDBRANCH  22  23
ENDBRANCH  21  22
ENDBRANCH  20  21
ENDBRANCH  19  20
ENDBRANCH  18  19
ENDBRANCH  17  18
ENDBRANCH  16  17
ENDBRANCH  15  16
ENDBRANCH   1  15
TORSDOF 22
ENDMDL
MODEL 5
REMARK VINA RESULT:    -3.845      2.952      6.368
REMARK INTER + INTRA:         -12.048
REMARK INTER:                  -9.249
REMARK INTRA:                  -2.798
REMARK UNBOUND:                -3.257
REMARK SMILES CCCCCCCCCCCCCCCCCCCCCCCC(=O)[O-]
REMARK SMILES IDX 13 1 14 2 15 3 16 4 17 5 18 6 19 7 20 8 21 9 22 10 23 11
REMARK SMILES IDX 24 12 25 13 26 14 12 15 11 16 10 17 9 18 8 19 7 20 6 21 5 22
REMARK SMILES IDX 4 23 3 24 2 25 1 26
REMARK H PARENT
REMARK Flexibility Score: inf
ROOT
ATOM      1  C   UNL     1       9.436  63.513   8.478  1.00  0.00     0.000 C 
ENDROOT
BRANCH   1   2
ATOM      2  C   UNL     1      10.911  63.221   8.831  1.00  0.00     0.000 C 
BRANCH   2   3
ATOM      3  C   UNL     1      11.539  62.097   7.989  1.00  0.00     0.000 C 
BRANCH   3   4
ATOM      4  C   UNL     1      12.661  62.601   7.068  1.00  0.00     0.000 C 
BRANCH   4   5
ATOM      5  C   UNL     1      13.370  63.858   7.609  1.00  0.00     0.000 C 
BRANCH   5   6
ATOM      6  C   UNL     1      13.434  65.052   6.638  1.00  0.00     0.000 C 
BRANCH   6   7
ATOM      7  C   UNL     1      12.410  65.023   5.487  1.00  0.00     0.000 C 
BRANCH   7   8
ATOM      8  C   UNL     1      11.211  65.975   5.690  1.00  0.00     0.000 C 
BRANCH   8   9
ATOM      9  C   UNL     1      10.399  66.197   4.401  1.00  0.00     0.000 C 
BRANCH   9  10
ATOM     10  C   UNL     1      10.879  67.411   3.585  1.00  0.00     0.006 C 
BRANCH  10  11
ATOM     11  C   UNL     1      11.356  67.061   2.163  1.00  0.00     0.053 C 
BRANCH  11  12
ATOM     12  C   UNL     1      12.849  67.099   2.030  1.00  0.00     0.041 C 
ATOM     13  O   UNL     1      13.523  67.972   2.640  1.00  0.00    -0.550 OA
ATOM     14  O   UNL     1      13.491  66.205   1.181  1.00  0.00    -0.550 OA
ENDBRANCH  11  12
ENDBRANCH  10  11
ENDBRANCH   9  10
ENDBRANCH   8   9
ENDBRANCH   7   8
ENDBRANCH   6   7
ENDBRANCH   5   6
ENDBRANCH   4   5
ENDBRANCH   3   4
ENDBRANCH   2   3
ENDBRANCH   1   2
BRANCH   1  15
ATOM     15  C   UNL     1       9.067  64.992   8.690  1.00  0.00     0.000 C 
BRANCH  15  16
ATOM     16  C   UNL     1       7.559  65.194   8.920  1.00  0.00     0.000 C 
BRANCH  16  17
ATOM     17  C   UNL     1       6.735  63.974   8.476  1.00  0.00     0.000 C 
BRANCH  17  18
ATOM     18  C   UNL     1       5.229  64.160   8.722  1.00  0.00    -0.000 C 
BRANCH  18  19
ATOM     19  C   UNL     1       4.796  65.634   8.615  1.00  0.00    -0.000 C 
BRANCH  19  20
ATOM     20  C   UNL     1       4.563  66.073   7.160  1.00  0.00    -0.000 C 
BRANCH  20  21
ATOM     21  C   UNL     1       4.319  67.588   7.036  1.00  0.00    -0.000 C 
BRANCH  21  22
ATOM     22  C   UNL     1       5.563  68.346   6.544  1.00  0.00    -0.000 C 
BRANCH  22  23
ATOM     23  C   UNL     1       6.629  67.418   5.939  1.00  0.00    -0.000 C 
BRANCH  23  24
ATOM     24  C   UNL     1       6.992  67.860   4.512  1.00  0.00    -0.000 C 
BRANCH  24  25
ATOM     25  C   UNL     1       5.849  67.624   3.510  1.00  0.00    -0.003 C 
ATOM     26  C   UNL     1       5.317  66.191   3.545  1.00  0.00     0.004 C 
ENDBRANCH  24  25
ENDBRANCH  23  24
ENDBRANCH  22  23
ENDBRANCH  21  22
ENDBRANCH  20  21
ENDBRANCH  19  20
ENDBRANCH  18  19
ENDBRANCH  17  18
ENDBRANCH  16  17
ENDBRANCH  15  16
ENDBRANCH   1  15
TORSDOF 22
ENDMDL
MODEL 6
REMARK VINA RESULT:    -3.843      1.251      3.845
REMARK INTER + INTRA:         -12.043
REMARK INTER:                  -8.583
REMARK INTRA:                  -3.460
REMARK UNBOUND:                -3.257
REMARK SMILES CCCCCCCCCCCCCCCCCCCCCCCC(=O)[O-]
REMARK SMILES IDX 13 1 14 2 15 3 16 4 17 5 18 6 19 7 20 8 21 9 22 10 23 11
REMARK SMILES IDX 24 12 25 13 26 14 12 15 11 16 10 17 9 18 8 19 7 20 6 21 5 22
REMARK SMILES IDX 4 23 3 24 2 25 1 26
REMARK H PARENT
REMARK Flexibility Score: inf
ROOT
ATOM      1  C   UNL     1       8.602  63.452   8.722  1.00  0.00     0.000 C 
ENDROOT
BRANCH   1   2
ATOM      2  C   UNL     1       7.364  64.375   8.746  1.00  0.00     0.000 C 
BRANCH   2   3
ATOM      3  C   UNL     1       6.050  63.660   8.388  1.00  0.00     0.000 C 
BRANCH   3   4
ATOM      4  C   UNL     1       4.807  64.433   8.857  1.00  0.00     0.000 C 
BRANCH   4   5
ATOM      5  C   UNL     1       5.151  65.703   9.661  1.00  0.00     0.000 C 
BRANCH   5   6
ATOM      6  C   UNL     1       4.371  66.971   9.263  1.00  0.00     0.000 C 
BRANCH   6   7
ATOM      7  C   UNL     1       5.232  68.223   9.010  1.00  0.00     0.000 C 
BRANCH   7   8
ATOM      8  C   UNL     1       6.753  67.954   9.032  1.00  0.00     0.000 C 
BRANCH   8   9
ATOM      9  C   UNL     1       7.454  68.372   7.727  1.00  0.00     0.000 C 
BRANCH   9  10
ATOM     10  C   UNL     1       7.257  67.360   6.584  1.00  0.00     0.006 C 
BRANCH  10  11
ATOM     11  C   UNL     1       6.356  67.869   5.443  1.00  0.00     0.053 C 
BRANCH  11  12
ATOM     12  C   UNL     1       5.402  66.822   4.950  1.00  0.00     0.041 C 
ATOM     13  O   UNL     1       5.404  66.475   3.739  1.00  0.00    -0.550 OA
ATOM     14  O   UNL     1       4.468  66.272   5.821  1.00  0.00    -0.550 OA
ENDBRANCH  11  12
ENDBRANCH  10  11
ENDBRANCH   9  10
ENDBRANCH   8   9
ENDBRANCH   7   8
ENDBRANCH   6   7
ENDBRANCH   5   6
ENDBRANCH   4   5
ENDBRANCH   3   4
ENDBRANCH   2   3
ENDBRANCH   1   2
BRANCH   1  15
ATOM     15  C   UNL     1       9.908  64.233   8.492  1.00  0.00     0.000 C 
BRANCH  15  16
ATOM     16  C   UNL     1      11.149  63.451   8.958  1.00  0.00     0.000 C 
BRANCH  16  17
ATOM     17  C   UNL     1      11.566  62.367   7.950  1.00  0.00     0.000 C 
BRANCH  17  18
ATOM     18  C   UNL     1      12.645  62.858   6.972  1.00  0.00    -0.000 C 
BRANCH  18  19
ATOM     19  C   UNL     1      13.462  64.033   7.541  1.00  0.00    -0.000 C 
BRANCH  19  20
ATOM     20  C   UNL     1      13.405  65.278   6.642  1.00  0.00    -0.000 C 
BRANCH  20  21
ATOM     21  C   UNL     1      12.711  66.468   7.330  1.00  0.00    -0.000 C 
BRANCH  21  22
ATOM     22  C   UNL     1      11.519  67.003   6.519  1.00  0.00    -0.000 C 
BRANCH  22  23
ATOM     23  C   UNL     1      10.944  65.964   5.544  1.00  0.00    -0.000 C 
BRANCH  23  24
ATOM     24  C   UNL     1      10.490  66.634   4.237  1.00  0.00    -0.000 C 
BRANCH  24  25
ATOM     25  C   UNL     1      11.264  66.122   3.010  1.00  0.00    -0.003 C 
ATOM     26  C   UNL     1      12.066  64.854   3.302  1.00  0.00     0.004 C 
ENDBRANCH  24  25
ENDBRANCH  23  24
ENDBRANCH  22  23
ENDBRANCH  21  22
ENDBRANCH  20  21
ENDBRANCH  19  20
ENDBRANCH  18  19
ENDBRANCH  17  18
ENDBRANCH  16  17
ENDBRANCH  15  16
ENDBRANCH   1  15
TORSDOF 22
ENDMDL
MODEL 7
REMARK VINA RESULT:    -3.838      1.962      4.090
REMARK INTER + INTRA:         -12.032
REMARK INTER:                  -8.372
REMARK INTRA:                  -3.660
REMARK UNBOUND:                -3.257
REMARK SMILES CCCCCCCCCCCCCCCCCCCCCCCC(=O)[O-]
REMARK SMILES IDX 13 1 14 2 15 3 16 4 17 5 18 6 19 7 20 8 21 9 22 10 23 11
REMARK SMILES IDX 24 12 25 13 26 14 12 15 11 16 10 17 9 18 8 19 7 20 6 21 5 22
REMARK SMILES IDX 4 23 3 24 2 25 1 26
REMARK H PARENT
REMARK Flexibility Score: inf
ROOT
ATOM      1  C   UNL     1       9.346  63.464   8.601  1.00  0.00     0.000 C 
ENDROOT
BRANCH   1   2
ATOM      2  C   UNL     1       8.949  64.954   8.677  1.00  0.00     0.000 C 
BRANCH   2   3
ATOM      3  C   UNL     1       7.464  65.186   9.003  1.00  0.00     0.000 C 
BRANCH   3   4
ATOM      4  C   UNL     1       6.574  64.002   8.591  1.00  0.00     0.000 C 
BRANCH   4   5
ATOM      5  C   UNL     1       5.072  64.346   8.587  1.00  0.00     0.000 C 
BRANCH   5   6
ATOM      6  C   UNL     1       4.719  65.778   9.035  1.00  0.00     0.000 C 
BRANCH   6   7
ATOM      7  C   UNL     1       4.295  66.737   7.906  1.00  0.00     0.000 C 
BRANCH   7   8
ATOM      8  C   UNL     1       4.550  66.187   6.486  1.00  0.00     0.000 C 
BRANCH   8   9
ATOM      9  C   UNL     1       5.369  67.151   5.609  1.00  0.00     0.000 C 
BRANCH   9  10
ATOM     10  C   UNL     1       6.363  68.005   6.416  1.00  0.00     0.006 C 
BRANCH  10  11
ATOM     11  C   UNL     1       7.839  67.622   6.199  1.00  0.00     0.053 C 
BRANCH  11  12
ATOM     12  C   UNL     1       8.399  68.182   4.926  1.00  0.00     0.041 C 
ATOM     13  O   UNL     1       9.015  67.439   4.116  1.00  0.00    -0.550 OA
ATOM     14  O   UNL     1       8.291  69.544   4.663  1.00  0.00    -0.550 OA
ENDBRANCH  11  12
ENDBRANCH  10  11
ENDBRANCH   9  10
ENDBRANCH   8   9
ENDBRANCH   7   8
ENDBRANCH   6   7
ENDBRANCH   5   6
ENDBRANCH   4   5
ENDBRANCH   3   4
ENDBRANCH   2   3
ENDBRANCH   1   2
BRANCH   1  15
ATOM     15  C   UNL     1      10.553  63.135   9.498  1.00  0.00     0.000 C 
BRANCH  15  16
ATOM     16  C   UNL     1      11.886  63.195   8.733  1.00  0.00     0.000 C 
BRANCH  16  17
ATOM     17  C   UNL     1      11.916  62.224   7.540  1.00  0.00     0.000 C 
BRANCH  17  18
ATOM     18  C   UNL     1      12.920  62.653   6.458  1.00  0.00    -0.000 C 
BRANCH  18  19
ATOM     19  C   UNL     1      13.374  64.116   6.626  1.00  0.00    -0.000 C 
BRANCH  19  20
ATOM     20  C   UNL     1      12.706  65.057   5.611  1.00  0.00    -0.000 C 
BRANCH  20  21
ATOM     21  C   UNL     1      11.388  65.651   6.140  1.00  0.00    -0.000 C 
BRANCH  21  22
ATOM     22  C   UNL     1      11.547  67.102   6.624  1.00  0.00    -0.000 C 
BRANCH  22  23
ATOM     23  C   UNL     1      12.515  67.233   7.811  1.00  0.00    -0.000 C 
BRANCH  23  24
ATOM     24  C   UNL     1      11.764  67.096   9.145  1.00  0.00    -0.000 C 
BRANCH  24  25
ATOM     25  C   UNL     1      12.683  66.666  10.300  1.00  0.00    -0.003 C 
ATOM     26  C   UNL     1      11.942  65.889  11.389  1.00  0.00     0.004 C 
ENDBRANCH  24  25
ENDBRANCH  23  24
ENDBRANCH  22  23
ENDBRANCH  21  22
ENDBRANCH  20  21
ENDBRANCH  19  20
ENDBRANCH  18  19
ENDBRANCH  17  18
ENDBRANCH  16  17
ENDBRANCH  15  16
ENDBRANCH   1  15
TORSDOF 22
ENDMDL
MODEL 8
REMARK VINA RESULT:    -3.836      1.935      5.648
REMARK INTER + INTRA:         -12.027
REMARK INTER:                  -8.574
REMARK INTRA:                  -3.453
REMARK UNBOUND:                -3.257
REMARK SMILES CCCCCCCCCCCCCCCCCCCCCCCC(=O)[O-]
REMARK SMILES IDX 13 1 14 2 15 3 16 4 17 5 18 6 19 7 20 8 21 9 22 10 23 11
REMARK SMILES IDX 24 12 25 13 26 14 12 15 11 16 10 17 9 18 8 19 7 20 6 21 5 22
REMARK SMILES IDX 4 23 3 24 2 25 1 26
REMARK H PARENT
REMARK Flexibility Score: inf
ROOT
ATOM      1  C   UNL     1      10.797  63.008   9.073  1.00  0.00     0.000 C 
ENDROOT
BRANCH   1   2
ATOM      2  C   UNL     1      11.595  62.348   7.928  1.00  0.00     0.000 C 
BRANCH   2   3
ATOM      3  C   UNL     1      12.865  63.121   7.532  1.00  0.00     0.000 C 
BRANCH   3   4
ATOM      4  C   UNL     1      13.443  63.947   8.691  1.00  0.00     0.000 C 
BRANCH   4   5
ATOM      5  C   UNL     1      13.961  65.331   8.251  1.00  0.00     0.000 C 
BRANCH   5   6
ATOM      6  C   UNL     1      13.988  65.574   6.729  1.00  0.00     0.000 C 
BRANCH   6   7
ATOM      7  C   UNL     1      13.433  66.935   6.268  1.00  0.00     0.000 C 
BRANCH   7   8
ATOM      8  C   UNL     1      12.644  66.874   4.942  1.00  0.00     0.000 C 
BRANCH   8   9
ATOM      9  C   UNL     1      12.054  65.480   4.660  1.00  0.00     0.000 C 
BRANCH   9  10
ATOM     10  C   UNL     1      11.530  65.326   3.221  1.00  0.00     0.006 C 
BRANCH  10  11
ATOM     11  C   UNL     1      10.089  65.833   3.021  1.00  0.00     0.053 C 
BRANCH  11  12
ATOM     12  C   UNL     1      10.036  67.150   2.306  1.00  0.00     0.041 C 
ATOM     13  O   UNL     1       9.040  67.911   2.440  1.00  0.00    -0.550 OA
ATOM     14  O   UNL     1      11.064  67.510   1.441  1.00  0.00    -0.550 OA
ENDBRANCH  11  12
ENDBRANCH  10  11
ENDBRANCH   9  10
ENDBRANCH   8   9
ENDBRANCH   7   8
ENDBRANCH   6   7
ENDBRANCH   5   6
ENDBRANCH   4   5
ENDBRANCH   3   4
ENDBRANCH   2   3
ENDBRANCH   1   2
BRANCH   1  15
ATOM     15  C   UNL     1       9.399  63.467   8.621  1.00  0.00     0.000 C 
BRANCH  15  16
ATOM     16  C   UNL     1       9.239  64.996   8.672  1.00  0.00     0.000 C 
BRANCH  16  17
ATOM     17  C   UNL     1      10.260  65.718   7.777  1.00  0.00     0.000 C 
BRANCH  17  18
ATOM     18  C   UNL     1       9.838  67.159   7.449  1.00  0.00    -0.000 C 
BRANCH  18  19
ATOM     19  C   UNL     1       9.029  67.250   6.141  1.00  0.00    -0.000 C 
BRANCH  19  20
ATOM     20  C   UNL     1       8.007  68.397   6.162  1.00  0.00    -0.000 C 
BRANCH  20  21
ATOM     21  C   UNL     1       6.576  67.903   6.442  1.00  0.00    -0.000 C 
BRANCH  21  22
ATOM     22  C   UNL     1       6.084  68.289   7.847  1.00  0.00    -0.000 C 
BRANCH  22  23
ATOM     23  C   UNL     1       5.011  67.331   8.389  1.00  0.00    -0.000 C 
BRANCH  23  24
ATOM     24  C   UNL     1       4.986  66.024   7.580  1.00  0.00    -0.000 C 
BRANCH  24  25
ATOM     25  C   UNL     1       5.700  64.868   8.300  1.00  0.00    -0.003 C 
ATOM     26  C   UNL     1       4.730  63.929   9.018  1.00  0.00     0.004 C 
ENDBRANCH  24  25
ENDBRANCH  23  24
ENDBRANCH  22  23
ENDBRANCH  21  22
ENDBRANCH  20  21
ENDBRANCH  19  20
ENDBRANCH  18  19
ENDBRANCH  17  18
ENDBRANCH  16  17
ENDBRANCH  15  16
ENDBRANCH   1  15
TORSDOF 22
ENDMDL
MODEL 9
REMARK VINA RESULT:    -3.789      2.494      5.919
REMARK INTER + INTRA:         -11.919
REMARK INTER:                  -8.408
REMARK INTRA:                  -3.511
REMARK UNBOUND:                -3.257
REMARK SMILES CCCCCCCCCCCCCCCCCCCCCCCC(=O)[O-]
REMARK SMILES IDX 13 1 14 2 15 3 16 4 17 5 18 6 19 7 20 8 21 9 22 10 23 11
REMARK SMILES IDX 24 12 25 13 26 14 12 15 11 16 10 17 9 18 8 19 7 20 6 21 5 22
REMARK SMILES IDX 4 23 3 24 2 25 1 26
REMARK H PARENT
REMARK Flexibility Score: inf
ROOT
ATOM      1  C   UNL     1       9.778  63.851   8.589  1.00  0.00     0.000 C 
ENDROOT
BRANCH   1   2
ATOM      2  C   UNL     1      11.049  63.066   8.980  1.00  0.00     0.000 C 
BRANCH   2   3
ATOM      3  C   UNL     1      11.524  62.077   7.900  1.00  0.00     0.000 C 
BRANCH   3   4
ATOM      4  C   UNL     1      12.699  62.622   7.073  1.00  0.00     0.000 C 
BRANCH   4   5
ATOM      5  C   UNL     1      13.493  63.724   7.802  1.00  0.00     0.000 C 
BRANCH   5   6
ATOM      6  C   UNL     1      13.965  64.894   6.919  1.00  0.00     0.000 C 
BRANCH   6   7
ATOM      7  C   UNL     1      12.966  65.352   5.839  1.00  0.00     0.000 C 
BRANCH   7   8
ATOM      8  C   UNL     1      12.648  66.863   5.879  1.00  0.00     0.000 C 
BRANCH   8   9
ATOM      9  C   UNL     1      11.345  67.219   5.140  1.00  0.00     0.000 C 
BRANCH   9  10
ATOM     10  C   UNL     1      10.683  66.006   4.463  1.00  0.00     0.006 C 
BRANCH  10  11
ATOM     11  C   UNL     1      10.292  66.246   2.992  1.00  0.00     0.053 C 
BRANCH  11  12
ATOM     12  C   UNL     1      11.449  66.702   2.155  1.00  0.00     0.041 C 
ATOM     13  O   UNL     1      11.318  67.667   1.354  1.00  0.00    -0.550 OA
ATOM     14  O   UNL     1      12.660  66.021   2.218  1.00  0.00    -0.550 OA
ENDBRANCH  11  12
ENDBRANCH  10  11
ENDBRANCH   9  10
ENDBRANCH   8   9
ENDBRANCH   7   8
ENDBRANCH   6   7
ENDBRANCH   5   6
ENDBRANCH   4   5
ENDBRANCH   3   4
ENDBRANCH   2   3
ENDBRANCH   1   2
BRANCH   1  15
ATOM     15  C   UNL     1      10.103  65.255   8.049  1.00  0.00     0.000 C 
BRANCH  15  16
ATOM     16  C   UNL     1       8.875  66.182   8.047  1.00  0.00     0.000 C 
BRANCH  16  17
ATOM     17  C   UNL     1       8.290  66.375   9.456  1.00  0.00     0.000 C 
BRANCH  17  18
ATOM     18  C   UNL     1       6.764  66.194   9.488  1.00  0.00    -0.000 C 
BRANCH  18  19
ATOM     19  C   UNL     1       6.321  64.846   8.889  1.00  0.00    -0.000 C 
BRANCH  19  20
ATOM     20  C   UNL     1       4.888  64.893   8.336  1.00  0.00    -0.000 C 
BRANCH  20  21
ATOM     21  C   UNL     1       4.476  66.307   7.888  1.00  0.00    -0.000 C 
BRANCH  21  22
ATOM     22  C   UNL     1       4.448  66.455   6.357  1.00  0.00    -0.000 C 
BRANCH  22  23
ATOM     23  C   UNL     1       5.682  67.185   5.805  1.00  0.00    -0.000 C 
BRANCH  23  24
ATOM     24  C   UNL     1       5.953  68.475   6.594  1.00  0.00    -0.000 C 
BRANCH  24  25
ATOM     25  C   UNL     1       7.388  68.996   6.404  1.00  0.00    -0.003 C 
ATOM     26  C   UNL     1       7.896  69.785   7.611  1.00  0.00     0.004 C 
ENDBRANCH  24  25
ENDBRANCH  23  24
ENDBRANCH  22  23
ENDBRANCH  21  22
ENDBRANCH  20  21
ENDBRANCH  19  20
ENDBRANCH  18  19
ENDBRANCH  17  18
ENDBRANCH  16  17
ENDBRANCH  15  16
ENDBRANCH   1  15
TORSDOF 22
ENDMDL
