MODEL 1
REMARK VINA RESULT:    -6.945      0.000      0.000
REMARK INTER + INTRA:          -8.681
REMARK INTER:                  -8.365
REMARK INTRA:                  -0.316
REMARK UNBOUND:                -0.316
REMARK SMILES O=c1c(O)c(-c2ccc(O)c(O)c2)oc2cc(O)cc(O)c12
REMARK SMILES IDX 5 1 3 2 2 3 1 4 22 5 20 6 19 7 17 8 16 9 15 10 14 11 6 12
REMARK SMILES IDX 7 13 8 14 9 15 13 16 11 17 10 18 12 20 4 22 21 24 18 26
REMARK H PARENT 10 19 12 21 4 23 21 25 18 27
REMARK Flexibility Score: inf
ROOT
ATOM      1  C   UNL     1      -1.962  -4.668  -4.396  1.00  0.00     0.180 A 
ATOM      2  C   UNL     1      -0.927  -4.589  -5.344  1.00  0.00     0.208 A 
ATOM      3  C   UNL     1       0.238  -5.347  -5.146  1.00  0.00     0.238 A 
ATOM      4  O   UNL     1       1.183  -5.230  -5.970  1.00  0.00    -0.285 OA
ATOM      5  C   UNL     1       0.348  -6.186  -4.012  1.00  0.00     0.111 A 
ATOM      6  C   UNL     1       1.466  -7.029  -3.732  1.00  0.00     0.134 A 
ATOM      7  C   UNL     1       1.523  -7.718  -2.514  1.00  0.00     0.093 A 
ATOM      8  C   UNL     1       0.476  -7.647  -1.596  1.00  0.00     0.123 A 
ATOM      9  C   UNL     1      -0.648  -6.874  -1.886  1.00  0.00     0.094 A 
ATOM     10  C   UNL     1      -0.719  -6.146  -3.077  1.00  0.00     0.146 A 
ATOM     11  O   UNL     1      -1.802  -5.414  -3.309  1.00  0.00    -0.452 OA
ENDROOT
BRANCH   1  12
ATOM     12  C   UNL     1      -3.230  -3.918  -4.549  1.00  0.00     0.025 A 
ATOM     13  C   UNL     1      -4.320  -4.528  -5.189  1.00  0.00     0.016 A 
ATOM     14  C   UNL     1      -5.518  -3.831  -5.362  1.00  0.00     0.051 A 
ATOM     15  C   UNL     1      -5.639  -2.509  -4.913  1.00  0.00     0.157 A 
ATOM     16  C   UNL     1      -3.348  -2.584  -4.117  1.00  0.00     0.062 A 
ATOM     17  C   UNL     1      -4.546  -1.882  -4.292  1.00  0.00     0.158 A 
BRANCH  15  18
ATOM     18  O   UNL     1      -6.837  -1.817  -5.086  1.00  0.00    -0.504 OA
ATOM     19  H   UNL     1      -7.513  -1.729  -4.336  1.00  0.00     0.293 HD
ENDBRANCH  15  18
BRANCH  17  20
ATOM     20  O   UNL     1      -4.630  -0.564  -3.845  1.00  0.00    -0.504 OA
ATOM     21  H   UNL     1      -5.450  -0.208  -3.369  1.00  0.00     0.293 HD
ENDBRANCH  17  20
ENDBRANCH   1  12
BRANCH   2  22
ATOM     22  O   UNL     1      -1.047  -3.736  -6.445  1.00  0.00    -0.502 OA
ATOM     23  H   UNL     1      -1.925  -3.301  -6.704  1.00  0.00     0.293 HD
ENDBRANCH   2  22
BRANCH   6  24
ATOM     24  O   UNL     1       2.523  -7.243  -4.620  1.00  0.00    -0.507 OA
ATOM     25  H   UNL     1       3.324  -6.636  -4.718  1.00  0.00     0.293 HD
ENDBRANCH   6  24
BRANCH   8  26
ATOM     26  O   UNL     1       0.560  -8.359  -0.401  1.00  0.00    -0.508 OA
ATOM     27  H   UNL     1       1.439  -8.743  -0.075  1.00  0.00     0.293 HD
ENDBRANCH   8  26
TORSDOF 6
ENDMDL
MODEL 2
REMARK VINA RESULT:    -6.885      1.559      7.133
REMARK INTER + INTRA:          -8.610
REMARK INTER:                  -8.288
REMARK INTRA:                  -0.322
REMARK UNBOUND:                -0.316
REMARK SMILES O=c1c(O)c(-c2ccc(O)c(O)c2)oc2cc(O)cc(O)c12
REMARK SMILES IDX 5 1 3 2 2 3 1 4 22 5 20 6 19 7 17 8 16 9 15 10 14 11 6 12
REMARK SMILES IDX 7 13 8 14 9 15 13 16 11 17 10 18 12 20 4 22 21 24 18 26
REMARK H PARENT 10 19 12 21 4 23 21 25 18 27
REMARK Flexibility Score: inf
ROOT
ATOM      1  C   UNL     1      -2.076  -4.806  -4.446  1.00  0.00     0.180 A 
ATOM      2  C   UNL     1      -3.290  -5.505  -4.562  1.00  0.00     0.208 A 
ATOM      3  C   UNL     1      -4.468  -4.785  -4.817  1.00  0.00     0.238 A 
ATOM      4  O   UNL     1      -5.560  -5.410  -4.867  1.00  0.00    -0.285 OA
ATOM      5  C   UNL     1      -4.416  -3.379  -4.969  1.00  0.00     0.111 A 
ATOM      6  C   UNL     1      -5.541  -2.554  -5.269  1.00  0.00     0.134 A 
ATOM      7  C   UNL     1      -5.396  -1.160  -5.267  1.00  0.00     0.093 A 
ATOM      8  C   UNL     1      -4.155  -0.566  -5.041  1.00  0.00     0.123 A 
ATOM      9  C   UNL     1      -3.036  -1.366  -4.805  1.00  0.00     0.094 A 
ATOM     10  C   UNL     1      -3.157  -2.757  -4.765  1.00  0.00     0.146 A 
ATOM     11  O   UNL     1      -2.070  -3.480  -4.527  1.00  0.00    -0.452 OA
ENDROOT
BRANCH   1  12
ATOM     12  C   UNL     1      -0.789  -5.498  -4.202  1.00  0.00     0.025 A 
ATOM     13  C   UNL     1      -0.020  -5.929  -5.293  1.00  0.00     0.016 A 
ATOM     14  C   UNL     1       1.187  -6.602  -5.086  1.00  0.00     0.051 A 
ATOM     15  C   UNL     1       1.634  -6.868  -3.784  1.00  0.00     0.157 A 
ATOM     16  C   UNL     1      -0.347  -5.784  -2.897  1.00  0.00     0.062 A 
ATOM     17  C   UNL     1       0.860  -6.460  -2.686  1.00  0.00     0.158 A 
BRANCH  15  18
ATOM     18  O   UNL     1       2.840  -7.538  -3.581  1.00  0.00    -0.504 OA
ATOM     19  H   UNL     1       3.640  -7.387  -4.184  1.00  0.00     0.293 HD
ENDBRANCH  15  18
BRANCH  17  20
ATOM     20  O   UNL     1       1.270  -6.721  -1.378  1.00  0.00    -0.504 OA
ATOM     21  H   UNL     1       2.133  -7.210  -1.173  1.00  0.00     0.293 HD
ENDBRANCH  17  20
ENDBRANCH   1  12
BRANCH   2  22
ATOM     22  O   UNL     1      -3.322  -6.892  -4.387  1.00  0.00    -0.502 OA
ATOM     23  H   UNL     1      -3.682  -7.326  -3.545  1.00  0.00     0.293 HD
ENDBRANCH   2  22
BRANCH   6  24
ATOM     24  O   UNL     1      -6.806  -3.049  -5.600  1.00  0.00    -0.507 OA
ATOM     25  H   UNL     1      -7.305  -3.749  -5.073  1.00  0.00     0.293 HD
ENDBRANCH   6  24
BRANCH   8  26
ATOM     26  O   UNL     1      -4.045   0.823  -5.062  1.00  0.00    -0.508 OA
ATOM     27  H   UNL     1      -3.591   1.329  -4.310  1.00  0.00     0.293 HD
ENDBRANCH   8  26
TORSDOF 6
ENDMDL
MODEL 3
REMARK VINA RESULT:    -6.863      5.684      9.282
REMARK INTER + INTRA:          -8.583
REMARK INTER:                  -8.564
REMARK INTRA:                  -0.018
REMARK UNBOUND:                -0.316
REMARK SMILES O=c1c(O)c(-c2ccc(O)c(O)c2)oc2cc(O)cc(O)c12
REMARK SMILES IDX 5 1 3 2 2 3 1 4 22 5 20 6 19 7 17 8 16 9 15 10 14 11 6 12
REMARK SMILES IDX 7 13 8 14 9 15 13 16 11 17 10 18 12 20 4 22 21 24 18 26
REMARK H PARENT 10 19 12 21 4 23 21 25 18 27
REMARK Flexibility Score: inf
ROOT
ATOM      1  C   UNL     1      -6.775   2.652  -5.142  1.00  0.00     0.180 A 
ATOM      2  C   UNL     1      -7.443   1.779  -4.265  1.00  0.00     0.208 A 
ATOM      3  C   UNL     1      -6.874   0.525  -3.989  1.00  0.00     0.238 A 
ATOM      4  O   UNL     1      -7.503  -0.273  -3.246  1.00  0.00    -0.285 OA
ATOM      5  C   UNL     1      -5.639   0.166  -4.578  1.00  0.00     0.111 A 
ATOM      6  C   UNL     1      -4.952  -1.061  -4.337  1.00  0.00     0.134 A 
ATOM      7  C   UNL     1      -3.801  -1.366  -5.076  1.00  0.00     0.093 A 
ATOM      8  C   UNL     1      -3.277  -0.460  -5.997  1.00  0.00     0.123 A 
ATOM      9  C   UNL     1      -3.907   0.768  -6.198  1.00  0.00     0.094 A 
ATOM     10  C   UNL     1      -5.077   1.085  -5.503  1.00  0.00     0.146 A 
ATOM     11  O   UNL     1      -5.651   2.260  -5.731  1.00  0.00    -0.452 OA
ENDROOT
BRANCH   1  12
ATOM     12  C   UNL     1      -7.300   3.999  -5.463  1.00  0.00     0.025 A 
ATOM     13  C   UNL     1      -7.353   4.418  -6.801  1.00  0.00     0.016 A 
ATOM     14  C   UNL     1      -7.824   5.693  -7.125  1.00  0.00     0.051 A 
ATOM     15  C   UNL     1      -8.234   6.573  -6.114  1.00  0.00     0.157 A 
ATOM     16  C   UNL     1      -7.693   4.893  -4.450  1.00  0.00     0.062 A 
ATOM     17  C   UNL     1      -8.162   6.172  -4.770  1.00  0.00     0.158 A 
BRANCH  15  18
ATOM     18  O   UNL     1      -8.705   7.845  -6.441  1.00  0.00    -0.504 OA
ATOM     19  H   UNL     1      -9.061   8.477  -5.733  1.00  0.00     0.293 HD
ENDBRANCH  15  18
BRANCH  17  20
ATOM     20  O   UNL     1      -8.550   7.029  -3.740  1.00  0.00    -0.504 OA
ATOM     21  H   UNL     1      -8.599   8.033  -3.865  1.00  0.00     0.293 HD
ENDBRANCH  17  20
ENDBRANCH   1  12
BRANCH   2  22
ATOM     22  O   UNL     1      -8.673   2.145  -3.711  1.00  0.00    -0.502 OA
ATOM     23  H   UNL     1      -9.519   2.219  -4.265  1.00  0.00     0.293 HD
ENDBRANCH   2  22
BRANCH   6  24
ATOM     24  O   UNL     1      -5.339  -1.996  -3.372  1.00  0.00    -0.507 OA
ATOM     25  H   UNL     1      -4.797  -2.238  -2.557  1.00  0.00     0.293 HD
ENDBRANCH   6  24
BRANCH   8  26
ATOM     26  O   UNL     1      -2.121  -0.790  -6.703  1.00  0.00    -0.508 OA
ATOM     27  H   UNL     1      -1.287  -0.219  -6.648  1.00  0.00     0.293 HD
ENDBRANCH   8  26
TORSDOF 6
ENDMDL
MODEL 4
REMARK VINA RESULT:    -6.796      3.564      5.401
REMARK INTER + INTRA:          -8.502
REMARK INTER:                  -8.219
REMARK INTRA:                  -0.284
REMARK UNBOUND:                -0.316
REMARK SMILES O=c1c(O)c(-c2ccc(O)c(O)c2)oc2cc(O)cc(O)c12
REMARK SMILES IDX 5 1 3 2 2 3 1 4 22 5 20 6 19 7 17 8 16 9 15 10 14 11 6 12
REMARK SMILES IDX 7 13 8 14 9 15 13 16 11 17 10 18 12 20 4 22 21 24 18 26
REMARK H PARENT 10 19 12 21 4 23 21 25 18 27
REMARK Flexibility Score: inf
ROOT
ATOM      1  C   UNL     1      -4.750  -1.973  -4.904  1.00  0.00     0.180 A 
ATOM      2  C   UNL     1      -3.469  -2.413  -4.529  1.00  0.00     0.208 A 
ATOM      3  C   UNL     1      -3.186  -3.788  -4.554  1.00  0.00     0.238 A 
ATOM      4  O   UNL     1      -2.055  -4.180  -4.166  1.00  0.00    -0.285 OA
ATOM      5  C   UNL     1      -4.182  -4.704  -4.969  1.00  0.00     0.111 A 
ATOM      6  C   UNL     1      -3.993  -6.115  -5.072  1.00  0.00     0.134 A 
ATOM      7  C   UNL     1      -5.087  -6.939  -5.368  1.00  0.00     0.093 A 
ATOM      8  C   UNL     1      -6.345  -6.399  -5.628  1.00  0.00     0.123 A 
ATOM      9  C   UNL     1      -6.528  -5.016  -5.589  1.00  0.00     0.094 A 
ATOM     10  C   UNL     1      -5.464  -4.171  -5.261  1.00  0.00     0.146 A 
ATOM     11  O   UNL     1      -5.683  -2.862  -5.225  1.00  0.00    -0.452 OA
ENDROOT
BRANCH   1  12
ATOM     12  C   UNL     1      -5.115  -0.538  -4.926  1.00  0.00     0.025 A 
ATOM     13  C   UNL     1      -5.967  -0.027  -3.934  1.00  0.00     0.016 A 
ATOM     14  C   UNL     1      -6.341   1.319  -3.948  1.00  0.00     0.051 A 
ATOM     15  C   UNL     1      -5.882   2.170  -4.962  1.00  0.00     0.157 A 
ATOM     16  C   UNL     1      -4.673   0.315  -5.954  1.00  0.00     0.062 A 
ATOM     17  C   UNL     1      -5.049   1.663  -5.972  1.00  0.00     0.158 A 
BRANCH  15  18
ATOM     18  O   UNL     1      -6.257   3.513  -4.972  1.00  0.00    -0.504 OA
ATOM     19  H   UNL     1      -7.224   3.794  -5.083  1.00  0.00     0.293 HD
ENDBRANCH  15  18
BRANCH  17  20
ATOM     20  O   UNL     1      -4.586   2.481  -7.003  1.00  0.00    -0.504 OA
ATOM     21  H   UNL     1      -3.909   2.157  -7.684  1.00  0.00     0.293 HD
ENDBRANCH  17  20
ENDBRANCH   1  12
BRANCH   2  22
ATOM     22  O   UNL     1      -2.507  -1.492  -4.101  1.00  0.00    -0.502 OA
ATOM     23  H   UNL     1      -2.551  -0.509  -4.340  1.00  0.00     0.293 HD
ENDBRANCH   2  22
BRANCH   6  24
ATOM     24  O   UNL     1      -2.757  -6.750  -4.921  1.00  0.00    -0.507 OA
ATOM     25  H   UNL     1      -2.078  -6.525  -4.209  1.00  0.00     0.293 HD
ENDBRANCH   6  24
BRANCH   8  26
ATOM     26  O   UNL     1      -7.407  -7.247  -5.934  1.00  0.00    -0.508 OA
ATOM     27  H   UNL     1      -7.539  -7.613  -6.870  1.00  0.00     0.293 HD
ENDBRANCH   8  26
TORSDOF 6
ENDMDL
MODEL 5
REMARK VINA RESULT:    -6.752      2.228      3.118
REMARK INTER + INTRA:          -8.449
REMARK INTER:                  -8.193
REMARK INTRA:                  -0.256
REMARK UNBOUND:                -0.316
REMARK SMILES O=c1c(O)c(-c2ccc(O)c(O)c2)oc2cc(O)cc(O)c12
REMARK SMILES IDX 5 1 3 2 2 3 1 4 22 5 20 6 19 7 17 8 16 9 15 10 14 11 6 12
REMARK SMILES IDX 7 13 8 14 9 15 13 16 11 17 10 18 12 20 4 22 21 24 18 26
REMARK H PARENT 10 19 12 21 4 23 21 25 18 27
REMARK Flexibility Score: inf
ROOT
ATOM      1  C   UNL     1      -3.091  -3.548  -5.191  1.00  0.00     0.180 A 
ATOM      2  C   UNL     1      -3.603  -4.537  -6.049  1.00  0.00     0.208 A 
ATOM      3  C   UNL     1      -3.235  -5.876  -5.840  1.00  0.00     0.238 A 
ATOM      4  O   UNL     1      -3.653  -6.750  -6.644  1.00  0.00    -0.285 OA
ATOM      5  C   UNL     1      -2.374  -6.212  -4.769  1.00  0.00     0.111 A 
ATOM      6  C   UNL     1      -1.969  -7.540  -4.440  1.00  0.00     0.134 A 
ATOM      7  C   UNL     1      -1.010  -7.742  -3.438  1.00  0.00     0.093 A 
ATOM      8  C   UNL     1      -0.493  -6.671  -2.711  1.00  0.00     0.123 A 
ATOM      9  C   UNL     1      -0.927  -5.373  -2.983  1.00  0.00     0.094 A 
ATOM     10  C   UNL     1      -1.855  -5.137  -4.001  1.00  0.00     0.146 A 
ATOM     11  O   UNL     1      -2.233  -3.886  -4.235  1.00  0.00    -0.452 OA
ENDROOT
BRANCH   1  12
ATOM     12  C   UNL     1      -3.452  -2.119  -5.332  1.00  0.00     0.025 A 
ATOM     13  C   UNL     1      -2.864  -1.356  -6.353  1.00  0.00     0.016 A 
ATOM     14  C   UNL     1      -3.174  -0.001  -6.491  1.00  0.00     0.051 A 
ATOM     15  C   UNL     1      -4.065   0.615  -5.602  1.00  0.00     0.157 A 
ATOM     16  C   UNL     1      -4.331  -1.492  -4.429  1.00  0.00     0.062 A 
ATOM     17  C   UNL     1      -4.642  -0.134  -4.563  1.00  0.00     0.158 A 
BRANCH  15  18
ATOM     18  O   UNL     1      -4.374   1.968  -5.744  1.00  0.00    -0.504 OA
ATOM     19  H   UNL     1      -3.653   2.664  -5.890  1.00  0.00     0.293 HD
ENDBRANCH  15  18
BRANCH  17  20
ATOM     20  O   UNL     1      -5.522   0.452  -3.654  1.00  0.00    -0.504 OA
ATOM     21  H   UNL     1      -6.417   0.035  -3.426  1.00  0.00     0.293 HD
ENDBRANCH  17  20
ENDBRANCH   1  12
BRANCH   2  22
ATOM     22  O   UNL     1      -4.434  -4.181  -7.115  1.00  0.00    -0.502 OA
ATOM     23  H   UNL     1      -5.052  -4.844  -7.568  1.00  0.00     0.293 HD
ENDBRANCH   2  22
BRANCH   6  24
ATOM     24  O   UNL     1      -2.492  -8.687  -5.043  1.00  0.00    -0.507 OA
ATOM     25  H   UNL     1      -1.983  -9.548  -5.177  1.00  0.00     0.293 HD
ENDBRANCH   6  24
BRANCH   8  26
ATOM     26  O   UNL     1       0.448  -6.910  -1.710  1.00  0.00    -0.508 OA
ATOM     27  H   UNL     1       1.343  -6.436  -1.702  1.00  0.00     0.293 HD
ENDBRANCH   8  26
TORSDOF 6
ENDMDL
MODEL 6
REMARK VINA RESULT:    -6.698      2.147      3.893
REMARK INTER + INTRA:          -8.385
REMARK INTER:                  -8.346
REMARK INTRA:                  -0.038
REMARK UNBOUND:                -0.316
REMARK SMILES O=c1c(O)c(-c2ccc(O)c(O)c2)oc2cc(O)cc(O)c12
REMARK SMILES IDX 5 1 3 2 2 3 1 4 22 5 20 6 19 7 17 8 16 9 15 10 14 11 6 12
REMARK SMILES IDX 7 13 8 14 9 15 13 16 11 17 10 18 12 20 4 22 21 24 18 26
REMARK H PARENT 10 19 12 21 4 23 21 25 18 27
REMARK Flexibility Score: inf
ROOT
ATOM      1  C   UNL     1      -3.227  -2.847  -5.205  1.00  0.00     0.180 A 
ATOM      2  C   UNL     1      -4.009  -3.927  -4.761  1.00  0.00     0.208 A 
ATOM      3  C   UNL     1      -3.412  -5.192  -4.627  1.00  0.00     0.238 A 
ATOM      4  O   UNL     1      -4.130  -6.166  -4.280  1.00  0.00    -0.285 OA
ATOM      5  C   UNL     1      -2.038  -5.356  -4.924  1.00  0.00     0.111 A 
ATOM      6  C   UNL     1      -1.320  -6.582  -4.786  1.00  0.00     0.134 A 
ATOM      7  C   UNL     1       0.005  -6.661  -5.233  1.00  0.00     0.093 A 
ATOM      8  C   UNL     1       0.657  -5.543  -5.752  1.00  0.00     0.123 A 
ATOM      9  C   UNL     1      -0.016  -4.324  -5.837  1.00  0.00     0.094 A 
ATOM     10  C   UNL     1      -1.350  -4.224  -5.432  1.00  0.00     0.146 A 
ATOM     11  O   UNL     1      -1.957  -3.048  -5.539  1.00  0.00    -0.452 OA
ENDROOT
BRANCH   1  12
ATOM     12  C   UNL     1      -3.780  -1.481  -5.347  1.00  0.00     0.025 A 
ATOM     13  C   UNL     1      -3.553  -0.764  -6.532  1.00  0.00     0.016 A 
ATOM     14  C   UNL     1      -4.047   0.534  -6.679  1.00  0.00     0.051 A 
ATOM     15  C   UNL     1      -4.761   1.141  -5.638  1.00  0.00     0.157 A 
ATOM     16  C   UNL     1      -4.480  -0.861  -4.296  1.00  0.00     0.062 A 
ATOM     17  C   UNL     1      -4.974   0.441  -4.439  1.00  0.00     0.158 A 
BRANCH  15  18
ATOM     18  O   UNL     1      -5.254   2.437  -5.788  1.00  0.00    -0.504 OA
ATOM     19  H   UNL     1      -5.387   3.050  -4.993  1.00  0.00     0.293 HD
ENDBRANCH  15  18
BRANCH  17  20
ATOM     20  O   UNL     1      -5.669   1.021  -3.378  1.00  0.00    -0.504 OA
ATOM     21  H   UNL     1      -6.350   0.505  -2.834  1.00  0.00     0.293 HD
ENDBRANCH  17  20
ENDBRANCH   1  12
BRANCH   2  22
ATOM     22  O   UNL     1      -5.370  -3.747  -4.494  1.00  0.00    -0.502 OA
ATOM     23  H   UNL     1      -5.779  -2.832  -4.349  1.00  0.00     0.293 HD
ENDBRANCH   2  22
BRANCH   6  24
ATOM     24  O   UNL     1      -1.849  -7.734  -4.196  1.00  0.00    -0.507 OA
ATOM     25  H   UNL     1      -1.827  -8.654  -4.611  1.00  0.00     0.293 HD
ENDBRANCH   6  24
BRANCH   8  26
ATOM     26  O   UNL     1       1.981  -5.654  -6.173  1.00  0.00    -0.508 OA
ATOM     27  H   UNL     1       2.585  -6.393  -5.832  1.00  0.00     0.293 HD
ENDBRANCH   8  26
TORSDOF 6
ENDMDL
MODEL 7
REMARK VINA RESULT:    -6.601      2.365      7.292
REMARK INTER + INTRA:          -8.268
REMARK INTER:                  -7.988
REMARK INTRA:                  -0.280
REMARK UNBOUND:                -0.316
REMARK SMILES O=c1c(O)c(-c2ccc(O)c(O)c2)oc2cc(O)cc(O)c12
REMARK SMILES IDX 5 1 3 2 2 3 1 4 22 5 20 6 19 7 17 8 16 9 15 10 14 11 6 12
REMARK SMILES IDX 7 13 8 14 9 15 13 16 11 17 10 18 12 20 4 22 21 24 18 26
REMARK H PARENT 10 19 12 21 4 23 21 25 18 27
REMARK Flexibility Score: inf
ROOT
ATOM      1  C   UNL     1      -3.393  -2.738  -4.888  1.00  0.00     0.180 A 
ATOM      2  C   UNL     1      -2.751  -1.994  -5.892  1.00  0.00     0.208 A 
ATOM      3  C   UNL     1      -3.217  -0.703  -6.188  1.00  0.00     0.238 A 
ATOM      4  O   UNL     1      -2.672  -0.063  -7.125  1.00  0.00    -0.285 OA
ATOM      5  C   UNL     1      -4.309  -0.166  -5.465  1.00  0.00     0.111 A 
ATOM      6  C   UNL     1      -4.838   1.147  -5.652  1.00  0.00     0.134 A 
ATOM      7  C   UNL     1      -6.003   1.525  -4.973  1.00  0.00     0.093 A 
ATOM      8  C   UNL     1      -6.618   0.665  -4.064  1.00  0.00     0.123 A 
ATOM      9  C   UNL     1      -6.075  -0.599  -3.829  1.00  0.00     0.094 A 
ATOM     10  C   UNL     1      -4.935  -1.018  -4.519  1.00  0.00     0.146 A 
ATOM     11  O   UNL     1      -4.456  -2.232  -4.273  1.00  0.00    -0.452 OA
ENDROOT
BRANCH   1  12
ATOM     12  C   UNL     1      -2.944  -4.096  -4.503  1.00  0.00     0.025 A 
ATOM     13  C   UNL     1      -3.718  -5.208  -4.868  1.00  0.00     0.016 A 
ATOM     14  C   UNL     1      -3.324  -6.496  -4.498  1.00  0.00     0.051 A 
ATOM     15  C   UNL     1      -2.158  -6.690  -3.744  1.00  0.00     0.157 A 
ATOM     16  C   UNL     1      -1.786  -4.292  -3.729  1.00  0.00     0.062 A 
ATOM     17  C   UNL     1      -1.389  -5.581  -3.354  1.00  0.00     0.158 A 
BRANCH  15  18
ATOM     18  O   UNL     1      -1.767  -7.977  -3.377  1.00  0.00    -0.504 OA
ATOM     19  H   UNL     1      -0.834  -8.323  -3.569  1.00  0.00     0.293 HD
ENDBRANCH  15  18
BRANCH  17  20
ATOM     20  O   UNL     1      -0.232  -5.738  -2.592  1.00  0.00    -0.504 OA
ATOM     21  H   UNL     1      -0.257  -6.084  -1.640  1.00  0.00     0.293 HD
ENDBRANCH  17  20
ENDBRANCH   1  12
BRANCH   2  22
ATOM     22  O   UNL     1      -1.688  -2.552  -6.609  1.00  0.00    -0.502 OA
ATOM     23  H   UNL     1      -1.780  -2.852  -7.573  1.00  0.00     0.293 HD
ENDBRANCH   2  22
BRANCH   6  24
ATOM     24  O   UNL     1      -4.248   2.117  -6.467  1.00  0.00    -0.507 OA
ATOM     25  H   UNL     1      -3.814   2.963  -6.131  1.00  0.00     0.293 HD
ENDBRANCH   6  24
BRANCH   8  26
ATOM     26  O   UNL     1      -7.767   1.081  -3.394  1.00  0.00    -0.508 OA
ATOM     27  H   UNL     1      -8.626   0.544  -3.432  1.00  0.00     0.293 HD
ENDBRANCH   8  26
TORSDOF 6
ENDMDL
MODEL 8
REMARK VINA RESULT:    -6.520      4.681     10.341
REMARK INTER + INTRA:          -8.170
REMARK INTER:                  -7.903
REMARK INTRA:                  -0.268
REMARK UNBOUND:                -0.316
REMARK SMILES O=c1c(O)c(-c2ccc(O)c(O)c2)oc2cc(O)cc(O)c12
REMARK SMILES IDX 5 1 3 2 2 3 1 4 22 5 20 6 19 7 17 8 16 9 15 10 14 11 6 12
REMARK SMILES IDX 7 13 8 14 9 15 13 16 11 17 10 18 12 20 4 22 21 24 18 26
REMARK H PARENT 10 19 12 21 4 23 21 25 18 27
REMARK Flexibility Score: inf
ROOT
ATOM      1  C   UNL     1      -6.306   0.540  -5.145  1.00  0.00     0.180 A 
ATOM      2  C   UNL     1      -7.578  -0.045  -5.016  1.00  0.00     0.208 A 
ATOM      3  C   UNL     1      -8.685   0.780  -4.756  1.00  0.00     0.238 A 
ATOM      4  O   UNL     1      -9.811   0.245  -4.589  1.00  0.00    -0.285 OA
ATOM      5  C   UNL     1      -8.509   2.179  -4.644  1.00  0.00     0.111 A 
ATOM      6  C   UNL     1      -9.565   3.114  -4.422  1.00  0.00     0.134 A 
ATOM      7  C   UNL     1      -9.258   4.462  -4.197  1.00  0.00     0.093 A 
ATOM      8  C   UNL     1      -7.942   4.920  -4.252  1.00  0.00     0.123 A 
ATOM      9  C   UNL     1      -6.908   4.025  -4.527  1.00  0.00     0.094 A 
ATOM     10  C   UNL     1      -7.179   2.668  -4.720  1.00  0.00     0.146 A 
ATOM     11  O   UNL     1      -6.164   1.849  -4.969  1.00  0.00    -0.452 OA
ENDROOT
BRANCH   1  12
ATOM     12  C   UNL     1      -5.097  -0.261  -5.443  1.00  0.00     0.025 A 
ATOM     13  C   UNL     1      -4.589  -0.283  -6.751  1.00  0.00     0.016 A 
ATOM     14  C   UNL     1      -3.462  -1.048  -7.060  1.00  0.00     0.051 A 
ATOM     15  C   UNL     1      -2.835  -1.815  -6.068  1.00  0.00     0.157 A 
ATOM     16  C   UNL     1      -4.478  -1.048  -4.455  1.00  0.00     0.062 A 
ATOM     17  C   UNL     1      -3.350  -1.818  -4.761  1.00  0.00     0.158 A 
BRANCH  15  18
ATOM     18  O   UNL     1      -1.709  -2.577  -6.379  1.00  0.00    -0.504 OA
ATOM     19  H   UNL     1      -0.922  -2.181  -6.879  1.00  0.00     0.293 HD
ENDBRANCH  15  18
BRANCH  17  20
ATOM     20  O   UNL     1      -2.758  -2.581  -3.755  1.00  0.00    -0.504 OA
ATOM     21  H   UNL     1      -3.167  -2.665  -2.832  1.00  0.00     0.293 HD
ENDBRANCH  17  20
ENDBRANCH   1  12
BRANCH   2  22
ATOM     22  O   UNL     1      -7.726  -1.432  -5.109  1.00  0.00    -0.502 OA
ATOM     23  H   UNL     1      -8.487  -1.865  -5.619  1.00  0.00     0.293 HD
ENDBRANCH   2  22
BRANCH   6  24
ATOM     24  O   UNL     1     -10.921   2.777  -4.439  1.00  0.00    -0.507 OA
ATOM     25  H   UNL     1     -11.469   2.559  -3.621  1.00  0.00     0.293 HD
ENDBRANCH   6  24
BRANCH   8  26
ATOM     26  O   UNL     1      -7.676   6.271  -4.039  1.00  0.00    -0.508 OA
ATOM     27  H   UNL     1      -6.739   6.601  -3.839  1.00  0.00     0.293 HD
ENDBRANCH   8  26
TORSDOF 6
ENDMDL
MODEL 9
REMARK VINA RESULT:    -6.466      1.941      7.519
REMARK INTER + INTRA:          -8.105
REMARK INTER:                  -7.791
REMARK INTRA:                  -0.314
REMARK UNBOUND:                -0.316
REMARK SMILES O=c1c(O)c(-c2ccc(O)c(O)c2)oc2cc(O)cc(O)c12
REMARK SMILES IDX 5 1 3 2 2 3 1 4 22 5 20 6 19 7 17 8 16 9 15 10 14 11 6 12
REMARK SMILES IDX 7 13 8 14 9 15 13 16 11 17 10 18 12 20 4 22 21 24 18 26
REMARK H PARENT 10 19 12 21 4 23 21 25 18 27
REMARK Flexibility Score: inf
ROOT
ATOM      1  C   UNL     1      -3.445  -3.162  -4.963  1.00  0.00     0.180 A 
ATOM      2  C   UNL     1      -3.478  -1.840  -4.487  1.00  0.00     0.208 A 
ATOM      3  C   UNL     1      -4.706  -1.161  -4.446  1.00  0.00     0.238 A 
ATOM      4  O   UNL     1      -4.721   0.040  -4.069  1.00  0.00    -0.285 OA
ATOM      5  C   UNL     1      -5.888  -1.817  -4.865  1.00  0.00     0.111 A 
ATOM      6  C   UNL     1      -7.193  -1.239  -4.828  1.00  0.00     0.134 A 
ATOM      7  C   UNL     1      -8.272  -1.934  -5.390  1.00  0.00     0.093 A 
ATOM      8  C   UNL     1      -8.106  -3.209  -5.927  1.00  0.00     0.123 A 
ATOM      9  C   UNL     1      -6.846  -3.808  -5.915  1.00  0.00     0.094 A 
ATOM     10  C   UNL     1      -5.743  -3.126  -5.394  1.00  0.00     0.146 A 
ATOM     11  O   UNL     1      -4.560  -3.728  -5.411  1.00  0.00    -0.452 OA
ENDROOT
BRANCH   1  12
ATOM     12  C   UNL     1      -2.192  -3.951  -5.013  1.00  0.00     0.025 A 
ATOM     13  C   UNL     1      -1.351  -3.840  -6.132  1.00  0.00     0.016 A 
ATOM     14  C   UNL     1      -0.176  -4.590  -6.210  1.00  0.00     0.051 A 
ATOM     15  C   UNL     1       0.169  -5.474  -5.178  1.00  0.00     0.157 A 
ATOM     16  C   UNL     1      -1.853  -4.854  -3.989  1.00  0.00     0.062 A 
ATOM     17  C   UNL     1      -0.677  -5.609  -4.065  1.00  0.00     0.158 A 
BRANCH  15  18
ATOM     18  O   UNL     1       1.344  -6.220  -5.258  1.00  0.00    -0.504 OA
ATOM     19  H   UNL     1       2.030  -6.213  -4.512  1.00  0.00     0.293 HD
ENDBRANCH  15  18
BRANCH  17  20
ATOM     20  O   UNL     1      -0.370  -6.489  -3.028  1.00  0.00    -0.504 OA
ATOM     21  H   UNL     1      -0.463  -6.227  -2.054  1.00  0.00     0.293 HD
ENDBRANCH  17  20
ENDBRANCH   1  12
BRANCH   2  22
ATOM     22  O   UNL     1      -2.295  -1.204  -4.098  1.00  0.00    -0.502 OA
ATOM     23  H   UNL     1      -2.279  -0.254  -3.745  1.00  0.00     0.293 HD
ENDBRANCH   2  22
BRANCH   6  24
ATOM     24  O   UNL     1      -7.485  -0.009  -4.232  1.00  0.00    -0.507 OA
ATOM     25  H   UNL     1      -8.398   0.420  -4.217  1.00  0.00     0.293 HD
ENDBRANCH   6  24
BRANCH   8  26
ATOM     26  O   UNL     1      -9.205  -3.877  -6.464  1.00  0.00    -0.508 OA
ATOM     27  H   UNL     1      -9.357  -4.865  -6.298  1.00  0.00     0.293 HD
ENDBRANCH   8  26
TORSDOF 6
ENDMDL
