MODEL 1
REMARK VINA RESULT:    63.742      0.000      0.000
REMARK INTER + INTRA:          84.430
REMARK INTER:                  84.236
REMARK INTRA:                   0.194
REMARK UNBOUND:                 0.194
REMARK SMILES CC[C@H](C=C[C@H](C)[C@@H]1CC[C@@H]2C3=CC[C@@H]4C[C@H](O)CC[C@@]4(C)[C@H]3CC[C@@]21C)C(C)C
REMARK SMILES IDX 6 1 7 2 5 3 4 4 3 5 2 6 1 7 28 8 29 9 30 10 8 11 9 12 26 13
REMARK SMILES IDX 10 14 11 15 25 16 27 17 12 18 24 19 23 20 13 21 21 22 14 23
REMARK SMILES IDX 15 24 20 25 22 26 16 27 19 28 17 29 18 30
REMARK H PARENT 18 31
REMARK Flexibility Score: inf
ROOT
ATOM      1  C   UNL     1     -38.521  25.172   6.763  1.00  0.00     0.012 C 
ATOM      2  C   UNL     1     -39.161  24.498   5.532  1.00  0.00     0.012 C 
ENDROOT
BRANCH   1   3
ATOM      3  C   UNL     1     -39.576  25.370   7.833  1.00  0.00    -0.028 C 
ATOM      4  C   UNL     1     -40.625  24.554   8.057  1.00  0.00    -0.027 C 
BRANCH   4   5
ATOM      5  C   UNL     1     -40.884  23.237   7.340  1.00  0.00     0.014 C 
BRANCH   5   6
ATOM      6  C   UNL     1     -41.035  22.116   8.396  1.00  0.00     0.004 C 
ATOM      7  C   UNL     1     -39.699  21.634   8.960  1.00  0.00     0.004 C 
ENDBRANCH   5   6
BRANCH   5   8
ATOM      8  C   UNL     1     -42.081  23.339   6.341  1.00  0.00    -0.011 C 
ATOM      9  C   UNL     1     -42.118  24.645   5.526  1.00  0.00     0.008 C 
ATOM     10  C   UNL     1     -42.124  22.126   5.397  1.00  0.00     0.008 C 
ENDBRANCH   5   8
ENDBRANCH   4   5
ENDBRANCH   1   3
BRANCH   1  11
ATOM     11  C   UNL     1     -37.222  24.514   7.351  1.00  0.00     0.002 C 
ATOM     12  C   UNL     1     -37.011  24.776   8.853  1.00  0.00     0.005 C 
ATOM     13  C   UNL     1     -35.825  24.715   6.682  1.00  0.00    -0.023 C 
ATOM     14  C   UNL     1     -35.517  24.595   9.125  1.00  0.00     0.009 C 
ATOM     15  C   UNL     1     -34.887  24.182   7.792  1.00  0.00     0.021 C 
ATOM     16  C   UNL     1     -35.522  26.209   6.355  1.00  0.00     0.008 C 
ATOM     17  C   UNL     1     -35.663  23.853   5.405  1.00  0.00     0.012 C 
ATOM     18  C   UNL     1     -33.447  24.642   7.626  1.00  0.00    -0.067 C 
ATOM     19  C   UNL     1     -34.030  26.525   6.147  1.00  0.00     0.009 C 
ATOM     20  C   UNL     1     -33.201  26.130   7.388  1.00  0.00     0.021 C 
ATOM     21  C   UNL     1     -32.482  23.710   7.453  1.00  0.00    -0.027 C 
ATOM     22  C   UNL     1     -31.667  26.506   7.353  1.00  0.00    -0.023 C 
ATOM     23  C   UNL     1     -31.049  24.037   7.140  1.00  0.00     0.031 C 
ATOM     24  C   UNL     1     -30.895  25.434   6.522  1.00  0.00     0.002 C 
ATOM     25  C   UNL     1     -31.425  27.907   6.705  1.00  0.00     0.010 C 
ATOM     26  C   UNL     1     -31.174  26.553   8.832  1.00  0.00     0.012 C 
ATOM     27  C   UNL     1     -29.399  25.774   6.332  1.00  0.00     0.036 C 
ATOM     28  C   UNL     1     -29.935  28.250   6.559  1.00  0.00     0.032 C 
ATOM     29  C   UNL     1     -29.211  27.177   5.728  1.00  0.00     0.114 C 
BRANCH  29  30
ATOM     30  O   UNL     1     -27.845  27.485   5.604  1.00  0.00    -0.393 OA
ATOM     31  H   UNL     1     -27.601  28.082   6.359  1.00  0.00     0.210 HD
ENDBRANCH  29  30
ENDBRANCH   1  11
TORSDOF 6
ENDMDL
MODEL 2
REMARK VINA RESULT:    64.165      1.390      1.920
REMARK INTER + INTRA:          84.990
REMARK INTER:                  84.132
REMARK INTRA:                   0.858
REMARK UNBOUND:                 0.194
REMARK SMILES CC[C@H](C=C[C@H](C)[C@@H]1CC[C@@H]2C3=CC[C@@H]4C[C@H](O)CC[C@@]4(C)[C@H]3CC[C@@]21C)C(C)C
REMARK SMILES IDX 6 1 7 2 5 3 4 4 3 5 2 6 1 7 28 8 29 9 30 10 8 11 9 12 26 13
REMARK SMILES IDX 10 14 11 15 25 16 27 17 12 18 24 19 23 20 13 21 21 22 14 23
REMARK SMILES IDX 15 24 20 25 22 26 16 27 19 28 17 29 18 30
REMARK H PARENT 18 31
REMARK Flexibility Score: inf
ROOT
ATOM      1  C   UNL     1     -39.761  25.673   7.697  1.00  0.00     0.012 C 
ATOM      2  C   UNL     1     -40.469  26.423   6.550  1.00  0.00     0.012 C 
ENDROOT
BRANCH   1   3
ATOM      3  C   UNL     1     -40.799  25.032   8.596  1.00  0.00    -0.028 C 
ATOM      4  C   UNL     1     -41.424  23.862   8.358  1.00  0.00    -0.027 C 
BRANCH   4   5
ATOM      5  C   UNL     1     -41.128  22.928   7.194  1.00  0.00     0.014 C 
BRANCH   5   6
ATOM      6  C   UNL     1     -41.076  21.474   7.722  1.00  0.00     0.004 C 
ATOM      7  C   UNL     1     -41.664  21.320   9.125  1.00  0.00     0.004 C 
ENDBRANCH   5   6
BRANCH   5   8
ATOM      8  C   UNL     1     -42.119  23.141   6.005  1.00  0.00    -0.011 C 
ATOM      9  C   UNL     1     -41.894  24.445   5.218  1.00  0.00     0.008 C 
ATOM     10  C   UNL     1     -42.109  21.938   5.048  1.00  0.00     0.008 C 
ENDBRANCH   5   8
ENDBRANCH   4   5
ENDBRANCH   1   3
BRANCH   1  11
ATOM     11  C   UNL     1     -38.633  24.654   7.304  1.00  0.00     0.002 C 
ATOM     12  C   UNL     1     -38.432  23.516   8.321  1.00  0.00     0.005 C 
ATOM     13  C   UNL     1     -37.199  25.130   6.908  1.00  0.00    -0.023 C 
ATOM     14  C   UNL     1     -37.011  22.990   8.117  1.00  0.00     0.009 C 
ATOM     15  C   UNL     1     -36.421  23.792   6.954  1.00  0.00     0.021 C 
ATOM     16  C   UNL     1     -36.606  26.164   7.913  1.00  0.00     0.008 C 
ATOM     17  C   UNL     1     -37.155  25.707   5.471  1.00  0.00     0.012 C 
ATOM     18  C   UNL     1     -34.915  23.982   7.043  1.00  0.00    -0.067 C 
ATOM     19  C   UNL     1     -35.074  26.304   7.853  1.00  0.00     0.009 C 
ATOM     20  C   UNL     1     -34.383  24.947   8.100  1.00  0.00     0.021 C 
ATOM     21  C   UNL     1     -34.137  23.495   6.049  1.00  0.00    -0.027 C 
ATOM     22  C   UNL     1     -32.805  24.970   8.180  1.00  0.00    -0.023 C 
ATOM     23  C   UNL     1     -32.657  23.736   5.948  1.00  0.00     0.031 C 
ATOM     24  C   UNL     1     -32.219  24.980   6.733  1.00  0.00     0.002 C 
ATOM     25  C   UNL     1     -32.278  26.229   8.940  1.00  0.00     0.010 C 
ATOM     26  C   UNL     1     -32.369  23.697   8.969  1.00  0.00     0.012 C 
ATOM     27  C   UNL     1     -30.679  25.119   6.703  1.00  0.00     0.036 C 
ATOM     28  C   UNL     1     -30.746  26.333   8.937  1.00  0.00     0.032 C 
ATOM     29  C   UNL     1     -30.207  26.350   7.496  1.00  0.00     0.114 C 
BRANCH  29  30
ATOM     30  O   UNL     1     -28.804  26.434   7.494  1.00  0.00    -0.393 OA
ATOM     31  H   UNL     1     -28.513  26.608   6.561  1.00  0.00     0.210 HD
ENDBRANCH  29  30
ENDBRANCH   1  11
TORSDOF 6
ENDMDL
MODEL 3
REMARK VINA RESULT:    64.787      1.334      2.985
REMARK INTER + INTRA:          85.812
REMARK INTER:                  78.817
REMARK INTRA:                   6.995
REMARK UNBOUND:                 0.194
REMARK SMILES CC[C@H](C=C[C@H](C)[C@@H]1CC[C@@H]2C3=CC[C@@H]4C[C@H](O)CC[C@@]4(C)[C@H]3CC[C@@]21C)C(C)C
REMARK SMILES IDX 6 1 7 2 5 3 4 4 3 5 2 6 1 7 28 8 29 9 30 10 8 11 9 12 26 13
REMARK SMILES IDX 10 14 11 15 25 16 27 17 12 18 24 19 23 20 13 21 21 22 14 23
REMARK SMILES IDX 15 24 20 25 22 26 16 27 19 28 17 29 18 30
REMARK H PARENT 18 31
REMARK Flexibility Score: inf
ROOT
ATOM      1  C   UNL     1     -39.561  23.787   8.548  1.00  0.00     0.012 C 
ATOM      2  C   UNL     1     -40.784  24.605   9.010  1.00  0.00     0.012 C 
ENDROOT
BRANCH   1   3
ATOM      3  C   UNL     1     -39.996  22.374   8.217  1.00  0.00    -0.028 C 
ATOM      4  C   UNL     1     -41.129  22.035   7.570  1.00  0.00    -0.027 C 
BRANCH   4   5
ATOM      5  C   UNL     1     -42.125  23.016   6.970  1.00  0.00     0.014 C 
BRANCH   5   6
ATOM      6  C   UNL     1     -41.930  24.397   7.640  1.00  0.00     0.004 C 
ATOM      7  C   UNL     1     -41.901  25.555   6.641  1.00  0.00     0.004 C 
ENDBRANCH   5   6
BRANCH   5   8
ATOM      8  C   UNL     1     -42.048  23.047   5.409  1.00  0.00    -0.011 C 
ATOM      9  C   UNL     1     -41.871  24.455   4.811  1.00  0.00     0.008 C 
ATOM     10  C   UNL     1     -40.949  22.108   4.886  1.00  0.00     0.008 C 
ENDBRANCH   5   8
ENDBRANCH   4   5
ENDBRANCH   1   3
BRANCH   1  11
ATOM     11  C   UNL     1     -38.676  24.398   7.404  1.00  0.00     0.002 C 
ATOM     12  C   UNL     1     -38.301  23.396   6.297  1.00  0.00     0.005 C 
ATOM     13  C   UNL     1     -37.371  25.198   7.714  1.00  0.00    -0.023 C 
ATOM     14  C   UNL     1     -37.041  23.938   5.622  1.00  0.00     0.009 C 
ATOM     15  C   UNL     1     -36.728  25.270   6.308  1.00  0.00     0.021 C 
ATOM     16  C   UNL     1     -36.439  24.465   8.726  1.00  0.00     0.008 C 
ATOM     17  C   UNL     1     -37.675  26.631   8.221  1.00  0.00     0.012 C 
ATOM     18  C   UNL     1     -35.245  25.604   6.349  1.00  0.00    -0.067 C 
ATOM     19  C   UNL     1     -34.977  24.946   8.708  1.00  0.00     0.009 C 
ATOM     20  C   UNL     1     -34.362  24.800   7.300  1.00  0.00     0.021 C 
ATOM     21  C   UNL     1     -34.815  26.735   5.743  1.00  0.00    -0.027 C 
ATOM     22  C   UNL     1     -32.827  25.150   7.168  1.00  0.00    -0.023 C 
ATOM     23  C   UNL     1     -33.405  27.248   5.829  1.00  0.00     0.031 C 
ATOM     24  C   UNL     1     -32.663  26.699   7.056  1.00  0.00     0.002 C 
ATOM     25  C   UNL     1     -32.006  24.651   8.399  1.00  0.00     0.010 C 
ATOM     26  C   UNL     1     -32.300  24.422   5.893  1.00  0.00     0.012 C 
ATOM     27  C   UNL     1     -31.185  27.153   7.037  1.00  0.00     0.036 C 
ATOM     28  C   UNL     1     -30.531  25.074   8.348  1.00  0.00     0.032 C 
ATOM     29  C   UNL     1     -30.410  26.605   8.247  1.00  0.00     0.114 C 
BRANCH  29  30
ATOM     30  O   UNL     1     -29.060  26.991   8.189  1.00  0.00    -0.393 OA
ATOM     31  H   UNL     1     -28.543  26.227   7.823  1.00  0.00     0.210 HD
ENDBRANCH  29  30
ENDBRANCH   1  11
TORSDOF 6
ENDMDL
MODEL 4
REMARK VINA RESULT:    65.358      0.587      1.535
REMARK INTER + INTRA:          86.566
REMARK INTER:                  80.982
REMARK INTRA:                   5.584
REMARK UNBOUND:                 0.194
REMARK SMILES CC[C@H](C=C[C@H](C)[C@@H]1CC[C@@H]2C3=CC[C@@H]4C[C@H](O)CC[C@@]4(C)[C@H]3CC[C@@]21C)C(C)C
REMARK SMILES IDX 6 1 7 2 5 3 4 4 3 5 2 6 1 7 28 8 29 9 30 10 8 11 9 12 26 13
REMARK SMILES IDX 10 14 11 15 25 16 27 17 12 18 24 19 23 20 13 21 21 22 14 23
REMARK SMILES IDX 15 24 20 25 22 26 16 27 19 28 17 29 18 30
REMARK H PARENT 18 31
REMARK Flexibility Score: inf
ROOT
ATOM      1  C   UNL     1     -38.870  24.966   6.534  1.00  0.00     0.012 C 
ATOM      2  C   UNL     1     -39.625  24.040   5.559  1.00  0.00     0.012 C 
ENDROOT
BRANCH   1   3
ATOM      3  C   UNL     1     -39.850  25.556   7.528  1.00  0.00    -0.028 C 
ATOM      4  C   UNL     1     -41.035  25.015   7.874  1.00  0.00    -0.027 C 
BRANCH   4   5
ATOM      5  C   UNL     1     -41.556  23.666   7.402  1.00  0.00     0.014 C 
BRANCH   5   6
ATOM      6  C   UNL     1     -41.486  23.618   5.857  1.00  0.00     0.004 C 
ATOM      7  C   UNL     1     -41.519  22.196   5.295  1.00  0.00     0.004 C 
ENDBRANCH   5   6
BRANCH   5   8
ATOM      8  C   UNL     1     -40.832  22.477   8.111  1.00  0.00    -0.011 C 
ATOM      9  C   UNL     1     -39.754  22.905   9.124  1.00  0.00     0.008 C 
ATOM     10  C   UNL     1     -41.840  21.530   8.782  1.00  0.00     0.008 C 
ENDBRANCH   5   8
ENDBRANCH   4   5
ENDBRANCH   1   3
BRANCH   1  11
ATOM     11  C   UNL     1     -37.605  24.377   7.254  1.00  0.00     0.002 C 
ATOM     12  C   UNL     1     -37.496  24.757   8.742  1.00  0.00     0.005 C 
ATOM     13  C   UNL     1     -36.170  24.550   6.663  1.00  0.00    -0.023 C 
ATOM     14  C   UNL     1     -36.022  24.622   9.123  1.00  0.00     0.009 C 
ATOM     15  C   UNL     1     -35.301  24.118   7.870  1.00  0.00     0.021 C 
ATOM     16  C   UNL     1     -35.863  26.019   6.242  1.00  0.00     0.008 C 
ATOM     17  C   UNL     1     -35.914  23.595   5.470  1.00  0.00     0.012 C 
ATOM     18  C   UNL     1     -33.859  24.589   7.762  1.00  0.00    -0.067 C 
ATOM     19  C   UNL     1     -34.364  26.342   6.107  1.00  0.00     0.009 C 
ATOM     20  C   UNL     1     -33.614  26.058   7.426  1.00  0.00     0.021 C 
ATOM     21  C   UNL     1     -32.873  23.662   7.725  1.00  0.00    -0.027 C 
ATOM     22  C   UNL     1     -32.086  26.456   7.461  1.00  0.00    -0.023 C 
ATOM     23  C   UNL     1     -31.426  23.988   7.481  1.00  0.00     0.031 C 
ATOM     24  C   UNL     1     -31.248  25.336   6.768  1.00  0.00     0.002 C 
ATOM     25  C   UNL     1     -31.818  27.806   6.724  1.00  0.00     0.010 C 
ATOM     26  C   UNL     1     -31.692  26.624   8.961  1.00  0.00     0.012 C 
ATOM     27  C   UNL     1     -29.747  25.685   6.649  1.00  0.00     0.036 C 
ATOM     28  C   UNL     1     -30.326  28.162   6.648  1.00  0.00     0.032 C 
ATOM     29  C   UNL     1     -29.536  27.040   5.951  1.00  0.00     0.114 C 
BRANCH  29  30
ATOM     30  O   UNL     1     -28.168  27.361   5.893  1.00  0.00    -0.393 OA
ATOM     31  H   UNL     1     -28.066  28.303   6.190  1.00  0.00     0.210 HD
ENDBRANCH  29  30
ENDBRANCH   1  11
TORSDOF 6
ENDMDL
