MODEL 1
REMARK VINA RESULT:    -7.883      0.000      0.000
REMARK INTER + INTRA:          -9.656
REMARK INTER:                  -9.496
REMARK INTRA:                  -0.160
REMARK UNBOUND:                -0.160
REMARK SMILES O=c1c(O)c(-c2ccc(O)c(O)c2)oc2cc(O)cc(O)c12
REMARK SMILES IDX 5 1 3 2 2 3 1 4 22 5 20 6 19 7 17 8 16 9 15 10 14 11 6 12
REMARK SMILES IDX 7 13 8 14 9 15 13 16 11 17 10 18 12 20 4 22 21 24 18 26
REMARK H PARENT 10 19 12 21 4 23 21 25 18 27
REMARK Flexibility Score: inf
ROOT
ATOM      1  C   UNL     1      17.736 -47.779  69.877  1.00  0.00     0.180 A 
ATOM      2  C   UNL     1      18.177 -47.921  71.205  1.00  0.00     0.208 A 
ATOM      3  C   UNL     1      17.238 -48.214  72.207  1.00  0.00     0.238 A 
ATOM      4  O   UNL     1      17.630 -48.286  73.400  1.00  0.00    -0.285 OA
ATOM      5  C   UNL     1      15.873 -48.377  71.867  1.00  0.00     0.111 A 
ATOM      6  C   UNL     1      14.842 -48.715  72.794  1.00  0.00     0.134 A 
ATOM      7  C   UNL     1      13.507 -48.722  72.371  1.00  0.00     0.093 A 
ATOM      8  C   UNL     1      13.173 -48.469  71.042  1.00  0.00     0.123 A 
ATOM      9  C   UNL     1      14.177 -48.196  70.113  1.00  0.00     0.094 A 
ATOM     10  C   UNL     1      15.515 -48.146  70.513  1.00  0.00     0.146 A 
ATOM     11  O   UNL     1      16.440 -47.873  69.601  1.00  0.00    -0.452 OA
ENDROOT
BRANCH   1  12
ATOM     12  C   UNL     1      18.670 -47.495  68.763  1.00  0.00     0.025 A 
ATOM     13  C   UNL     1      19.659 -48.434  68.434  1.00  0.00     0.016 A 
ATOM     14  C   UNL     1      20.563 -48.177  67.401  1.00  0.00     0.051 A 
ATOM     15  C   UNL     1      20.504 -46.973  66.693  1.00  0.00     0.157 A 
ATOM     16  C   UNL     1      18.625 -46.276  68.064  1.00  0.00     0.062 A 
ATOM     17  C   UNL     1      19.533 -46.014  67.028  1.00  0.00     0.158 A 
BRANCH  15  18
ATOM     18  O   UNL     1      21.419 -46.745  65.666  1.00  0.00    -0.504 OA
ATOM     19  H   UNL     1      22.277 -46.228  65.814  1.00  0.00     0.293 HD
ENDBRANCH  15  18
BRANCH  17  20
ATOM     20  O   UNL     1      19.478 -44.806  66.334  1.00  0.00    -0.504 OA
ATOM     21  H   UNL     1      20.241 -44.140  66.367  1.00  0.00     0.293 HD
ENDBRANCH  17  20
ENDBRANCH   1  12
BRANCH   2  22
ATOM     22  O   UNL     1      19.525 -47.734  71.521  1.00  0.00    -0.502 OA
ATOM     23  H   UNL     1      20.027 -46.886  71.283  1.00  0.00     0.293 HD
ENDBRANCH   2  22
BRANCH   6  24
ATOM     24  O   UNL     1      15.077 -49.075  74.124  1.00  0.00    -0.507 OA
ATOM     25  H   UNL     1      15.159 -50.023  74.458  1.00  0.00     0.293 HD
ENDBRANCH   6  24
BRANCH   8  26
ATOM     26  O   UNL     1      11.835 -48.500  70.651  1.00  0.00    -0.508 OA
ATOM     27  H   UNL     1      11.555 -48.864  69.749  1.00  0.00     0.293 HD
ENDBRANCH   8  26
TORSDOF 6
ENDMDL
MODEL 2
REMARK VINA RESULT:    -7.705      2.294      7.325
REMARK INTER + INTRA:          -9.442
REMARK INTER:                  -9.141
REMARK INTRA:                  -0.300
REMARK UNBOUND:                -0.160
REMARK SMILES O=c1c(O)c(-c2ccc(O)c(O)c2)oc2cc(O)cc(O)c12
REMARK SMILES IDX 5 1 3 2 2 3 1 4 22 5 20 6 19 7 17 8 16 9 15 10 14 11 6 12
REMARK SMILES IDX 7 13 8 14 9 15 13 16 11 17 10 18 12 20 4 22 21 24 18 26
REMARK H PARENT 10 19 12 21 4 23 21 25 18 27
REMARK Flexibility Score: inf
ROOT
ATOM      1  C   UNL     1      14.621 -47.777  70.663  1.00  0.00     0.180 A 
ATOM      2  C   UNL     1      14.538 -48.560  69.499  1.00  0.00     0.208 A 
ATOM      3  C   UNL     1      15.704 -48.799  68.753  1.00  0.00     0.238 A 
ATOM      4  O   UNL     1      15.612 -49.456  67.683  1.00  0.00    -0.285 OA
ATOM      5  C   UNL     1      16.940 -48.265  69.188  1.00  0.00     0.111 A 
ATOM      6  C   UNL     1      18.190 -48.476  68.533  1.00  0.00     0.134 A 
ATOM      7  C   UNL     1      19.328 -47.792  68.978  1.00  0.00     0.093 A 
ATOM      8  C   UNL     1      19.276 -46.957  70.093  1.00  0.00     0.123 A 
ATOM      9  C   UNL     1      18.072 -46.789  70.778  1.00  0.00     0.094 A 
ATOM     10  C   UNL     1      16.911 -47.430  70.336  1.00  0.00     0.146 A 
ATOM     11  O   UNL     1      15.784 -47.235  71.009  1.00  0.00    -0.452 OA
ENDROOT
BRANCH   1  12
ATOM     12  C   UNL     1      13.441 -47.502  71.514  1.00  0.00     0.025 A 
ATOM     13  C   UNL     1      13.008 -48.475  72.429  1.00  0.00     0.016 A 
ATOM     14  C   UNL     1      11.884 -48.245  73.227  1.00  0.00     0.051 A 
ATOM     15  C   UNL     1      11.168 -47.050  73.112  1.00  0.00     0.157 A 
ATOM     16  C   UNL     1      12.707 -46.310  71.386  1.00  0.00     0.062 A 
ATOM     17  C   UNL     1      11.578 -46.078  72.184  1.00  0.00     0.158 A 
BRANCH  15  18
ATOM     18  O   UNL     1      10.051 -46.848  73.923  1.00  0.00    -0.504 OA
ATOM     19  H   UNL     1       9.490 -47.618  74.267  1.00  0.00     0.293 HD
ENDBRANCH  15  18
BRANCH  17  20
ATOM     20  O   UNL     1      10.860 -44.890  72.055  1.00  0.00    -0.504 OA
ATOM     21  H   UNL     1      10.755 -44.427  71.159  1.00  0.00     0.293 HD
ENDBRANCH  17  20
ENDBRANCH   1  12
BRANCH   2  22
ATOM     22  O   UNL     1      13.303 -49.060  69.076  1.00  0.00    -0.502 OA
ATOM     23  H   UNL     1      12.444 -48.890  69.586  1.00  0.00     0.293 HD
ENDBRANCH   2  22
BRANCH   6  24
ATOM     24  O   UNL     1      18.371 -49.361  67.467  1.00  0.00    -0.507 OA
ATOM     25  H   UNL     1      18.999 -49.207  66.692  1.00  0.00     0.293 HD
ENDBRANCH   6  24
BRANCH   8  26
ATOM     26  O   UNL     1      20.431 -46.304  70.519  1.00  0.00    -0.508 OA
ATOM     27  H   UNL     1      21.202 -46.124  69.887  1.00  0.00     0.293 HD
ENDBRANCH   8  26
TORSDOF 6
ENDMDL
MODEL 3
REMARK VINA RESULT:    -7.646      1.724      7.280
REMARK INTER + INTRA:          -9.370
REMARK INTER:                  -9.182
REMARK INTRA:                  -0.188
REMARK UNBOUND:                -0.160
REMARK SMILES O=c1c(O)c(-c2ccc(O)c(O)c2)oc2cc(O)cc(O)c12
REMARK SMILES IDX 5 1 3 2 2 3 1 4 22 5 20 6 19 7 17 8 16 9 15 10 14 11 6 12
REMARK SMILES IDX 7 13 8 14 9 15 13 16 11 17 10 18 12 20 4 22 21 24 18 26
REMARK H PARENT 10 19 12 21 4 23 21 25 18 27
REMARK Flexibility Score: inf
ROOT
ATOM      1  C   UNL     1      18.158 -47.937  69.195  1.00  0.00     0.180 A 
ATOM      2  C   UNL     1      18.377 -46.711  68.544  1.00  0.00     0.208 A 
ATOM      3  C   UNL     1      19.453 -46.597  67.648  1.00  0.00     0.238 A 
ATOM      4  O   UNL     1      19.676 -45.482  67.110  1.00  0.00    -0.285 OA
ATOM      5  C   UNL     1      20.286 -47.715  67.403  1.00  0.00     0.111 A 
ATOM      6  C   UNL     1      21.379 -47.725  66.487  1.00  0.00     0.134 A 
ATOM      7  C   UNL     1      22.216 -48.846  66.421  1.00  0.00     0.093 A 
ATOM      8  C   UNL     1      21.961 -49.980  67.190  1.00  0.00     0.123 A 
ATOM      9  C   UNL     1      20.860 -50.005  68.047  1.00  0.00     0.094 A 
ATOM     10  C   UNL     1      20.028 -48.888  68.160  1.00  0.00     0.146 A 
ATOM     11  O   UNL     1      18.997 -48.947  68.994  1.00  0.00    -0.452 OA
ENDROOT
BRANCH   1  12
ATOM     12  C   UNL     1      17.031 -48.140  70.134  1.00  0.00     0.025 A 
ATOM     13  C   UNL     1      15.714 -48.103  69.649  1.00  0.00     0.016 A 
ATOM     14  C   UNL     1      14.635 -48.271  70.520  1.00  0.00     0.051 A 
ATOM     15  C   UNL     1      14.853 -48.463  71.888  1.00  0.00     0.157 A 
ATOM     16  C   UNL     1      17.248 -48.312  71.512  1.00  0.00     0.062 A 
ATOM     17  C   UNL     1      16.166 -48.479  72.389  1.00  0.00     0.158 A 
BRANCH  15  18
ATOM     18  O   UNL     1      13.756 -48.629  72.733  1.00  0.00    -0.504 OA
ATOM     19  H   UNL     1      13.792 -48.387  73.716  1.00  0.00     0.293 HD
ENDBRANCH  15  18
BRANCH  17  20
ATOM     20  O   UNL     1      16.389 -48.655  73.753  1.00  0.00    -0.504 OA
ATOM     21  H   UNL     1      16.224 -47.910  74.419  1.00  0.00     0.293 HD
ENDBRANCH  17  20
ENDBRANCH   1  12
BRANCH   2  22
ATOM     22  O   UNL     1      17.555 -45.614  68.817  1.00  0.00    -0.502 OA
ATOM     23  H   UNL     1      17.184 -45.430  69.742  1.00  0.00     0.293 HD
ENDBRANCH   2  22
BRANCH   6  24
ATOM     24  O   UNL     1      21.669 -46.679  65.606  1.00  0.00    -0.507 OA
ATOM     25  H   UNL     1      22.550 -46.553  65.132  1.00  0.00     0.293 HD
ENDBRANCH   6  24
BRANCH   8  26
ATOM     26  O   UNL     1      22.805 -51.085  67.088  1.00  0.00    -0.508 OA
ATOM     27  H   UNL     1      23.656 -51.054  66.541  1.00  0.00     0.293 HD
ENDBRANCH   8  26
TORSDOF 6
ENDMDL
MODEL 4
REMARK VINA RESULT:    -7.621      0.624      1.462
REMARK INTER + INTRA:          -9.341
REMARK INTER:                  -9.030
REMARK INTRA:                  -0.311
REMARK UNBOUND:                -0.160
REMARK SMILES O=c1c(O)c(-c2ccc(O)c(O)c2)oc2cc(O)cc(O)c12
REMARK SMILES IDX 5 1 3 2 2 3 1 4 22 5 20 6 19 7 17 8 16 9 15 10 14 11 6 12
REMARK SMILES IDX 7 13 8 14 9 15 13 16 11 17 10 18 12 20 4 22 21 24 18 26
REMARK H PARENT 10 19 12 21 4 23 21 25 18 27
REMARK Flexibility Score: inf
ROOT
ATOM      1  C   UNL     1      17.809 -47.776  70.011  1.00  0.00     0.180 A 
ATOM      2  C   UNL     1      18.185 -47.930  71.357  1.00  0.00     0.208 A 
ATOM      3  C   UNL     1      17.196 -48.219  72.312  1.00  0.00     0.238 A 
ATOM      4  O   UNL     1      17.531 -48.302  73.522  1.00  0.00    -0.285 OA
ATOM      5  C   UNL     1      15.847 -48.365  71.907  1.00  0.00     0.111 A 
ATOM      6  C   UNL     1      14.770 -48.697  72.782  1.00  0.00     0.134 A 
ATOM      7  C   UNL     1      13.457 -48.687  72.295  1.00  0.00     0.093 A 
ATOM      8  C   UNL     1      13.188 -48.422  70.954  1.00  0.00     0.123 A 
ATOM      9  C   UNL     1      14.239 -48.156  70.075  1.00  0.00     0.094 A 
ATOM     10  C   UNL     1      15.557 -48.122  70.539  1.00  0.00     0.146 A 
ATOM     11  O   UNL     1      16.527 -47.854  69.673  1.00  0.00    -0.452 OA
ENDROOT
BRANCH   1  12
ATOM     12  C   UNL     1      18.798 -47.496  68.945  1.00  0.00     0.025 A 
ATOM     13  C   UNL     1      18.915 -46.192  68.437  1.00  0.00     0.016 A 
ATOM     14  C   UNL     1      19.826 -45.910  67.417  1.00  0.00     0.051 A 
ATOM     15  C   UNL     1      20.621 -46.925  66.877  1.00  0.00     0.157 A 
ATOM     16  C   UNL     1      19.583 -48.520  68.387  1.00  0.00     0.062 A 
ATOM     17  C   UNL     1      20.496 -48.239  67.360  1.00  0.00     0.158 A 
BRANCH  15  18
ATOM     18  O   UNL     1      21.522 -46.613  65.859  1.00  0.00    -0.504 OA
ATOM     19  H   UNL     1      22.363 -46.077  66.031  1.00  0.00     0.293 HD
ENDBRANCH  15  18
BRANCH  17  20
ATOM     20  O   UNL     1      21.276 -49.259  66.817  1.00  0.00    -0.504 OA
ATOM     21  H   UNL     1      21.254 -50.201  67.190  1.00  0.00     0.293 HD
ENDBRANCH  17  20
ENDBRANCH   1  12
BRANCH   2  22
ATOM     22  O   UNL     1      19.519 -47.760  71.738  1.00  0.00    -0.502 OA
ATOM     23  H   UNL     1      20.201 -47.308  71.140  1.00  0.00     0.293 HD
ENDBRANCH   2  22
BRANCH   6  24
ATOM     24  O   UNL     1      14.937 -49.067  74.119  1.00  0.00    -0.507 OA
ATOM     25  H   UNL     1      15.349 -49.934  74.429  1.00  0.00     0.293 HD
ENDBRANCH   6  24
BRANCH   8  26
ATOM     26  O   UNL     1      11.871 -48.437  70.499  1.00  0.00    -0.508 OA
ATOM     27  H   UNL     1      11.488 -49.235  70.007  1.00  0.00     0.293 HD
ENDBRANCH   8  26
TORSDOF 6
ENDMDL
MODEL 5
REMARK VINA RESULT:    -7.472      2.265      3.069
REMARK INTER + INTRA:          -9.161
REMARK INTER:                  -8.839
REMARK INTRA:                  -0.322
REMARK UNBOUND:                -0.160
REMARK SMILES O=c1c(O)c(-c2ccc(O)c(O)c2)oc2cc(O)cc(O)c12
REMARK SMILES IDX 5 1 3 2 2 3 1 4 22 5 20 6 19 7 17 8 16 9 15 10 14 11 6 12
REMARK SMILES IDX 7 13 8 14 9 15 13 16 11 17 10 18 12 20 4 22 21 24 18 26
REMARK H PARENT 10 19 12 21 4 23 21 25 18 27
REMARK Flexibility Score: inf
ROOT
ATOM      1  C   UNL     1      15.349 -46.781  70.265  1.00  0.00     0.180 A 
ATOM      2  C   UNL     1      15.507 -47.973  70.993  1.00  0.00     0.208 A 
ATOM      3  C   UNL     1      14.472 -48.396  71.842  1.00  0.00     0.238 A 
ATOM      4  O   UNL     1      14.642 -49.435  72.532  1.00  0.00    -0.285 OA
ATOM      5  C   UNL     1      13.285 -47.631  71.940  1.00  0.00     0.111 A 
ATOM      6  C   UNL     1      12.156 -47.985  72.737  1.00  0.00     0.134 A 
ATOM      7  C   UNL     1      11.088 -47.088  72.861  1.00  0.00     0.093 A 
ATOM      8  C   UNL     1      11.079 -45.880  72.165  1.00  0.00     0.123 A 
ATOM      9  C   UNL     1      12.150 -45.549  71.335  1.00  0.00     0.094 A 
ATOM     10  C   UNL     1      13.247 -46.408  71.220  1.00  0.00     0.146 A 
ATOM     11  O   UNL     1      14.251 -46.051  70.428  1.00  0.00    -0.452 OA
ENDROOT
BRANCH   1  12
ATOM     12  C   UNL     1      16.386 -46.284  69.331  1.00  0.00     0.025 A 
ATOM     13  C   UNL     1      16.397 -46.741  68.004  1.00  0.00     0.016 A 
ATOM     14  C   UNL     1      17.379 -46.302  67.113  1.00  0.00     0.051 A 
ATOM     15  C   UNL     1      18.372 -45.414  67.536  1.00  0.00     0.157 A 
ATOM     16  C   UNL     1      17.397 -45.407  69.761  1.00  0.00     0.062 A 
ATOM     17  C   UNL     1      18.385 -44.967  68.868  1.00  0.00     0.158 A 
BRANCH  15  18
ATOM     18  O   UNL     1      19.338 -44.991  66.624  1.00  0.00    -0.504 OA
ATOM     19  H   UNL     1      19.096 -44.655  65.700  1.00  0.00     0.293 HD
ENDBRANCH  15  18
BRANCH  17  20
ATOM     20  O   UNL     1      19.381 -44.091  69.300  1.00  0.00    -0.504 OA
ATOM     21  H   UNL     1      19.377 -43.703  70.237  1.00  0.00     0.293 HD
ENDBRANCH  17  20
ENDBRANCH   1  12
BRANCH   2  22
ATOM     22  O   UNL     1      16.696 -48.701  70.898  1.00  0.00    -0.502 OA
ATOM     23  H   UNL     1      16.873 -49.529  71.455  1.00  0.00     0.293 HD
ENDBRANCH   2  22
BRANCH   6  24
ATOM     24  O   UNL     1      12.023 -49.208  73.401  1.00  0.00    -0.507 OA
ATOM     25  H   UNL     1      11.460 -49.356  74.225  1.00  0.00     0.293 HD
ENDBRANCH   6  24
BRANCH   8  26
ATOM     26  O   UNL     1       9.992 -45.017  72.298  1.00  0.00    -0.508 OA
ATOM     27  H   UNL     1       9.265 -45.182  72.983  1.00  0.00     0.293 HD
ENDBRANCH   8  26
TORSDOF 6
ENDMDL
MODEL 6
REMARK VINA RESULT:    -7.459      2.413      6.777
REMARK INTER + INTRA:          -9.145
REMARK INTER:                  -8.842
REMARK INTRA:                  -0.304
REMARK UNBOUND:                -0.160
REMARK SMILES O=c1c(O)c(-c2ccc(O)c(O)c2)oc2cc(O)cc(O)c12
REMARK SMILES IDX 5 1 3 2 2 3 1 4 22 5 20 6 19 7 17 8 16 9 15 10 14 11 6 12
REMARK SMILES IDX 7 13 8 14 9 15 13 16 11 17 10 18 12 20 4 22 21 24 18 26
REMARK H PARENT 10 19 12 21 4 23 21 25 18 27
REMARK Flexibility Score: inf
ROOT
ATOM      1  C   UNL     1      14.964 -47.784  70.568  1.00  0.00     0.180 A 
ATOM      2  C   UNL     1      16.195 -47.843  71.246  1.00  0.00     0.208 A 
ATOM      3  C   UNL     1      17.367 -48.084  70.510  1.00  0.00     0.238 A 
ATOM      4  O   UNL     1      18.458 -48.188  71.129  1.00  0.00    -0.285 OA
ATOM      5  C   UNL     1      17.296 -48.247  69.106  1.00  0.00     0.111 A 
ATOM      6  C   UNL     1      18.424 -48.455  68.257  1.00  0.00     0.134 A 
ATOM      7  C   UNL     1      18.224 -48.734  66.899  1.00  0.00     0.093 A 
ATOM      8  C   UNL     1      16.944 -48.748  66.348  1.00  0.00     0.123 A 
ATOM      9  C   UNL     1      15.837 -48.486  67.156  1.00  0.00     0.094 A 
ATOM     10  C   UNL     1      16.002 -48.241  68.522  1.00  0.00     0.146 A 
ATOM     11  O   UNL     1      14.923 -48.007  69.259  1.00  0.00    -0.452 OA
ENDROOT
BRANCH   1  12
ATOM     12  C   UNL     1      13.690 -47.511  71.271  1.00  0.00     0.025 A 
ATOM     13  C   UNL     1      13.002 -48.566  71.890  1.00  0.00     0.016 A 
ATOM     14  C   UNL     1      11.788 -48.334  72.540  1.00  0.00     0.051 A 
ATOM     15  C   UNL     1      11.235 -47.050  72.570  1.00  0.00     0.157 A 
ATOM     16  C   UNL     1      13.123 -46.224  71.283  1.00  0.00     0.062 A 
ATOM     17  C   UNL     1      11.902 -45.989  71.934  1.00  0.00     0.158 A 
BRANCH  15  18
ATOM     18  O   UNL     1      10.022 -46.848  73.228  1.00  0.00    -0.504 OA
ATOM     19  H   UNL     1       9.229 -47.463  73.095  1.00  0.00     0.293 HD
ENDBRANCH  15  18
BRANCH  17  20
ATOM     20  O   UNL     1      11.350 -44.710  71.947  1.00  0.00    -0.504 OA
ATOM     21  H   UNL     1      11.814 -43.926  71.503  1.00  0.00     0.293 HD
ENDBRANCH  17  20
ENDBRANCH   1  12
BRANCH   2  22
ATOM     22  O   UNL     1      16.239 -47.701  72.635  1.00  0.00    -0.502 OA
ATOM     23  H   UNL     1      15.726 -48.311  73.261  1.00  0.00     0.293 HD
ENDBRANCH   2  22
BRANCH   6  24
ATOM     24  O   UNL     1      19.751 -48.372  68.688  1.00  0.00    -0.507 OA
ATOM     25  H   UNL     1      20.158 -48.949  69.408  1.00  0.00     0.293 HD
ENDBRANCH   6  24
BRANCH   8  26
ATOM     26  O   UNL     1      16.782 -49.013  64.989  1.00  0.00    -0.508 OA
ATOM     27  H   UNL     1      17.373 -49.677  64.504  1.00  0.00     0.293 HD
ENDBRANCH   8  26
TORSDOF 6
ENDMDL
MODEL 7
REMARK VINA RESULT:    -7.435      1.782      2.544
REMARK INTER + INTRA:          -9.116
REMARK INTER:                  -8.814
REMARK INTRA:                  -0.302
REMARK UNBOUND:                -0.160
REMARK SMILES O=c1c(O)c(-c2ccc(O)c(O)c2)oc2cc(O)cc(O)c12
REMARK SMILES IDX 5 1 3 2 2 3 1 4 22 5 20 6 19 7 17 8 16 9 15 10 14 11 6 12
REMARK SMILES IDX 7 13 8 14 9 15 13 16 11 17 10 18 12 20 4 22 21 24 18 26
REMARK H PARENT 10 19 12 21 4 23 21 25 18 27
REMARK Flexibility Score: inf
ROOT
ATOM      1  C   UNL     1      16.264 -47.805  71.013  1.00  0.00     0.180 A 
ATOM      2  C   UNL     1      16.223 -48.817  71.988  1.00  0.00     0.208 A 
ATOM      3  C   UNL     1      15.005 -49.098  72.628  1.00  0.00     0.238 A 
ATOM      4  O   UNL     1      14.987 -49.968  73.538  1.00  0.00    -0.285 OA
ATOM      5  C   UNL     1      13.840 -48.375  72.274  1.00  0.00     0.111 A 
ATOM      6  C   UNL     1      12.546 -48.604  72.829  1.00  0.00     0.134 A 
ATOM      7  C   UNL     1      11.491 -47.742  72.500  1.00  0.00     0.093 A 
ATOM      8  C   UNL     1      11.669 -46.702  71.589  1.00  0.00     0.123 A 
ATOM      9  C   UNL     1      12.916 -46.506  70.995  1.00  0.00     0.094 A 
ATOM     10  C   UNL     1      13.996 -47.327  71.330  1.00  0.00     0.146 A 
ATOM     11  O   UNL     1      15.169 -47.100  70.750  1.00  0.00    -0.452 OA
ENDROOT
BRANCH   1  12
ATOM     12  C   UNL     1      17.505 -47.469  70.278  1.00  0.00     0.025 A 
ATOM     13  C   UNL     1      18.437 -46.596  70.860  1.00  0.00     0.016 A 
ATOM     14  C   UNL     1      19.604 -46.248  70.176  1.00  0.00     0.051 A 
ATOM     15  C   UNL     1      19.850 -46.753  68.895  1.00  0.00     0.157 A 
ATOM     16  C   UNL     1      17.744 -47.960  68.982  1.00  0.00     0.062 A 
ATOM     17  C   UNL     1      18.914 -47.610  68.292  1.00  0.00     0.158 A 
BRANCH  15  18
ATOM     18  O   UNL     1      21.024 -46.390  68.237  1.00  0.00    -0.504 OA
ATOM     19  H   UNL     1      21.327 -46.845  67.385  1.00  0.00     0.293 HD
ENDBRANCH  15  18
BRANCH  17  20
ATOM     20  O   UNL     1      19.147 -48.106  67.011  1.00  0.00    -0.504 OA
ATOM     21  H   UNL     1      18.462 -48.007  66.270  1.00  0.00     0.293 HD
ENDBRANCH  17  20
ENDBRANCH   1  12
BRANCH   2  22
ATOM     22  O   UNL     1      17.389 -49.503  72.337  1.00  0.00    -0.502 OA
ATOM     23  H   UNL     1      18.292 -49.046  72.399  1.00  0.00     0.293 HD
ENDBRANCH   2  22
BRANCH   6  24
ATOM     24  O   UNL     1      12.238 -49.670  73.678  1.00  0.00    -0.507 OA
ATOM     25  H   UNL     1      11.492 -49.666  74.358  1.00  0.00     0.293 HD
ENDBRANCH   6  24
BRANCH   8  26
ATOM     26  O   UNL     1      10.594 -45.873  71.272  1.00  0.00    -0.508 OA
ATOM     27  H   UNL     1      10.488 -44.958  71.693  1.00  0.00     0.293 HD
ENDBRANCH   8  26
TORSDOF 6
ENDMDL
MODEL 8
REMARK VINA RESULT:    -7.366      1.490      1.935
REMARK INTER + INTRA:          -9.033
REMARK INTER:                  -8.713
REMARK INTRA:                  -0.320
REMARK UNBOUND:                -0.160
REMARK SMILES O=c1c(O)c(-c2ccc(O)c(O)c2)oc2cc(O)cc(O)c12
REMARK SMILES IDX 5 1 3 2 2 3 1 4 22 5 20 6 19 7 17 8 16 9 15 10 14 11 6 12
REMARK SMILES IDX 7 13 8 14 9 15 13 16 11 17 10 18 12 20 4 22 21 24 18 26
REMARK H PARENT 10 19 12 21 4 23 21 25 18 27
REMARK Flexibility Score: inf
ROOT
ATOM      1  C   UNL     1      18.188 -48.631  69.161  1.00  0.00     0.180 A 
ATOM      2  C   UNL     1      18.213 -48.282  70.522  1.00  0.00     0.208 A 
ATOM      3  C   UNL     1      16.999 -48.156  71.216  1.00  0.00     0.238 A 
ATOM      4  O   UNL     1      17.026 -47.791  72.420  1.00  0.00    -0.285 OA
ATOM      5  C   UNL     1      15.776 -48.397  70.544  1.00  0.00     0.111 A 
ATOM      6  C   UNL     1      14.489 -48.338  71.158  1.00  0.00     0.134 A 
ATOM      7  C   UNL     1      13.340 -48.466  70.368  1.00  0.00     0.093 A 
ATOM      8  C   UNL     1      13.431 -48.715  69.000  1.00  0.00     0.123 A 
ATOM      9  C   UNL     1      14.685 -48.834  68.399  1.00  0.00     0.094 A 
ATOM     10  C   UNL     1      15.849 -48.676  69.155  1.00  0.00     0.146 A 
ATOM     11  O   UNL     1      17.022 -48.786  68.543  1.00  0.00    -0.452 OA
ENDROOT
BRANCH   1  12
ATOM     12  C   UNL     1      19.427 -48.806  68.369  1.00  0.00     0.025 A 
ATOM     13  C   UNL     1      20.087 -50.045  68.383  1.00  0.00     0.016 A 
ATOM     14  C   UNL     1      21.268 -50.226  67.661  1.00  0.00     0.051 A 
ATOM     15  C   UNL     1      21.818 -49.170  66.928  1.00  0.00     0.157 A 
ATOM     16  C   UNL     1      19.993 -47.739  67.649  1.00  0.00     0.062 A 
ATOM     17  C   UNL     1      21.180 -47.918  66.925  1.00  0.00     0.158 A 
BRANCH  15  18
ATOM     18  O   UNL     1      22.998 -49.381  66.216  1.00  0.00    -0.504 OA
ATOM     19  H   UNL     1      23.859 -49.659  66.670  1.00  0.00     0.293 HD
ENDBRANCH  15  18
BRANCH  17  20
ATOM     20  O   UNL     1      21.731 -46.857  66.207  1.00  0.00    -0.504 OA
ATOM     21  H   UNL     1      22.590 -46.407  66.500  1.00  0.00     0.293 HD
ENDBRANCH  17  20
ENDBRANCH   1  12
BRANCH   2  22
ATOM     22  O   UNL     1      19.431 -48.028  71.159  1.00  0.00    -0.502 OA
ATOM     23  H   UNL     1      20.320 -48.321  70.771  1.00  0.00     0.293 HD
ENDBRANCH   2  22
BRANCH   6  24
ATOM     24  O   UNL     1      14.287 -48.184  72.533  1.00  0.00    -0.507 OA
ATOM     25  H   UNL     1      14.982 -47.848  73.182  1.00  0.00     0.293 HD
ENDBRANCH   6  24
BRANCH   8  26
ATOM     26  O   UNL     1      12.267 -48.854  68.246  1.00  0.00    -0.508 OA
ATOM     27  H   UNL     1      12.138 -48.356  67.374  1.00  0.00     0.293 HD
ENDBRANCH   8  26
TORSDOF 6
ENDMDL
MODEL 9
REMARK VINA RESULT:    -7.012      1.757      6.928
REMARK INTER + INTRA:          -8.607
REMARK INTER:                  -8.349
REMARK INTRA:                  -0.258
REMARK UNBOUND:                -0.160
REMARK SMILES O=c1c(O)c(-c2ccc(O)c(O)c2)oc2cc(O)cc(O)c12
REMARK SMILES IDX 5 1 3 2 2 3 1 4 22 5 20 6 19 7 17 8 16 9 15 10 14 11 6 12
REMARK SMILES IDX 7 13 8 14 9 15 13 16 11 17 10 18 12 20 4 22 21 24 18 26
REMARK H PARENT 10 19 12 21 4 23 21 25 18 27
REMARK Flexibility Score: inf
ROOT
ATOM      1  C   UNL     1      16.760 -47.790  70.557  1.00  0.00     0.180 A 
ATOM      2  C   UNL     1      17.132 -46.448  70.366  1.00  0.00     0.208 A 
ATOM      3  C   UNL     1      18.262 -46.159  69.582  1.00  0.00     0.238 A 
ATOM      4  O   UNL     1      18.621 -44.959  69.459  1.00  0.00    -0.285 OA
ATOM      5  C   UNL     1      18.994 -47.214  68.987  1.00  0.00     0.111 A 
ATOM      6  C   UNL     1      20.130 -47.035  68.142  1.00  0.00     0.134 A 
ATOM      7  C   UNL     1      20.856 -48.154  67.714  1.00  0.00     0.093 A 
ATOM      8  C   UNL     1      20.450 -49.445  68.047  1.00  0.00     0.123 A 
ATOM      9  C   UNL     1      19.307 -49.635  68.823  1.00  0.00     0.094 A 
ATOM     10  C   UNL     1      18.582 -48.537  69.295  1.00  0.00     0.146 A 
ATOM     11  O   UNL     1      17.506 -48.760  70.040  1.00  0.00    -0.452 OA
ENDROOT
BRANCH   1  12
ATOM     12  C   UNL     1      15.569 -48.172  71.349  1.00  0.00     0.025 A 
ATOM     13  C   UNL     1      15.738 -48.813  72.586  1.00  0.00     0.016 A 
ATOM     14  C   UNL     1      14.628 -49.201  73.340  1.00  0.00     0.051 A 
ATOM     15  C   UNL     1      13.334 -48.969  72.864  1.00  0.00     0.157 A 
ATOM     16  C   UNL     1      14.267 -47.958  70.862  1.00  0.00     0.062 A 
ATOM     17  C   UNL     1      13.151 -48.349  71.617  1.00  0.00     0.158 A 
BRANCH  15  18
ATOM     18  O   UNL     1      12.245 -49.366  73.639  1.00  0.00    -0.504 OA
ATOM     19  H   UNL     1      11.476 -48.741  73.849  1.00  0.00     0.293 HD
ENDBRANCH  15  18
BRANCH  17  20
ATOM     20  O   UNL     1      11.863 -48.127  71.130  1.00  0.00    -0.504 OA
ATOM     21  H   UNL     1      11.312 -47.331  71.430  1.00  0.00     0.293 HD
ENDBRANCH  17  20
ENDBRANCH   1  12
BRANCH   2  22
ATOM     22  O   UNL     1      16.407 -45.424  70.980  1.00  0.00    -0.502 OA
ATOM     23  H   UNL     1      16.800 -44.843  71.712  1.00  0.00     0.293 HD
ENDBRANCH   2  22
BRANCH   6  24
ATOM     24  O   UNL     1      20.567 -45.793  67.675  1.00  0.00    -0.507 OA
ATOM     25  H   UNL     1      20.374 -45.423  66.756  1.00  0.00     0.293 HD
ENDBRANCH   6  24
BRANCH   8  26
ATOM     26  O   UNL     1      21.187 -50.537  67.591  1.00  0.00    -0.508 OA
ATOM     27  H   UNL     1      21.992 -50.420  66.989  1.00  0.00     0.293 HD
ENDBRANCH   8  26
TORSDOF 6
ENDMDL
