MODEL 1
REMARK VINA RESULT:    -4.833      0.000      0.000
REMARK INTER + INTRA:         -16.401
REMARK INTER:                 -12.179
REMARK INTRA:                  -4.222
REMARK UNBOUND:                -4.222
REMARK SMILES CCCCCCCCCCCCCCCCCCCCCCCCCCCC(=O)[O-]
REMARK SMILES IDX 15 1 16 2 17 3 18 4 19 5 20 6 21 7 22 8 23 9 24 10 25 11
REMARK SMILES IDX 26 12 27 13 28 14 29 15 30 16 14 17 13 18 12 19 11 20 10 21
REMARK SMILES IDX 9 22 8 23 7 24 6 25 5 26 4 27 3 28 2 29 1 30
REMARK H PARENT
REMARK Flexibility Score: inf
ROOT
ATOM      1  C   UNL     1      -4.227  10.243 -10.681  1.00  0.00     0.000 C 
ENDROOT
BRANCH   1   2
ATOM      2  C   UNL     1      -3.852   8.797 -10.290  1.00  0.00     0.000 C 
BRANCH   2   3
ATOM      3  C   UNL     1      -4.889   7.772 -10.777  1.00  0.00     0.000 C 
BRANCH   3   4
ATOM      4  C   UNL     1      -6.098   7.693  -9.827  1.00  0.00     0.000 C 
BRANCH   4   5
ATOM      5  C   UNL     1      -5.702   7.838  -8.349  1.00  0.00     0.000 C 
BRANCH   5   6
ATOM      6  C   UNL     1      -6.715   8.670  -7.548  1.00  0.00     0.000 C 
BRANCH   6   7
ATOM      7  C   UNL     1      -6.159  10.069  -7.244  1.00  0.00     0.000 C 
BRANCH   7   8
ATOM      8  C   UNL     1      -4.954  10.036  -6.288  1.00  0.00     0.000 C 
BRANCH   8   9
ATOM      9  C   UNL     1      -5.271   9.564  -4.854  1.00  0.00     0.000 C 
BRANCH   9  10
ATOM     10  C   UNL     1      -4.241   8.597  -4.245  1.00  0.00     0.000 C 
BRANCH  10  11
ATOM     11  C   UNL     1      -4.812   7.192  -4.001  1.00  0.00     0.000 C 
BRANCH  11  12
ATOM     12  C   UNL     1      -3.918   6.393  -3.041  1.00  0.00     0.006 C 
BRANCH  12  13
ATOM     13  C   UNL     1      -2.426   6.570  -3.355  1.00  0.00     0.053 C 
BRANCH  13  14
ATOM     14  C   UNL     1      -1.833   5.324  -3.939  1.00  0.00     0.041 C 
ATOM     15  O   UNL     1      -0.650   4.993  -3.660  1.00  0.00    -0.550 OA
ATOM     16  O   UNL     1      -2.602   4.505  -4.757  1.00  0.00    -0.550 OA
ENDBRANCH  13  14
ENDBRANCH  12  13
ENDBRANCH  11  12
ENDBRANCH  10  11
ENDBRANCH   9  10
ENDBRANCH   8   9
ENDBRANCH   7   8
ENDBRANCH   6   7
ENDBRANCH   5   6
ENDBRANCH   4   5
ENDBRANCH   3   4
ENDBRANCH   2   3
ENDBRANCH   1   2
BRANCH   1  17
ATOM     17  C   UNL     1      -3.762  11.275  -9.642  1.00  0.00     0.000 C 
BRANCH  17  18
ATOM     18  C   UNL     1      -2.481  10.815  -8.922  1.00  0.00     0.000 C 
BRANCH  18  19
ATOM     19  C   UNL     1      -1.723  11.973  -8.255  1.00  0.00     0.000 C 
BRANCH  19  20
ATOM     20  C   UNL     1      -2.648  12.900  -7.447  1.00  0.00     0.000 C 
BRANCH  20  21
ATOM     21  C   UNL     1      -2.112  13.168  -6.030  1.00  0.00     0.000 C 
BRANCH  21  22
ATOM     22  C   UNL     1      -2.664  12.170  -5.001  1.00  0.00    -0.000 C 
BRANCH  22  23
ATOM     23  C   UNL     1      -1.529  11.373  -4.343  1.00  0.00    -0.000 C 
BRANCH  23  24
ATOM     24  C   UNL     1      -0.354  12.262  -3.898  1.00  0.00    -0.000 C 
BRANCH  24  25
ATOM     25  C   UNL     1       1.032  11.827  -4.417  1.00  0.00    -0.000 C 
BRANCH  25  26
ATOM     26  C   UNL     1       1.621  12.717  -5.528  1.00  0.00    -0.000 C 
BRANCH  26  27
ATOM     27  C   UNL     1       1.640  12.026  -6.899  1.00  0.00    -0.000 C 
BRANCH  27  28
ATOM     28  C   UNL     1       1.158  10.572  -6.785  1.00  0.00    -0.000 C 
BRANCH  28  29
ATOM     29  C   UNL     1       1.523   9.731  -8.016  1.00  0.00    -0.003 C 
ATOM     30  C   UNL     1       2.887  10.100  -8.599  1.00  0.00     0.004 C 
ENDBRANCH  28  29
ENDBRANCH  27  28
ENDBRANCH  26  27
ENDBRANCH  25  26
ENDBRANCH  24  25
ENDBRANCH  23  24
ENDBRANCH  22  23
ENDBRANCH  21  22
ENDBRANCH  20  21
ENDBRANCH  19  20
ENDBRANCH  18  19
ENDBRANCH  17  18
ENDBRANCH   1  17
TORSDOF 26
ENDMDL
MODEL 2
REMARK VINA RESULT:    -4.809      1.221      2.107
REMARK INTER + INTRA:         -16.340
REMARK INTER:                 -12.519
REMARK INTRA:                  -3.821
REMARK UNBOUND:                -4.222
REMARK SMILES CCCCCCCCCCCCCCCCCCCCCCCCCCCC(=O)[O-]
REMARK SMILES IDX 15 1 16 2 17 3 18 4 19 5 20 6 21 7 22 8 23 9 24 10 25 11
REMARK SMILES IDX 26 12 27 13 28 14 29 15 30 16 14 17 13 18 12 19 11 20 10 21
REMARK SMILES IDX 9 22 8 23 7 24 6 25 5 26 4 27 3 28 2 29 1 30
REMARK H PARENT
REMARK Flexibility Score: inf
ROOT
ATOM      1  C   UNL     1      -3.217  11.099  -8.357  1.00  0.00     0.000 C 
ENDROOT
BRANCH   1   2
ATOM      2  C   UNL     1      -3.020  10.790  -9.858  1.00  0.00     0.000 C 
BRANCH   2   3
ATOM      3  C   UNL     1      -4.203  10.012 -10.456  1.00  0.00     0.000 C 
BRANCH   3   4
ATOM      4  C   UNL     1      -5.427  10.921 -10.671  1.00  0.00     0.000 C 
BRANCH   4   5
ATOM      5  C   UNL     1      -6.693  10.386  -9.983  1.00  0.00     0.000 C 
BRANCH   5   6
ATOM      6  C   UNL     1      -6.502   8.970  -9.419  1.00  0.00     0.000 C 
BRANCH   6   7
ATOM      7  C   UNL     1      -6.946   8.898  -7.951  1.00  0.00     0.000 C 
BRANCH   7   8
ATOM      8  C   UNL     1      -5.789   8.563  -6.995  1.00  0.00     0.000 C 
BRANCH   8   9
ATOM      9  C   UNL     1      -6.182   8.450  -5.507  1.00  0.00     0.000 C 
BRANCH   9  10
ATOM     10  C   UNL     1      -5.028   8.093  -4.555  1.00  0.00     0.000 C 
BRANCH  10  11
ATOM     11  C   UNL     1      -4.792   6.579  -4.445  1.00  0.00     0.000 C 
BRANCH  11  12
ATOM     12  C   UNL     1      -3.887   6.247  -3.250  1.00  0.00     0.006 C 
BRANCH  12  13
ATOM     13  C   UNL     1      -2.400   6.458  -3.572  1.00  0.00     0.053 C 
BRANCH  13  14
ATOM     14  C   UNL     1      -1.747   5.189  -4.027  1.00  0.00     0.041 C 
ATOM     15  O   UNL     1      -2.448   4.222  -4.427  1.00  0.00    -0.550 OA
ATOM     16  O   UNL     1      -0.361   5.090  -4.050  1.00  0.00    -0.550 OA
ENDBRANCH  13  14
ENDBRANCH  12  13
ENDBRANCH  11  12
ENDBRANCH  10  11
ENDBRANCH   9  10
ENDBRANCH   8   9
ENDBRANCH   7   8
ENDBRANCH   6   7
ENDBRANCH   5   6
ENDBRANCH   4   5
ENDBRANCH   3   4
ENDBRANCH   2   3
ENDBRANCH   1   2
BRANCH   1  17
ATOM     17  C   UNL     1      -3.115  12.599  -8.044  1.00  0.00     0.000 C 
BRANCH  17  18
ATOM     18  C   UNL     1      -4.425  13.143  -7.446  1.00  0.00     0.000 C 
BRANCH  18  19
ATOM     19  C   UNL     1      -5.251  12.061  -6.734  1.00  0.00     0.000 C 
BRANCH  19  20
ATOM     20  C   UNL     1      -5.031  12.055  -5.210  1.00  0.00     0.000 C 
BRANCH  20  21
ATOM     21  C   UNL     1      -3.608  11.611  -4.828  1.00  0.00     0.000 C 
BRANCH  21  22
ATOM     22  C   UNL     1      -3.025  12.450  -3.682  1.00  0.00    -0.000 C 
BRANCH  22  23
ATOM     23  C   UNL     1      -1.579  12.867  -3.985  1.00  0.00    -0.000 C 
BRANCH  23  24
ATOM     24  C   UNL     1      -0.973  12.105  -5.177  1.00  0.00    -0.000 C 
BRANCH  24  25
ATOM     25  C   UNL     1      -0.003  12.922  -6.055  1.00  0.00    -0.000 C 
BRANCH  25  26
ATOM     26  C   UNL     1       1.093  12.098  -6.755  1.00  0.00    -0.000 C 
BRANCH  26  27
ATOM     27  C   UNL     1       0.526  10.994  -7.658  1.00  0.00    -0.000 C 
BRANCH  27  28
ATOM     28  C   UNL     1       1.507   9.818  -7.766  1.00  0.00    -0.000 C 
BRANCH  28  29
ATOM     29  C   UNL     1       2.908  10.258  -8.214  1.00  0.00    -0.003 C 
ATOM     30  C   UNL     1       3.359   9.569  -9.502  1.00  0.00     0.004 C 
ENDBRANCH  28  29
ENDBRANCH  27  28
ENDBRANCH  26  27
ENDBRANCH  25  26
ENDBRANCH  24  25
ENDBRANCH  23  24
ENDBRANCH  22  23
ENDBRANCH  21  22
ENDBRANCH  20  21
ENDBRANCH  19  20
ENDBRANCH  18  19
ENDBRANCH  17  18
ENDBRANCH   1  17
TORSDOF 26
ENDMDL
MODEL 3
REMARK VINA RESULT:    -4.750      1.554      3.256
REMARK INTER + INTRA:         -16.192
REMARK INTER:                 -11.598
REMARK INTRA:                  -4.594
REMARK UNBOUND:                -4.222
REMARK SMILES CCCCCCCCCCCCCCCCCCCCCCCCCCCC(=O)[O-]
REMARK SMILES IDX 15 1 16 2 17 3 18 4 19 5 20 6 21 7 22 8 23 9 24 10 25 11
REMARK SMILES IDX 26 12 27 13 28 14 29 15 30 16 14 17 13 18 12 19 11 20 10 21
REMARK SMILES IDX 9 22 8 23 7 24 6 25 5 26 4 27 3 28 2 29 1 30
REMARK H PARENT
REMARK Flexibility Score: inf
ROOT
ATOM      1  C   UNL     1      -3.325  12.366  -7.418  1.00  0.00     0.000 C 
ENDROOT
BRANCH   1   2
ATOM      2  C   UNL     1      -4.120  12.590  -8.723  1.00  0.00     0.000 C 
BRANCH   2   3
ATOM      3  C   UNL     1      -5.485  11.883  -8.705  1.00  0.00     0.000 C 
BRANCH   3   4
ATOM      4  C   UNL     1      -5.779  11.186 -10.045  1.00  0.00     0.000 C 
BRANCH   4   5
ATOM      5  C   UNL     1      -4.514  10.629 -10.716  1.00  0.00     0.000 C 
BRANCH   5   6
ATOM      6  C   UNL     1      -4.150   9.224 -10.211  1.00  0.00     0.000 C 
BRANCH   6   7
ATOM      7  C   UNL     1      -5.303   8.238 -10.447  1.00  0.00     0.000 C 
BRANCH   7   8
ATOM      8  C   UNL     1      -5.695   7.464  -9.177  1.00  0.00     0.000 C 
BRANCH   8   9
ATOM      9  C   UNL     1      -6.483   8.279  -8.132  1.00  0.00     0.000 C 
BRANCH   9  10
ATOM     10  C   UNL     1      -5.687   8.670  -6.875  1.00  0.00     0.000 C 
BRANCH  10  11
ATOM     11  C   UNL     1      -6.570   9.269  -5.771  1.00  0.00     0.000 C 
BRANCH  11  12
ATOM     12  C   UNL     1      -6.230   8.661  -4.402  1.00  0.00     0.006 C 
BRANCH  12  13
ATOM     13  C   UNL     1      -5.870   7.172  -4.502  1.00  0.00     0.053 C 
BRANCH  13  14
ATOM     14  C   UNL     1      -4.480   6.905  -4.012  1.00  0.00     0.041 C 
ATOM     15  O   UNL     1      -3.989   5.748  -4.093  1.00  0.00    -0.550 OA
ATOM     16  O   UNL     1      -3.709   7.945  -3.506  1.00  0.00    -0.550 OA
ENDBRANCH  13  14
ENDBRANCH  12  13
ENDBRANCH  11  12
ENDBRANCH  10  11
ENDBRANCH   9  10
ENDBRANCH   8   9
ENDBRANCH   7   8
ENDBRANCH   6   7
ENDBRANCH   5   6
ENDBRANCH   4   5
ENDBRANCH   3   4
ENDBRANCH   2   3
ENDBRANCH   1   2
BRANCH   1  17
ATOM     17  C   UNL     1      -2.903  10.900  -7.227  1.00  0.00     0.000 C 
BRANCH  17  18
ATOM     18  C   UNL     1      -2.782  10.536  -5.736  1.00  0.00     0.000 C 
BRANCH  18  19
ATOM     19  C   UNL     1      -3.621  11.448  -4.828  1.00  0.00     0.000 C 
BRANCH  19  20
ATOM     20  C   UNL     1      -3.104  11.480  -3.379  1.00  0.00     0.000 C 
BRANCH  20  21
ATOM     21  C   UNL     1      -2.438  12.821  -3.027  1.00  0.00     0.000 C 
BRANCH  21  22
ATOM     22  C   UNL     1      -0.984  12.896  -3.519  1.00  0.00    -0.000 C 
BRANCH  22  23
ATOM     23  C   UNL     1      -0.844  13.898  -4.674  1.00  0.00    -0.000 C 
BRANCH  23  24
ATOM     24  C   UNL     1       0.412  13.652  -5.530  1.00  0.00    -0.000 C 
BRANCH  24  25
ATOM     25  C   UNL     1       0.545  12.228  -6.106  1.00  0.00    -0.000 C 
BRANCH  25  26
ATOM     26  C   UNL     1       0.411  12.129  -7.637  1.00  0.00    -0.000 C 
BRANCH  26  27
ATOM     27  C   UNL     1       0.478  10.683  -8.149  1.00  0.00    -0.000 C 
BRANCH  27  28
ATOM     28  C   UNL     1       1.630   9.919  -7.480  1.00  0.00    -0.000 C 
BRANCH  28  29
ATOM     29  C   UNL     1       2.997  10.260  -8.090  1.00  0.00    -0.003 C 
ATOM     30  C   UNL     1       3.243   9.548  -9.421  1.00  0.00     0.004 C 
ENDBRANCH  28  29
ENDBRANCH  27  28
ENDBRANCH  26  27
ENDBRANCH  25  26
ENDBRANCH  24  25
ENDBRANCH  23  24
ENDBRANCH  22  23
ENDBRANCH  21  22
ENDBRANCH  20  21
ENDBRANCH  19  20
ENDBRANCH  18  19
ENDBRANCH  17  18
ENDBRANCH   1  17
TORSDOF 26
ENDMDL
MODEL 4
REMARK VINA RESULT:    -4.745      2.833      4.074
REMARK INTER + INTRA:         -16.180
REMARK INTER:                 -11.451
REMARK INTRA:                  -4.729
REMARK UNBOUND:                -4.222
REMARK SMILES CCCCCCCCCCCCCCCCCCCCCCCCCCCC(=O)[O-]
REMARK SMILES IDX 15 1 16 2 17 3 18 4 19 5 20 6 21 7 22 8 23 9 24 10 25 11
REMARK SMILES IDX 26 12 27 13 28 14 29 15 30 16 14 17 13 18 12 19 11 20 10 21
REMARK SMILES IDX 9 22 8 23 7 24 6 25 5 26 4 27 3 28 2 29 1 30
REMARK H PARENT
REMARK Flexibility Score: inf
ROOT
ATOM      1  C   UNL     1      -2.607  12.036  -8.804  1.00  0.00     0.000 C 
ENDROOT
BRANCH   1   2
ATOM      2  C   UNL     1      -3.631  10.927  -9.128  1.00  0.00     0.000 C 
BRANCH   2   3
ATOM      3  C   UNL     1      -4.951  11.491  -9.676  1.00  0.00     0.000 C 
BRANCH   3   4
ATOM      4  C   UNL     1      -5.402  12.738  -8.894  1.00  0.00     0.000 C 
BRANCH   4   5
ATOM      5  C   UNL     1      -6.738  12.532  -8.164  1.00  0.00     0.000 C 
BRANCH   5   6
ATOM      6  C   UNL     1      -6.926  13.509  -6.994  1.00  0.00     0.000 C 
BRANCH   6   7
ATOM      7  C   UNL     1      -6.874  12.772  -5.648  1.00  0.00     0.000 C 
BRANCH   7   8
ATOM      8  C   UNL     1      -5.718  11.760  -5.567  1.00  0.00     0.000 C 
BRANCH   8   9
ATOM      9  C   UNL     1      -6.087  10.395  -4.950  1.00  0.00     0.000 C 
BRANCH   9  10
ATOM     10  C   UNL     1      -5.728   9.173  -5.813  1.00  0.00     0.000 C 
BRANCH  10  11
ATOM     11  C   UNL     1      -6.547   9.098  -7.111  1.00  0.00     0.000 C 
BRANCH  11  12
ATOM     12  C   UNL     1      -5.843   8.222  -8.157  1.00  0.00     0.006 C 
BRANCH  12  13
ATOM     13  C   UNL     1      -6.682   8.054  -9.432  1.00  0.00     0.053 C 
BRANCH  13  14
ATOM     14  C   UNL     1      -6.073   7.055 -10.368  1.00  0.00     0.041 C 
ATOM     15  O   UNL     1      -5.111   7.384 -11.110  1.00  0.00    -0.550 OA
ATOM     16  O   UNL     1      -6.541   5.746 -10.387  1.00  0.00    -0.550 OA
ENDBRANCH  13  14
ENDBRANCH  12  13
ENDBRANCH  11  12
ENDBRANCH  10  11
ENDBRANCH   9  10
ENDBRANCH   8   9
ENDBRANCH   7   8
ENDBRANCH   6   7
ENDBRANCH   5   6
ENDBRANCH   4   5
ENDBRANCH   3   4
ENDBRANCH   2   3
ENDBRANCH   1   2
BRANCH   1  17
ATOM     17  C   UNL     1      -2.266  12.107  -7.307  1.00  0.00     0.000 C 
BRANCH  17  18
ATOM     18  C   UNL     1      -2.513  10.760  -6.606  1.00  0.00     0.000 C 
BRANCH  18  19
ATOM     19  C   UNL     1      -1.667  10.583  -5.336  1.00  0.00     0.000 C 
BRANCH  19  20
ATOM     20  C   UNL     1      -2.458  10.888  -4.051  1.00  0.00     0.000 C 
BRANCH  20  21
ATOM     21  C   UNL     1      -2.435  12.384  -3.692  1.00  0.00     0.000 C 
BRANCH  21  22
ATOM     22  C   UNL     1      -1.005  12.913  -3.500  1.00  0.00    -0.000 C 
BRANCH  22  23
ATOM     23  C   UNL     1      -0.697  14.040  -4.497  1.00  0.00    -0.000 C 
BRANCH  23  24
ATOM     24  C   UNL     1       0.483  13.708  -5.428  1.00  0.00    -0.000 C 
BRANCH  24  25
ATOM     25  C   UNL     1       1.505  12.701  -4.860  1.00  0.00    -0.000 C 
BRANCH  25  26
ATOM     26  C   UNL     1       1.874  11.544  -5.807  1.00  0.00    -0.000 C 
BRANCH  26  27
ATOM     27  C   UNL     1       1.280  11.710  -7.213  1.00  0.00    -0.000 C 
BRANCH  27  28
ATOM     28  C   UNL     1       1.590  10.484  -8.084  1.00  0.00    -0.000 C 
BRANCH  28  29
ATOM     29  C   UNL     1       3.092  10.319  -8.356  1.00  0.00    -0.003 C 
ATOM     30  C   UNL     1       3.377   9.482  -9.604  1.00  0.00     0.004 C 
ENDBRANCH  28  29
ENDBRANCH  27  28
ENDBRANCH  26  27
ENDBRANCH  25  26
ENDBRANCH  24  25
ENDBRANCH  23  24
ENDBRANCH  22  23
ENDBRANCH  21  22
ENDBRANCH  20  21
ENDBRANCH  19  20
ENDBRANCH  18  19
ENDBRANCH  17  18
ENDBRANCH   1  17
TORSDOF 26
ENDMDL
MODEL 5
REMARK VINA RESULT:    -4.590      1.972      6.546
REMARK INTER + INTRA:         -15.788
REMARK INTER:                 -11.489
REMARK INTRA:                  -4.299
REMARK UNBOUND:                -4.222
REMARK SMILES CCCCCCCCCCCCCCCCCCCCCCCCCCCC(=O)[O-]
REMARK SMILES IDX 15 1 16 2 17 3 18 4 19 5 20 6 21 7 22 8 23 9 24 10 25 11
REMARK SMILES IDX 26 12 27 13 28 14 29 15 30 16 14 17 13 18 12 19 11 20 10 21
REMARK SMILES IDX 9 22 8 23 7 24 6 25 5 26 4 27 3 28 2 29 1 30
REMARK H PARENT
REMARK Flexibility Score: inf
ROOT
ATOM      1  C   UNL     1      -1.116  11.136  -7.252  1.00  0.00     0.000 C 
ENDROOT
BRANCH   1   2
ATOM      2  C   UNL     1      -0.088  10.395  -8.136  1.00  0.00     0.000 C 
BRANCH   2   3
ATOM      3  C   UNL     1       1.166   9.979  -7.350  1.00  0.00     0.000 C 
BRANCH   3   4
ATOM      4  C   UNL     1       2.283  11.031  -7.469  1.00  0.00     0.000 C 
BRANCH   4   5
ATOM      5  C   UNL     1       2.848  11.454  -6.104  1.00  0.00     0.000 C 
BRANCH   5   6
ATOM      6  C   UNL     1       1.954  12.479  -5.389  1.00  0.00     0.000 C 
BRANCH   6   7
ATOM      7  C   UNL     1       1.260  11.848  -4.174  1.00  0.00     0.000 C 
BRANCH   7   8
ATOM      8  C   UNL     1      -0.139  12.437  -3.916  1.00  0.00     0.000 C 
BRANCH   8   9
ATOM      9  C   UNL     1      -1.222  11.406  -3.538  1.00  0.00     0.000 C 
BRANCH   9  10
ATOM     10  C   UNL     1      -2.662  11.946  -3.540  1.00  0.00     0.000 C 
BRANCH  10  11
ATOM     11  C   UNL     1      -3.713  10.841  -3.725  1.00  0.00     0.000 C 
BRANCH  11  12
ATOM     12  C   UNL     1      -3.103   9.607  -4.404  1.00  0.00     0.006 C 
BRANCH  12  13
ATOM     13  C   UNL     1      -3.539   8.298  -3.730  1.00  0.00     0.053 C 
BRANCH  13  14
ATOM     14  C   UNL     1      -4.949   7.936  -4.084  1.00  0.00     0.041 C 
ATOM     15  O   UNL     1      -5.377   8.120  -5.254  1.00  0.00    -0.550 OA
ATOM     16  O   UNL     1      -5.777   7.354  -3.131  1.00  0.00    -0.550 OA
ENDBRANCH  13  14
ENDBRANCH  12  13
ENDBRANCH  11  12
ENDBRANCH  10  11
ENDBRANCH   9  10
ENDBRANCH   8   9
ENDBRANCH   7   8
ENDBRANCH   6   7
ENDBRANCH   5   6
ENDBRANCH   4   5
ENDBRANCH   3   4
ENDBRANCH   2   3
ENDBRANCH   1   2
BRANCH   1  17
ATOM     17  C   UNL     1      -1.174  12.642  -7.549  1.00  0.00     0.000 C 
BRANCH  17  18
ATOM     18  C   UNL     1      -2.504  13.260  -7.083  1.00  0.00     0.000 C 
BRANCH  18  19
ATOM     19  C   UNL     1      -3.685  12.284  -7.188  1.00  0.00     0.000 C 
BRANCH  19  20
ATOM     20  C   UNL     1      -5.048  13.000  -7.186  1.00  0.00     0.000 C 
BRANCH  20  21
ATOM     21  C   UNL     1      -5.756  12.911  -8.549  1.00  0.00     0.000 C 
BRANCH  21  22
ATOM     22  C   UNL     1      -6.143  11.469  -8.910  1.00  0.00    -0.000 C 
BRANCH  22  23
ATOM     23  C   UNL     1      -5.855  11.175 -10.389  1.00  0.00    -0.000 C 
BRANCH  23  24
ATOM     24  C   UNL     1      -4.449  10.592 -10.620  1.00  0.00    -0.000 C 
BRANCH  24  25
ATOM     25  C   UNL     1      -3.943   9.640  -9.517  1.00  0.00    -0.000 C 
BRANCH  25  26
ATOM     26  C   UNL     1      -4.172   8.143  -9.793  1.00  0.00    -0.000 C 
BRANCH  26  27
ATOM     27  C   UNL     1      -5.368   7.569  -9.021  1.00  0.00    -0.000 C 
BRANCH  27  28
ATOM     28  C   UNL     1      -6.323   6.826  -9.967  1.00  0.00    -0.000 C 
BRANCH  28  29
ATOM     29  C   UNL     1      -5.650   6.421 -11.286  1.00  0.00    -0.003 C 
ATOM     30  C   UNL     1      -6.223   5.129 -11.868  1.00  0.00     0.004 C 
ENDBRANCH  28  29
ENDBRANCH  27  28
ENDBRANCH  26  27
ENDBRANCH  25  26
ENDBRANCH  24  25
ENDBRANCH  23  24
ENDBRANCH  22  23
ENDBRANCH  21  22
ENDBRANCH  20  21
ENDBRANCH  19  20
ENDBRANCH  18  19
ENDBRANCH  17  18
ENDBRANCH   1  17
TORSDOF 26
ENDMDL
MODEL 6
REMARK VINA RESULT:    -4.588      2.372      6.906
REMARK INTER + INTRA:         -15.783
REMARK INTER:                 -11.378
REMARK INTRA:                  -4.405
REMARK UNBOUND:                -4.222
REMARK SMILES CCCCCCCCCCCCCCCCCCCCCCCCCCCC(=O)[O-]
REMARK SMILES IDX 15 1 16 2 17 3 18 4 19 5 20 6 21 7 22 8 23 9 24 10 25 11
REMARK SMILES IDX 26 12 27 13 28 14 29 15 30 16 14 17 13 18 12 19 11 20 10 21
REMARK SMILES IDX 9 22 8 23 7 24 6 25 5 26 4 27 3 28 2 29 1 30
REMARK H PARENT
REMARK Flexibility Score: inf
ROOT
ATOM      1  C   UNL     1       0.196  13.723  -5.467  1.00  0.00     0.000 C 
ENDROOT
BRANCH   1   2
ATOM      2  C   UNL     1       1.625  13.251  -5.120  1.00  0.00     0.000 C 
BRANCH   2   3
ATOM      3  C   UNL     1       1.962  11.890  -5.749  1.00  0.00     0.000 C 
BRANCH   3   4
ATOM      4  C   UNL     1       0.689  11.085  -6.072  1.00  0.00     0.000 C 
BRANCH   4   5
ATOM      5  C   UNL     1       0.702  10.496  -7.490  1.00  0.00     0.000 C 
BRANCH   5   6
ATOM      6  C   UNL     1      -0.403  11.083  -8.381  1.00  0.00     0.000 C 
BRANCH   6   7
ATOM      7  C   UNL     1      -1.681  11.345  -7.572  1.00  0.00     0.000 C 
BRANCH   7   8
ATOM      8  C   UNL     1      -2.332  12.698  -7.909  1.00  0.00     0.000 C 
BRANCH   8   9
ATOM      9  C   UNL     1      -3.789  12.859  -7.431  1.00  0.00     0.000 C 
BRANCH   9  10
ATOM     10  C   UNL     1      -4.831  12.994  -8.555  1.00  0.00     0.000 C 
BRANCH  10  11
ATOM     11  C   UNL     1      -5.997  12.004  -8.410  1.00  0.00     0.000 C 
BRANCH  11  12
ATOM     12  C   UNL     1      -6.342  11.357  -9.758  1.00  0.00     0.006 C 
BRANCH  12  13
ATOM     13  C   UNL     1      -5.090  10.891 -10.515  1.00  0.00     0.053 C 
BRANCH  13  14
ATOM     14  C   UNL     1      -4.753   9.465 -10.204  1.00  0.00     0.041 C 
ATOM     15  O   UNL     1      -5.576   8.548 -10.462  1.00  0.00    -0.550 OA
ATOM     16  O   UNL     1      -3.510   9.145  -9.670  1.00  0.00    -0.550 OA
ENDBRANCH  13  14
ENDBRANCH  12  13
ENDBRANCH  11  12
ENDBRANCH  10  11
ENDBRANCH   9  10
ENDBRANCH   8   9
ENDBRANCH   7   8
ENDBRANCH   6   7
ENDBRANCH   5   6
ENDBRANCH   4   5
ENDBRANCH   3   4
ENDBRANCH   2   3
ENDBRANCH   1   2
BRANCH   1  17
ATOM     17  C   UNL     1      -0.633  14.066  -4.220  1.00  0.00     0.000 C 
BRANCH  17  18
ATOM     18  C   UNL     1      -1.921  13.226  -4.147  1.00  0.00     0.000 C 
BRANCH  18  19
ATOM     19  C   UNL     1      -1.666  11.783  -3.686  1.00  0.00     0.000 C 
BRANCH  19  20
ATOM     20  C   UNL     1      -2.818  10.831  -4.056  1.00  0.00     0.000 C 
BRANCH  20  21
ATOM     21  C   UNL     1      -4.182  11.542  -4.062  1.00  0.00     0.000 C 
BRANCH  21  22
ATOM     22  C   UNL     1      -5.273  10.701  -4.743  1.00  0.00    -0.000 C 
BRANCH  22  23
ATOM     23  C   UNL     1      -4.656   9.650  -5.676  1.00  0.00    -0.000 C 
BRANCH  23  24
ATOM     24  C   UNL     1      -5.518   8.381  -5.802  1.00  0.00    -0.000 C 
BRANCH  24  25
ATOM     25  C   UNL     1      -5.757   7.616  -4.484  1.00  0.00    -0.000 C 
BRANCH  25  26
ATOM     26  C   UNL     1      -4.495   7.368  -3.637  1.00  0.00    -0.000 C 
BRANCH  26  27
ATOM     27  C   UNL     1      -3.867   5.991  -3.890  1.00  0.00    -0.000 C 
BRANCH  27  28
ATOM     28  C   UNL     1      -2.342   6.046  -3.717  1.00  0.00    -0.000 C 
BRANCH  28  29
ATOM     29  C   UNL     1      -1.642   4.789  -4.252  1.00  0.00    -0.003 C 
ATOM     30  C   UNL     1      -0.144   4.771  -3.943  1.00  0.00     0.004 C 
ENDBRANCH  28  29
ENDBRANCH  27  28
ENDBRANCH  26  27
ENDBRANCH  25  26
ENDBRANCH  24  25
ENDBRANCH  23  24
ENDBRANCH  22  23
ENDBRANCH  21  22
ENDBRANCH  20  21
ENDBRANCH  19  20
ENDBRANCH  18  19
ENDBRANCH  17  18
ENDBRANCH   1  17
TORSDOF 26
ENDMDL
MODEL 7
REMARK VINA RESULT:    -4.545      2.137      4.093
REMARK INTER + INTRA:         -15.676
REMARK INTER:                 -11.524
REMARK INTRA:                  -4.152
REMARK UNBOUND:                -4.222
REMARK SMILES CCCCCCCCCCCCCCCCCCCCCCCCCCCC(=O)[O-]
REMARK SMILES IDX 15 1 16 2 17 3 18 4 19 5 20 6 21 7 22 8 23 9 24 10 25 11
REMARK SMILES IDX 26 12 27 13 28 14 29 15 30 16 14 17 13 18 12 19 11 20 10 21
REMARK SMILES IDX 9 22 8 23 7 24 6 25 5 26 4 27 3 28 2 29 1 30
REMARK H PARENT
REMARK Flexibility Score: inf
ROOT
ATOM      1  C   UNL     1      -6.087  12.124  -5.986  1.00  0.00     0.000 C 
ENDROOT
BRANCH   1   2
ATOM      2  C   UNL     1      -6.119  13.252  -7.041  1.00  0.00     0.000 C 
BRANCH   2   3
ATOM      3  C   UNL     1      -6.692  12.778  -8.386  1.00  0.00     0.000 C 
BRANCH   3   4
ATOM      4  C   UNL     1      -5.785  11.726  -9.049  1.00  0.00     0.000 C 
BRANCH   4   5
ATOM      5  C   UNL     1      -4.329  12.197  -9.185  1.00  0.00     0.000 C 
BRANCH   5   6
ATOM      6  C   UNL     1      -3.400  11.092  -9.709  1.00  0.00     0.000 C 
BRANCH   6   7
ATOM      7  C   UNL     1      -4.170  10.096 -10.588  1.00  0.00     0.000 C 
BRANCH   7   8
ATOM      8  C   UNL     1      -3.723   8.640 -10.369  1.00  0.00     0.000 C 
BRANCH   8   9
ATOM      9  C   UNL     1      -4.863   7.644 -10.070  1.00  0.00     0.000 C 
BRANCH   9  10
ATOM     10  C   UNL     1      -6.275   8.253 -10.076  1.00  0.00     0.000 C 
BRANCH  10  11
ATOM     11  C   UNL     1      -6.962   8.180  -8.704  1.00  0.00     0.000 C 
BRANCH  11  12
ATOM     12  C   UNL     1      -5.927   8.161  -7.570  1.00  0.00     0.006 C 
BRANCH  12  13
ATOM     13  C   UNL     1      -6.455   8.827  -6.291  1.00  0.00     0.053 C 
BRANCH  13  14
ATOM     14  C   UNL     1      -5.962   8.131  -5.060  1.00  0.00     0.041 C 
ATOM     15  O   UNL     1      -5.393   7.011  -5.148  1.00  0.00    -0.550 OA
ATOM     16  O   UNL     1      -6.093   8.741  -3.817  1.00  0.00    -0.550 OA
ENDBRANCH  13  14
ENDBRANCH  12  13
ENDBRANCH  11  12
ENDBRANCH  10  11
ENDBRANCH   9  10
ENDBRANCH   8   9
ENDBRANCH   7   8
ENDBRANCH   6   7
ENDBRANCH   5   6
ENDBRANCH   4   5
ENDBRANCH   3   4
ENDBRANCH   2   3
ENDBRANCH   1   2
BRANCH   1  17
ATOM     17  C   UNL     1      -4.897  12.250  -5.022  1.00  0.00     0.000 C 
BRANCH  17  18
ATOM     18  C   UNL     1      -3.821  11.188  -5.309  1.00  0.00     0.000 C 
BRANCH  18  19
ATOM     19  C   UNL     1      -2.662  11.727  -6.160  1.00  0.00     0.000 C 
BRANCH  19  20
ATOM     20  C   UNL     1      -2.638  13.265  -6.223  1.00  0.00     0.000 C 
BRANCH  20  21
ATOM     21  C   UNL     1      -1.213  13.819  -6.390  1.00  0.00     0.000 C 
BRANCH  21  22
ATOM     22  C   UNL     1      -0.694  14.485  -5.106  1.00  0.00    -0.000 C 
BRANCH  22  23
ATOM     23  C   UNL     1      -0.738  13.508  -3.922  1.00  0.00    -0.000 C 
BRANCH  23  24
ATOM     24  C   UNL     1       0.494  12.587  -3.862  1.00  0.00    -0.000 C 
BRANCH  24  25
ATOM     25  C   UNL     1       1.729  13.089  -4.639  1.00  0.00    -0.000 C 
BRANCH  25  26
ATOM     26  C   UNL     1       2.157  12.204  -5.824  1.00  0.00    -0.000 C 
BRANCH  26  27
ATOM     27  C   UNL     1       1.085  11.179  -6.221  1.00  0.00    -0.000 C 
BRANCH  27  28
ATOM     28  C   UNL     1       1.006  11.035  -7.748  1.00  0.00    -0.000 C 
BRANCH  28  29
ATOM     29  C   UNL     1       1.734   9.784  -8.261  1.00  0.00    -0.003 C 
ATOM     30  C   UNL     1       3.146  10.087  -8.764  1.00  0.00     0.004 C 
ENDBRANCH  28  29
ENDBRANCH  27  28
ENDBRANCH  26  27
ENDBRANCH  25  26
ENDBRANCH  24  25
ENDBRANCH  23  24
ENDBRANCH  22  23
ENDBRANCH  21  22
ENDBRANCH  20  21
ENDBRANCH  19  20
ENDBRANCH  18  19
ENDBRANCH  17  18
ENDBRANCH   1  17
TORSDOF 26
ENDMDL
MODEL 8
REMARK VINA RESULT:    -4.541      1.881      6.436
REMARK INTER + INTRA:         -15.664
REMARK INTER:                 -11.415
REMARK INTRA:                  -4.250
REMARK UNBOUND:                -4.222
REMARK SMILES CCCCCCCCCCCCCCCCCCCCCCCCCCCC(=O)[O-]
REMARK SMILES IDX 15 1 16 2 17 3 18 4 19 5 20 6 21 7 22 8 23 9 24 10 25 11
REMARK SMILES IDX 26 12 27 13 28 14 29 15 30 16 14 17 13 18 12 19 11 20 10 21
REMARK SMILES IDX 9 22 8 23 7 24 6 25 5 26 4 27 3 28 2 29 1 30
REMARK H PARENT
REMARK Flexibility Score: inf
ROOT
ATOM      1  C   UNL     1       2.408  10.825  -6.948  1.00  0.00     0.000 C 
ENDROOT
BRANCH   1   2
ATOM      2  C   UNL     1       1.954  12.124  -6.246  1.00  0.00     0.000 C 
BRANCH   2   3
ATOM      3  C   UNL     1       1.479  11.875  -4.806  1.00  0.00     0.000 C 
BRANCH   3   4
ATOM      4  C   UNL     1       0.757  13.105  -4.227  1.00  0.00     0.000 C 
BRANCH   4   5
ATOM      5  C   UNL     1      -0.278  13.697  -5.196  1.00  0.00     0.000 C 
BRANCH   5   6
ATOM      6  C   UNL     1      -1.721  13.340  -4.807  1.00  0.00     0.000 C 
BRANCH   6   7
ATOM      7  C   UNL     1      -1.784  12.789  -3.375  1.00  0.00     0.000 C 
BRANCH   7   8
ATOM      8  C   UNL     1      -2.988  11.859  -3.147  1.00  0.00     0.000 C 
BRANCH   8   9
ATOM      9  C   UNL     1      -2.686  10.353  -3.283  1.00  0.00     0.000 C 
BRANCH   9  10
ATOM     10  C   UNL     1      -3.115   9.722  -4.619  1.00  0.00     0.000 C 
BRANCH  10  11
ATOM     11  C   UNL     1      -4.324  10.427  -5.251  1.00  0.00     0.000 C 
BRANCH  11  12
ATOM     12  C   UNL     1      -5.611   9.619  -5.029  1.00  0.00     0.006 C 
BRANCH  12  13
ATOM     13  C   UNL     1      -5.549   8.235  -5.691  1.00  0.00     0.053 C 
BRANCH  13  14
ATOM     14  C   UNL     1      -5.666   7.134  -4.683  1.00  0.00     0.041 C 
ATOM     15  O   UNL     1      -6.753   6.939  -4.078  1.00  0.00    -0.550 OA
ATOM     16  O   UNL     1      -4.585   6.293  -4.443  1.00  0.00    -0.550 OA
ENDBRANCH  13  14
ENDBRANCH  12  13
ENDBRANCH  11  12
ENDBRANCH  10  11
ENDBRANCH   9  10
ENDBRANCH   8   9
ENDBRANCH   7   8
ENDBRANCH   6   7
ENDBRANCH   5   6
ENDBRANCH   4   5
ENDBRANCH   3   4
ENDBRANCH   2   3
ENDBRANCH   1   2
BRANCH   1  17
ATOM     17  C   UNL     1       1.392  10.329  -7.988  1.00  0.00     0.000 C 
BRANCH  17  18
ATOM     18  C   UNL     1       0.198  11.292  -8.117  1.00  0.00     0.000 C 
BRANCH  18  19
ATOM     19  C   UNL     1      -1.078  10.754  -7.453  1.00  0.00     0.000 C 
BRANCH  19  20
ATOM     20  C   UNL     1      -2.305  10.830  -8.378  1.00  0.00     0.000 C 
BRANCH  20  21
ATOM     21  C   UNL     1      -2.616  12.272  -8.816  1.00  0.00     0.000 C 
BRANCH  21  22
ATOM     22  C   UNL     1      -3.624  12.958  -7.883  1.00  0.00    -0.000 C 
BRANCH  22  23
ATOM     23  C   UNL     1      -5.003  13.070  -8.548  1.00  0.00    -0.000 C 
BRANCH  23  24
ATOM     24  C   UNL     1      -5.938  11.902  -8.188  1.00  0.00    -0.000 C 
BRANCH  24  25
ATOM     25  C   UNL     1      -6.750  11.323  -9.365  1.00  0.00    -0.000 C 
BRANCH  25  26
ATOM     26  C   UNL     1      -5.906  10.776 -10.531  1.00  0.00    -0.000 C 
BRANCH  26  27
ATOM     27  C   UNL     1      -5.322   9.385 -10.245  1.00  0.00    -0.000 C 
BRANCH  27  28
ATOM     28  C   UNL     1      -6.378   8.471  -9.605  1.00  0.00    -0.000 C 
BRANCH  28  29
ATOM     29  C   UNL     1      -6.296   7.026 -10.119  1.00  0.00    -0.003 C 
ATOM     30  C   UNL     1      -5.203   6.835 -11.171  1.00  0.00     0.004 C 
ENDBRANCH  28  29
ENDBRANCH  27  28
ENDBRANCH  26  27
ENDBRANCH  25  26
ENDBRANCH  24  25
ENDBRANCH  23  24
ENDBRANCH  22  23
ENDBRANCH  21  22
ENDBRANCH  20  21
ENDBRANCH  19  20
ENDBRANCH  18  19
ENDBRANCH  17  18
ENDBRANCH   1  17
TORSDOF 26
ENDMDL
MODEL 9
REMARK VINA RESULT:    -4.538      2.287      6.339
REMARK INTER + INTRA:         -15.657
REMARK INTER:                 -12.137
REMARK INTRA:                  -3.520
REMARK UNBOUND:                -4.222
REMARK SMILES CCCCCCCCCCCCCCCCCCCCCCCCCCCC(=O)[O-]
REMARK SMILES IDX 15 1 16 2 17 3 18 4 19 5 20 6 21 7 22 8 23 9 24 10 25 11
REMARK SMILES IDX 26 12 27 13 28 14 29 15 30 16 14 17 13 18 12 19 11 20 10 21
REMARK SMILES IDX 9 22 8 23 7 24 6 25 5 26 4 27 3 28 2 29 1 30
REMARK H PARENT
REMARK Flexibility Score: inf
ROOT
ATOM      1  C   UNL     1       2.901  11.323  -6.188  1.00  0.00     0.000 C 
ENDROOT
BRANCH   1   2
ATOM      2  C   UNL     1       2.219  10.281  -7.102  1.00  0.00     0.000 C 
BRANCH   2   3
ATOM      3  C   UNL     1       1.292  10.931  -8.141  1.00  0.00     0.000 C 
BRANCH   3   4
ATOM      4  C   UNL     1      -0.189  10.796  -7.742  1.00  0.00     0.000 C 
BRANCH   4   5
ATOM      5  C   UNL     1      -1.024  12.026  -8.129  1.00  0.00     0.000 C 
BRANCH   5   6
ATOM      6  C   UNL     1      -2.374  11.647  -8.755  1.00  0.00     0.000 C 
BRANCH   6   7
ATOM      7  C   UNL     1      -3.236  10.850  -7.765  1.00  0.00     0.000 C 
BRANCH   7   8
ATOM      8  C   UNL     1      -4.369  11.690  -7.152  1.00  0.00     0.000 C 
BRANCH   8   9
ATOM      9  C   UNL     1      -5.662  10.910  -6.835  1.00  0.00     0.000 C 
BRANCH   9  10
ATOM     10  C   UNL     1      -6.732  10.950  -7.940  1.00  0.00     0.000 C 
BRANCH  10  11
ATOM     11  C   UNL     1      -6.259  11.687  -9.202  1.00  0.00     0.000 C 
BRANCH  11  12
ATOM     12  C   UNL     1      -6.100  10.714 -10.380  1.00  0.00     0.006 C 
BRANCH  12  13
ATOM     13  C   UNL     1      -6.137   9.247  -9.931  1.00  0.00     0.053 C 
BRANCH  13  14
ATOM     14  C   UNL     1      -4.862   8.534 -10.261  1.00  0.00     0.041 C 
ATOM     15  O   UNL     1      -4.638   7.385  -9.797  1.00  0.00    -0.550 OA
ATOM     16  O   UNL     1      -3.939   9.123 -11.118  1.00  0.00    -0.550 OA
ENDBRANCH  13  14
ENDBRANCH  12  13
ENDBRANCH  11  12
ENDBRANCH  10  11
ENDBRANCH   9  10
ENDBRANCH   8   9
ENDBRANCH   7   8
ENDBRANCH   6   7
ENDBRANCH   5   6
ENDBRANCH   4   5
ENDBRANCH   3   4
ENDBRANCH   2   3
ENDBRANCH   1   2
BRANCH   1  17
ATOM     17  C   UNL     1       1.981  11.810  -5.058  1.00  0.00     0.000 C 
BRANCH  17  18
ATOM     18  C   UNL     1       1.604  13.292  -5.233  1.00  0.00     0.000 C 
BRANCH  18  19
ATOM     19  C   UNL     1       0.115  13.564  -4.969  1.00  0.00     0.000 C 
BRANCH  19  20
ATOM     20  C   UNL     1      -0.494  12.587  -3.948  1.00  0.00     0.000 C 
BRANCH  20  21
ATOM     21  C   UNL     1      -1.786  11.932  -4.466  1.00  0.00     0.000 C 
BRANCH  21  22
ATOM     22  C   UNL     1      -2.342  10.888  -3.487  1.00  0.00    -0.000 C 
BRANCH  22  23
ATOM     23  C   UNL     1      -2.984   9.714  -4.239  1.00  0.00    -0.000 C 
BRANCH  23  24
ATOM     24  C   UNL     1      -3.575   8.650  -3.296  1.00  0.00    -0.000 C 
BRANCH  24  25
ATOM     25  C   UNL     1      -4.311   7.489  -3.995  1.00  0.00    -0.000 C 
BRANCH  25  26
ATOM     26  C   UNL     1      -3.806   6.081  -3.629  1.00  0.00    -0.000 C 
BRANCH  26  27
ATOM     27  C   UNL     1      -2.325   6.066  -3.223  1.00  0.00    -0.000 C 
BRANCH  27  28
ATOM     28  C   UNL     1      -1.563   4.968  -3.980  1.00  0.00    -0.000 C 
BRANCH  28  29
ATOM     29  C   UNL     1      -0.070   4.934  -3.624  1.00  0.00    -0.003 C 
ATOM     30  C   UNL     1       0.794   4.380  -4.757  1.00  0.00     0.004 C 
ENDBRANCH  28  29
ENDBRANCH  27  28
ENDBRANCH  26  27
ENDBRANCH  25  26
ENDBRANCH  24  25
ENDBRANCH  23  24
ENDBRANCH  22  23
ENDBRANCH  21  22
ENDBRANCH  20  21
ENDBRANCH  19  20
ENDBRANCH  18  19
ENDBRANCH  17  18
ENDBRANCH   1  17
TORSDOF 26
ENDMDL
