MODEL 1
REMARK VINA RESULT:    -4.154      0.000      0.000
REMARK INTER + INTRA:          -9.384
REMARK INTER:                  -7.554
REMARK INTRA:                  -1.830
REMARK UNBOUND:                -1.830
REMARK SMILES CCCCCCCCCCCCCCCC(=O)[O-]
REMARK SMILES IDX 9 1 10 2 11 3 12 4 13 5 14 6 15 7 16 8 17 9 18 10 8 11 7 12
REMARK SMILES IDX 6 13 5 14 4 15 3 16 2 17 1 18
REMARK H PARENT
REMARK Flexibility Score: inf
ROOT
ATOM      1  C   UNL     1      -2.507 -33.909  46.848  1.00  0.00     0.000 C 
ENDROOT
BRANCH   1   2
ATOM      2  C   UNL     1      -1.430 -34.141  45.776  1.00  0.00     0.000 C 
BRANCH   2   3
ATOM      3  C   UNL     1      -1.120 -35.631  45.564  1.00  0.00     0.000 C 
BRANCH   3   4
ATOM      4  C   UNL     1       0.288 -35.866  44.996  1.00  0.00     0.000 C 
BRANCH   4   5
ATOM      5  C   UNL     1       0.887 -34.560  44.460  1.00  0.00     0.000 C 
BRANCH   5   6
ATOM      6  C   UNL     1       2.404 -34.517  44.682  1.00  0.00     0.006 C 
BRANCH   6   7
ATOM      7  C   UNL     1       2.829 -35.519  45.758  1.00  0.00     0.053 C 
BRANCH   7   8
ATOM      8  C   UNL     1       3.280 -34.803  46.992  1.00  0.00     0.041 C 
ATOM      9  O   UNL     1       4.078 -35.358  47.792  1.00  0.00    -0.550 OA
ATOM     10  O   UNL     1       2.783 -33.538  47.281  1.00  0.00    -0.550 OA
ENDBRANCH   7   8
ENDBRANCH   6   7
ENDBRANCH   5   6
ENDBRANCH   4   5
ENDBRANCH   3   4
ENDBRANCH   2   3
ENDBRANCH   1   2
BRANCH   1  11
ATOM     11  C   UNL     1      -2.459 -35.009  47.919  1.00  0.00     0.000 C 
BRANCH  11  12
ATOM     12  C   UNL     1      -3.823 -35.696  48.113  1.00  0.00    -0.000 C 
BRANCH  12  13
ATOM     13  C   UNL     1      -4.034 -36.916  47.186  1.00  0.00    -0.000 C 
BRANCH  13  14
ATOM     14  C   UNL     1      -5.235 -36.768  46.231  1.00  0.00    -0.000 C 
BRANCH  14  15
ATOM     15  C   UNL     1      -4.963 -35.908  44.984  1.00  0.00    -0.000 C 
BRANCH  15  16
ATOM     16  C   UNL     1      -5.828 -34.639  44.935  1.00  0.00    -0.000 C 
BRANCH  16  17
ATOM     17  C   UNL     1      -6.840 -34.623  46.086  1.00  0.00    -0.003 C 
ATOM     18  C   UNL     1      -6.606 -33.432  47.012  1.00  0.00     0.004 C 
ENDBRANCH  16  17
ENDBRANCH  15  16
ENDBRANCH  14  15
ENDBRANCH  13  14
ENDBRANCH  12  13
ENDBRANCH  11  12
ENDBRANCH   1  11
TORSDOF 14
ENDMDL
MODEL 2
REMARK VINA RESULT:    -4.092      2.909      7.408
REMARK INTER + INTRA:          -9.272
REMARK INTER:                  -8.216
REMARK INTRA:                  -1.056
REMARK UNBOUND:                -1.830
REMARK SMILES CCCCCCCCCCCCCCCC(=O)[O-]
REMARK SMILES IDX 9 1 10 2 11 3 12 4 13 5 14 6 15 7 16 8 17 9 18 10 8 11 7 12
REMARK SMILES IDX 6 13 5 14 4 15 3 16 2 17 1 18
REMARK H PARENT
REMARK Flexibility Score: inf
ROOT
ATOM      1  C   UNL     1      -2.592 -35.719  45.712  1.00  0.00     0.000 C 
ENDROOT
BRANCH   1   2
ATOM      2  C   UNL     1      -3.492 -36.909  45.345  1.00  0.00     0.000 C 
BRANCH   2   3
ATOM      3  C   UNL     1      -4.980 -36.528  45.286  1.00  0.00     0.000 C 
BRANCH   3   4
ATOM      4  C   UNL     1      -5.285 -35.512  44.175  1.00  0.00     0.000 C 
BRANCH   4   5
ATOM      5  C   UNL     1      -5.827 -34.203  44.764  1.00  0.00     0.000 C 
BRANCH   5   6
ATOM      6  C   UNL     1      -6.725 -34.475  45.978  1.00  0.00     0.006 C 
BRANCH   6   7
ATOM      7  C   UNL     1      -6.441 -33.477  47.104  1.00  0.00     0.053 C 
BRANCH   7   8
ATOM      8  C   UNL     1      -5.185 -33.849  47.828  1.00  0.00     0.041 C 
ATOM      9  O   UNL     1      -4.239 -33.022  47.922  1.00  0.00    -0.550 OA
ATOM     10  O   UNL     1      -5.040 -35.124  48.358  1.00  0.00    -0.550 OA
ENDBRANCH   7   8
ENDBRANCH   6   7
ENDBRANCH   5   6
ENDBRANCH   4   5
ENDBRANCH   3   4
ENDBRANCH   2   3
ENDBRANCH   1   2
BRANCH   1  11
ATOM     11  C   UNL     1      -1.145 -35.966  45.259  1.00  0.00     0.000 C 
BRANCH  11  12
ATOM     12  C   UNL     1      -0.312 -34.671  45.230  1.00  0.00    -0.000 C 
BRANCH  12  13
ATOM     13  C   UNL     1       1.016 -34.813  44.452  1.00  0.00    -0.000 C 
BRANCH  13  14
ATOM     14  C   UNL     1       2.261 -34.426  45.275  1.00  0.00    -0.000 C 
BRANCH  14  15
ATOM     15  C   UNL     1       1.964 -33.967  46.713  1.00  0.00    -0.000 C 
BRANCH  15  16
ATOM     16  C   UNL     1       3.118 -34.262  47.683  1.00  0.00    -0.000 C 
BRANCH  16  17
ATOM     17  C   UNL     1       3.844 -32.971  48.077  1.00  0.00    -0.003 C 
ATOM     18  C   UNL     1       2.853 -31.842  48.350  1.00  0.00     0.004 C 
ENDBRANCH  16  17
ENDBRANCH  15  16
ENDBRANCH  14  15
ENDBRANCH  13  14
ENDBRANCH  12  13
ENDBRANCH  11  12
ENDBRANCH   1  11
TORSDOF 14
ENDMDL
MODEL 3
REMARK VINA RESULT:    -4.074      1.130      1.920
REMARK INTER + INTRA:          -9.239
REMARK INTER:                  -7.503
REMARK INTRA:                  -1.736
REMARK UNBOUND:                -1.830
REMARK SMILES CCCCCCCCCCCCCCCC(=O)[O-]
REMARK SMILES IDX 9 1 10 2 11 3 12 4 13 5 14 6 15 7 16 8 17 9 18 10 8 11 7 12
REMARK SMILES IDX 6 13 5 14 4 15 3 16 2 17 1 18
REMARK H PARENT
REMARK Flexibility Score: inf
ROOT
ATOM      1  C   UNL     1      -1.878 -34.128  45.800  1.00  0.00     0.000 C 
ENDROOT
BRANCH   1   2
ATOM      2  C   UNL     1      -1.916 -35.664  45.803  1.00  0.00     0.000 C 
BRANCH   2   3
ATOM      3  C   UNL     1      -0.513 -36.290  45.841  1.00  0.00     0.000 C 
BRANCH   3   4
ATOM      4  C   UNL     1      -0.090 -36.874  44.485  1.00  0.00     0.000 C 
BRANCH   4   5
ATOM      5  C   UNL     1       1.298 -36.366  44.077  1.00  0.00     0.000 C 
BRANCH   5   6
ATOM      6  C   UNL     1       1.393 -34.842  44.227  1.00  0.00     0.006 C 
BRANCH   6   7
ATOM      7  C   UNL     1       2.733 -34.435  44.847  1.00  0.00     0.053 C 
BRANCH   7   8
ATOM      8  C   UNL     1       2.633 -34.409  46.340  1.00  0.00     0.041 C 
ATOM      9  O   UNL     1       3.351 -35.173  47.037  1.00  0.00    -0.550 OA
ATOM     10  O   UNL     1       1.712 -33.574  46.960  1.00  0.00    -0.550 OA
ENDBRANCH   7   8
ENDBRANCH   6   7
ENDBRANCH   5   6
ENDBRANCH   4   5
ENDBRANCH   3   4
ENDBRANCH   2   3
ENDBRANCH   1   2
BRANCH   1  11
ATOM     11  C   UNL     1      -2.753 -33.556  46.925  1.00  0.00     0.000 C 
BRANCH  11  12
ATOM     12  C   UNL     1      -3.159 -34.629  47.952  1.00  0.00    -0.000 C 
BRANCH  12  13
ATOM     13  C   UNL     1      -4.676 -34.652  48.249  1.00  0.00    -0.000 C 
BRANCH  13  14
ATOM     14  C   UNL     1      -5.439 -33.444  47.671  1.00  0.00    -0.000 C 
BRANCH  14  15
ATOM     15  C   UNL     1      -6.512 -33.800  46.628  1.00  0.00    -0.000 C 
BRANCH  15  16
ATOM     16  C   UNL     1      -6.333 -35.211  46.046  1.00  0.00    -0.000 C 
BRANCH  16  17
ATOM     17  C   UNL     1      -5.699 -35.150  44.652  1.00  0.00    -0.003 C 
ATOM     18  C   UNL     1      -6.088 -33.867  43.924  1.00  0.00     0.004 C 
ENDBRANCH  16  17
ENDBRANCH  15  16
ENDBRANCH  14  15
ENDBRANCH  13  14
ENDBRANCH  12  13
ENDBRANCH  11  12
ENDBRANCH   1  11
TORSDOF 14
ENDMDL
MODEL 4
REMARK VINA RESULT:    -3.953      1.354      2.049
REMARK INTER + INTRA:          -9.018
REMARK INTER:                  -7.358
REMARK INTRA:                  -1.660
REMARK UNBOUND:                -1.830
REMARK SMILES CCCCCCCCCCCCCCCC(=O)[O-]
REMARK SMILES IDX 9 1 10 2 11 3 12 4 13 5 14 6 15 7 16 8 17 9 18 10 8 11 7 12
REMARK SMILES IDX 6 13 5 14 4 15 3 16 2 17 1 18
REMARK H PARENT
REMARK Flexibility Score: inf
ROOT
ATOM      1  C   UNL     1      -1.005 -34.141  45.757  1.00  0.00     0.000 C 
ENDROOT
BRANCH   1   2
ATOM      2  C   UNL     1      -0.111 -35.199  45.092  1.00  0.00     0.000 C 
BRANCH   2   3
ATOM      3  C   UNL     1       1.004 -34.577  44.237  1.00  0.00     0.000 C 
BRANCH   3   4
ATOM      4  C   UNL     1       2.358 -34.548  44.963  1.00  0.00     0.000 C 
BRANCH   4   5
ATOM      5  C   UNL     1       2.353 -35.497  46.168  1.00  0.00     0.000 C 
BRANCH   5   6
ATOM      6  C   UNL     1       2.831 -34.779  47.437  1.00  0.00     0.006 C 
BRANCH   6   7
ATOM      7  C   UNL     1       2.235 -33.371  47.527  1.00  0.00     0.053 C 
BRANCH   7   8
ATOM      8  C   UNL     1       3.169 -32.454  48.252  1.00  0.00     0.041 C 
ATOM      9  O   UNL     1       4.159 -32.920  48.875  1.00  0.00    -0.550 OA
ATOM     10  O   UNL     1       2.919 -31.088  48.279  1.00  0.00    -0.550 OA
ENDBRANCH   7   8
ENDBRANCH   6   7
ENDBRANCH   5   6
ENDBRANCH   4   5
ENDBRANCH   3   4
ENDBRANCH   2   3
ENDBRANCH   1   2
BRANCH   1  11
ATOM     11  C   UNL     1      -1.431 -34.590  47.163  1.00  0.00     0.000 C 
BRANCH  11  12
ATOM     12  C   UNL     1      -1.874 -36.064  47.197  1.00  0.00    -0.000 C 
BRANCH  12  13
ATOM     13  C   UNL     1      -3.381 -36.259  46.909  1.00  0.00    -0.000 C 
BRANCH  13  14
ATOM     14  C   UNL     1      -3.681 -36.721  45.469  1.00  0.00    -0.000 C 
BRANCH  14  15
ATOM     15  C   UNL     1      -4.792 -35.928  44.759  1.00  0.00    -0.000 C 
BRANCH  15  16
ATOM     16  C   UNL     1      -5.015 -34.536  45.369  1.00  0.00    -0.000 C 
BRANCH  16  17
ATOM     17  C   UNL     1      -6.510 -34.254  45.555  1.00  0.00    -0.003 C 
ATOM     18  C   UNL     1      -6.823 -33.857  46.995  1.00  0.00     0.004 C 
ENDBRANCH  16  17
ENDBRANCH  15  16
ENDBRANCH  14  15
ENDBRANCH  13  14
ENDBRANCH  12  13
ENDBRANCH  11  12
ENDBRANCH   1  11
TORSDOF 14
ENDMDL
MODEL 5
REMARK VINA RESULT:    -3.915      3.208      7.117
REMARK INTER + INTRA:          -8.949
REMARK INTER:                  -7.330
REMARK INTRA:                  -1.618
REMARK UNBOUND:                -1.830
REMARK SMILES CCCCCCCCCCCCCCCC(=O)[O-]
REMARK SMILES IDX 9 1 10 2 11 3 12 4 13 5 14 6 15 7 16 8 17 9 18 10 8 11 7 12
REMARK SMILES IDX 6 13 5 14 4 15 3 16 2 17 1 18
REMARK H PARENT
REMARK Flexibility Score: inf
ROOT
ATOM      1  C   UNL     1      -2.136 -34.672  46.124  1.00  0.00     0.000 C 
ENDROOT
BRANCH   1   2
ATOM      2  C   UNL     1      -2.772 -36.048  46.375  1.00  0.00     0.000 C 
BRANCH   2   3
ATOM      3  C   UNL     1      -3.520 -36.587  45.145  1.00  0.00     0.000 C 
BRANCH   3   4
ATOM      4  C   UNL     1      -5.022 -36.266  45.181  1.00  0.00     0.000 C 
BRANCH   4   5
ATOM      5  C   UNL     1      -5.370 -35.158  44.179  1.00  0.00     0.000 C 
BRANCH   5   6
ATOM      6  C   UNL     1      -6.295 -34.111  44.813  1.00  0.00     0.006 C 
BRANCH   6   7
ATOM      7  C   UNL     1      -6.695 -34.521  46.233  1.00  0.00     0.053 C 
BRANCH   7   8
ATOM      8  C   UNL     1      -6.165 -33.539  47.230  1.00  0.00     0.041 C 
ATOM      9  O   UNL     1      -5.085 -33.769  47.834  1.00  0.00    -0.550 OA
ATOM     10  O   UNL     1      -6.889 -32.391  47.526  1.00  0.00    -0.550 OA
ENDBRANCH   7   8
ENDBRANCH   6   7
ENDBRANCH   5   6
ENDBRANCH   4   5
ENDBRANCH   3   4
ENDBRANCH   2   3
ENDBRANCH   1   2
BRANCH   1  11
ATOM     11  C   UNL     1      -1.400 -34.172  47.377  1.00  0.00     0.000 C 
BRANCH  11  12
ATOM     12  C   UNL     1      -0.677 -35.309  48.122  1.00  0.00    -0.000 C 
BRANCH  12  13
ATOM     13  C   UNL     1       0.864 -35.194  48.074  1.00  0.00    -0.000 C 
BRANCH  13  14
ATOM     14  C   UNL     1       1.367 -33.815  47.604  1.00  0.00    -0.000 C 
BRANCH  14  15
ATOM     15  C   UNL     1       2.754 -33.828  46.940  1.00  0.00    -0.000 C 
BRANCH  15  16
ATOM     16  C   UNL     1       2.888 -34.912  45.859  1.00  0.00    -0.000 C 
BRANCH  16  17
ATOM     17  C   UNL     1       2.130 -34.512  44.588  1.00  0.00    -0.003 C 
ATOM     18  C   UNL     1       0.952 -35.447  44.331  1.00  0.00     0.004 C 
ENDBRANCH  16  17
ENDBRANCH  15  16
ENDBRANCH  14  15
ENDBRANCH  13  14
ENDBRANCH  12  13
ENDBRANCH  11  12
ENDBRANCH   1  11
TORSDOF 14
ENDMDL
MODEL 6
REMARK VINA RESULT:    -3.881      3.675      7.516
REMARK INTER + INTRA:          -8.887
REMARK INTER:                  -7.150
REMARK INTRA:                  -1.737
REMARK UNBOUND:                -1.830
REMARK SMILES CCCCCCCCCCCCCCCC(=O)[O-]
REMARK SMILES IDX 9 1 10 2 11 3 12 4 13 5 14 6 15 7 16 8 17 9 18 10 8 11 7 12
REMARK SMILES IDX 6 13 5 14 4 15 3 16 2 17 1 18
REMARK H PARENT
REMARK Flexibility Score: inf
ROOT
ATOM      1  C   UNL     1      -0.971 -35.248  45.438  1.00  0.00     0.000 C 
ENDROOT
BRANCH   1   2
ATOM      2  C   UNL     1      -1.035 -35.597  46.933  1.00  0.00     0.000 C 
BRANCH   2   3
ATOM      3  C   UNL     1      -1.838 -34.568  47.746  1.00  0.00     0.000 C 
BRANCH   3   4
ATOM      4  C   UNL     1      -3.326 -34.547  47.367  1.00  0.00     0.000 C 
BRANCH   4   5
ATOM      5  C   UNL     1      -3.893 -35.970  47.293  1.00  0.00     0.000 C 
BRANCH   5   6
ATOM      6  C   UNL     1      -4.703 -36.175  46.007  1.00  0.00     0.006 C 
BRANCH   6   7
ATOM      7  C   UNL     1      -4.729 -34.896  45.165  1.00  0.00     0.053 C 
BRANCH   7   8
ATOM      8  C   UNL     1      -6.138 -34.440  44.951  1.00  0.00     0.041 C 
ATOM      9  O   UNL     1      -6.468 -33.888  43.868  1.00  0.00    -0.550 OA
ATOM     10  O   UNL     1      -7.076 -34.582  45.965  1.00  0.00    -0.550 OA
ENDBRANCH   7   8
ENDBRANCH   6   7
ENDBRANCH   5   6
ENDBRANCH   4   5
ENDBRANCH   3   4
ENDBRANCH   2   3
ENDBRANCH   1   2
BRANCH   1  11
ATOM     11  C   UNL     1      -0.395 -36.418  44.627  1.00  0.00     0.000 C 
BRANCH  11  12
ATOM     12  C   UNL     1       1.089 -36.210  44.273  1.00  0.00    -0.000 C 
BRANCH  12  13
ATOM     13  C   UNL     1       1.506 -34.722  44.223  1.00  0.00    -0.000 C 
BRANCH  13  14
ATOM     14  C   UNL     1       2.835 -34.426  44.946  1.00  0.00    -0.000 C 
BRANCH  14  15
ATOM     15  C   UNL     1       3.120 -35.324  46.162  1.00  0.00    -0.000 C 
BRANCH  15  16
ATOM     16  C   UNL     1       2.436 -34.825  47.445  1.00  0.00    -0.000 C 
BRANCH  16  17
ATOM     17  C   UNL     1       2.449 -33.293  47.510  1.00  0.00    -0.003 C 
ATOM     18  C   UNL     1       3.708 -32.781  48.204  1.00  0.00     0.004 C 
ENDBRANCH  16  17
ENDBRANCH  15  16
ENDBRANCH  14  15
ENDBRANCH  13  14
ENDBRANCH  12  13
ENDBRANCH  11  12
ENDBRANCH   1  11
TORSDOF 14
ENDMDL
MODEL 7
REMARK VINA RESULT:    -3.778      1.242      3.629
REMARK INTER + INTRA:          -8.700
REMARK INTER:                  -6.816
REMARK INTRA:                  -1.884
REMARK UNBOUND:                -1.830
REMARK SMILES CCCCCCCCCCCCCCCC(=O)[O-]
REMARK SMILES IDX 9 1 10 2 11 3 12 4 13 5 14 6 15 7 16 8 17 9 18 10 8 11 7 12
REMARK SMILES IDX 6 13 5 14 4 15 3 16 2 17 1 18
REMARK H PARENT
REMARK Flexibility Score: inf
ROOT
ATOM      1  C   UNL     1      -4.877 -35.594  44.629  1.00  0.00     0.000 C 
ENDROOT
BRANCH   1   2
ATOM      2  C   UNL     1      -4.760 -36.774  45.605  1.00  0.00     0.000 C 
BRANCH   2   3
ATOM      3  C   UNL     1      -3.307 -37.056  46.020  1.00  0.00     0.000 C 
BRANCH   3   4
ATOM      4  C   UNL     1      -2.289 -36.536  44.993  1.00  0.00     0.000 C 
BRANCH   4   5
ATOM      5  C   UNL     1      -0.959 -36.182  45.671  1.00  0.00     0.000 C 
BRANCH   5   6
ATOM      6  C   UNL     1       0.152 -35.978  44.634  1.00  0.00     0.006 C 
BRANCH   6   7
ATOM      7  C   UNL     1       0.732 -34.563  44.722  1.00  0.00     0.053 C 
BRANCH   7   8
ATOM      8  C   UNL     1       1.908 -34.537  45.647  1.00  0.00     0.041 C 
ATOM      9  O   UNL     1       2.015 -33.627  46.511  1.00  0.00    -0.550 OA
ATOM     10  O   UNL     1       2.910 -35.490  45.523  1.00  0.00    -0.550 OA
ENDBRANCH   7   8
ENDBRANCH   6   7
ENDBRANCH   5   6
ENDBRANCH   4   5
ENDBRANCH   3   4
ENDBRANCH   2   3
ENDBRANCH   1   2
BRANCH   1  11
ATOM     11  C   UNL     1      -6.159 -34.789  44.894  1.00  0.00     0.000 C 
BRANCH  11  12
ATOM     12  C   UNL     1      -6.694 -34.997  46.323  1.00  0.00    -0.000 C 
BRANCH  12  13
ATOM     13  C   UNL     1      -6.986 -33.674  47.068  1.00  0.00    -0.000 C 
BRANCH  13  14
ATOM     14  C   UNL     1      -5.723 -32.976  47.610  1.00  0.00    -0.000 C 
BRANCH  14  15
ATOM     15  C   UNL     1      -4.568 -33.925  47.970  1.00  0.00    -0.000 C 
BRANCH  15  16
ATOM     16  C   UNL     1      -3.189 -33.351  47.607  1.00  0.00    -0.000 C 
BRANCH  16  17
ATOM     17  C   UNL     1      -2.070 -34.142  48.293  1.00  0.00    -0.003 C 
ATOM     18  C   UNL     1      -2.635 -35.295  49.118  1.00  0.00     0.004 C 
ENDBRANCH  16  17
ENDBRANCH  15  16
ENDBRANCH  14  15
ENDBRANCH  13  14
ENDBRANCH  12  13
ENDBRANCH  11  12
ENDBRANCH   1  11
TORSDOF 14
ENDMDL
MODEL 8
REMARK VINA RESULT:    -3.768      3.591      7.593
REMARK INTER + INTRA:          -8.682
REMARK INTER:                  -6.935
REMARK INTRA:                  -1.747
REMARK UNBOUND:                -1.830
REMARK SMILES CCCCCCCCCCCCCCCC(=O)[O-]
REMARK SMILES IDX 9 1 10 2 11 3 12 4 13 5 14 6 15 7 16 8 17 9 18 10 8 11 7 12
REMARK SMILES IDX 6 13 5 14 4 15 3 16 2 17 1 18
REMARK H PARENT
REMARK Flexibility Score: inf
ROOT
ATOM      1  C   UNL     1       0.379 -35.014  44.684  1.00  0.00     0.000 C 
ENDROOT
BRANCH   1   2
ATOM      2  C   UNL     1      -0.224 -34.110  45.770  1.00  0.00     0.000 C 
BRANCH   2   3
ATOM      3  C   UNL     1      -0.981 -34.903  46.847  1.00  0.00     0.000 C 
BRANCH   3   4
ATOM      4  C   UNL     1      -1.590 -36.204  46.303  1.00  0.00     0.000 C 
BRANCH   4   5
ATOM      5  C   UNL     1      -3.108 -36.231  46.521  1.00  0.00     0.000 C 
BRANCH   5   6
ATOM      6  C   UNL     1      -3.835 -35.419  45.441  1.00  0.00     0.006 C 
BRANCH   6   7
ATOM      7  C   UNL     1      -5.353 -35.572  45.570  1.00  0.00     0.053 C 
BRANCH   7   8
ATOM      8  C   UNL     1      -6.035 -34.269  45.292  1.00  0.00     0.041 C 
ATOM      9  O   UNL     1      -6.512 -33.588  46.238  1.00  0.00    -0.550 OA
ATOM     10  O   UNL     1      -6.186 -33.830  43.983  1.00  0.00    -0.550 OA
ENDBRANCH   7   8
ENDBRANCH   6   7
ENDBRANCH   5   6
ENDBRANCH   4   5
ENDBRANCH   3   4
ENDBRANCH   2   3
ENDBRANCH   1   2
BRANCH   1  11
ATOM     11  C   UNL     1       1.756 -34.496  44.243  1.00  0.00     0.000 C 
BRANCH  11  12
ATOM     12  C   UNL     1       2.878 -34.925  45.208  1.00  0.00    -0.000 C 
BRANCH  12  13
ATOM     13  C   UNL     1       2.706 -36.362  45.750  1.00  0.00    -0.000 C 
BRANCH  13  14
ATOM     14  C   UNL     1       2.933 -36.482  47.270  1.00  0.00    -0.000 C 
BRANCH  14  15
ATOM     15  C   UNL     1       2.583 -35.218  48.074  1.00  0.00    -0.000 C 
BRANCH  15  16
ATOM     16  C   UNL     1       3.808 -34.585  48.752  1.00  0.00    -0.000 C 
BRANCH  16  17
ATOM     17  C   UNL     1       3.926 -33.100  48.391  1.00  0.00    -0.003 C 
ATOM     18  C   UNL     1       2.574 -32.524  47.979  1.00  0.00     0.004 C 
ENDBRANCH  16  17
ENDBRANCH  15  16
ENDBRANCH  14  15
ENDBRANCH  13  14
ENDBRANCH  12  13
ENDBRANCH  11  12
ENDBRANCH   1  11
TORSDOF 14
ENDMDL
MODEL 9
REMARK VINA RESULT:    -3.697      3.572      6.899
REMARK INTER + INTRA:          -8.553
REMARK INTER:                  -6.600
REMARK INTRA:                  -1.953
REMARK UNBOUND:                -1.830
REMARK SMILES CCCCCCCCCCCCCCCC(=O)[O-]
REMARK SMILES IDX 9 1 10 2 11 3 12 4 13 5 14 6 15 7 16 8 17 9 18 10 8 11 7 12
REMARK SMILES IDX 6 13 5 14 4 15 3 16 2 17 1 18
REMARK H PARENT
REMARK Flexibility Score: inf
ROOT
ATOM      1  C   UNL     1      -0.235 -34.211  48.230  1.00  0.00     0.000 C 
ENDROOT
BRANCH   1   2
ATOM      2  C   UNL     1      -0.782 -35.645  48.168  1.00  0.00     0.000 C 
BRANCH   2   3
ATOM      3  C   UNL     1      -2.240 -35.701  47.686  1.00  0.00     0.000 C 
BRANCH   3   4
ATOM      4  C   UNL     1      -2.806 -34.312  47.353  1.00  0.00     0.000 C 
BRANCH   4   5
ATOM      5  C   UNL     1      -3.407 -34.288  45.942  1.00  0.00     0.000 C 
BRANCH   5   6
ATOM      6  C   UNL     1      -3.960 -35.666  45.556  1.00  0.00     0.006 C 
BRANCH   6   7
ATOM      7  C   UNL     1      -5.491 -35.659  45.548  1.00  0.00     0.053 C 
BRANCH   7   8
ATOM      8  C   UNL     1      -6.007 -34.290  45.237  1.00  0.00     0.041 C 
ATOM      9  O   UNL     1      -6.481 -33.567  46.154  1.00  0.00    -0.550 OA
ATOM     10  O   UNL     1      -6.008 -33.828  43.928  1.00  0.00    -0.550 OA
ENDBRANCH   7   8
ENDBRANCH   6   7
ENDBRANCH   5   6
ENDBRANCH   4   5
ENDBRANCH   3   4
ENDBRANCH   2   3
ENDBRANCH   1   2
BRANCH   1  11
ATOM     11  C   UNL     1       1.299 -34.213  48.309  1.00  0.00     0.000 C 
BRANCH  11  12
ATOM     12  C   UNL     1       1.898 -35.601  48.017  1.00  0.00    -0.000 C 
BRANCH  12  13
ATOM     13  C   UNL     1       2.899 -35.603  46.839  1.00  0.00    -0.000 C 
BRANCH  13  14
ATOM     14  C   UNL     1       2.765 -34.380  45.910  1.00  0.00    -0.000 C 
BRANCH  14  15
ATOM     15  C   UNL     1       2.103 -34.672  44.553  1.00  0.00    -0.000 C 
BRANCH  15  16
ATOM     16  C   UNL     1       0.568 -34.623  44.616  1.00  0.00    -0.000 C 
BRANCH  16  17
ATOM     17  C   UNL     1      -0.024 -36.037  44.632  1.00  0.00    -0.003 C 
ATOM     18  C   UNL     1       0.946 -37.048  44.026  1.00  0.00     0.004 C 
ENDBRANCH  16  17
ENDBRANCH  15  16
ENDBRANCH  14  15
ENDBRANCH  13  14
ENDBRANCH  12  13
ENDBRANCH  11  12
ENDBRANCH   1  11
TORSDOF 14
ENDMDL
