MODEL 1
REMARK VINA RESULT:    -3.093      0.000      0.000
REMARK INTER + INTRA:          -3.933
REMARK INTER:                  -3.725
REMARK INTRA:                  -0.207
REMARK UNBOUND:                -0.207
REMARK SMILES Oc1cc(O)c2cc(O)c(-c3ccc(O)c(O)c3)[o+]c2c1
REMARK SMILES IDX 10 1 19 2 20 3 21 4 2 5 3 6 4 7 6 8 7 9 8 10 11 11 12 12
REMARK SMILES IDX 13 13 14 14 18 15 16 16 15 17 17 19 9 21 1 23 5 25
REMARK H PARENT 15 18 17 20 9 22 1 24 5 26
REMARK Flexibility Score: inf
ROOT
ATOM      1  C   UNL     1       6.587   1.332  13.183  1.00  0.00     0.402 A 
ATOM      2  O   UNL     1       6.880   0.591  12.117  1.00  0.00    -0.202 OA
ATOM      3  C   UNL     1       6.792  -0.735  12.103  1.00  0.00     0.368 A 
ATOM      4  C   UNL     1       7.118  -1.426  10.933  1.00  0.00     0.162 A 
ATOM      5  C   UNL     1       7.032  -2.819  10.890  1.00  0.00     0.128 A 
ATOM      6  C   UNL     1       6.617  -3.526  12.022  1.00  0.00     0.093 A 
ATOM      7  C   UNL     1       6.284  -2.857  13.206  1.00  0.00     0.136 A 
ATOM      8  C   UNL     1       6.373  -1.442  13.256  1.00  0.00     0.125 A 
ATOM      9  C   UNL     1       6.072  -0.689  14.402  1.00  0.00     0.078 A 
ATOM     10  C   UNL     1       6.188   0.704  14.378  1.00  0.00     0.223 A 
ENDROOT
BRANCH   1  11
ATOM     11  C   UNL     1       6.715   2.803  13.070  1.00  0.00     0.087 A 
ATOM     12  C   UNL     1       5.878   3.549  12.221  1.00  0.00     0.022 A 
ATOM     13  C   UNL     1       6.034   4.933  12.113  1.00  0.00     0.051 A 
ATOM     14  C   UNL     1       7.034   5.591  12.841  1.00  0.00     0.157 A 
ATOM     15  C   UNL     1       7.730   3.465  13.782  1.00  0.00     0.068 A 
ATOM     16  C   UNL     1       7.885   4.855  13.675  1.00  0.00     0.158 A 
BRANCH  14  17
ATOM     17  O   UNL     1       7.190   6.972  12.737  1.00  0.00    -0.504 OA
ATOM     18  H   UNL     1       7.067   7.581  13.537  1.00  0.00     0.293 HD
ENDBRANCH  14  17
BRANCH  16  19
ATOM     19  O   UNL     1       8.885   5.510  14.392  1.00  0.00    -0.504 OA
ATOM     20  H   UNL     1       9.753   5.049  14.633  1.00  0.00     0.293 HD
ENDBRANCH  16  19
ENDBRANCH   1  11
BRANCH  10  21
ATOM     21  O   UNL     1       5.938   1.448  15.531  1.00  0.00    -0.500 OA
ATOM     22  H   UNL     1       6.520   1.363  16.356  1.00  0.00     0.294 HD
ENDBRANCH  10  21
BRANCH   5  23
ATOM     23  O   UNL     1       7.356  -3.516   9.727  1.00  0.00    -0.507 OA
ATOM     24  H   UNL     1       7.666  -4.480   9.756  1.00  0.00     0.293 HD
ENDBRANCH   5  23
BRANCH   7  25
ATOM     25  O   UNL     1       5.875  -3.636  14.291  1.00  0.00    -0.507 OA
ATOM     26  H   UNL     1       5.261  -3.314  15.026  1.00  0.00     0.293 HD
ENDBRANCH   7  25
TORSDOF 6
ENDMDL
MODEL 2
REMARK VINA RESULT:    -2.685      1.729      3.197
REMARK INTER + INTRA:          -3.441
REMARK INTER:                  -3.158
REMARK INTRA:                  -0.284
REMARK UNBOUND:                -0.207
REMARK SMILES Oc1cc(O)c2cc(O)c(-c3ccc(O)c(O)c3)[o+]c2c1
REMARK SMILES IDX 10 1 19 2 20 3 21 4 2 5 3 6 4 7 6 8 7 9 8 10 11 11 12 12
REMARK SMILES IDX 13 13 14 14 18 15 16 16 15 17 17 19 9 21 1 23 5 25
REMARK H PARENT 15 18 17 20 9 22 1 24 5 26
REMARK Flexibility Score: inf
ROOT
ATOM      1  C   UNL     1       6.668   3.320  12.638  1.00  0.00     0.402 A 
ATOM      2  O   UNL     1       6.543   2.364  13.556  1.00  0.00    -0.202 OA
ATOM      3  C   UNL     1       6.328   1.088  13.256  1.00  0.00     0.368 A 
ATOM      4  C   UNL     1       6.214   0.156  14.291  1.00  0.00     0.162 A 
ATOM      5  C   UNL     1       5.991  -1.193  14.004  1.00  0.00     0.128 A 
ATOM      6  C   UNL     1       5.882  -1.614  12.676  1.00  0.00     0.093 A 
ATOM      7  C   UNL     1       5.993  -0.699  11.621  1.00  0.00     0.136 A 
ATOM      8  C   UNL     1       6.216   0.672  11.907  1.00  0.00     0.125 A 
ATOM      9  C   UNL     1       6.328   1.660  10.915  1.00  0.00     0.078 A 
ATOM     10  C   UNL     1       6.544   2.994  11.274  1.00  0.00     0.223 A 
ENDROOT
BRANCH   1  11
ATOM     11  C   UNL     1       6.916   4.705  13.098  1.00  0.00     0.087 A 
ATOM     12  C   UNL     1       5.902   5.679  13.068  1.00  0.00     0.022 A 
ATOM     13  C   UNL     1       6.167   6.986  13.485  1.00  0.00     0.051 A 
ATOM     14  C   UNL     1       7.448   7.342  13.927  1.00  0.00     0.157 A 
ATOM     15  C   UNL     1       8.204   5.072  13.523  1.00  0.00     0.068 A 
ATOM     16  C   UNL     1       8.469   6.384  13.943  1.00  0.00     0.158 A 
BRANCH  14  17
ATOM     17  O   UNL     1       7.714   8.644  14.346  1.00  0.00    -0.504 OA
ATOM     18  H   UNL     1       7.121   9.420  14.074  1.00  0.00     0.293 HD
ENDBRANCH  14  17
BRANCH  16  19
ATOM     19  O   UNL     1       9.745   6.741  14.376  1.00  0.00    -0.504 OA
ATOM     20  H   UNL     1      10.557   6.180  14.151  1.00  0.00     0.293 HD
ENDBRANCH  16  19
ENDBRANCH   1  11
BRANCH  10  21
ATOM     21  O   UNL     1       6.604   3.982  10.292  1.00  0.00    -0.500 OA
ATOM     22  H   UNL     1       7.315   4.704  10.305  1.00  0.00     0.294 HD
ENDBRANCH  10  21
BRANCH   5  23
ATOM     23  O   UNL     1       5.875  -2.128  15.031  1.00  0.00    -0.507 OA
ATOM     24  H   UNL     1       6.655  -2.343  15.641  1.00  0.00     0.293 HD
ENDBRANCH   5  23
BRANCH   7  25
ATOM     25  O   UNL     1       5.876  -1.200  10.322  1.00  0.00    -0.507 OA
ATOM     26  H   UNL     1       5.004  -1.467   9.889  1.00  0.00     0.293 HD
ENDBRANCH   7  25
TORSDOF 6
ENDMDL
MODEL 3
REMARK VINA RESULT:    -2.619      1.618      2.951
REMARK INTER + INTRA:          -3.362
REMARK INTER:                  -3.458
REMARK INTRA:                   0.095
REMARK UNBOUND:                -0.207
REMARK SMILES Oc1cc(O)c2cc(O)c(-c3ccc(O)c(O)c3)[o+]c2c1
REMARK SMILES IDX 10 1 19 2 20 3 21 4 2 5 3 6 4 7 6 8 7 9 8 10 11 11 12 12
REMARK SMILES IDX 13 13 14 14 18 15 16 16 15 17 17 19 9 21 1 23 5 25
REMARK H PARENT 15 18 17 20 9 22 1 24 5 26
REMARK Flexibility Score: inf
ROOT
ATOM      1  C   UNL     1       6.646   0.125  12.812  1.00  0.00     0.402 A 
ATOM      2  O   UNL     1       6.907  -0.746  13.784  1.00  0.00    -0.202 OA
ATOM      3  C   UNL     1       6.813  -2.063  13.628  1.00  0.00     0.368 A 
ATOM      4  C   UNL     1       7.112  -2.898  14.708  1.00  0.00     0.162 A 
ATOM      5  C   UNL     1       7.024  -4.286  14.571  1.00  0.00     0.128 A 
ATOM      6  C   UNL     1       6.637  -4.842  13.349  1.00  0.00     0.093 A 
ATOM      7  C   UNL     1       6.333  -4.026  12.252  1.00  0.00     0.136 A 
ATOM      8  C   UNL     1       6.416  -2.616  12.386  1.00  0.00     0.125 A 
ATOM      9  C   UNL     1       6.118  -1.722  11.346  1.00  0.00     0.078 A 
ATOM     10  C   UNL     1       6.220  -0.343  11.554  1.00  0.00     0.223 A 
ENDROOT
BRANCH   1  11
ATOM     11  C   UNL     1       6.797   1.568  13.106  1.00  0.00     0.087 A 
ATOM     12  C   UNL     1       6.318   2.125  14.306  1.00  0.00     0.022 A 
ATOM     13  C   UNL     1       6.451   3.494  14.550  1.00  0.00     0.051 A 
ATOM     14  C   UNL     1       7.052   4.328  13.598  1.00  0.00     0.157 A 
ATOM     15  C   UNL     1       7.379   2.412  12.145  1.00  0.00     0.068 A 
ATOM     16  C   UNL     1       7.513   3.786  12.392  1.00  0.00     0.158 A 
BRANCH  14  17
ATOM     17  O   UNL     1       7.187   5.694  13.840  1.00  0.00    -0.504 OA
ATOM     18  H   UNL     1       7.966   6.063  14.373  1.00  0.00     0.293 HD
ENDBRANCH  14  17
BRANCH  16  19
ATOM     19  O   UNL     1       8.104   4.618  11.442  1.00  0.00    -0.504 OA
ATOM     20  H   UNL     1       8.389   5.563  11.670  1.00  0.00     0.293 HD
ENDBRANCH  16  19
ENDBRANCH   1  11
BRANCH  10  21
ATOM     21  O   UNL     1       5.875   0.546  10.536  1.00  0.00    -0.500 OA
ATOM     22  H   UNL     1       6.379   0.573   9.658  1.00  0.00     0.294 HD
ENDBRANCH  10  21
BRANCH   5  23
ATOM     23  O   UNL     1       7.320  -5.125  15.643  1.00  0.00    -0.507 OA
ATOM     24  H   UNL     1       7.976  -4.850  16.366  1.00  0.00     0.293 HD
ENDBRANCH   5  23
BRANCH   7  25
ATOM     25  O   UNL     1       5.956  -4.660  11.065  1.00  0.00    -0.507 OA
ATOM     26  H   UNL     1       5.511  -5.565  11.017  1.00  0.00     0.293 HD
ENDBRANCH   7  25
TORSDOF 6
ENDMDL
MODEL 4
REMARK VINA RESULT:    -2.337      1.389      6.808
REMARK INTER + INTRA:          -3.023
REMARK INTER:                  -3.025
REMARK INTRA:                   0.002
REMARK UNBOUND:                -0.207
REMARK SMILES Oc1cc(O)c2cc(O)c(-c3ccc(O)c(O)c3)[o+]c2c1
REMARK SMILES IDX 10 1 19 2 20 3 21 4 2 5 3 6 4 7 6 8 7 9 8 10 11 11 12 12
REMARK SMILES IDX 13 13 14 14 18 15 16 16 15 17 17 19 9 21 1 23 5 25
REMARK H PARENT 15 18 17 20 9 22 1 24 5 26
REMARK Flexibility Score: inf
ROOT
ATOM      1  C   UNL     1       6.729   1.420  12.985  1.00  0.00     0.402 A 
ATOM      2  O   UNL     1       7.142   2.381  12.162  1.00  0.00    -0.202 OA
ATOM      3  C   UNL     1       7.267   3.652  12.529  1.00  0.00     0.368 A 
ATOM      4  C   UNL     1       7.713   4.589  11.593  1.00  0.00     0.162 A 
ATOM      5  C   UNL     1       7.856   5.932  11.954  1.00  0.00     0.128 A 
ATOM      6  C   UNL     1       7.553   6.340  13.255  1.00  0.00     0.093 A 
ATOM      7  C   UNL     1       7.106   5.419  14.211  1.00  0.00     0.136 A 
ATOM      8  C   UNL     1       6.955   4.056  13.850  1.00  0.00     0.125 A 
ATOM      9  C   UNL     1       6.501   3.067  14.738  1.00  0.00     0.078 A 
ATOM     10  C   UNL     1       6.374   1.743  14.309  1.00  0.00     0.223 A 
ENDROOT
BRANCH   1  11
ATOM     11  C   UNL     1       6.640   0.039  12.460  1.00  0.00     0.087 A 
ATOM     12  C   UNL     1       5.966  -0.247  11.260  1.00  0.00     0.022 A 
ATOM     13  C   UNL     1       5.875  -1.562  10.796  1.00  0.00     0.051 A 
ATOM     14  C   UNL     1       6.446  -2.611  11.529  1.00  0.00     0.157 A 
ATOM     15  C   UNL     1       7.193  -1.020  13.202  1.00  0.00     0.068 A 
ATOM     16  C   UNL     1       7.103  -2.339  12.736  1.00  0.00     0.158 A 
BRANCH  14  17
ATOM     17  O   UNL     1       6.358  -3.923  11.068  1.00  0.00    -0.504 OA
ATOM     18  H   UNL     1       6.585  -4.711  11.665  1.00  0.00     0.293 HD
ENDBRANCH  14  17
BRANCH  16  19
ATOM     19  O   UNL     1       7.663  -3.385  13.468  1.00  0.00    -0.504 OA
ATOM     20  H   UNL     1       7.350  -3.603  14.406  1.00  0.00     0.293 HD
ENDBRANCH  16  19
ENDBRANCH   1  11
BRANCH  10  21
ATOM     21  O   UNL     1       5.875   0.771  15.176  1.00  0.00    -0.500 OA
ATOM     22  H   UNL     1       6.286  -0.153  15.234  1.00  0.00     0.294 HD
ENDBRANCH  10  21
BRANCH   5  23
ATOM     23  O   UNL     1       8.299   6.872  11.025  1.00  0.00    -0.507 OA
ATOM     24  H   UNL     1       9.249   6.863  10.675  1.00  0.00     0.293 HD
ENDBRANCH   5  23
BRANCH   7  25
ATOM     25  O   UNL     1       6.828   5.907  15.491  1.00  0.00    -0.507 OA
ATOM     26  H   UNL     1       6.676   6.880  15.711  1.00  0.00     0.293 HD
ENDBRANCH   7  25
TORSDOF 6
ENDMDL
MODEL 5
REMARK VINA RESULT:    -2.155      2.152      7.621
REMARK INTER + INTRA:          -2.803
REMARK INTER:                  -2.684
REMARK INTRA:                  -0.119
REMARK UNBOUND:                -0.207
REMARK SMILES Oc1cc(O)c2cc(O)c(-c3ccc(O)c(O)c3)[o+]c2c1
REMARK SMILES IDX 10 1 19 2 20 3 21 4 2 5 3 6 4 7 6 8 7 9 8 10 11 11 12 12
REMARK SMILES IDX 13 13 14 14 18 15 16 16 15 17 17 19 9 21 1 23 5 25
REMARK H PARENT 15 18 17 20 9 22 1 24 5 26
REMARK Flexibility Score: inf
ROOT
ATOM      1  C   UNL     1       6.789   3.317  12.969  1.00  0.00     0.402 A 
ATOM      2  O   UNL     1       6.829   3.907  14.162  1.00  0.00    -0.202 OA
ATOM      3  C   UNL     1       6.771   5.225  14.327  1.00  0.00     0.368 A 
ATOM      4  C   UNL     1       6.816   5.750  15.621  1.00  0.00     0.162 A 
ATOM      5  C   UNL     1       6.754   7.131  15.823  1.00  0.00     0.128 A 
ATOM      6  C   UNL     1       6.644   7.991  14.727  1.00  0.00     0.093 A 
ATOM      7  C   UNL     1       6.596   7.489  13.421  1.00  0.00     0.136 A 
ATOM      8  C   UNL     1       6.663   6.088  13.209  1.00  0.00     0.125 A 
ATOM      9  C   UNL     1       6.634   5.496  11.936  1.00  0.00     0.078 A 
ATOM     10  C   UNL     1       6.709   4.106  11.806  1.00  0.00     0.223 A 
ENDROOT
BRANCH   1  11
ATOM     11  C   UNL     1       6.853   1.839  12.917  1.00  0.00     0.087 A 
ATOM     12  C   UNL     1       5.876   1.088  12.239  1.00  0.00     0.022 A 
ATOM     13  C   UNL     1       5.944  -0.308  12.224  1.00  0.00     0.051 A 
ATOM     14  C   UNL     1       6.980  -0.973  12.893  1.00  0.00     0.157 A 
ATOM     15  C   UNL     1       7.877   1.166  13.604  1.00  0.00     0.068 A 
ATOM     16  C   UNL     1       7.946  -0.234  13.587  1.00  0.00     0.158 A 
BRANCH  14  17
ATOM     17  O   UNL     1       7.051  -2.365  12.877  1.00  0.00    -0.504 OA
ATOM     18  H   UNL     1       6.879  -2.914  13.711  1.00  0.00     0.293 HD
ENDBRANCH  14  17
BRANCH  16  19
ATOM     19  O   UNL     1       8.971  -0.898  14.259  1.00  0.00    -0.504 OA
ATOM     20  H   UNL     1       9.753  -0.396  14.661  1.00  0.00     0.293 HD
ENDBRANCH  16  19
ENDBRANCH   1  11
BRANCH  10  21
ATOM     21  O   UNL     1       6.731   3.522  10.540  1.00  0.00    -0.500 OA
ATOM     22  H   UNL     1       7.524   2.979  10.217  1.00  0.00     0.294 HD
ENDBRANCH  10  21
BRANCH   5  23
ATOM     23  O   UNL     1       6.800   7.663  17.110  1.00  0.00    -0.507 OA
ATOM     24  H   UNL     1       7.661   7.687  17.643  1.00  0.00     0.293 HD
ENDBRANCH   5  23
BRANCH   7  25
ATOM     25  O   UNL     1       6.482   8.414  12.380  1.00  0.00    -0.507 OA
ATOM     26  H   UNL     1       7.103   9.199  12.243  1.00  0.00     0.293 HD
ENDBRANCH   7  25
TORSDOF 6
ENDMDL
MODEL 6
REMARK VINA RESULT:    -0.909      1.427      7.416
REMARK INTER + INTRA:          -1.303
REMARK INTER:                  -1.408
REMARK INTRA:                   0.105
REMARK UNBOUND:                -0.207
REMARK SMILES Oc1cc(O)c2cc(O)c(-c3ccc(O)c(O)c3)[o+]c2c1
REMARK SMILES IDX 10 1 19 2 20 3 21 4 2 5 3 6 4 7 6 8 7 9 8 10 11 11 12 12
REMARK SMILES IDX 13 13 14 14 18 15 16 16 15 17 17 19 9 21 1 23 5 25
REMARK H PARENT 15 18 17 20 9 22 1 24 5 26
REMARK Flexibility Score: inf
ROOT
ATOM      1  C   UNL     1       6.485   2.241  12.821  1.00  0.00     0.402 A 
ATOM      2  O   UNL     1       6.840   2.977  13.872  1.00  0.00    -0.202 OA
ATOM      3  C   UNL     1       6.912   4.304  13.842  1.00  0.00     0.368 A 
ATOM      4  C   UNL     1       7.291   4.990  14.999  1.00  0.00     0.162 A 
ATOM      5  C   UNL     1       7.372   6.385  14.996  1.00  0.00     0.128 A 
ATOM      6  C   UNL     1       7.071   7.098  13.833  1.00  0.00     0.093 A 
ATOM      7  C   UNL     1       6.687   6.434  12.662  1.00  0.00     0.136 A 
ATOM      8  C   UNL     1       6.607   5.017  12.658  1.00  0.00     0.125 A 
ATOM      9  C   UNL     1       6.244   4.268  11.527  1.00  0.00     0.078 A 
ATOM     10  C   UNL     1       6.191   2.872  11.598  1.00  0.00     0.223 A 
ENDROOT
BRANCH   1  11
ATOM     11  C   UNL     1       6.433   0.771  12.982  1.00  0.00     0.087 A 
ATOM     12  C   UNL     1       5.891   0.179  14.137  1.00  0.00     0.022 A 
ATOM     13  C   UNL     1       5.875  -1.211  14.277  1.00  0.00     0.051 A 
ATOM     14  C   UNL     1       6.409  -2.030  13.273  1.00  0.00     0.157 A 
ATOM     15  C   UNL     1       6.986  -0.054  11.988  1.00  0.00     0.068 A 
ATOM     16  C   UNL     1       6.968  -1.449  12.128  1.00  0.00     0.158 A 
BRANCH  14  17
ATOM     17  O   UNL     1       6.392  -3.416  13.409  1.00  0.00    -0.504 OA
ATOM     18  H   UNL     1       5.762  -3.995  12.865  1.00  0.00     0.293 HD
ENDBRANCH  14  17
BRANCH  16  19
ATOM     19  O   UNL     1       7.506  -2.264  11.133  1.00  0.00    -0.504 OA
ATOM     20  H   UNL     1       8.007  -3.115  11.358  1.00  0.00     0.293 HD
ENDBRANCH  16  19
ENDBRANCH   1  11
BRANCH  10  21
ATOM     21  O   UNL     1       5.879   2.125  10.462  1.00  0.00    -0.500 OA
ATOM     22  H   UNL     1       5.306   1.292  10.513  1.00  0.00     0.294 HD
ENDBRANCH  10  21
BRANCH   5  23
ATOM     23  O   UNL     1       7.751   7.076  16.146  1.00  0.00    -0.507 OA
ATOM     24  H   UNL     1       7.458   6.773  17.067  1.00  0.00     0.293 HD
ENDBRANCH   5  23
BRANCH   7  25
ATOM     25  O   UNL     1       6.399   7.219  11.543  1.00  0.00    -0.507 OA
ATOM     26  H   UNL     1       7.040   7.881  11.129  1.00  0.00     0.293 HD
ENDBRANCH   7  25
TORSDOF 6
ENDMDL
