MODEL 1
REMARK VINA RESULT:    -0.342      0.000      0.000
REMARK INTER + INTRA:          -1.370
REMARK INTER:                  -0.622
REMARK INTRA:                  -0.749
REMARK UNBOUND:                -0.749
REMARK SMILES CCCCCCCCCCCCCCCC(=O)[O-]
REMARK SMILES IDX 9 1 10 2 11 3 12 4 13 5 14 6 15 7 16 8 17 9 18 10 8 11 7 12
REMARK SMILES IDX 6 13 5 14 4 15 3 16 2 17 1 18
REMARK H PARENT
REMARK Flexibility Score: inf
ROOT
ATOM      1  C   UNL     1      -4.700  35.016  21.562  1.00  0.00     0.000 C 
ENDROOT
BRANCH   1   2
ATOM      2  C   UNL     1      -4.809  34.246  22.887  1.00  0.00     0.000 C 
BRANCH   2   3
ATOM      3  C   UNL     1      -6.111  34.597  23.619  1.00  0.00     0.000 C 
BRANCH   3   4
ATOM      4  C   UNL     1      -5.827  35.058  25.054  1.00  0.00     0.000 C 
BRANCH   4   5
ATOM      5  C   UNL     1      -5.931  36.586  25.170  1.00  0.00     0.000 C 
BRANCH   5   6
ATOM      6  C   UNL     1      -6.125  37.276  23.808  1.00  0.00     0.006 C 
BRANCH   6   7
ATOM      7  C   UNL     1      -5.358  38.600  23.654  1.00  0.00     0.053 C 
BRANCH   7   8
ATOM      8  C   UNL     1      -5.437  39.135  22.257  1.00  0.00     0.041 C 
ATOM      9  O   UNL     1      -5.506  38.345  21.279  1.00  0.00    -0.550 OA
ATOM     10  O   UNL     1      -5.399  40.506  22.034  1.00  0.00    -0.550 OA
ENDBRANCH   7   8
ENDBRANCH   6   7
ENDBRANCH   5   6
ENDBRANCH   4   5
ENDBRANCH   3   4
ENDBRANCH   2   3
ENDBRANCH   1   2
BRANCH   1  11
ATOM     11  C   UNL     1      -6.063  35.233  20.887  1.00  0.00     0.000 C 
BRANCH  11  12
ATOM     12  C   UNL     1      -6.031  34.933  19.378  1.00  0.00    -0.000 C 
BRANCH  12  13
ATOM     13  C   UNL     1      -4.976  35.769  18.634  1.00  0.00    -0.000 C 
BRANCH  13  14
ATOM     14  C   UNL     1      -4.140  34.930  17.650  1.00  0.00    -0.000 C 
BRANCH  14  15
ATOM     15  C   UNL     1      -4.129  35.525  16.233  1.00  0.00    -0.000 C 
BRANCH  15  16
ATOM     16  C   UNL     1      -2.735  35.477  15.584  1.00  0.00    -0.000 C 
BRANCH  16  17
ATOM     17  C   UNL     1      -2.653  36.321  14.304  1.00  0.00    -0.003 C 
ATOM     18  C   UNL     1      -3.823  37.292  14.160  1.00  0.00     0.004 C 
ENDBRANCH  16  17
ENDBRANCH  15  16
ENDBRANCH  14  15
ENDBRANCH  13  14
ENDBRANCH  12  13
ENDBRANCH  11  12
ENDBRANCH   1  11
TORSDOF 14
ENDMDL
MODEL 2
REMARK VINA RESULT:    -0.115      2.720      6.650
REMARK INTER + INTRA:          -0.957
REMARK INTER:                   0.580
REMARK INTRA:                  -1.537
REMARK UNBOUND:                -0.749
REMARK SMILES CCCCCCCCCCCCCCCC(=O)[O-]
REMARK SMILES IDX 9 1 10 2 11 3 12 4 13 5 14 6 15 7 16 8 17 9 18 10 8 11 7 12
REMARK SMILES IDX 6 13 5 14 4 15 3 16 2 17 1 18
REMARK H PARENT
REMARK Flexibility Score: inf
ROOT
ATOM      1  C   UNL     1      -4.692  35.159  22.311  1.00  0.00     0.000 C 
ENDROOT
BRANCH   1   2
ATOM      2  C   UNL     1      -4.645  34.669  20.855  1.00  0.00     0.000 C 
BRANCH   2   3
ATOM      3  C   UNL     1      -6.038  34.717  20.215  1.00  0.00     0.000 C 
BRANCH   3   4
ATOM      4  C   UNL     1      -5.945  34.635  18.687  1.00  0.00     0.000 C 
BRANCH   4   5
ATOM      5  C   UNL     1      -4.479  34.618  18.226  1.00  0.00     0.000 C 
BRANCH   5   6
ATOM      6  C   UNL     1      -4.195  35.631  17.103  1.00  0.00     0.006 C 
BRANCH   6   7
ATOM      7  C   UNL     1      -3.337  35.079  15.954  1.00  0.00     0.053 C 
BRANCH   7   8
ATOM      8  C   UNL     1      -3.144  36.087  14.862  1.00  0.00     0.041 C 
ATOM      9  O   UNL     1      -4.080  36.871  14.552  1.00  0.00    -0.550 OA
ATOM     10  O   UNL     1      -1.944  36.136  14.164  1.00  0.00    -0.550 OA
ENDBRANCH   7   8
ENDBRANCH   6   7
ENDBRANCH   5   6
ENDBRANCH   4   5
ENDBRANCH   3   4
ENDBRANCH   2   3
ENDBRANCH   1   2
BRANCH   1  11
ATOM     11  C   UNL     1      -6.084  35.004  22.945  1.00  0.00     0.000 C 
BRANCH  11  12
ATOM     12  C   UNL     1      -6.072  35.248  24.464  1.00  0.00    -0.000 C 
BRANCH  12  13
ATOM     13  C   UNL     1      -5.578  36.657  24.830  1.00  0.00    -0.000 C 
BRANCH  13  14
ATOM     14  C   UNL     1      -6.125  37.742  23.885  1.00  0.00    -0.000 C 
BRANCH  14  15
ATOM     15  C   UNL     1      -5.049  38.761  23.475  1.00  0.00    -0.000 C 
BRANCH  15  16
ATOM     16  C   UNL     1      -5.346  39.418  22.116  1.00  0.00    -0.000 C 
BRANCH  16  17
ATOM     17  C   UNL     1      -5.885  38.416  21.084  1.00  0.00    -0.003 C 
ATOM     18  C   UNL     1      -4.875  38.101  19.983  1.00  0.00     0.004 C 
ENDBRANCH  16  17
ENDBRANCH  15  16
ENDBRANCH  14  15
ENDBRANCH  13  14
ENDBRANCH  12  13
ENDBRANCH  11  12
ENDBRANCH   1  11
TORSDOF 14
ENDMDL
MODEL 3
REMARK VINA RESULT:     0.637      2.711      3.088
REMARK INTER + INTRA:           0.409
REMARK INTER:                   0.907
REMARK INTRA:                  -0.498
REMARK UNBOUND:                -0.749
REMARK SMILES CCCCCCCCCCCCCCCC(=O)[O-]
REMARK SMILES IDX 9 1 10 2 11 3 12 4 13 5 14 6 15 7 16 8 17 9 18 10 8 11 7 12
REMARK SMILES IDX 6 13 5 14 4 15 3 16 2 17 1 18
REMARK H PARENT
REMARK Flexibility Score: inf
ROOT
ATOM      1  C   UNL     1      -4.589  35.468  21.671  1.00  0.00     0.000 C 
ENDROOT
BRANCH   1   2
ATOM      2  C   UNL     1      -4.799  34.630  22.941  1.00  0.00     0.000 C 
BRANCH   2   3
ATOM      3  C   UNL     1      -6.110  35.011  23.639  1.00  0.00     0.000 C 
BRANCH   3   4
ATOM      4  C   UNL     1      -6.123  36.499  24.011  1.00  0.00     0.000 C 
BRANCH   4   5
ATOM      5  C   UNL     1      -5.994  36.686  25.531  1.00  0.00     0.000 C 
BRANCH   5   6
ATOM      6  C   UNL     1      -4.583  36.366  26.054  1.00  0.00     0.006 C 
BRANCH   6   7
ATOM      7  C   UNL     1      -3.724  37.603  26.358  1.00  0.00     0.053 C 
BRANCH   7   8
ATOM      8  C   UNL     1      -2.431  37.241  27.024  1.00  0.00     0.041 C 
ATOM      9  O   UNL     1      -1.473  38.058  27.033  1.00  0.00    -0.550 OA
ATOM     10  O   UNL     1      -2.275  35.988  27.604  1.00  0.00    -0.550 OA
ENDBRANCH   7   8
ENDBRANCH   6   7
ENDBRANCH   5   6
ENDBRANCH   4   5
ENDBRANCH   3   4
ENDBRANCH   2   3
ENDBRANCH   1   2
BRANCH   1  11
ATOM     11  C   UNL     1      -5.867  35.598  20.827  1.00  0.00     0.000 C 
BRANCH  11  12
ATOM     12  C   UNL     1      -5.749  34.897  19.462  1.00  0.00    -0.000 C 
BRANCH  12  13
ATOM     13  C   UNL     1      -4.393  35.154  18.784  1.00  0.00    -0.000 C 
BRANCH  13  14
ATOM     14  C   UNL     1      -4.415  34.842  17.277  1.00  0.00    -0.000 C 
BRANCH  14  15
ATOM     15  C   UNL     1      -3.780  35.961  16.436  1.00  0.00    -0.000 C 
BRANCH  15  16
ATOM     16  C   UNL     1      -3.157  35.437  15.130  1.00  0.00    -0.000 C 
BRANCH  16  17
ATOM     17  C   UNL     1      -3.067  36.519  14.045  1.00  0.00    -0.003 C 
ATOM     18  C   UNL     1      -4.254  37.480  14.070  1.00  0.00     0.004 C 
ENDBRANCH  16  17
ENDBRANCH  15  16
ENDBRANCH  14  15
ENDBRANCH  13  14
ENDBRANCH  12  13
ENDBRANCH  11  12
ENDBRANCH   1  11
TORSDOF 14
ENDMDL
MODEL 4
REMARK VINA RESULT:     1.114      3.048      7.967
REMARK INTER + INTRA:           1.277
REMARK INTER:                   1.898
REMARK INTRA:                  -0.621
REMARK UNBOUND:                -0.749
REMARK SMILES CCCCCCCCCCCCCCCC(=O)[O-]
REMARK SMILES IDX 9 1 10 2 11 3 12 4 13 5 14 6 15 7 16 8 17 9 18 10 8 11 7 12
REMARK SMILES IDX 6 13 5 14 4 15 3 16 2 17 1 18
REMARK H PARENT
REMARK Flexibility Score: inf
ROOT
ATOM      1  C   UNL     1      -5.014  35.700  21.592  1.00  0.00     0.000 C 
ENDROOT
BRANCH   1   2
ATOM      2  C   UNL     1      -5.153  35.845  20.068  1.00  0.00     0.000 C 
BRANCH   2   3
ATOM      3  C   UNL     1      -5.606  34.525  19.432  1.00  0.00     0.000 C 
BRANCH   3   4
ATOM      4  C   UNL     1      -5.170  34.445  17.964  1.00  0.00     0.000 C 
BRANCH   4   5
ATOM      5  C   UNL     1      -4.066  35.470  17.661  1.00  0.00     0.000 C 
BRANCH   5   6
ATOM      6  C   UNL     1      -3.378  35.224  16.307  1.00  0.00     0.006 C 
BRANCH   6   7
ATOM      7  C   UNL     1      -4.152  35.768  15.095  1.00  0.00     0.053 C 
BRANCH   7   8
ATOM      8  C   UNL     1      -3.344  36.757  14.311  1.00  0.00     0.041 C 
ATOM      9  O   UNL     1      -2.137  36.518  14.044  1.00  0.00    -0.550 OA
ATOM     10  O   UNL     1      -3.916  37.956  13.905  1.00  0.00    -0.550 OA
ENDBRANCH   7   8
ENDBRANCH   6   7
ENDBRANCH   5   6
ENDBRANCH   4   5
ENDBRANCH   3   4
ENDBRANCH   2   3
ENDBRANCH   1   2
BRANCH   1  11
ATOM     11  C   UNL     1      -6.032  34.717  22.191  1.00  0.00     0.000 C 
BRANCH  11  12
ATOM     12  C   UNL     1      -5.466  33.938  23.391  1.00  0.00    -0.000 C 
BRANCH  12  13
ATOM     13  C   UNL     1      -6.120  34.347  24.721  1.00  0.00    -0.000 C 
BRANCH  13  14
ATOM     14  C   UNL     1      -6.125  35.871  24.935  1.00  0.00    -0.000 C 
BRANCH  14  15
ATOM     15  C   UNL     1      -4.706  36.461  24.991  1.00  0.00    -0.000 C 
BRANCH  15  16
ATOM     16  C   UNL     1      -4.584  37.606  26.012  1.00  0.00    -0.000 C 
BRANCH  16  17
ATOM     17  C   UNL     1      -3.131  37.860  26.440  1.00  0.00    -0.003 C 
ATOM     18  C   UNL     1      -2.544  36.706  27.251  1.00  0.00     0.004 C 
ENDBRANCH  16  17
ENDBRANCH  15  16
ENDBRANCH  14  15
ENDBRANCH  13  14
ENDBRANCH  12  13
ENDBRANCH  11  12
ENDBRANCH   1  11
TORSDOF 14
ENDMDL
MODEL 5
REMARK VINA RESULT:     1.264      1.713      2.625
REMARK INTER + INTRA:           1.550
REMARK INTER:                   1.947
REMARK INTRA:                  -0.397
REMARK UNBOUND:                -0.749
REMARK SMILES CCCCCCCCCCCCCCCC(=O)[O-]
REMARK SMILES IDX 9 1 10 2 11 3 12 4 13 5 14 6 15 7 16 8 17 9 18 10 8 11 7 12
REMARK SMILES IDX 6 13 5 14 4 15 3 16 2 17 1 18
REMARK H PARENT
REMARK Flexibility Score: inf
ROOT
ATOM      1  C   UNL     1      -5.710  36.785  20.292  1.00  0.00     0.000 C 
ENDROOT
BRANCH   1   2
ATOM      2  C   UNL     1      -5.917  35.659  21.316  1.00  0.00     0.000 C 
BRANCH   2   3
ATOM      3  C   UNL     1      -4.587  34.975  21.655  1.00  0.00     0.000 C 
BRANCH   3   4
ATOM      4  C   UNL     1      -4.738  34.048  22.867  1.00  0.00     0.000 C 
BRANCH   4   5
ATOM      5  C   UNL     1      -6.091  34.267  23.561  1.00  0.00     0.000 C 
BRANCH   5   6
ATOM      6  C   UNL     1      -5.958  34.981  24.918  1.00  0.00     0.006 C 
BRANCH   6   7
ATOM      7  C   UNL     1      -6.125  36.507  24.850  1.00  0.00     0.053 C 
BRANCH   7   8
ATOM      8  C   UNL     1      -4.990  37.227  25.513  1.00  0.00     0.041 C 
ATOM      9  O   UNL     1      -4.181  36.596  26.243  1.00  0.00    -0.550 OA
ATOM     10  O   UNL     1      -4.848  38.599  25.352  1.00  0.00    -0.550 OA
ENDBRANCH   7   8
ENDBRANCH   6   7
ENDBRANCH   5   6
ENDBRANCH   4   5
ENDBRANCH   3   4
ENDBRANCH   2   3
ENDBRANCH   1   2
BRANCH   1  11
ATOM     11  C   UNL     1      -4.875  36.340  19.081  1.00  0.00     0.000 C 
BRANCH  11  12
ATOM     12  C   UNL     1      -5.064  34.849  18.748  1.00  0.00    -0.000 C 
BRANCH  12  13
ATOM     13  C   UNL     1      -4.119  34.370  17.634  1.00  0.00    -0.000 C 
BRANCH  13  14
ATOM     14  C   UNL     1      -4.124  35.302  16.410  1.00  0.00    -0.000 C 
BRANCH  14  15
ATOM     15  C   UNL     1      -2.705  35.648  15.929  1.00  0.00    -0.000 C 
BRANCH  15  16
ATOM     16  C   UNL     1      -2.678  36.122  14.465  1.00  0.00    -0.000 C 
BRANCH  16  17
ATOM     17  C   UNL     1      -4.029  36.686  14.004  1.00  0.00    -0.003 C 
ATOM     18  C   UNL     1      -4.161  38.187  14.259  1.00  0.00     0.004 C 
ENDBRANCH  16  17
ENDBRANCH  15  16
ENDBRANCH  14  15
ENDBRANCH  13  14
ENDBRANCH  12  13
ENDBRANCH  11  12
ENDBRANCH   1  11
TORSDOF 14
ENDMDL
MODEL 6
REMARK VINA RESULT:     1.493      2.048      3.388
REMARK INTER + INTRA:           1.965
REMARK INTER:                   2.486
REMARK INTRA:                  -0.520
REMARK UNBOUND:                -0.749
REMARK SMILES CCCCCCCCCCCCCCCC(=O)[O-]
REMARK SMILES IDX 9 1 10 2 11 3 12 4 13 5 14 6 15 7 16 8 17 9 18 10 8 11 7 12
REMARK SMILES IDX 6 13 5 14 4 15 3 16 2 17 1 18
REMARK H PARENT
REMARK Flexibility Score: inf
ROOT
ATOM      1  C   UNL     1      -5.552  36.925  19.348  1.00  0.00     0.000 C 
ENDROOT
BRANCH   1   2
ATOM      2  C   UNL     1      -5.967  37.703  20.606  1.00  0.00     0.000 C 
BRANCH   2   3
ATOM      3  C   UNL     1      -4.948  38.803  20.932  1.00  0.00     0.000 C 
BRANCH   3   4
ATOM      4  C   UNL     1      -5.052  39.231  22.401  1.00  0.00     0.000 C 
BRANCH   4   5
ATOM      5  C   UNL     1      -5.938  38.259  23.195  1.00  0.00     0.000 C 
BRANCH   5   6
ATOM      6  C   UNL     1      -5.208  36.957  23.570  1.00  0.00     0.006 C 
BRANCH   6   7
ATOM      7  C   UNL     1      -6.125  35.728  23.686  1.00  0.00     0.053 C 
BRANCH   7   8
ATOM      8  C   UNL     1      -5.418  34.462  23.308  1.00  0.00     0.041 C 
ATOM      9  O   UNL     1      -5.746  33.370  23.842  1.00  0.00    -0.550 OA
ATOM     10  O   UNL     1      -4.374  34.495  22.392  1.00  0.00    -0.550 OA
ENDBRANCH   7   8
ENDBRANCH   6   7
ENDBRANCH   5   6
ENDBRANCH   4   5
ENDBRANCH   3   4
ENDBRANCH   2   3
ENDBRANCH   1   2
BRANCH   1  11
ATOM     11  C   UNL     1      -5.110  35.486  19.659  1.00  0.00     0.000 C 
BRANCH  11  12
ATOM     12  C   UNL     1      -4.896  34.645  18.388  1.00  0.00    -0.000 C 
BRANCH  12  13
ATOM     13  C   UNL     1      -4.425  35.492  17.194  1.00  0.00    -0.000 C 
BRANCH  13  14
ATOM     14  C   UNL     1      -2.984  35.162  16.765  1.00  0.00    -0.000 C 
BRANCH  14  15
ATOM     15  C   UNL     1      -2.753  35.382  15.261  1.00  0.00    -0.000 C 
BRANCH  15  16
ATOM     16  C   UNL     1      -3.946  36.073  14.576  1.00  0.00    -0.000 C 
BRANCH  16  17
ATOM     17  C   UNL     1      -3.553  37.398  13.908  1.00  0.00    -0.003 C 
ATOM     18  C   UNL     1      -4.463  38.557  14.313  1.00  0.00     0.004 C 
ENDBRANCH  16  17
ENDBRANCH  15  16
ENDBRANCH  14  15
ENDBRANCH  13  14
ENDBRANCH  12  13
ENDBRANCH  11  12
ENDBRANCH   1  11
TORSDOF 14
ENDMDL
MODEL 7
REMARK VINA RESULT:     2.241      2.765      3.391
REMARK INTER + INTRA:           3.327
REMARK INTER:                   3.642
REMARK INTRA:                  -0.315
REMARK UNBOUND:                -0.749
REMARK SMILES CCCCCCCCCCCCCCCC(=O)[O-]
REMARK SMILES IDX 9 1 10 2 11 3 12 4 13 5 14 6 15 7 16 8 17 9 18 10 8 11 7 12
REMARK SMILES IDX 6 13 5 14 4 15 3 16 2 17 1 18
REMARK H PARENT
REMARK Flexibility Score: inf
ROOT
ATOM      1  C   UNL     1      -5.212  38.048  22.079  1.00  0.00     0.000 C 
ENDROOT
BRANCH   1   2
ATOM      2  C   UNL     1      -6.125  37.127  22.904  1.00  0.00     0.000 C 
BRANCH   2   3
ATOM      3  C   UNL     1      -5.553  35.705  22.971  1.00  0.00     0.000 C 
BRANCH   3   4
ATOM      4  C   UNL     1      -5.760  35.094  24.361  1.00  0.00     0.000 C 
BRANCH   4   5
ATOM      5  C   UNL     1      -5.704  36.176  25.451  1.00  0.00     0.000 C 
BRANCH   5   6
ATOM      6  C   UNL     1      -4.466  37.082  25.329  1.00  0.00     0.006 C 
BRANCH   6   7
ATOM      7  C   UNL     1      -3.974  37.666  26.663  1.00  0.00     0.053 C 
BRANCH   7   8
ATOM      8  C   UNL     1      -2.585  37.215  26.996  1.00  0.00     0.041 C 
ATOM      9  O   UNL     1      -2.393  36.079  27.505  1.00  0.00    -0.550 OA
ATOM     10  O   UNL     1      -1.507  38.063  26.777  1.00  0.00    -0.550 OA
ENDBRANCH   7   8
ENDBRANCH   6   7
ENDBRANCH   5   6
ENDBRANCH   4   5
ENDBRANCH   3   4
ENDBRANCH   2   3
ENDBRANCH   1   2
BRANCH   1  11
ATOM     11  C   UNL     1      -5.776  38.343  20.679  1.00  0.00     0.000 C 
BRANCH  11  12
ATOM     12  C   UNL     1      -5.034  37.576  19.570  1.00  0.00    -0.000 C 
BRANCH  12  13
ATOM     13  C   UNL     1      -5.626  36.179  19.322  1.00  0.00    -0.000 C 
BRANCH  13  14
ATOM     14  C   UNL     1      -4.555  35.073  19.320  1.00  0.00    -0.000 C 
BRANCH  14  15
ATOM     15  C   UNL     1      -4.386  34.421  17.938  1.00  0.00    -0.000 C 
BRANCH  15  16
ATOM     16  C   UNL     1      -4.352  35.455  16.799  1.00  0.00    -0.000 C 
BRANCH  16  17
ATOM     17  C   UNL     1      -3.045  35.399  15.994  1.00  0.00    -0.003 C 
ATOM     18  C   UNL     1      -3.132  36.163  14.674  1.00  0.00     0.004 C 
ENDBRANCH  16  17
ENDBRANCH  15  16
ENDBRANCH  14  15
ENDBRANCH  13  14
ENDBRANCH  12  13
ENDBRANCH  11  12
ENDBRANCH   1  11
TORSDOF 14
ENDMDL
