MODEL 1
REMARK VINA RESULT:    -5.967      0.000      0.000
REMARK INTER + INTRA:          -7.328
REMARK INTER:                  -7.013
REMARK INTRA:                  -0.315
REMARK UNBOUND:                -0.315
REMARK SMILES O=c1cc(-c2ccc(O)c(O)c2)oc2cc(O)cc(O)c12
REMARK SMILES IDX 4 1 3 2 2 3 1 4 21 5 19 6 18 7 16 8 15 9 14 10 13 11 5 12
REMARK SMILES IDX 6 13 7 14 8 15 12 16 10 17 9 18 11 20 20 22 17 24
REMARK H PARENT 9 19 11 21 20 23 17 25
REMARK Flexibility Score: inf
ROOT
ATOM      1  C   UNL     1      12.891  11.339  15.464  1.00  0.00     0.138 A 
ATOM      2  C   UNL     1      12.236  11.607  14.254  1.00  0.00     0.100 A 
ATOM      3  C   UNL     1      11.115  12.439  14.245  1.00  0.00     0.197 A 
ATOM      4  O   UNL     1      10.516  12.616  13.153  1.00  0.00    -0.289 OA
ATOM      5  C   UNL     1      10.671  13.035  15.450  1.00  0.00     0.107 A 
ATOM      6  C   UNL     1       9.562  13.927  15.558  1.00  0.00     0.134 A 
ATOM      7  C   UNL     1       9.156  14.376  16.820  1.00  0.00     0.093 A 
ATOM      8  C   UNL     1       9.856  14.012  17.974  1.00  0.00     0.123 A 
ATOM      9  C   UNL     1      10.969  13.182  17.875  1.00  0.00     0.094 A 
ATOM     10  C   UNL     1      11.378  12.689  16.634  1.00  0.00     0.146 A 
ATOM     11  O   UNL     1      12.435  11.886  16.587  1.00  0.00    -0.456 OA
ENDROOT
BRANCH   1  12
ATOM     12  C   UNL     1      14.088  10.464  15.531  1.00  0.00     0.021 A 
ATOM     13  C   UNL     1      14.769  10.134  14.346  1.00  0.00     0.016 A 
ATOM     14  C   UNL     1      15.903   9.317  14.381  1.00  0.00     0.051 A 
ATOM     15  C   UNL     1      16.381   8.826  15.602  1.00  0.00     0.157 A 
ATOM     16  C   UNL     1      14.582   9.975  16.756  1.00  0.00     0.062 A 
ATOM     17  C   UNL     1      15.721   9.157  16.791  1.00  0.00     0.158 A 
BRANCH  15  18
ATOM     18  O   UNL     1      17.510   8.010  15.641  1.00  0.00    -0.504 OA
ATOM     19  H   UNL     1      17.694   7.326  14.917  1.00  0.00     0.293 HD
ENDBRANCH  15  18
BRANCH  17  20
ATOM     20  O   UNL     1      16.206   8.675  18.006  1.00  0.00    -0.504 OA
ATOM     21  H   UNL     1      15.639   8.685  18.846  1.00  0.00     0.293 HD
ENDBRANCH  17  20
ENDBRANCH   1  12
BRANCH   6  22
ATOM     22  O   UNL     1       8.843  14.418  14.463  1.00  0.00    -0.507 OA
ATOM     23  H   UNL     1       9.239  14.649  13.565  1.00  0.00     0.293 HD
ENDBRANCH   6  22
BRANCH   8  24
ATOM     24  O   UNL     1       9.454  14.476  19.225  1.00  0.00    -0.508 OA
ATOM     25  H   UNL     1       8.923  15.333  19.326  1.00  0.00     0.293 HD
ENDBRANCH   8  24
TORSDOF 5
ENDMDL
MODEL 2
REMARK VINA RESULT:    -5.463      3.535      5.953
REMARK INTER + INTRA:          -6.736
REMARK INTER:                  -6.423
REMARK INTRA:                  -0.312
REMARK UNBOUND:                -0.315
REMARK SMILES O=c1cc(-c2ccc(O)c(O)c2)oc2cc(O)cc(O)c12
REMARK SMILES IDX 4 1 3 2 2 3 1 4 21 5 19 6 18 7 16 8 15 9 14 10 13 11 5 12
REMARK SMILES IDX 6 13 7 14 8 15 12 16 10 17 9 18 11 20 20 22 17 24
REMARK H PARENT 9 19 11 21 20 23 17 25
REMARK Flexibility Score: inf
ROOT
ATOM      1  C   UNL     1       8.489  15.005  16.475  1.00  0.00     0.138 A 
ATOM      2  C   UNL     1       7.680  15.970  15.859  1.00  0.00     0.100 A 
ATOM      3  C   UNL     1       6.873  16.797  16.641  1.00  0.00     0.197 A 
ATOM      4  O   UNL     1       6.116  17.614  16.055  1.00  0.00    -0.289 OA
ATOM      5  C   UNL     1       6.905  16.682  18.052  1.00  0.00     0.107 A 
ATOM      6  C   UNL     1       6.152  17.494  18.953  1.00  0.00     0.134 A 
ATOM      7  C   UNL     1       6.191  17.221  20.325  1.00  0.00     0.093 A 
ATOM      8  C   UNL     1       7.001  16.203  20.836  1.00  0.00     0.123 A 
ATOM      9  C   UNL     1       7.777  15.437  19.970  1.00  0.00     0.094 A 
ATOM     10  C   UNL     1       7.734  15.662  18.592  1.00  0.00     0.146 A 
ATOM     11  O   UNL     1       8.477  14.897  17.800  1.00  0.00    -0.456 OA
ENDROOT
BRANCH   1  12
ATOM     12  C   UNL     1       9.368  14.102  15.693  1.00  0.00     0.021 A 
ATOM     13  C   UNL     1       9.126  13.923  14.319  1.00  0.00     0.016 A 
ATOM     14  C   UNL     1       9.943  13.083  13.557  1.00  0.00     0.051 A 
ATOM     15  C   UNL     1      11.020  12.416  14.152  1.00  0.00     0.157 A 
ATOM     16  C   UNL     1      10.461  13.436  16.281  1.00  0.00     0.062 A 
ATOM     17  C   UNL     1      11.281  12.595  15.516  1.00  0.00     0.158 A 
BRANCH  15  18
ATOM     18  O   UNL     1      11.836  11.576  13.396  1.00  0.00    -0.504 OA
ATOM     19  H   UNL     1      12.240  11.881  12.518  1.00  0.00     0.293 HD
ENDBRANCH  15  18
BRANCH  17  20
ATOM     20  O   UNL     1      12.361  11.937  16.103  1.00  0.00    -0.504 OA
ATOM     21  H   UNL     1      13.076  12.441  16.615  1.00  0.00     0.293 HD
ENDBRANCH  17  20
ENDBRANCH   1  12
BRANCH   6  22
ATOM     22  O   UNL     1       5.373  18.587  18.559  1.00  0.00    -0.507 OA
ATOM     23  H   UNL     1       4.373  18.573  18.438  1.00  0.00     0.293 HD
ENDBRANCH   6  22
BRANCH   8  24
ATOM     24  O   UNL     1       7.046  15.949  22.205  1.00  0.00    -0.508 OA
ATOM     25  H   UNL     1       6.832  16.670  22.884  1.00  0.00     0.293 HD
ENDBRANCH   8  24
TORSDOF 5
ENDMDL
MODEL 3
REMARK VINA RESULT:    -5.443      3.038      8.011
REMARK INTER + INTRA:          -6.713
REMARK INTER:                  -6.420
REMARK INTRA:                  -0.293
REMARK UNBOUND:                -0.315
REMARK SMILES O=c1cc(-c2ccc(O)c(O)c2)oc2cc(O)cc(O)c12
REMARK SMILES IDX 4 1 3 2 2 3 1 4 21 5 19 6 18 7 16 8 15 9 14 10 13 11 5 12
REMARK SMILES IDX 6 13 7 14 8 15 12 16 10 17 9 18 11 20 20 22 17 24
REMARK H PARENT 9 19 11 21 20 23 17 25
REMARK Flexibility Score: inf
ROOT
ATOM      1  C   UNL     1       9.328  14.302  17.111  1.00  0.00     0.138 A 
ATOM      2  C   UNL     1      10.448  13.733  17.734  1.00  0.00     0.100 A 
ATOM      3  C   UNL     1      11.331  12.951  16.988  1.00  0.00     0.197 A 
ATOM      4  O   UNL     1      12.295  12.409  17.589  1.00  0.00    -0.289 OA
ATOM      5  C   UNL     1      11.112  12.770  15.602  1.00  0.00     0.107 A 
ATOM      6  C   UNL     1      11.963  12.023  14.733  1.00  0.00     0.134 A 
ATOM      7  C   UNL     1      11.590  11.830  13.397  1.00  0.00     0.093 A 
ATOM      8  C   UNL     1      10.425  12.408  12.883  1.00  0.00     0.123 A 
ATOM      9  C   UNL     1       9.613  13.179  13.710  1.00  0.00     0.094 A 
ATOM     10  C   UNL     1       9.940  13.361  15.056  1.00  0.00     0.146 A 
ATOM     11  O   UNL     1       9.128  14.090  15.814  1.00  0.00    -0.456 OA
ENDROOT
BRANCH   1  12
ATOM     12  C   UNL     1       8.358  15.143  17.855  1.00  0.00     0.021 A 
ATOM     13  C   UNL     1       7.505  16.006  17.144  1.00  0.00     0.016 A 
ATOM     14  C   UNL     1       6.578  16.804  17.820  1.00  0.00     0.051 A 
ATOM     15  C   UNL     1       6.480  16.745  19.216  1.00  0.00     0.157 A 
ATOM     16  C   UNL     1       8.245  15.081  19.258  1.00  0.00     0.062 A 
ATOM     17  C   UNL     1       7.313  15.880  19.935  1.00  0.00     0.158 A 
BRANCH  15  18
ATOM     18  O   UNL     1       5.558  17.540  19.893  1.00  0.00    -0.504 OA
ATOM     19  H   UNL     1       4.921  18.153  19.396  1.00  0.00     0.293 HD
ENDBRANCH  15  18
BRANCH  17  20
ATOM     20  O   UNL     1       7.206  15.817  21.323  1.00  0.00    -0.504 OA
ATOM     21  H   UNL     1       6.634  15.115  21.781  1.00  0.00     0.293 HD
ENDBRANCH  17  20
ENDBRANCH   1  12
BRANCH   6  22
ATOM     22  O   UNL     1      13.188  11.471  15.121  1.00  0.00    -0.507 OA
ATOM     23  H   UNL     1      13.820  11.877  15.793  1.00  0.00     0.293 HD
ENDBRANCH   6  22
BRANCH   8  24
ATOM     24  O   UNL     1      10.070  12.224  11.549  1.00  0.00    -0.508 OA
ATOM     25  H   UNL     1       9.668  12.975  11.000  1.00  0.00     0.293 HD
ENDBRANCH   8  24
TORSDOF 5
ENDMDL
MODEL 4
REMARK VINA RESULT:    -5.439      2.531      7.863
REMARK INTER + INTRA:          -6.708
REMARK INTER:                  -6.412
REMARK INTRA:                  -0.296
REMARK UNBOUND:                -0.315
REMARK SMILES O=c1cc(-c2ccc(O)c(O)c2)oc2cc(O)cc(O)c12
REMARK SMILES IDX 4 1 3 2 2 3 1 4 21 5 19 6 18 7 16 8 15 9 14 10 13 11 5 12
REMARK SMILES IDX 6 13 7 14 8 15 12 16 10 17 9 18 11 20 20 22 17 24
REMARK H PARENT 9 19 11 21 20 23 17 25
REMARK Flexibility Score: inf
ROOT
ATOM      1  C   UNL     1       9.031  14.566  16.683  1.00  0.00     0.138 A 
ATOM      2  C   UNL     1       8.705  14.767  15.334  1.00  0.00     0.100 A 
ATOM      3  C   UNL     1       9.462  14.145  14.341  1.00  0.00     0.197 A 
ATOM      4  O   UNL     1       9.180  14.389  13.139  1.00  0.00    -0.289 OA
ATOM      5  C   UNL     1      10.529  13.287  14.702  1.00  0.00     0.107 A 
ATOM      6  C   UNL     1      11.349  12.573  13.777  1.00  0.00     0.134 A 
ATOM      7  C   UNL     1      12.439  11.832  14.250  1.00  0.00     0.093 A 
ATOM      8  C   UNL     1      12.704  11.731  15.619  1.00  0.00     0.123 A 
ATOM      9  C   UNL     1      11.881  12.384  16.532  1.00  0.00     0.094 A 
ATOM     10  C   UNL     1      10.806  13.160  16.090  1.00  0.00     0.146 A 
ATOM     11  O   UNL     1      10.057  13.781  16.995  1.00  0.00    -0.456 OA
ENDROOT
BRANCH   1  12
ATOM     12  C   UNL     1       8.258  15.200  17.780  1.00  0.00     0.021 A 
ATOM     13  C   UNL     1       8.544  14.857  19.113  1.00  0.00     0.016 A 
ATOM     14  C   UNL     1       7.836  15.444  20.166  1.00  0.00     0.051 A 
ATOM     15  C   UNL     1       6.838  16.391  19.904  1.00  0.00     0.157 A 
ATOM     16  C   UNL     1       7.261  16.162  17.526  1.00  0.00     0.062 A 
ATOM     17  C   UNL     1       6.553  16.752  18.582  1.00  0.00     0.158 A 
BRANCH  15  18
ATOM     18  O   UNL     1       6.130  16.978  20.950  1.00  0.00    -0.504 OA
ATOM     19  H   UNL     1       6.435  17.845  21.376  1.00  0.00     0.293 HD
ENDBRANCH  15  18
BRANCH  17  20
ATOM     20  O   UNL     1       5.566  17.703  18.326  1.00  0.00    -0.504 OA
ATOM     21  H   UNL     1       5.685  18.413  17.612  1.00  0.00     0.293 HD
ENDBRANCH  17  20
ENDBRANCH   1  12
BRANCH   6  22
ATOM     22  O   UNL     1      11.126  12.538  12.397  1.00  0.00    -0.507 OA
ATOM     23  H   UNL     1      11.823  12.318  11.702  1.00  0.00     0.293 HD
ENDBRANCH   6  22
BRANCH   8  24
ATOM     24  O   UNL     1      13.781  10.979  16.081  1.00  0.00    -0.508 OA
ATOM     25  H   UNL     1      14.536  11.402  16.607  1.00  0.00     0.293 HD
ENDBRANCH   8  24
TORSDOF 5
ENDMDL
MODEL 5
REMARK VINA RESULT:    -5.342      1.401      6.765
REMARK INTER + INTRA:          -6.594
REMARK INTER:                  -6.276
REMARK INTRA:                  -0.318
REMARK UNBOUND:                -0.315
REMARK SMILES O=c1cc(-c2ccc(O)c(O)c2)oc2cc(O)cc(O)c12
REMARK SMILES IDX 4 1 3 2 2 3 1 4 21 5 19 6 18 7 16 8 15 9 14 10 13 11 5 12
REMARK SMILES IDX 6 13 7 14 8 15 12 16 10 17 9 18 11 20 20 22 17 24
REMARK H PARENT 9 19 11 21 20 23 17 25
REMARK Flexibility Score: inf
ROOT
ATOM      1  C   UNL     1      12.401  11.985  15.255  1.00  0.00     0.138 A 
ATOM      2  C   UNL     1      12.919  11.766  13.970  1.00  0.00     0.100 A 
ATOM      3  C   UNL     1      14.010  10.913  13.801  1.00  0.00     0.197 A 
ATOM      4  O   UNL     1      14.486  10.781  12.644  1.00  0.00    -0.289 OA
ATOM      5  C   UNL     1      14.563  10.247  14.921  1.00  0.00     0.107 A 
ATOM      6  C   UNL     1      15.654   9.328  14.866  1.00  0.00     0.134 A 
ATOM      7  C   UNL     1      16.179   8.807  16.054  1.00  0.00     0.093 A 
ATOM      8  C   UNL     1      15.615   9.124  17.293  1.00  0.00     0.123 A 
ATOM      9  C   UNL     1      14.519   9.981  17.354  1.00  0.00     0.094 A 
ATOM     10  C   UNL     1      13.994  10.545  16.188  1.00  0.00     0.146 A 
ATOM     11  O   UNL     1      12.958  11.371  16.294  1.00  0.00    -0.456 OA
ENDROOT
BRANCH   1  12
ATOM     12  C   UNL     1      11.241  12.879  15.492  1.00  0.00     0.021 A 
ATOM     13  C   UNL     1      10.565  13.439  14.393  1.00  0.00     0.016 A 
ATOM     14  C   UNL     1       9.466  14.279  14.588  1.00  0.00     0.051 A 
ATOM     15  C   UNL     1       9.016  14.565  15.882  1.00  0.00     0.157 A 
ATOM     16  C   UNL     1      10.775  13.162  16.791  1.00  0.00     0.062 A 
ATOM     17  C   UNL     1       9.670  14.004  16.985  1.00  0.00     0.158 A 
BRANCH  15  18
ATOM     18  O   UNL     1       7.921  15.403  16.081  1.00  0.00    -0.504 OA
ATOM     19  H   UNL     1       8.039  16.383  16.311  1.00  0.00     0.293 HD
ENDBRANCH  15  18
BRANCH  17  20
ATOM     20  O   UNL     1       9.214  14.282  18.272  1.00  0.00    -0.504 OA
ATOM     21  H   UNL     1       8.782  15.170  18.503  1.00  0.00     0.293 HD
ENDBRANCH  17  20
ENDBRANCH   1  12
BRANCH   6  22
ATOM     22  O   UNL     1      16.241   8.880  13.678  1.00  0.00    -0.507 OA
ATOM     23  H   UNL     1      15.895   9.071  12.751  1.00  0.00     0.293 HD
ENDBRANCH   6  22
BRANCH   8  24
ATOM     24  O   UNL     1      16.133   8.588  18.469  1.00  0.00    -0.508 OA
ATOM     25  H   UNL     1      15.668   7.832  18.956  1.00  0.00     0.293 HD
ENDBRANCH   8  24
TORSDOF 5
ENDMDL
MODEL 6
REMARK VINA RESULT:    -5.319      1.506      6.887
REMARK INTER + INTRA:          -6.567
REMARK INTER:                  -6.271
REMARK INTRA:                  -0.296
REMARK UNBOUND:                -0.315
REMARK SMILES O=c1cc(-c2ccc(O)c(O)c2)oc2cc(O)cc(O)c12
REMARK SMILES IDX 4 1 3 2 2 3 1 4 21 5 19 6 18 7 16 8 15 9 14 10 13 11 5 12
REMARK SMILES IDX 6 13 7 14 8 15 12 16 10 17 9 18 11 20 20 22 17 24
REMARK H PARENT 9 19 11 21 20 23 17 25
REMARK Flexibility Score: inf
ROOT
ATOM      1  C   UNL     1      12.084  12.164  15.463  1.00  0.00     0.138 A 
ATOM      2  C   UNL     1      12.239  12.378  14.086  1.00  0.00     0.100 A 
ATOM      3  C   UNL     1      13.234  11.692  13.388  1.00  0.00     0.197 A 
ATOM      4  O   UNL     1      13.385  11.948  12.165  1.00  0.00    -0.289 OA
ATOM      5  C   UNL     1      14.055  10.759  14.066  1.00  0.00     0.107 A 
ATOM      6  C   UNL     1      15.079   9.977  13.452  1.00  0.00     0.134 A 
ATOM      7  C   UNL     1      15.892   9.158  14.245  1.00  0.00     0.093 A 
ATOM      8  C   UNL     1      15.681   9.049  15.623  1.00  0.00     0.123 A 
ATOM      9  C   UNL     1      14.653   9.770  16.224  1.00  0.00     0.094 A 
ATOM     10  C   UNL     1      13.846  10.622  15.465  1.00  0.00     0.146 A 
ATOM     11  O   UNL     1      12.888  11.305  16.083  1.00  0.00    -0.456 OA
ENDROOT
BRANCH   1  12
ATOM     12  C   UNL     1      11.042  12.863  16.254  1.00  0.00     0.021 A 
ATOM     13  C   UNL     1      10.995  12.682  17.648  1.00  0.00     0.016 A 
ATOM     14  C   UNL     1      10.027  13.334  18.417  1.00  0.00     0.051 A 
ATOM     15  C   UNL     1       9.098  14.187  17.809  1.00  0.00     0.157 A 
ATOM     16  C   UNL     1      10.111  13.732  15.651  1.00  0.00     0.062 A 
ATOM     17  C   UNL     1       9.142  14.388  16.424  1.00  0.00     0.158 A 
BRANCH  15  18
ATOM     18  O   UNL     1       8.132  14.838  18.572  1.00  0.00    -0.504 OA
ATOM     19  H   UNL     1       7.960  15.832  18.474  1.00  0.00     0.293 HD
ENDBRANCH  15  18
BRANCH  17  20
ATOM     20  O   UNL     1       8.222  15.246  15.823  1.00  0.00    -0.504 OA
ATOM     21  H   UNL     1       7.819  16.029  16.325  1.00  0.00     0.293 HD
ENDBRANCH  17  20
ENDBRANCH   1  12
BRANCH   6  22
ATOM     22  O   UNL     1      15.323   9.948  12.075  1.00  0.00    -0.507 OA
ATOM     23  H   UNL     1      14.743  10.381  11.374  1.00  0.00     0.293 HD
ENDBRANCH   6  22
BRANCH   8  24
ATOM     24  O   UNL     1      16.485   8.220  16.401  1.00  0.00    -0.508 OA
ATOM     25  H   UNL     1      16.911   8.550  17.259  1.00  0.00     0.293 HD
ENDBRANCH   8  24
TORSDOF 5
ENDMDL
MODEL 7
REMARK VINA RESULT:    -5.246      1.283      2.805
REMARK INTER + INTRA:          -6.481
REMARK INTER:                  -6.186
REMARK INTRA:                  -0.296
REMARK UNBOUND:                -0.315
REMARK SMILES O=c1cc(-c2ccc(O)c(O)c2)oc2cc(O)cc(O)c12
REMARK SMILES IDX 4 1 3 2 2 3 1 4 21 5 19 6 18 7 16 8 15 9 14 10 13 11 5 12
REMARK SMILES IDX 6 13 7 14 8 15 12 16 10 17 9 18 11 20 20 22 17 24
REMARK H PARENT 9 19 11 21 20 23 17 25
REMARK Flexibility Score: inf
ROOT
ATOM      1  C   UNL     1      12.555  11.659  15.796  1.00  0.00     0.138 A 
ATOM      2  C   UNL     1      12.102  12.288  16.964  1.00  0.00     0.100 A 
ATOM      3  C   UNL     1      11.031  13.181  16.897  1.00  0.00     0.197 A 
ATOM      4  O   UNL     1      10.684  13.771  17.952  1.00  0.00    -0.289 OA
ATOM      5  C   UNL     1      10.388  13.417  15.658  1.00  0.00     0.107 A 
ATOM      6  C   UNL     1       9.266  14.280  15.474  1.00  0.00     0.134 A 
ATOM      7  C   UNL     1       8.777  14.511  14.182  1.00  0.00     0.093 A 
ATOM      8  C   UNL     1       9.332  13.864  13.074  1.00  0.00     0.123 A 
ATOM      9  C   UNL     1      10.395  12.982  13.249  1.00  0.00     0.094 A 
ATOM     10  C   UNL     1      10.928  12.758  14.521  1.00  0.00     0.146 A 
ATOM     11  O   UNL     1      11.954  11.921  14.640  1.00  0.00    -0.456 OA
ENDROOT
BRANCH   1  12
ATOM     12  C   UNL     1      13.687  10.699  15.811  1.00  0.00     0.021 A 
ATOM     13  C   UNL     1      14.242  10.268  14.593  1.00  0.00     0.016 A 
ATOM     14  C   UNL     1      15.312   9.370  14.578  1.00  0.00     0.051 A 
ATOM     15  C   UNL     1      15.853   8.896  15.779  1.00  0.00     0.157 A 
ATOM     16  C   UNL     1      14.244  10.226  17.015  1.00  0.00     0.062 A 
ATOM     17  C   UNL     1      15.320   9.327  16.999  1.00  0.00     0.158 A 
BRANCH  15  18
ATOM     18  O   UNL     1      16.919   7.999  15.768  1.00  0.00    -0.504 OA
ATOM     19  H   UNL     1      17.251   7.580  14.907  1.00  0.00     0.293 HD
ENDBRANCH  15  18
BRANCH  17  20
ATOM     20  O   UNL     1      15.867   8.861  18.194  1.00  0.00    -0.504 OA
ATOM     21  H   UNL     1      15.945   7.869  18.391  1.00  0.00     0.293 HD
ENDBRANCH  17  20
ENDBRANCH   1  12
BRANCH   6  22
ATOM     22  O   UNL     1       8.585  14.913  16.518  1.00  0.00    -0.507 OA
ATOM     23  H   UNL     1       7.773  14.545  16.989  1.00  0.00     0.293 HD
ENDBRANCH   6  22
BRANCH   8  24
ATOM     24  O   UNL     1       8.828  14.087  11.795  1.00  0.00    -0.508 OA
ATOM     25  H   UNL     1       9.306  13.744  10.970  1.00  0.00     0.293 HD
ENDBRANCH   8  24
TORSDOF 5
ENDMDL
MODEL 8
REMARK VINA RESULT:    -5.235      3.072      8.640
REMARK INTER + INTRA:          -6.468
REMARK INTER:                  -6.173
REMARK INTRA:                  -0.295
REMARK UNBOUND:                -0.315
REMARK SMILES O=c1cc(-c2ccc(O)c(O)c2)oc2cc(O)cc(O)c12
REMARK SMILES IDX 4 1 3 2 2 3 1 4 21 5 19 6 18 7 16 8 15 9 14 10 13 11 5 12
REMARK SMILES IDX 6 13 7 14 8 15 12 16 10 17 9 18 11 20 20 22 17 24
REMARK H PARENT 9 19 11 21 20 23 17 25
REMARK Flexibility Score: inf
ROOT
ATOM      1  C   UNL     1       8.750  15.061  16.206  1.00  0.00     0.138 A 
ATOM      2  C   UNL     1       9.137  14.204  17.246  1.00  0.00     0.100 A 
ATOM      3  C   UNL     1      10.225  13.349  17.068  1.00  0.00     0.197 A 
ATOM      4  O   UNL     1      10.513  12.553  17.999  1.00  0.00    -0.289 OA
ATOM      5  C   UNL     1      10.953  13.380  15.854  1.00  0.00     0.107 A 
ATOM      6  C   UNL     1      12.100  12.579  15.571  1.00  0.00     0.134 A 
ATOM      7  C   UNL     1      12.678  12.625  14.297  1.00  0.00     0.093 A 
ATOM      8  C   UNL     1      12.186  13.486  13.312  1.00  0.00     0.123 A 
ATOM      9  C   UNL     1      11.097  14.308  13.593  1.00  0.00     0.094 A 
ATOM     10  C   UNL     1      10.477  14.259  14.845  1.00  0.00     0.146 A 
ATOM     11  O   UNL     1       9.431  15.048  15.065  1.00  0.00    -0.456 OA
ENDROOT
BRANCH   1  12
ATOM     12  C   UNL     1       7.603  15.992  16.342  1.00  0.00     0.021 A 
ATOM     13  C   UNL     1       7.088  16.627  15.197  1.00  0.00     0.016 A 
ATOM     14  C   UNL     1       6.004  17.503  15.297  1.00  0.00     0.051 A 
ATOM     15  C   UNL     1       5.409  17.752  16.539  1.00  0.00     0.157 A 
ATOM     16  C   UNL     1       6.990  16.239  17.587  1.00  0.00     0.062 A 
ATOM     17  C   UNL     1       5.901  17.117  17.685  1.00  0.00     0.158 A 
BRANCH  15  18
ATOM     18  O   UNL     1       4.329  18.626  16.642  1.00  0.00    -0.504 OA
ATOM     19  H   UNL     1       3.858  18.985  15.820  1.00  0.00     0.293 HD
ENDBRANCH  15  18
BRANCH  17  20
ATOM     20  O   UNL     1       5.300  17.359  18.919  1.00  0.00    -0.504 OA
ATOM     21  H   UNL     1       5.013  16.601  19.529  1.00  0.00     0.293 HD
ENDBRANCH  17  20
ENDBRANCH   1  12
BRANCH   6  22
ATOM     22  O   UNL     1      12.722  11.744  16.505  1.00  0.00    -0.507 OA
ATOM     23  H   UNL     1      12.469  11.672  17.478  1.00  0.00     0.293 HD
ENDBRANCH   6  22
BRANCH   8  24
ATOM     24  O   UNL     1      12.776  13.537  12.052  1.00  0.00    -0.508 OA
ATOM     25  H   UNL     1      13.746  13.806  11.932  1.00  0.00     0.293 HD
ENDBRANCH   8  24
TORSDOF 5
ENDMDL
MODEL 9
REMARK VINA RESULT:    -5.132      3.257      8.490
REMARK INTER + INTRA:          -6.347
REMARK INTER:                  -6.029
REMARK INTRA:                  -0.318
REMARK UNBOUND:                -0.315
REMARK SMILES O=c1cc(-c2ccc(O)c(O)c2)oc2cc(O)cc(O)c12
REMARK SMILES IDX 4 1 3 2 2 3 1 4 21 5 19 6 18 7 16 8 15 9 14 10 13 11 5 12
REMARK SMILES IDX 6 13 7 14 8 15 12 16 10 17 9 18 11 20 20 22 17 24
REMARK H PARENT 9 19 11 21 20 23 17 25
REMARK Flexibility Score: inf
ROOT
ATOM      1  C   UNL     1       8.514  15.585  15.187  1.00  0.00     0.138 A 
ATOM      2  C   UNL     1       8.998  15.580  13.871  1.00  0.00     0.100 A 
ATOM      3  C   UNL     1      10.129  14.827  13.554  1.00  0.00     0.197 A 
ATOM      4  O   UNL     1      10.571  14.887  12.378  1.00  0.00    -0.289 OA
ATOM      5  C   UNL     1      10.756  14.044  14.553  1.00  0.00     0.107 A 
ATOM      6  C   UNL     1      11.894  13.209  14.339  1.00  0.00     0.134 A 
ATOM      7  C   UNL     1      12.487  12.558  15.427  1.00  0.00     0.093 A 
ATOM      8  C   UNL     1      11.949  12.664  16.713  1.00  0.00     0.123 A 
ATOM      9  C   UNL     1      10.810  13.437  16.924  1.00  0.00     0.094 A 
ATOM     10  C   UNL     1      10.215  14.127  15.864  1.00  0.00     0.146 A 
ATOM     11  O   UNL     1       9.140  14.866  16.113  1.00  0.00    -0.456 OA
ENDROOT
BRANCH   1  12
ATOM     12  C   UNL     1       7.315  16.366  15.579  1.00  0.00     0.021 A 
ATOM     13  C   UNL     1       6.602  17.077  14.597  1.00  0.00     0.016 A 
ATOM     14  C   UNL     1       5.466  17.815  14.938  1.00  0.00     0.051 A 
ATOM     15  C   UNL     1       5.016  17.847  16.264  1.00  0.00     0.157 A 
ATOM     16  C   UNL     1       6.849  16.394  16.909  1.00  0.00     0.062 A 
ATOM     17  C   UNL     1       5.707  17.133  17.249  1.00  0.00     0.158 A 
BRANCH  15  18
ATOM     18  O   UNL     1       3.884  18.583  16.608  1.00  0.00    -0.504 OA
ATOM     19  H   UNL     1       3.413  19.176  15.934  1.00  0.00     0.293 HD
ENDBRANCH  15  18
BRANCH  17  20
ATOM     20  O   UNL     1       5.250  17.159  18.566  1.00  0.00    -0.504 OA
ATOM     21  H   UNL     1       4.968  18.024  19.014  1.00  0.00     0.293 HD
ENDBRANCH  17  20
ENDBRANCH   1  12
BRANCH   6  22
ATOM     22  O   UNL     1      12.464  12.968  13.085  1.00  0.00    -0.507 OA
ATOM     23  H   UNL     1      12.845  13.674  12.475  1.00  0.00     0.293 HD
ENDBRANCH   6  22
BRANCH   8  24
ATOM     24  O   UNL     1      12.537  12.000  17.787  1.00  0.00    -0.508 OA
ATOM     25  H   UNL     1      12.554  10.989  17.839  1.00  0.00     0.293 HD
ENDBRANCH   8  24
TORSDOF 5
ENDMDL
