MODEL 1
REMARK VINA RESULT:    -3.687      0.000      0.000
REMARK INTER + INTRA:          -7.055
REMARK INTER:                  -5.842
REMARK INTRA:                  -1.213
REMARK UNBOUND:                -1.213
REMARK SMILES CCCCCCCCCCCC(=O)[O-]
REMARK SMILES IDX 7 1 8 2 9 3 10 4 11 5 12 6 13 7 14 8 6 9 5 10 4 11 3 12 2 13
REMARK SMILES IDX 1 14
REMARK H PARENT
REMARK Flexibility Score: inf
ROOT
ATOM      1  C   UNL     1      26.934  -0.106   5.789  1.00  0.00     0.000 C 
ENDROOT
BRANCH   1   2
ATOM      2  C   UNL     1      27.890   1.039   5.404  1.00  0.00     0.000 C 
BRANCH   2   3
ATOM      3  C   UNL     1      27.979   2.133   6.478  1.00  0.00     0.000 C 
BRANCH   3   4
ATOM      4  C   UNL     1      26.581   2.611   6.895  1.00  0.00     0.006 C 
BRANCH   4   5
ATOM      5  C   UNL     1      26.438   2.733   8.418  1.00  0.00     0.053 C 
BRANCH   5   6
ATOM      6  C   UNL     1      25.164   2.114   8.907  1.00  0.00     0.041 C 
ATOM      7  O   UNL     1      24.541   2.627   9.873  1.00  0.00    -0.550 OA
ATOM      8  O   UNL     1      24.648   0.991   8.274  1.00  0.00    -0.550 OA
ENDBRANCH   5   6
ENDBRANCH   4   5
ENDBRANCH   3   4
ENDBRANCH   2   3
ENDBRANCH   1   2
BRANCH   1   9
ATOM      9  C   UNL     1      27.602  -1.484   5.947  1.00  0.00     0.000 C 
BRANCH   9  10
ATOM     10  C   UNL     1      27.576  -2.002   7.393  1.00  0.00    -0.000 C 
BRANCH  10  11
ATOM     11  C   UNL     1      28.651  -1.309   8.243  1.00  0.00    -0.000 C 
BRANCH  11  12
ATOM     12  C   UNL     1      28.058  -0.403   9.339  1.00  0.00    -0.000 C 
BRANCH  12  13
ATOM     13  C   UNL     1      27.541  -1.149  10.582  1.00  0.00    -0.003 C 
ATOM     14  C   UNL     1      26.016  -1.219  10.646  1.00  0.00     0.004 C 
ENDBRANCH  12  13
ENDBRANCH  11  12
ENDBRANCH  10  11
ENDBRANCH   9  10
ENDBRANCH   1   9
TORSDOF 10
ENDMDL
MODEL 2
REMARK VINA RESULT:    -3.676      3.773      5.921
REMARK INTER + INTRA:          -7.039
REMARK INTER:                  -5.586
REMARK INTRA:                  -1.452
REMARK UNBOUND:                -1.213
REMARK SMILES CCCCCCCCCCCC(=O)[O-]
REMARK SMILES IDX 7 1 8 2 9 3 10 4 11 5 12 6 13 7 14 8 6 9 5 10 4 11 3 12 2 13
REMARK SMILES IDX 1 14
REMARK H PARENT
REMARK Flexibility Score: inf
ROOT
ATOM      1  C   UNL     1      28.767  -2.054   8.911  1.00  0.00     0.000 C 
ENDROOT
BRANCH   1   2
ATOM      2  C   UNL     1      28.560  -2.692   7.524  1.00  0.00     0.000 C 
BRANCH   2   3
ATOM      3  C   UNL     1      27.136  -3.225   7.315  1.00  0.00     0.000 C 
BRANCH   3   4
ATOM      4  C   UNL     1      26.661  -2.977   5.877  1.00  0.00     0.006 C 
BRANCH   4   5
ATOM      5  C   UNL     1      27.788  -3.168   4.852  1.00  0.00     0.053 C 
BRANCH   5   6
ATOM      6  C   UNL     1      27.627  -4.443   4.080  1.00  0.00     0.041 C 
ATOM      7  O   UNL     1      27.500  -4.413   2.828  1.00  0.00    -0.550 OA
ATOM      8  O   UNL     1      27.652  -5.664   4.741  1.00  0.00    -0.550 OA
ENDBRANCH   5   6
ENDBRANCH   4   5
ENDBRANCH   3   4
ENDBRANCH   2   3
ENDBRANCH   1   2
BRANCH   1   9
ATOM      9  C   UNL     1      28.712  -0.516   8.934  1.00  0.00     0.000 C 
BRANCH   9  10
ATOM     10  C   UNL     1      27.402   0.029   9.520  1.00  0.00    -0.000 C 
BRANCH  10  11
ATOM     11  C   UNL     1      26.739   1.021   8.553  1.00  0.00    -0.000 C 
BRANCH  11  12
ATOM     12  C   UNL     1      26.037   0.328   7.370  1.00  0.00    -0.000 C 
BRANCH  12  13
ATOM     13  C   UNL     1      26.351   0.933   5.990  1.00  0.00    -0.003 C 
ATOM     14  C   UNL     1      27.769   0.627   5.511  1.00  0.00     0.004 C 
ENDBRANCH  12  13
ENDBRANCH  11  12
ENDBRANCH  10  11
ENDBRANCH   9  10
ENDBRANCH   1   9
TORSDOF 10
ENDMDL
MODEL 3
REMARK VINA RESULT:    -3.675      9.033     10.858
REMARK INTER + INTRA:          -7.037
REMARK INTER:                  -6.008
REMARK INTRA:                  -1.029
REMARK UNBOUND:                -1.213
REMARK SMILES CCCCCCCCCCCC(=O)[O-]
REMARK SMILES IDX 7 1 8 2 9 3 10 4 11 5 12 6 13 7 14 8 6 9 5 10 4 11 3 12 2 13
REMARK SMILES IDX 1 14
REMARK H PARENT
REMARK Flexibility Score: inf
ROOT
ATOM      1  C   UNL     1      25.083  -3.282  17.114  1.00  0.00     0.000 C 
ENDROOT
BRANCH   1   2
ATOM      2  C   UNL     1      25.122  -2.257  18.263  1.00  0.00     0.000 C 
BRANCH   2   3
ATOM      3  C   UNL     1      23.841  -1.415  18.361  1.00  0.00     0.000 C 
BRANCH   3   4
ATOM      4  C   UNL     1      23.494  -0.784  17.006  1.00  0.00     0.006 C 
BRANCH   4   5
ATOM      5  C   UNL     1      23.028   0.672  17.145  1.00  0.00     0.053 C 
BRANCH   5   6
ATOM      6  C   UNL     1      23.644   1.555  16.102  1.00  0.00     0.041 C 
ATOM      7  O   UNL     1      24.334   2.552  16.443  1.00  0.00    -0.550 OA
ATOM      8  O   UNL     1      23.484   1.256  14.756  1.00  0.00    -0.550 OA
ENDBRANCH   5   6
ENDBRANCH   4   5
ENDBRANCH   3   4
ENDBRANCH   2   3
ENDBRANCH   1   2
BRANCH   1   9
ATOM      9  C   UNL     1      25.703  -4.652  17.444  1.00  0.00     0.000 C 
BRANCH   9  10
ATOM     10  C   UNL     1      24.903  -5.436  18.494  1.00  0.00    -0.000 C 
BRANCH  10  11
ATOM     11  C   UNL     1      23.709  -6.154  17.851  1.00  0.00    -0.000 C 
BRANCH  11  12
ATOM     12  C   UNL     1      22.351  -5.567  18.283  1.00  0.00    -0.000 C 
BRANCH  12  13
ATOM     13  C   UNL     1      22.398  -4.706  19.558  1.00  0.00    -0.003 C 
ATOM     14  C   UNL     1      21.226  -3.732  19.665  1.00  0.00     0.004 C 
ENDBRANCH  12  13
ENDBRANCH  11  12
ENDBRANCH  10  11
ENDBRANCH   9  10
ENDBRANCH   1   9
TORSDOF 10
ENDMDL
MODEL 4
REMARK VINA RESULT:    -3.657     11.015     12.417
REMARK INTER + INTRA:          -7.008
REMARK INTER:                  -5.527
REMARK INTRA:                  -1.480
REMARK UNBOUND:                -1.213
REMARK SMILES CCCCCCCCCCCC(=O)[O-]
REMARK SMILES IDX 7 1 8 2 9 3 10 4 11 5 12 6 13 7 14 8 6 9 5 10 4 11 3 12 2 13
REMARK SMILES IDX 1 14
REMARK H PARENT
REMARK Flexibility Score: inf
ROOT
ATOM      1  C   UNL     1      25.744  -4.101  17.235  1.00  0.00     0.000 C 
ENDROOT
BRANCH   1   2
ATOM      2  C   UNL     1      25.774  -5.258  18.252  1.00  0.00     0.000 C 
BRANCH   2   3
ATOM      3  C   UNL     1      25.259  -6.582  17.670  1.00  0.00     0.000 C 
BRANCH   3   4
ATOM      4  C   UNL     1      25.052  -6.473  16.153  1.00  0.00     0.006 C 
BRANCH   4   5
ATOM      5  C   UNL     1      23.777  -7.189  15.686  1.00  0.00     0.053 C 
BRANCH   5   6
ATOM      6  C   UNL     1      23.721  -8.602  16.181  1.00  0.00     0.041 C 
ATOM      7  O   UNL     1      22.794  -8.967  16.951  1.00  0.00    -0.550 OA
ATOM      8  O   UNL     1      24.673  -9.523  15.766  1.00  0.00    -0.550 OA
ENDBRANCH   5   6
ENDBRANCH   4   5
ENDBRANCH   3   4
ENDBRANCH   2   3
ENDBRANCH   1   2
BRANCH   1   9
ATOM      9  C   UNL     1      25.296  -2.744  17.808  1.00  0.00     0.000 C 
BRANCH   9  10
ATOM     10  C   UNL     1      23.869  -2.358  17.394  1.00  0.00    -0.000 C 
BRANCH  10  11
ATOM     11  C   UNL     1      22.945  -2.277  18.617  1.00  0.00    -0.000 C 
BRANCH  11  12
ATOM     12  C   UNL     1      22.447  -3.657  19.087  1.00  0.00    -0.000 C 
BRANCH  12  13
ATOM     13  C   UNL     1      22.049  -4.619  17.953  1.00  0.00    -0.003 C 
ATOM     14  C   UNL     1      21.602  -5.989  18.460  1.00  0.00     0.004 C 
ENDBRANCH  12  13
ENDBRANCH  11  12
ENDBRANCH  10  11
ENDBRANCH   9  10
ENDBRANCH   1   9
TORSDOF 10
ENDMDL
MODEL 5
REMARK VINA RESULT:    -3.650      2.785      5.347
REMARK INTER + INTRA:          -6.998
REMARK INTER:                  -5.546
REMARK INTRA:                  -1.451
REMARK UNBOUND:                -1.213
REMARK SMILES CCCCCCCCCCCC(=O)[O-]
REMARK SMILES IDX 7 1 8 2 9 3 10 4 11 5 12 6 13 7 14 8 6 9 5 10 4 11 3 12 2 13
REMARK SMILES IDX 1 14
REMARK H PARENT
REMARK Flexibility Score: inf
ROOT
ATOM      1  C   UNL     1      26.505  -0.315  10.686  1.00  0.00     0.000 C 
ENDROOT
BRANCH   1   2
ATOM      2  C   UNL     1      27.819  -1.094  10.494  1.00  0.00     0.000 C 
BRANCH   2   3
ATOM      3  C   UNL     1      28.741  -0.465   9.438  1.00  0.00     0.000 C 
BRANCH   3   4
ATOM      4  C   UNL     1      29.110  -1.485   8.353  1.00  0.00     0.006 C 
BRANCH   4   5
ATOM      5  C   UNL     1      27.950  -2.438   8.032  1.00  0.00     0.053 C 
BRANCH   5   6
ATOM      6  C   UNL     1      28.258  -3.310   6.853  1.00  0.00     0.041 C 
ATOM      7  O   UNL     1      28.156  -2.854   5.684  1.00  0.00    -0.550 OA
ATOM      8  O   UNL     1      28.689  -4.616   7.048  1.00  0.00    -0.550 OA
ENDBRANCH   5   6
ENDBRANCH   4   5
ENDBRANCH   3   4
ENDBRANCH   2   3
ENDBRANCH   1   2
BRANCH   1   9
ATOM      9  C   UNL     1      26.265   0.817   9.670  1.00  0.00     0.000 C 
BRANCH   9  10
ATOM     10  C   UNL     1      25.333   0.405   8.522  1.00  0.00    -0.000 C 
BRANCH  10  11
ATOM     11  C   UNL     1      25.653   1.195   7.245  1.00  0.00    -0.000 C 
BRANCH  11  12
ATOM     12  C   UNL     1      26.873   2.123   7.403  1.00  0.00    -0.000 C 
BRANCH  12  13
ATOM     13  C   UNL     1      27.953   1.960   6.318  1.00  0.00    -0.003 C 
ATOM     14  C   UNL     1      27.812   0.663   5.524  1.00  0.00     0.004 C 
ENDBRANCH  12  13
ENDBRANCH  11  12
ENDBRANCH  10  11
ENDBRANCH   9  10
ENDBRANCH   1   9
TORSDOF 10
ENDMDL
MODEL 6
REMARK VINA RESULT:    -3.638      1.510      3.798
REMARK INTER + INTRA:          -6.979
REMARK INTER:                  -5.442
REMARK INTRA:                  -1.537
REMARK UNBOUND:                -1.213
REMARK SMILES CCCCCCCCCCCC(=O)[O-]
REMARK SMILES IDX 7 1 8 2 9 3 10 4 11 5 12 6 13 7 14 8 6 9 5 10 4 11 3 12 2 13
REMARK SMILES IDX 1 14
REMARK H PARENT
REMARK Flexibility Score: inf
ROOT
ATOM      1  C   UNL     1      28.794  -3.055   7.672  1.00  0.00     0.000 C 
ENDROOT
BRANCH   1   2
ATOM      2  C   UNL     1      28.987  -2.293   8.996  1.00  0.00     0.000 C 
BRANCH   2   3
ATOM      3  C   UNL     1      29.122  -0.776   8.802  1.00  0.00     0.000 C 
BRANCH   3   4
ATOM      4  C   UNL     1      28.213  -0.014   9.776  1.00  0.00     0.006 C 
BRANCH   4   5
ATOM      5  C   UNL     1      26.957  -0.814  10.145  1.00  0.00     0.053 C 
BRANCH   5   6
ATOM      6  C   UNL     1      25.796   0.084  10.450  1.00  0.00     0.041 C 
ATOM      7  O   UNL     1      25.201  -0.002  11.556  1.00  0.00    -0.550 OA
ATOM      8  O   UNL     1      25.393   1.038   9.525  1.00  0.00    -0.550 OA
ENDBRANCH   5   6
ENDBRANCH   4   5
ENDBRANCH   3   4
ENDBRANCH   2   3
ENDBRANCH   1   2
BRANCH   1   9
ATOM      9  C   UNL     1      27.332  -3.185   7.205  1.00  0.00     0.000 C 
BRANCH   9  10
ATOM     10  C   UNL     1      26.969  -2.195   6.089  1.00  0.00    -0.000 C 
BRANCH  10  11
ATOM     11  C   UNL     1      25.897  -1.203   6.563  1.00  0.00    -0.000 C 
BRANCH  11  12
ATOM     12  C   UNL     1      26.182   0.245   6.122  1.00  0.00    -0.000 C 
BRANCH  12  13
ATOM     13  C   UNL     1      27.634   0.513   5.688  1.00  0.00    -0.003 C 
ATOM     14  C   UNL     1      28.135   1.897   6.096  1.00  0.00     0.004 C 
ENDBRANCH  12  13
ENDBRANCH  11  12
ENDBRANCH  10  11
ENDBRANCH   9  10
ENDBRANCH   1   9
TORSDOF 10
ENDMDL
MODEL 7
REMARK VINA RESULT:    -3.617     10.849     12.690
REMARK INTER + INTRA:          -6.945
REMARK INTER:                  -5.519
REMARK INTRA:                  -1.426
REMARK UNBOUND:                -1.213
REMARK SMILES CCCCCCCCCCCC(=O)[O-]
REMARK SMILES IDX 7 1 8 2 9 3 10 4 11 5 12 6 13 7 14 8 6 9 5 10 4 11 3 12 2 13
REMARK SMILES IDX 1 14
REMARK H PARENT
REMARK Flexibility Score: inf
ROOT
ATOM      1  C   UNL     1      21.756  -3.725  19.429  1.00  0.00     0.000 C 
ENDROOT
BRANCH   1   2
ATOM      2  C   UNL     1      22.053  -5.049  18.701  1.00  0.00     0.000 C 
BRANCH   2   3
ATOM      3  C   UNL     1      21.799  -4.972  17.188  1.00  0.00     0.000 C 
BRANCH   3   4
ATOM      4  C   UNL     1      22.435  -6.166  16.463  1.00  0.00     0.006 C 
BRANCH   4   5
ATOM      5  C   UNL     1      22.378  -7.452  17.300  1.00  0.00     0.053 C 
BRANCH   5   6
ATOM      6  C   UNL     1      23.442  -8.426  16.894  1.00  0.00     0.041 C 
ATOM      7  O   UNL     1      24.514  -8.015  16.377  1.00  0.00    -0.550 OA
ATOM      8  O   UNL     1      23.263  -9.785  17.117  1.00  0.00    -0.550 OA
ENDBRANCH   5   6
ENDBRANCH   4   5
ENDBRANCH   3   4
ENDBRANCH   2   3
ENDBRANCH   1   2
BRANCH   1   9
ATOM      9  C   UNL     1      21.898  -2.460  18.562  1.00  0.00     0.000 C 
BRANCH   9  10
ATOM     10  C   UNL     1      23.230  -1.728  18.783  1.00  0.00    -0.000 C 
BRANCH  10  11
ATOM     11  C   UNL     1      24.132  -1.846  17.547  1.00  0.00    -0.000 C 
BRANCH  11  12
ATOM     12  C   UNL     1      25.396  -2.688  17.803  1.00  0.00    -0.000 C 
BRANCH  12  13
ATOM     13  C   UNL     1      25.365  -4.101  17.191  1.00  0.00    -0.003 C 
ATOM     14  C   UNL     1      25.727  -5.195  18.194  1.00  0.00     0.004 C 
ENDBRANCH  12  13
ENDBRANCH  11  12
ENDBRANCH  10  11
ENDBRANCH   9  10
ENDBRANCH   1   9
TORSDOF 10
ENDMDL
MODEL 8
REMARK VINA RESULT:    -3.607      2.065      3.801
REMARK INTER + INTRA:          -6.929
REMARK INTER:                  -5.612
REMARK INTRA:                  -1.318
REMARK UNBOUND:                -1.213
REMARK SMILES CCCCCCCCCCCC(=O)[O-]
REMARK SMILES IDX 7 1 8 2 9 3 10 4 11 5 12 6 13 7 14 8 6 9 5 10 4 11 3 12 2 13
REMARK SMILES IDX 1 14
REMARK H PARENT
REMARK Flexibility Score: inf
ROOT
ATOM      1  C   UNL     1      26.680  -0.867  10.672  1.00  0.00     0.000 C 
ENDROOT
BRANCH   1   2
ATOM      2  C   UNL     1      25.709  -0.026   9.824  1.00  0.00     0.000 C 
BRANCH   2   3
ATOM      3  C   UNL     1      26.398   1.145   9.107  1.00  0.00     0.000 C 
BRANCH   3   4
ATOM      4  C   UNL     1      25.596   1.583   7.874  1.00  0.00     0.006 C 
BRANCH   4   5
ATOM      5  C   UNL     1      26.297   2.703   7.093  1.00  0.00     0.053 C 
BRANCH   5   6
ATOM      6  C   UNL     1      26.980   2.181   5.865  1.00  0.00     0.041 C 
ATOM      7  O   UNL     1      26.351   2.098   4.777  1.00  0.00    -0.550 OA
ATOM      8  O   UNL     1      28.319   1.819   5.916  1.00  0.00    -0.550 OA
ENDBRANCH   5   6
ENDBRANCH   4   5
ENDBRANCH   3   4
ENDBRANCH   2   3
ENDBRANCH   1   2
BRANCH   1   9
ATOM      9  C   UNL     1      28.138  -0.372  10.675  1.00  0.00     0.000 C 
BRANCH   9  10
ATOM     10  C   UNL     1      29.123  -1.401  10.103  1.00  0.00    -0.000 C 
BRANCH  10  11
ATOM     11  C   UNL     1      29.067  -1.419   8.569  1.00  0.00    -0.000 C 
BRANCH  11  12
ATOM     12  C   UNL     1      28.541  -2.752   8.003  1.00  0.00    -0.000 C 
BRANCH  12  13
ATOM     13  C   UNL     1      27.184  -2.655   7.282  1.00  0.00    -0.003 C 
ATOM     14  C   UNL     1      27.119  -1.505   6.280  1.00  0.00     0.004 C 
ENDBRANCH  12  13
ENDBRANCH  11  12
ENDBRANCH  10  11
ENDBRANCH   9  10
ENDBRANCH   1   9
TORSDOF 10
ENDMDL
MODEL 9
REMARK VINA RESULT:    -3.537      2.652      4.114
REMARK INTER + INTRA:          -6.817
REMARK INTER:                  -5.564
REMARK INTRA:                  -1.254
REMARK UNBOUND:                -1.213
REMARK SMILES CCCCCCCCCCCC(=O)[O-]
REMARK SMILES IDX 7 1 8 2 9 3 10 4 11 5 12 6 13 7 14 8 6 9 5 10 4 11 3 12 2 13
REMARK SMILES IDX 1 14
REMARK H PARENT
REMARK Flexibility Score: inf
ROOT
ATOM      1  C   UNL     1      25.832   2.335   7.869  1.00  0.00     0.000 C 
ENDROOT
BRANCH   1   2
ATOM      2  C   UNL     1      27.006   2.192   6.883  1.00  0.00     0.000 C 
BRANCH   2   3
ATOM      3  C   UNL     1      26.682   1.277   5.693  1.00  0.00     0.000 C 
BRANCH   3   4
ATOM      4  C   UNL     1      27.635   0.074   5.649  1.00  0.00     0.006 C 
BRANCH   4   5
ATOM      5  C   UNL     1      26.904  -1.255   5.886  1.00  0.00     0.053 C 
BRANCH   5   6
ATOM      6  C   UNL     1      27.850  -2.418   5.876  1.00  0.00     0.041 C 
ATOM      7  O   UNL     1      28.316  -2.865   6.957  1.00  0.00    -0.550 OA
ATOM      8  O   UNL     1      28.189  -3.028   4.676  1.00  0.00    -0.550 OA
ENDBRANCH   5   6
ENDBRANCH   4   5
ENDBRANCH   3   4
ENDBRANCH   2   3
ENDBRANCH   1   2
BRANCH   1   9
ATOM      9  C   UNL     1      26.009   1.586   9.203  1.00  0.00     0.000 C 
BRANCH   9  10
ATOM     10  C   UNL     1      25.471   0.149   9.161  1.00  0.00    -0.000 C 
BRANCH  10  11
ATOM     11  C   UNL     1      26.597  -0.866   9.397  1.00  0.00    -0.000 C 
BRANCH  11  12
ATOM     12  C   UNL     1      27.982  -0.206   9.535  1.00  0.00    -0.000 C 
BRANCH  12  13
ATOM     13  C   UNL     1      28.914  -0.870  10.565  1.00  0.00    -0.003 C 
ATOM     14  C   UNL     1      29.125  -0.021  11.817  1.00  0.00     0.004 C 
ENDBRANCH  12  13
ENDBRANCH  11  12
ENDBRANCH  10  11
ENDBRANCH   9  10
ENDBRANCH   1   9
TORSDOF 10
ENDMDL
