MODEL 1
REMARK VINA RESULT:    -3.744      0.000      0.000
REMARK INTER + INTRA:         -11.541
REMARK INTER:                  -8.120
REMARK INTRA:                  -3.421
REMARK UNBOUND:                -3.421
REMARK SMILES CCCCCCCCCCCCCCCCCCCCCC(=O)[O-]
REMARK SMILES IDX 12 1 11 2 10 3 9 4 8 5 7 6 6 7 5 8 4 9 3 10 2 11 1 12 13 13
REMARK SMILES IDX 14 14 15 15 16 16 17 17 18 18 19 19 20 20 21 21 22 22 23 23
REMARK SMILES IDX 24 24
REMARK H PARENT
REMARK Flexibility Score: inf
ROOT
ATOM      1  C   UNL     1      -4.426 -10.330 -41.540  1.00  0.00     0.000 C 
ENDROOT
BRANCH   1   2
ATOM      2  C   UNL     1      -3.785  -9.491 -42.657  1.00  0.00     0.000 C 
BRANCH   2   3
ATOM      3  C   UNL     1      -2.904  -8.336 -42.137  1.00  0.00     0.000 C 
BRANCH   3   4
ATOM      4  C   UNL     1      -2.852  -8.286 -40.600  1.00  0.00    -0.000 C 
BRANCH   4   5
ATOM      5  C   UNL     1      -1.408  -8.199 -40.060  1.00  0.00    -0.000 C 
BRANCH   5   6
ATOM      6  C   UNL     1      -1.308  -7.564 -38.660  1.00  0.00    -0.000 C 
BRANCH   6   7
ATOM      7  C   UNL     1      -0.381  -8.305 -37.678  1.00  0.00    -0.000 C 
BRANCH   7   8
ATOM      8  C   UNL     1      -1.070  -8.825 -36.400  1.00  0.00    -0.000 C 
BRANCH   8   9
ATOM      9  C   UNL     1      -0.192  -9.718 -35.501  1.00  0.00    -0.000 C 
BRANCH   9  10
ATOM     10  C   UNL     1      -0.687 -11.169 -35.337  1.00  0.00    -0.000 C 
BRANCH  10  11
ATOM     11  C   UNL     1      -0.856 -11.632 -33.880  1.00  0.00    -0.003 C 
ATOM     12  C   UNL     1       0.220 -12.626 -33.441  1.00  0.00     0.004 C 
ENDBRANCH  10  11
ENDBRANCH   9  10
ENDBRANCH   8   9
ENDBRANCH   7   8
ENDBRANCH   6   7
ENDBRANCH   5   6
ENDBRANCH   4   5
ENDBRANCH   3   4
ENDBRANCH   2   3
ENDBRANCH   1   2
BRANCH   1  13
ATOM     13  C   UNL     1      -4.261 -11.844 -41.759  1.00  0.00     0.000 C 
BRANCH  13  14
ATOM     14  C   UNL     1      -3.834 -12.586 -40.483  1.00  0.00     0.000 C 
BRANCH  14  15
ATOM     15  C   UNL     1      -3.831 -11.677 -39.242  1.00  0.00     0.000 C 
BRANCH  15  16
ATOM     16  C   UNL     1      -2.417 -11.461 -38.678  1.00  0.00     0.000 C 
BRANCH  16  17
ATOM     17  C   UNL     1      -1.350 -12.286 -39.419  1.00  0.00     0.000 C 
BRANCH  17  18
ATOM     18  C   UNL     1      -0.329 -11.409 -40.166  1.00  0.00     0.000 C 
BRANCH  18  19
ATOM     19  C   UNL     1      -0.378 -11.522 -41.701  1.00  0.00     0.000 C 
BRANCH  19  20
ATOM     20  C   UNL     1       0.254 -10.311 -42.411  1.00  0.00     0.006 C 
BRANCH  20  21
ATOM     21  C   UNL     1       1.607  -9.922 -41.800  1.00  0.00     0.053 C 
BRANCH  21  22
ATOM     22  C   UNL     1       2.714 -10.809 -42.285  1.00  0.00     0.041 C 
ATOM     23  O   UNL     1       3.804 -10.862 -41.656  1.00  0.00    -0.550 OA
ATOM     24  O   UNL     1       2.555 -11.546 -43.451  1.00  0.00    -0.550 OA
ENDBRANCH  21  22
ENDBRANCH  20  21
ENDBRANCH  19  20
ENDBRANCH  18  19
ENDBRANCH  17  18
ENDBRANCH  16  17
ENDBRANCH  15  16
ENDBRANCH  14  15
ENDBRANCH  13  14
ENDBRANCH   1  13
TORSDOF 20
ENDMDL
MODEL 2
REMARK VINA RESULT:    -3.679      2.074      6.710
REMARK INTER + INTRA:         -11.401
REMARK INTER:                  -8.150
REMARK INTRA:                  -3.251
REMARK UNBOUND:                -3.421
REMARK SMILES CCCCCCCCCCCCCCCCCCCCCC(=O)[O-]
REMARK SMILES IDX 12 1 11 2 10 3 9 4 8 5 7 6 6 7 5 8 4 9 3 10 2 11 1 12 13 13
REMARK SMILES IDX 14 14 15 15 16 16 17 17 18 18 19 19 20 20 21 21 22 22 23 23
REMARK SMILES IDX 24 24
REMARK H PARENT
REMARK Flexibility Score: inf
ROOT
ATOM      1  C   UNL     1      -1.812 -10.262 -38.364  1.00  0.00     0.000 C 
ENDROOT
BRANCH   1   2
ATOM      2  C   UNL     1      -1.404 -11.701 -38.722  1.00  0.00     0.000 C 
BRANCH   2   3
ATOM      3  C   UNL     1      -2.601 -12.637 -38.986  1.00  0.00     0.000 C 
BRANCH   3   4
ATOM      4  C   UNL     1      -3.901 -11.860 -39.262  1.00  0.00    -0.000 C 
BRANCH   4   5
ATOM      5  C   UNL     1      -4.888 -12.655 -40.144  1.00  0.00    -0.000 C 
BRANCH   5   6
ATOM      6  C   UNL     1      -5.124 -12.026 -41.531  1.00  0.00    -0.000 C 
BRANCH   6   7
ATOM      7  C   UNL     1      -6.564 -12.151 -42.061  1.00  0.00    -0.000 C 
BRANCH   7   8
ATOM      8  C   UNL     1      -6.885 -11.271 -43.286  1.00  0.00    -0.000 C 
BRANCH   8   9
ATOM      9  C   UNL     1      -5.687 -10.973 -44.209  1.00  0.00    -0.000 C 
BRANCH   9  10
ATOM     10  C   UNL     1      -5.541  -9.499 -44.636  1.00  0.00    -0.000 C 
BRANCH  10  11
ATOM     11  C   UNL     1      -5.788  -9.232 -46.131  1.00  0.00    -0.003 C 
ATOM     12  C   UNL     1      -6.697 -10.275 -46.781  1.00  0.00     0.004 C 
ENDBRANCH  10  11
ENDBRANCH   9  10
ENDBRANCH   8   9
ENDBRANCH   7   8
ENDBRANCH   6   7
ENDBRANCH   5   6
ENDBRANCH   4   5
ENDBRANCH   3   4
ENDBRANCH   2   3
ENDBRANCH   1   2
BRANCH   1  13
ATOM     13  C   UNL     1      -0.915  -9.204 -39.029  1.00  0.00     0.000 C 
BRANCH  13  14
ATOM     14  C   UNL     1      -1.720  -8.093 -39.722  1.00  0.00     0.000 C 
BRANCH  14  15
ATOM     15  C   UNL     1      -3.005  -8.620 -40.385  1.00  0.00     0.000 C 
BRANCH  15  16
ATOM     16  C   UNL     1      -3.135  -8.171 -41.849  1.00  0.00     0.000 C 
BRANCH  16  17
ATOM     17  C   UNL     1      -2.182  -8.931 -42.789  1.00  0.00     0.000 C 
BRANCH  17  18
ATOM     18  C   UNL     1      -2.058 -10.424 -42.434  1.00  0.00     0.000 C 
BRANCH  18  19
ATOM     19  C   UNL     1      -0.614 -10.950 -42.340  1.00  0.00     0.000 C 
BRANCH  19  20
ATOM     20  C   UNL     1       0.439  -9.859 -42.601  1.00  0.00     0.006 C 
BRANCH  20  21
ATOM     21  C   UNL     1       1.634  -9.967 -41.644  1.00  0.00     0.053 C 
BRANCH  21  22
ATOM     22  C   UNL     1       2.780 -10.709 -42.263  1.00  0.00     0.041 C 
ATOM     23  O   UNL     1       2.749 -11.016 -43.484  1.00  0.00    -0.550 OA
ATOM     24  O   UNL     1       3.861 -11.096 -41.483  1.00  0.00    -0.550 OA
ENDBRANCH  21  22
ENDBRANCH  20  21
ENDBRANCH  19  20
ENDBRANCH  18  19
ENDBRANCH  17  18
ENDBRANCH  16  17
ENDBRANCH  15  16
ENDBRANCH  14  15
ENDBRANCH  13  14
ENDBRANCH   1  13
TORSDOF 20
ENDMDL
MODEL 3
REMARK VINA RESULT:    -3.648      3.059      6.097
REMARK INTER + INTRA:         -11.333
REMARK INTER:                  -8.145
REMARK INTRA:                  -3.188
REMARK UNBOUND:                -3.421
REMARK SMILES CCCCCCCCCCCCCCCCCCCCCC(=O)[O-]
REMARK SMILES IDX 12 1 11 2 10 3 9 4 8 5 7 6 6 7 5 8 4 9 3 10 2 11 1 12 13 13
REMARK SMILES IDX 14 14 15 15 16 16 17 17 18 18 19 19 20 20 21 21 22 22 23 23
REMARK SMILES IDX 24 24
REMARK H PARENT
REMARK Flexibility Score: inf
ROOT
ATOM      1  C   UNL     1      -5.230  -7.822 -47.740  1.00  0.00     0.000 C 
ENDROOT
BRANCH   1   2
ATOM      2  C   UNL     1      -5.679  -9.172 -48.324  1.00  0.00     0.000 C 
BRANCH   2   3
ATOM      3  C   UNL     1      -6.625  -9.964 -47.397  1.00  0.00     0.000 C 
BRANCH   3   4
ATOM      4  C   UNL     1      -7.343  -9.057 -46.381  1.00  0.00    -0.000 C 
BRANCH   4   5
ATOM      5  C   UNL     1      -7.071  -9.477 -44.920  1.00  0.00    -0.000 C 
BRANCH   5   6
ATOM      6  C   UNL     1      -6.572 -10.927 -44.774  1.00  0.00    -0.000 C 
BRANCH   6   7
ATOM      7  C   UNL     1      -6.102 -11.310 -43.359  1.00  0.00    -0.000 C 
BRANCH   7   8
ATOM      8  C   UNL     1      -4.624 -11.738 -43.259  1.00  0.00    -0.000 C 
BRANCH   8   9
ATOM      9  C   UNL     1      -4.058 -11.805 -41.827  1.00  0.00    -0.000 C 
BRANCH   9  10
ATOM     10  C   UNL     1      -2.799 -12.681 -41.661  1.00  0.00    -0.000 C 
BRANCH  10  11
ATOM     11  C   UNL     1      -2.068 -12.514 -40.317  1.00  0.00    -0.003 C 
ATOM     12  C   UNL     1      -3.003 -12.114 -39.176  1.00  0.00     0.004 C 
ENDBRANCH  10  11
ENDBRANCH   9  10
ENDBRANCH   8   9
ENDBRANCH   7   8
ENDBRANCH   6   7
ENDBRANCH   5   6
ENDBRANCH   4   5
ENDBRANCH   3   4
ENDBRANCH   2   3
ENDBRANCH   1   2
BRANCH   1  13
ATOM     13  C   UNL     1      -3.822  -7.877 -47.122  1.00  0.00     0.000 C 
BRANCH  13  14
ATOM     14  C   UNL     1      -3.769  -7.272 -45.711  1.00  0.00     0.000 C 
BRANCH  14  15
ATOM     15  C   UNL     1      -3.629  -8.341 -44.613  1.00  0.00     0.000 C 
BRANCH  15  16
ATOM     16  C   UNL     1      -4.205  -7.876 -43.266  1.00  0.00     0.000 C 
BRANCH  16  17
ATOM     17  C   UNL     1      -3.260  -8.161 -42.086  1.00  0.00     0.000 C 
BRANCH  17  18
ATOM     18  C   UNL     1      -1.970  -8.885 -42.515  1.00  0.00     0.000 C 
BRANCH  18  19
ATOM     19  C   UNL     1      -1.000  -9.216 -41.365  1.00  0.00     0.000 C 
BRANCH  19  20
ATOM     20  C   UNL     1       0.391  -9.648 -41.861  1.00  0.00     0.006 C 
BRANCH  20  21
ATOM     21  C   UNL     1       0.336 -10.937 -42.692  1.00  0.00     0.053 C 
BRANCH  21  22
ATOM     22  C   UNL     1       1.664 -11.630 -42.736  1.00  0.00     0.041 C 
ATOM     23  O   UNL     1       2.314 -11.684 -43.814  1.00  0.00    -0.550 OA
ATOM     24  O   UNL     1       2.164 -12.248 -41.598  1.00  0.00    -0.550 OA
ENDBRANCH  21  22
ENDBRANCH  20  21
ENDBRANCH  19  20
ENDBRANCH  18  19
ENDBRANCH  17  18
ENDBRANCH  16  17
ENDBRANCH  15  16
ENDBRANCH  14  15
ENDBRANCH  13  14
ENDBRANCH   1  13
TORSDOF 20
ENDMDL
MODEL 4
REMARK VINA RESULT:    -3.640      3.371      6.785
REMARK INTER + INTRA:         -11.316
REMARK INTER:                  -8.885
REMARK INTRA:                  -2.431
REMARK UNBOUND:                -3.421
REMARK SMILES CCCCCCCCCCCCCCCCCCCCCC(=O)[O-]
REMARK SMILES IDX 12 1 11 2 10 3 9 4 8 5 7 6 6 7 5 8 4 9 3 10 2 11 1 12 13 13
REMARK SMILES IDX 14 14 15 15 16 16 17 17 18 18 19 19 20 20 21 21 22 22 23 23
REMARK SMILES IDX 24 24
REMARK H PARENT
REMARK Flexibility Score: inf
ROOT
ATOM      1  C   UNL     1      -3.718  -7.975 -45.304  1.00  0.00     0.000 C 
ENDROOT
BRANCH   1   2
ATOM      2  C   UNL     1      -3.340  -7.186 -46.569  1.00  0.00     0.000 C 
BRANCH   2   3
ATOM      3  C   UNL     1      -3.252  -8.057 -47.840  1.00  0.00     0.000 C 
BRANCH   3   4
ATOM      4  C   UNL     1      -4.586  -8.113 -48.604  1.00  0.00    -0.000 C 
BRANCH   4   5
ATOM      5  C   UNL     1      -5.374  -9.411 -48.322  1.00  0.00    -0.000 C 
BRANCH   5   6
ATOM      6  C   UNL     1      -6.460  -9.254 -47.241  1.00  0.00    -0.000 C 
BRANCH   6   7
ATOM      7  C   UNL     1      -7.143 -10.567 -46.815  1.00  0.00    -0.000 C 
BRANCH   7   8
ATOM      8  C   UNL     1      -7.228 -10.791 -45.291  1.00  0.00    -0.000 C 
BRANCH   8   9
ATOM      9  C   UNL     1      -5.874 -10.808 -44.556  1.00  0.00    -0.000 C 
BRANCH   9  10
ATOM     10  C   UNL     1      -5.886 -11.502 -43.179  1.00  0.00    -0.000 C 
BRANCH  10  11
ATOM     11  C   UNL     1      -6.391 -10.626 -42.019  1.00  0.00    -0.003 C 
ATOM     12  C   UNL     1      -5.569 -10.796 -40.741  1.00  0.00     0.004 C 
ENDBRANCH  10  11
ENDBRANCH   9  10
ENDBRANCH   8   9
ENDBRANCH   7   8
ENDBRANCH   6   7
ENDBRANCH   5   6
ENDBRANCH   4   5
ENDBRANCH   3   4
ENDBRANCH   2   3
ENDBRANCH   1   2
BRANCH   1  13
ATOM     13  C   UNL     1      -4.763  -7.252 -44.438  1.00  0.00     0.000 C 
BRANCH  13  14
ATOM     14  C   UNL     1      -4.546  -7.476 -42.933  1.00  0.00     0.000 C 
BRANCH  14  15
ATOM     15  C   UNL     1      -3.383  -8.440 -42.641  1.00  0.00     0.000 C 
BRANCH  15  16
ATOM     16  C   UNL     1      -2.687  -8.131 -41.305  1.00  0.00     0.000 C 
BRANCH  16  17
ATOM     17  C   UNL     1      -2.111  -9.389 -40.631  1.00  0.00     0.000 C 
BRANCH  17  18
ATOM     18  C   UNL     1      -0.592  -9.532 -40.832  1.00  0.00     0.000 C 
BRANCH  18  19
ATOM     19  C   UNL     1      -0.162  -9.945 -42.252  1.00  0.00     0.000 C 
BRANCH  19  20
ATOM     20  C   UNL     1       1.248  -9.449 -42.619  1.00  0.00     0.006 C 
BRANCH  20  21
ATOM     21  C   UNL     1       2.348 -10.284 -41.950  1.00  0.00     0.053 C 
BRANCH  21  22
ATOM     22  C   UNL     1       2.272 -11.727 -42.345  1.00  0.00     0.041 C 
ATOM     23  O   UNL     1       2.285 -12.627 -41.464  1.00  0.00    -0.550 OA
ATOM     24  O   UNL     1       2.224 -12.079 -43.688  1.00  0.00    -0.550 OA
ENDBRANCH  21  22
ENDBRANCH  20  21
ENDBRANCH  19  20
ENDBRANCH  18  19
ENDBRANCH  17  18
ENDBRANCH  16  17
ENDBRANCH  15  16
ENDBRANCH  14  15
ENDBRANCH  13  14
ENDBRANCH   1  13
TORSDOF 20
ENDMDL
MODEL 5
REMARK VINA RESULT:    -3.577      1.476      4.008
REMARK INTER + INTRA:         -11.181
REMARK INTER:                  -8.899
REMARK INTRA:                  -2.282
REMARK UNBOUND:                -3.421
REMARK SMILES CCCCCCCCCCCCCCCCCCCCCC(=O)[O-]
REMARK SMILES IDX 12 1 11 2 10 3 9 4 8 5 7 6 6 7 5 8 4 9 3 10 2 11 1 12 13 13
REMARK SMILES IDX 14 14 15 15 16 16 17 17 18 18 19 19 20 20 21 21 22 22 23 23
REMARK SMILES IDX 24 24
REMARK H PARENT
REMARK Flexibility Score: inf
ROOT
ATOM      1  C   UNL     1      -1.166  -8.004 -39.768  1.00  0.00     0.000 C 
ENDROOT
BRANCH   1   2
ATOM      2  C   UNL     1      -0.944  -7.853 -38.253  1.00  0.00     0.000 C 
BRANCH   2   3
ATOM      3  C   UNL     1      -0.685  -9.191 -37.529  1.00  0.00     0.000 C 
BRANCH   3   4
ATOM      4  C   UNL     1      -0.571  -9.017 -36.004  1.00  0.00    -0.000 C 
BRANCH   4   5
ATOM      5  C   UNL     1      -0.509 -10.368 -35.258  1.00  0.00    -0.000 C 
BRANCH   5   6
ATOM      6  C   UNL     1      -1.667 -10.581 -34.264  1.00  0.00    -0.000 C 
BRANCH   6   7
ATOM      7  C   UNL     1      -1.253 -11.179 -32.907  1.00  0.00    -0.000 C 
BRANCH   7   8
ATOM      8  C   UNL     1      -1.836 -12.575 -32.606  1.00  0.00    -0.000 C 
BRANCH   8   9
ATOM      9  C   UNL     1      -0.802 -13.643 -32.201  1.00  0.00    -0.000 C 
BRANCH   9  10
ATOM     10  C   UNL     1       0.669 -13.180 -32.249  1.00  0.00    -0.000 C 
BRANCH  10  11
ATOM     11  C   UNL     1       1.518 -13.844 -33.346  1.00  0.00    -0.003 C 
ATOM     12  C   UNL     1       1.980 -12.860 -34.421  1.00  0.00     0.004 C 
ENDBRANCH  10  11
ENDBRANCH   9  10
ENDBRANCH   8   9
ENDBRANCH   7   8
ENDBRANCH   6   7
ENDBRANCH   5   6
ENDBRANCH   4   5
ENDBRANCH   3   4
ENDBRANCH   2   3
ENDBRANCH   1   2
BRANCH   1  13
ATOM     13  C   UNL     1      -2.592  -8.460 -40.120  1.00  0.00     0.000 C 
BRANCH  13  14
ATOM     14  C   UNL     1      -2.930  -8.258 -41.606  1.00  0.00     0.000 C 
BRANCH  14  15
ATOM     15  C   UNL     1      -2.169  -9.231 -42.523  1.00  0.00     0.000 C 
BRANCH  15  16
ATOM     16  C   UNL     1      -2.849 -10.607 -42.610  1.00  0.00     0.000 C 
BRANCH  16  17
ATOM     17  C   UNL     1      -1.931 -11.753 -42.148  1.00  0.00     0.000 C 
BRANCH  17  18
ATOM     18  C   UNL     1      -1.665 -11.731 -40.631  1.00  0.00     0.000 C 
BRANCH  18  19
ATOM     19  C   UNL     1      -0.181 -11.835 -40.232  1.00  0.00     0.000 C 
BRANCH  19  20
ATOM     20  C   UNL     1       0.775 -11.616 -41.418  1.00  0.00     0.006 C 
BRANCH  20  21
ATOM     21  C   UNL     1       1.203 -10.149 -41.554  1.00  0.00     0.053 C 
BRANCH  21  22
ATOM     22  C   UNL     1       1.492  -9.782 -42.978  1.00  0.00     0.041 C 
ATOM     23  O   UNL     1       1.392  -8.585 -43.356  1.00  0.00    -0.550 OA
ATOM     24  O   UNL     1       1.834 -10.768 -43.895  1.00  0.00    -0.550 OA
ENDBRANCH  21  22
ENDBRANCH  20  21
ENDBRANCH  19  20
ENDBRANCH  18  19
ENDBRANCH  17  18
ENDBRANCH  16  17
ENDBRANCH  15  16
ENDBRANCH  14  15
ENDBRANCH  13  14
ENDBRANCH   1  13
TORSDOF 20
ENDMDL
MODEL 6
REMARK VINA RESULT:    -3.534      1.105      2.924
REMARK INTER + INTRA:         -11.087
REMARK INTER:                  -8.239
REMARK INTRA:                  -2.849
REMARK UNBOUND:                -3.421
REMARK SMILES CCCCCCCCCCCCCCCCCCCCCC(=O)[O-]
REMARK SMILES IDX 12 1 11 2 10 3 9 4 8 5 7 6 6 7 5 8 4 9 3 10 2 11 1 12 13 13
REMARK SMILES IDX 14 14 15 15 16 16 17 17 18 18 19 19 20 20 21 21 22 22 23 23
REMARK SMILES IDX 24 24
REMARK H PARENT
REMARK Flexibility Score: inf
ROOT
ATOM      1  C   UNL     1      -1.795 -11.666 -39.199  1.00  0.00     0.000 C 
ENDROOT
BRANCH   1   2
ATOM      2  C   UNL     1      -1.918 -10.144 -39.018  1.00  0.00     0.000 C 
BRANCH   2   3
ATOM      3  C   UNL     1      -0.589  -9.457 -38.636  1.00  0.00     0.000 C 
BRANCH   3   4
ATOM      4  C   UNL     1      -0.793  -7.997 -38.194  1.00  0.00    -0.000 C 
BRANCH   4   5
ATOM      5  C   UNL     1      -0.770  -7.837 -36.658  1.00  0.00    -0.000 C 
BRANCH   5   6
ATOM      6  C   UNL     1      -0.199  -9.061 -35.916  1.00  0.00    -0.000 C 
BRANCH   6   7
ATOM      7  C   UNL     1      -1.206  -9.796 -35.013  1.00  0.00    -0.000 C 
BRANCH   7   8
ATOM      8  C   UNL     1      -1.574 -11.221 -35.475  1.00  0.00    -0.000 C 
BRANCH   8   9
ATOM      9  C   UNL     1      -0.589 -12.324 -35.042  1.00  0.00    -0.000 C 
BRANCH   9  10
ATOM     10  C   UNL     1      -0.596 -12.652 -33.535  1.00  0.00    -0.000 C 
BRANCH  10  11
ATOM     11  C   UNL     1       0.750 -13.145 -32.975  1.00  0.00    -0.003 C 
ATOM     12  C   UNL     1       1.872 -13.126 -34.014  1.00  0.00     0.004 C 
ENDBRANCH  10  11
ENDBRANCH   9  10
ENDBRANCH   8   9
ENDBRANCH   7   8
ENDBRANCH   6   7
ENDBRANCH   5   6
ENDBRANCH   4   5
ENDBRANCH   3   4
ENDBRANCH   2   3
ENDBRANCH   1   2
BRANCH   1  13
ATOM     13  C   UNL     1      -3.073 -12.304 -39.771  1.00  0.00     0.000 C 
BRANCH  13  14
ATOM     14  C   UNL     1      -4.191 -11.279 -40.015  1.00  0.00     0.000 C 
BRANCH  14  15
ATOM     15  C   UNL     1      -4.445 -11.024 -41.511  1.00  0.00     0.000 C 
BRANCH  15  16
ATOM     16  C   UNL     1      -4.182  -9.563 -41.909  1.00  0.00     0.000 C 
BRANCH  16  17
ATOM     17  C   UNL     1      -3.124  -9.432 -43.019  1.00  0.00     0.000 C 
BRANCH  17  18
ATOM     18  C   UNL     1      -1.755  -8.971 -42.487  1.00  0.00     0.000 C 
BRANCH  18  19
ATOM     19  C   UNL     1      -0.658 -10.053 -42.497  1.00  0.00     0.000 C 
BRANCH  19  20
ATOM     20  C   UNL     1       0.722  -9.511 -42.086  1.00  0.00     0.006 C 
BRANCH  20  21
ATOM     21  C   UNL     1       1.578 -10.576 -41.387  1.00  0.00     0.053 C 
BRANCH  21  22
ATOM     22  C   UNL     1       2.782 -10.944 -42.199  1.00  0.00     0.041 C 
ATOM     23  O   UNL     1       2.649 -11.330 -43.391  1.00  0.00    -0.550 OA
ATOM     24  O   UNL     1       4.047 -10.899 -41.628  1.00  0.00    -0.550 OA
ENDBRANCH  21  22
ENDBRANCH  20  21
ENDBRANCH  19  20
ENDBRANCH  18  19
ENDBRANCH  17  18
ENDBRANCH  16  17
ENDBRANCH  15  16
ENDBRANCH  14  15
ENDBRANCH  13  14
ENDBRANCH   1  13
TORSDOF 20
ENDMDL
MODEL 7
REMARK VINA RESULT:    -3.533      2.988      7.062
REMARK INTER + INTRA:         -11.084
REMARK INTER:                  -7.878
REMARK INTRA:                  -3.206
REMARK UNBOUND:                -3.421
REMARK SMILES CCCCCCCCCCCCCCCCCCCCCC(=O)[O-]
REMARK SMILES IDX 12 1 11 2 10 3 9 4 8 5 7 6 6 7 5 8 4 9 3 10 2 11 1 12 13 13
REMARK SMILES IDX 14 14 15 15 16 16 17 17 18 18 19 19 20 20 21 21 22 22 23 23
REMARK SMILES IDX 24 24
REMARK H PARENT
REMARK Flexibility Score: inf
ROOT
ATOM      1  C   UNL     1      -0.394  -9.431 -39.006  1.00  0.00     0.000 C 
ENDROOT
BRANCH   1   2
ATOM      2  C   UNL     1      -0.901 -10.872 -38.834  1.00  0.00     0.000 C 
BRANCH   2   3
ATOM      3  C   UNL     1      -2.262 -10.969 -38.113  1.00  0.00     0.000 C 
BRANCH   3   4
ATOM      4  C   UNL     1      -3.326 -11.684 -38.964  1.00  0.00    -0.000 C 
BRANCH   4   5
ATOM      5  C   UNL     1      -2.721 -12.371 -40.209  1.00  0.00    -0.000 C 
BRANCH   5   6
ATOM      6  C   UNL     1      -3.293 -11.850 -41.542  1.00  0.00    -0.000 C 
BRANCH   6   7
ATOM      7  C   UNL     1      -2.270 -11.751 -42.689  1.00  0.00    -0.000 C 
BRANCH   7   8
ATOM      8  C   UNL     1      -0.848 -11.337 -42.258  1.00  0.00    -0.000 C 
BRANCH   8   9
ATOM      9  C   UNL     1      -0.463  -9.881 -42.587  1.00  0.00    -0.000 C 
BRANCH   9  10
ATOM     10  C   UNL     1       1.014  -9.521 -42.330  1.00  0.00    -0.000 C 
BRANCH  10  11
ATOM     11  C   UNL     1       2.019 -10.636 -42.669  1.00  0.00    -0.003 C 
ATOM     12  C   UNL     1       2.244 -10.800 -44.172  1.00  0.00     0.004 C 
ENDBRANCH  10  11
ENDBRANCH   9  10
ENDBRANCH   8   9
ENDBRANCH   7   8
ENDBRANCH   6   7
ENDBRANCH   5   6
ENDBRANCH   4   5
ENDBRANCH   3   4
ENDBRANCH   2   3
ENDBRANCH   1   2
BRANCH   1  13
ATOM     13  C   UNL     1      -1.511  -8.445 -39.386  1.00  0.00     0.000 C 
BRANCH  13  14
ATOM     14  C   UNL     1      -1.498  -7.171 -38.527  1.00  0.00     0.000 C 
BRANCH  14  15
ATOM     15  C   UNL     1      -0.389  -7.189 -37.460  1.00  0.00     0.000 C 
BRANCH  15  16
ATOM     16  C   UNL     1      -0.952  -7.198 -36.030  1.00  0.00     0.000 C 
BRANCH  16  17
ATOM     17  C   UNL     1      -1.312  -8.613 -35.544  1.00  0.00     0.000 C 
BRANCH  17  18
ATOM     18  C   UNL     1      -0.079  -9.517 -35.368  1.00  0.00     0.000 C 
BRANCH  18  19
ATOM     19  C   UNL     1      -0.390 -10.964 -34.943  1.00  0.00     0.000 C 
BRANCH  19  20
ATOM     20  C   UNL     1      -1.470 -11.048 -33.849  1.00  0.00     0.006 C 
BRANCH  20  21
ATOM     21  C   UNL     1      -2.619 -11.986 -34.239  1.00  0.00     0.053 C 
BRANCH  21  22
ATOM     22  C   UNL     1      -2.117 -13.324 -34.693  1.00  0.00     0.041 C 
ATOM     23  O   UNL     1      -2.354 -13.725 -35.863  1.00  0.00    -0.550 OA
ATOM     24  O   UNL     1      -1.423 -14.142 -33.811  1.00  0.00    -0.550 OA
ENDBRANCH  21  22
ENDBRANCH  20  21
ENDBRANCH  19  20
ENDBRANCH  18  19
ENDBRANCH  17  18
ENDBRANCH  16  17
ENDBRANCH  15  16
ENDBRANCH  14  15
ENDBRANCH  13  14
ENDBRANCH   1  13
TORSDOF 20
ENDMDL
MODEL 8
REMARK VINA RESULT:    -3.519      1.293      3.593
REMARK INTER + INTRA:         -11.054
REMARK INTER:                  -8.277
REMARK INTRA:                  -2.778
REMARK UNBOUND:                -3.421
REMARK SMILES CCCCCCCCCCCCCCCCCCCCCC(=O)[O-]
REMARK SMILES IDX 12 1 11 2 10 3 9 4 8 5 7 6 6 7 5 8 4 9 3 10 2 11 1 12 13 13
REMARK SMILES IDX 14 14 15 15 16 16 17 17 18 18 19 19 20 20 21 21 22 22 23 23
REMARK SMILES IDX 24 24
REMARK H PARENT
REMARK Flexibility Score: inf
ROOT
ATOM      1  C   UNL     1      -5.630 -11.791 -41.787  1.00  0.00     0.000 C 
ENDROOT
BRANCH   1   2
ATOM      2  C   UNL     1      -4.624 -12.051 -40.652  1.00  0.00     0.000 C 
BRANCH   2   3
ATOM      3  C   UNL     1      -3.396 -12.875 -41.090  1.00  0.00     0.000 C 
BRANCH   3   4
ATOM      4  C   UNL     1      -2.112 -12.443 -40.359  1.00  0.00    -0.000 C 
BRANCH   4   5
ATOM      5  C   UNL     1      -2.378 -11.367 -39.284  1.00  0.00    -0.000 C 
BRANCH   5   6
ATOM      6  C   UNL     1      -1.356 -11.376 -38.131  1.00  0.00    -0.000 C 
BRANCH   6   7
ATOM      7  C   UNL     1      -1.967 -11.528 -36.726  1.00  0.00    -0.000 C 
BRANCH   7   8
ATOM      8  C   UNL     1      -0.955 -11.449 -35.565  1.00  0.00    -0.000 C 
BRANCH   8   9
ATOM      9  C   UNL     1      -0.291 -10.072 -35.368  1.00  0.00    -0.000 C 
BRANCH   9  10
ATOM     10  C   UNL     1      -1.152  -8.865 -35.792  1.00  0.00    -0.000 C 
BRANCH  10  11
ATOM     11  C   UNL     1      -0.398  -7.777 -36.575  1.00  0.00    -0.003 C 
ATOM     12  C   UNL     1      -0.784  -7.730 -38.054  1.00  0.00     0.004 C 
ENDBRANCH  10  11
ENDBRANCH   9  10
ENDBRANCH   8   9
ENDBRANCH   7   8
ENDBRANCH   6   7
ENDBRANCH   5   6
ENDBRANCH   4   5
ENDBRANCH   3   4
ENDBRANCH   2   3
ENDBRANCH   1   2
BRANCH   1  13
ATOM     13  C   UNL     1      -4.954 -11.640 -43.160  1.00  0.00     0.000 C 
BRANCH  13  14
ATOM     14  C   UNL     1      -5.689 -10.650 -44.078  1.00  0.00     0.000 C 
BRANCH  14  15
ATOM     15  C   UNL     1      -5.069  -9.243 -44.048  1.00  0.00     0.000 C 
BRANCH  15  16
ATOM     16  C   UNL     1      -3.639  -9.245 -43.483  1.00  0.00     0.000 C 
BRANCH  16  17
ATOM     17  C   UNL     1      -3.491  -8.348 -42.241  1.00  0.00     0.000 C 
BRANCH  17  18
ATOM     18  C   UNL     1      -2.173  -8.591 -41.483  1.00  0.00     0.000 C 
BRANCH  18  19
ATOM     19  C   UNL     1      -1.173  -9.515 -42.201  1.00  0.00     0.000 C 
BRANCH  19  20
ATOM     20  C   UNL     1       0.235  -9.473 -41.580  1.00  0.00     0.006 C 
BRANCH  20  21
ATOM     21  C   UNL     1       1.335  -9.371 -42.644  1.00  0.00     0.053 C 
BRANCH  21  22
ATOM     22  C   UNL     1       2.157 -10.622 -42.718  1.00  0.00     0.041 C 
ATOM     23  O   UNL     1       3.098 -10.811 -41.901  1.00  0.00    -0.550 OA
ATOM     24  O   UNL     1       1.910 -11.560 -43.712  1.00  0.00    -0.550 OA
ENDBRANCH  21  22
ENDBRANCH  20  21
ENDBRANCH  19  20
ENDBRANCH  18  19
ENDBRANCH  17  18
ENDBRANCH  16  17
ENDBRANCH  15  16
ENDBRANCH  14  15
ENDBRANCH  13  14
ENDBRANCH   1  13
TORSDOF 20
ENDMDL
MODEL 9
REMARK VINA RESULT:    -3.495      1.405      3.058
REMARK INTER + INTRA:         -11.003
REMARK INTER:                  -7.756
REMARK INTRA:                  -3.247
REMARK UNBOUND:                -3.421
REMARK SMILES CCCCCCCCCCCCCCCCCCCCCC(=O)[O-]
REMARK SMILES IDX 12 1 11 2 10 3 9 4 8 5 7 6 6 7 5 8 4 9 3 10 2 11 1 12 13 13
REMARK SMILES IDX 14 14 15 15 16 16 17 17 18 18 19 19 20 20 21 21 22 22 23 23
REMARK SMILES IDX 24 24
REMARK H PARENT
REMARK Flexibility Score: inf
ROOT
ATOM      1  C   UNL     1      -3.377 -12.478 -41.744  1.00  0.00     0.000 C 
ENDROOT
BRANCH   1   2
ATOM      2  C   UNL     1      -2.375 -12.814 -40.626  1.00  0.00     0.000 C 
BRANCH   2   3
ATOM      3  C   UNL     1      -2.792 -12.281 -39.239  1.00  0.00     0.000 C 
BRANCH   3   4
ATOM      4  C   UNL     1      -1.597 -12.155 -38.278  1.00  0.00    -0.000 C 
BRANCH   4   5
ATOM      5  C   UNL     1      -1.941 -11.341 -37.012  1.00  0.00    -0.000 C 
BRANCH   5   6
ATOM      6  C   UNL     1      -0.970 -10.177 -36.741  1.00  0.00    -0.000 C 
BRANCH   6   7
ATOM      7  C   UNL     1      -0.980  -9.650 -35.294  1.00  0.00    -0.000 C 
BRANCH   7   8
ATOM      8  C   UNL     1      -1.699 -10.558 -34.276  1.00  0.00    -0.000 C 
BRANCH   8   9
ATOM      9  C   UNL     1      -0.772 -11.306 -33.297  1.00  0.00    -0.000 C 
BRANCH   9  10
ATOM     10  C   UNL     1       0.148 -12.361 -33.945  1.00  0.00    -0.000 C 
BRANCH  10  11
ATOM     11  C   UNL     1      -0.552 -13.674 -34.336  1.00  0.00    -0.003 C 
ATOM     12  C   UNL     1       0.005 -14.287 -35.621  1.00  0.00     0.004 C 
ENDBRANCH  10  11
ENDBRANCH   9  10
ENDBRANCH   8   9
ENDBRANCH   7   8
ENDBRANCH   6   7
ENDBRANCH   5   6
ENDBRANCH   4   5
ENDBRANCH   3   4
ENDBRANCH   2   3
ENDBRANCH   1   2
BRANCH   1  13
ATOM     13  C   UNL     1      -3.806 -11.001 -41.738  1.00  0.00     0.000 C 
BRANCH  13  14
ATOM     14  C   UNL     1      -3.042 -10.156 -42.769  1.00  0.00     0.000 C 
BRANCH  14  15
ATOM     15  C   UNL     1      -2.531  -8.828 -42.183  1.00  0.00     0.000 C 
BRANCH  15  16
ATOM     16  C   UNL     1      -2.568  -8.812 -40.646  1.00  0.00     0.000 C 
BRANCH  16  17
ATOM     17  C   UNL     1      -1.163  -8.831 -40.018  1.00  0.00     0.000 C 
BRANCH  17  18
ATOM     18  C   UNL     1      -0.065  -9.230 -41.022  1.00  0.00     0.000 C 
BRANCH  18  19
ATOM     19  C   UNL     1       0.469 -10.665 -40.861  1.00  0.00     0.000 C 
BRANCH  19  20
ATOM     20  C   UNL     1       0.727 -11.363 -42.208  1.00  0.00     0.006 C 
BRANCH  20  21
ATOM     21  C   UNL     1       2.177 -11.195 -42.679  1.00  0.00     0.053 C 
BRANCH  21  22
ATOM     22  C   UNL     1       2.317 -11.438 -44.151  1.00  0.00     0.041 C 
ATOM     23  O   UNL     1       2.436 -10.468 -44.945  1.00  0.00    -0.550 OA
ATOM     24  O   UNL     1       2.277 -12.734 -44.649  1.00  0.00    -0.550 OA
ENDBRANCH  21  22
ENDBRANCH  20  21
ENDBRANCH  19  20
ENDBRANCH  18  19
ENDBRANCH  17  18
ENDBRANCH  16  17
ENDBRANCH  15  16
ENDBRANCH  14  15
ENDBRANCH  13  14
ENDBRANCH   1  13
TORSDOF 20
ENDMDL
