MODEL 1
REMARK VINA RESULT:    -7.057      0.000      0.000
REMARK INTER + INTRA:         -11.820
REMARK INTER:                 -10.152
REMARK INTRA:                  -1.668
REMARK UNBOUND:                -1.668
REMARK SMILES O=c1c(O[C@@H]2O[C@H](CO)[C@@H](O)[C@@H](O)[C@H]2O)c(-c2ccc(O)cc2)oc2cc(O)cc(O)c12
REMARK SMILES IDX 4 1 3 2 16 3 24 4 2 5 25 6 1 7 32 8 26 9 30 10 27 11 29 12
REMARK SMILES IDX 17 13 18 14 19 15 20 16 23 17 22 18 21 19 31 21 28 23 5 25
REMARK SMILES IDX 14 26 6 27 12 28 7 29 10 30 15 31 13 33 8 35 9 36 11 38
REMARK H PARENT 21 20 31 22 28 24 15 32 13 34 9 37 11 39
REMARK Flexibility Score: inf
ROOT
ATOM      1  O   UNL     1      -7.320  14.697   9.887  1.00  0.00    -0.454 OA
ENDROOT
BRANCH   1   2
ATOM      2  C   UNL     1      -6.310  15.101   8.977  1.00  0.00     0.214 A 
ATOM      3  C   UNL     1      -6.672  15.816   7.809  1.00  0.00     0.180 A 
ATOM      4  O   UNL     1      -5.727  16.321   7.024  1.00  0.00    -0.452 OA
ATOM      5  C   UNL     1      -4.931  14.881   9.216  1.00  0.00     0.239 A 
ATOM      6  C   UNL     1      -4.429  16.174   7.241  1.00  0.00     0.146 A 
ATOM      7  O   UNL     1      -4.566  14.278  10.253  1.00  0.00    -0.285 OA
ATOM      8  C   UNL     1      -3.962  15.393   8.322  1.00  0.00     0.111 A 
ATOM      9  C   UNL     1      -3.532  16.795   6.368  1.00  0.00     0.094 A 
ATOM     10  C   UNL     1      -2.556  15.199   8.462  1.00  0.00     0.134 A 
ATOM     11  C   UNL     1      -2.155  16.661   6.556  1.00  0.00     0.123 A 
ATOM     12  C   UNL     1      -1.675  15.874   7.605  1.00  0.00     0.093 A 
BRANCH   3  13
ATOM     13  C   UNL     1      -8.077  16.051   7.387  1.00  0.00     0.021 A 
ATOM     14  C   UNL     1      -8.707  15.283   6.390  1.00  0.00     0.016 A 
ATOM     15  C   UNL     1     -10.020  15.567   5.995  1.00  0.00     0.047 A 
ATOM     16  C   UNL     1     -10.712  16.639   6.559  1.00  0.00     0.115 A 
ATOM     17  C   UNL     1      -8.772  17.155   7.921  1.00  0.00     0.016 A 
ATOM     18  C   UNL     1     -10.074  17.450   7.502  1.00  0.00     0.047 A 
BRANCH  16  19
ATOM     19  O   UNL     1     -12.022  16.909   6.163  1.00  0.00    -0.508 OA
ATOM     20  H   UNL     1     -12.556  17.649   6.599  1.00  0.00     0.293 HD
ENDBRANCH  16  19
ENDBRANCH   3  13
BRANCH  10  21
ATOM     21  O   UNL     1      -1.995  14.323   9.393  1.00  0.00    -0.507 OA
ATOM     22  H   UNL     1      -2.045  13.317   9.303  1.00  0.00     0.293 HD
ENDBRANCH  10  21
BRANCH  11  23
ATOM     23  O   UNL     1      -1.260  17.284   5.691  1.00  0.00    -0.508 OA
ATOM     24  H   UNL     1      -1.517  17.504   4.733  1.00  0.00     0.293 HD
ENDBRANCH  11  23
ENDBRANCH   1   2
BRANCH   1  25
ATOM     25  C   UNL     1      -7.645  15.358  11.120  1.00  0.00     0.339 C 
ATOM     26  C   UNL     1      -9.170  15.583  11.300  1.00  0.00     0.214 C 
ATOM     27  O   UNL     1      -7.018  14.704  12.221  1.00  0.00    -0.332 OA
ATOM     28  C   UNL     1      -9.885  14.317  11.791  1.00  0.00     0.180 C 
ATOM     29  C   UNL     1      -7.671  13.528  12.689  1.00  0.00     0.179 C 
ATOM     30  C   UNL     1      -9.159  13.755  13.019  1.00  0.00     0.177 C 
BRANCH  26  31
ATOM     31  O   UNL     1      -9.361  16.646  12.200  1.00  0.00    -0.384 OA
ATOM     32  H   UNL     1      -8.482  17.097  12.320  1.00  0.00     0.211 HD
ENDBRANCH  26  31
BRANCH  28  33
ATOM     33  O   UNL     1     -11.234  14.599  12.087  1.00  0.00    -0.387 OA
ATOM     34  H   UNL     1     -11.452  14.111  12.924  1.00  0.00     0.211 HD
ENDBRANCH  28  33
BRANCH  29  35
ATOM     35  C   UNL     1      -7.418  12.304  11.790  1.00  0.00     0.191 C 
BRANCH  35  36
ATOM     36  O   UNL     1      -6.076  12.264  11.388  1.00  0.00    -0.394 OA
ATOM     37  H   UNL     1      -5.838  13.197  11.140  1.00  0.00     0.210 HD
ENDBRANCH  35  36
ENDBRANCH  29  35
BRANCH  30  38
ATOM     38  O   UNL     1      -9.262  14.645  14.105  1.00  0.00    -0.387 OA
ATOM     39  H   UNL     1      -8.366  14.708  14.529  1.00  0.00     0.211 HD
ENDBRANCH  30  38
ENDBRANCH   1  25
TORSDOF 11
ENDMDL
MODEL 2
REMARK VINA RESULT:    -6.956      2.108      6.501
REMARK INTER + INTRA:         -11.674
REMARK INTER:                 -10.347
REMARK INTRA:                  -1.326
REMARK UNBOUND:                -1.668
REMARK SMILES O=c1c(O[C@@H]2O[C@H](CO)[C@@H](O)[C@@H](O)[C@H]2O)c(-c2ccc(O)cc2)oc2cc(O)cc(O)c12
REMARK SMILES IDX 4 1 3 2 16 3 24 4 2 5 25 6 1 7 32 8 26 9 30 10 27 11 29 12
REMARK SMILES IDX 17 13 18 14 19 15 20 16 23 17 22 18 21 19 31 21 28 23 5 25
REMARK SMILES IDX 14 26 6 27 12 28 7 29 10 30 15 31 13 33 8 35 9 36 11 38
REMARK H PARENT 21 20 31 22 28 24 15 32 13 34 9 37 11 39
REMARK Flexibility Score: inf
ROOT
ATOM      1  O   UNL     1      -8.023  14.276  12.044  1.00  0.00    -0.454 OA
ENDROOT
BRANCH   1   2
ATOM      2  C   UNL     1      -8.677  15.097  11.091  1.00  0.00     0.214 A 
ATOM      3  C   UNL     1      -7.918  15.714  10.067  1.00  0.00     0.180 A 
ATOM      4  O   UNL     1      -8.536  16.368   9.089  1.00  0.00    -0.452 OA
ATOM      5  C   UNL     1     -10.082  15.279  11.072  1.00  0.00     0.239 A 
ATOM      6  C   UNL     1      -9.849  16.518   9.015  1.00  0.00     0.146 A 
ATOM      7  O   UNL     1     -10.794  14.725  11.943  1.00  0.00    -0.285 OA
ATOM      8  C   UNL     1     -10.690  16.028  10.039  1.00  0.00     0.111 A 
ATOM      9  C   UNL     1     -10.382  17.187   7.910  1.00  0.00     0.094 A 
ATOM     10  C   UNL     1     -12.090  16.289   9.952  1.00  0.00     0.134 A 
ATOM     11  C   UNL     1     -11.762  17.373   7.794  1.00  0.00     0.123 A 
ATOM     12  C   UNL     1     -12.607  16.917   8.808  1.00  0.00     0.093 A 
BRANCH   3  13
ATOM     13  C   UNL     1      -6.434  15.680  10.004  1.00  0.00     0.021 A 
ATOM     14  C   UNL     1      -5.627  16.644  10.635  1.00  0.00     0.016 A 
ATOM     15  C   UNL     1      -4.232  16.596  10.515  1.00  0.00     0.047 A 
ATOM     16  C   UNL     1      -3.624  15.611   9.737  1.00  0.00     0.115 A 
ATOM     17  C   UNL     1      -5.810  14.713   9.190  1.00  0.00     0.016 A 
ATOM     18  C   UNL     1      -4.418  14.687   9.052  1.00  0.00     0.047 A 
BRANCH  16  19
ATOM     19  O   UNL     1      -2.234  15.567   9.630  1.00  0.00    -0.508 OA
ATOM     20  H   UNL     1      -1.785  15.335   8.753  1.00  0.00     0.293 HD
ENDBRANCH  16  19
ENDBRANCH   3  13
BRANCH  10  21
ATOM     21  O   UNL     1     -12.988  15.992  10.978  1.00  0.00    -0.507 OA
ATOM     22  H   UNL     1     -13.202  15.047  11.267  1.00  0.00     0.293 HD
ENDBRANCH  10  21
BRANCH  11  23
ATOM     23  O   UNL     1     -12.296  18.032   6.692  1.00  0.00    -0.508 OA
ATOM     24  H   UNL     1     -11.699  18.500   6.016  1.00  0.00     0.293 HD
ENDBRANCH  11  23
ENDBRANCH   1   2
BRANCH   1  25
ATOM     25  C   UNL     1      -7.998  12.839  12.031  1.00  0.00     0.339 C 
ATOM     26  C   UNL     1      -6.655  12.255  12.543  1.00  0.00     0.214 C 
ATOM     27  O   UNL     1      -9.150  12.312  12.684  1.00  0.00    -0.332 OA
ATOM     28  C   UNL     1      -6.579  12.242  14.075  1.00  0.00     0.180 C 
ATOM     29  C   UNL     1      -9.094  12.292  14.106  1.00  0.00     0.179 C 
ATOM     30  C   UNL     1      -7.838  11.583  14.651  1.00  0.00     0.177 C 
BRANCH  26  31
ATOM     31  O   UNL     1      -6.506  10.958  12.024  1.00  0.00    -0.384 OA
ATOM     32  H   UNL     1      -5.716  10.546  12.468  1.00  0.00     0.211 HD
ENDBRANCH  26  31
BRANCH  28  33
ATOM     33  O   UNL     1      -5.416  11.568  14.504  1.00  0.00    -0.387 OA
ATOM     34  H   UNL     1      -5.716  10.822  15.087  1.00  0.00     0.211 HD
ENDBRANCH  28  33
BRANCH  29  35
ATOM     35  C   UNL     1      -9.344  13.674  14.736  1.00  0.00     0.191 C 
BRANCH  35  36
ATOM     36  O   UNL     1     -10.691  14.037  14.595  1.00  0.00    -0.394 OA
ATOM     37  H   UNL     1     -10.706  15.030  14.581  1.00  0.00     0.210 HD
ENDBRANCH  35  36
ENDBRANCH  29  35
BRANCH  30  38
ATOM     38  O   UNL     1      -7.887  10.220  14.302  1.00  0.00    -0.387 OA
ATOM     39  H   UNL     1      -7.479  10.124  13.401  1.00  0.00     0.211 HD
ENDBRANCH  30  38
ENDBRANCH   1  25
TORSDOF 11
ENDMDL
MODEL 3
REMARK VINA RESULT:    -6.869      2.245      7.730
REMARK INTER + INTRA:         -11.549
REMARK INTER:                 -10.215
REMARK INTRA:                  -1.333
REMARK UNBOUND:                -1.668
REMARK SMILES O=c1c(O[C@@H]2O[C@H](CO)[C@@H](O)[C@@H](O)[C@H]2O)c(-c2ccc(O)cc2)oc2cc(O)cc(O)c12
REMARK SMILES IDX 4 1 3 2 16 3 24 4 2 5 25 6 1 7 32 8 26 9 30 10 27 11 29 12
REMARK SMILES IDX 17 13 18 14 19 15 20 16 23 17 22 18 21 19 31 21 28 23 5 25
REMARK SMILES IDX 14 26 6 27 12 28 7 29 10 30 15 31 13 33 8 35 9 36 11 38
REMARK H PARENT 21 20 31 22 28 24 15 32 13 34 9 37 11 39
REMARK Flexibility Score: inf
ROOT
ATOM      1  O   UNL     1      -7.147  15.275  10.500  1.00  0.00    -0.454 OA
ENDROOT
BRANCH   1   2
ATOM      2  C   UNL     1      -8.543  15.428  10.693  1.00  0.00     0.214 A 
ATOM      3  C   UNL     1      -9.168  14.786  11.790  1.00  0.00     0.180 A 
ATOM      4  O   UNL     1     -10.444  15.035  12.062  1.00  0.00    -0.452 OA
ATOM      5  C   UNL     1      -9.344  16.257   9.870  1.00  0.00     0.239 A 
ATOM      6  C   UNL     1     -11.210  15.841  11.342  1.00  0.00     0.146 A 
ATOM      7  O   UNL     1      -8.824  16.868   8.906  1.00  0.00    -0.285 OA
ATOM      8  C   UNL     1     -10.713  16.451  10.169  1.00  0.00     0.111 A 
ATOM      9  C   UNL     1     -12.526  16.059  11.759  1.00  0.00     0.094 A 
ATOM     10  C   UNL     1     -11.603  17.242   9.385  1.00  0.00     0.134 A 
ATOM     11  C   UNL     1     -13.370  16.896  11.026  1.00  0.00     0.123 A 
ATOM     12  C   UNL     1     -12.903  17.489   9.851  1.00  0.00     0.093 A 
BRANCH   3  13
ATOM     13  C   UNL     1      -8.476  13.826  12.689  1.00  0.00     0.021 A 
ATOM     14  C   UNL     1      -8.372  12.454  12.394  1.00  0.00     0.016 A 
ATOM     15  C   UNL     1      -7.746  11.578  13.289  1.00  0.00     0.047 A 
ATOM     16  C   UNL     1      -7.249  12.047  14.506  1.00  0.00     0.115 A 
ATOM     17  C   UNL     1      -8.005  14.281  13.937  1.00  0.00     0.016 A 
ATOM     18  C   UNL     1      -7.406  13.396  14.839  1.00  0.00     0.047 A 
BRANCH  16  19
ATOM     19  O   UNL     1      -6.621  11.168  15.388  1.00  0.00    -0.508 OA
ATOM     20  H   UNL     1      -6.414  11.443  16.339  1.00  0.00     0.293 HD
ENDBRANCH  16  19
ENDBRANCH   3  13
BRANCH  10  21
ATOM     21  O   UNL     1     -11.265  17.760   8.133  1.00  0.00    -0.507 OA
ATOM     22  H   UNL     1     -10.413  18.276   7.961  1.00  0.00     0.293 HD
ENDBRANCH  10  21
BRANCH  11  23
ATOM     23  O   UNL     1     -14.678  17.121  11.443  1.00  0.00    -0.508 OA
ATOM     24  H   UNL     1     -15.118  16.530  12.144  1.00  0.00     0.293 HD
ENDBRANCH  11  23
ENDBRANCH   1   2
BRANCH   1  25
ATOM     25  C   UNL     1      -6.516  14.207   9.775  1.00  0.00     0.339 C 
ATOM     26  C   UNL     1      -6.636  14.369   8.237  1.00  0.00     0.214 C 
ATOM     27  O   UNL     1      -5.183  14.006  10.238  1.00  0.00    -0.332 OA
ATOM     28  C   UNL     1      -5.603  15.357   7.679  1.00  0.00     0.180 C 
ATOM     29  C   UNL     1      -4.212  14.915   9.728  1.00  0.00     0.179 C 
ATOM     30  C   UNL     1      -4.205  14.989   8.188  1.00  0.00     0.177 C 
BRANCH  26  31
ATOM     31  O   UNL     1      -6.490  13.104   7.642  1.00  0.00    -0.384 OA
ATOM     32  H   UNL     1      -7.148  12.493   8.072  1.00  0.00     0.211 HD
ENDBRANCH  26  31
BRANCH  28  33
ATOM     33  O   UNL     1      -5.641  15.364   6.269  1.00  0.00    -0.387 OA
ATOM     34  H   UNL     1      -6.515  14.973   6.004  1.00  0.00     0.211 HD
ENDBRANCH  28  33
BRANCH  29  35
ATOM     35  C   UNL     1      -4.264  16.293  10.411  1.00  0.00     0.191 C 
BRANCH  35  36
ATOM     36  O   UNL     1      -4.589  16.153  11.767  1.00  0.00    -0.394 OA
ATOM     37  H   UNL     1      -3.937  16.716  12.263  1.00  0.00     0.210 HD
ENDBRANCH  35  36
ENDBRANCH  29  35
BRANCH  30  38
ATOM     38  O   UNL     1      -3.800  13.745   7.667  1.00  0.00    -0.387 OA
ATOM     39  H   UNL     1      -3.090  13.917   6.993  1.00  0.00     0.211 HD
ENDBRANCH  30  38
ENDBRANCH   1  25
TORSDOF 11
ENDMDL
MODEL 4
REMARK VINA RESULT:    -6.640      1.667      2.970
REMARK INTER + INTRA:         -11.220
REMARK INTER:                  -9.961
REMARK INTRA:                  -1.258
REMARK UNBOUND:                -1.668
REMARK SMILES O=c1c(O[C@@H]2O[C@H](CO)[C@@H](O)[C@@H](O)[C@H]2O)c(-c2ccc(O)cc2)oc2cc(O)cc(O)c12
REMARK SMILES IDX 4 1 3 2 16 3 24 4 2 5 25 6 1 7 32 8 26 9 30 10 27 11 29 12
REMARK SMILES IDX 17 13 18 14 19 15 20 16 23 17 22 18 21 19 31 21 28 23 5 25
REMARK SMILES IDX 14 26 6 27 12 28 7 29 10 30 15 31 13 33 8 35 9 36 11 38
REMARK H PARENT 21 20 31 22 28 24 15 32 13 34 9 37 11 39
REMARK Flexibility Score: inf
ROOT
ATOM      1  O   UNL     1      -8.821  16.642  10.314  1.00  0.00    -0.454 OA
ENDROOT
BRANCH   1   2
ATOM      2  C   UNL     1      -7.722  16.447   9.439  1.00  0.00     0.214 A 
ATOM      3  C   UNL     1      -7.946  16.398   8.042  1.00  0.00     0.180 A 
ATOM      4  O   UNL     1      -6.913  16.358   7.207  1.00  0.00    -0.452 OA
ATOM      5  C   UNL     1      -6.384  16.364   9.897  1.00  0.00     0.239 A 
ATOM      6  C   UNL     1      -5.648  16.327   7.599  1.00  0.00     0.146 A 
ATOM      7  O   UNL     1      -6.139  16.433  11.125  1.00  0.00    -0.285 OA
ATOM      8  C   UNL     1      -5.318  16.269   8.971  1.00  0.00     0.111 A 
ATOM      9  C   UNL     1      -4.648  16.335   6.623  1.00  0.00     0.094 A 
ATOM     10  C   UNL     1      -3.945  16.153   9.336  1.00  0.00     0.134 A 
ATOM     11  C   UNL     1      -3.301  16.296   6.991  1.00  0.00     0.123 A 
ATOM     12  C   UNL     1      -2.957  16.215   8.342  1.00  0.00     0.093 A 
BRANCH   3  13
ATOM     13  C   UNL     1      -9.297  16.392   7.421  1.00  0.00     0.021 A 
ATOM     14  C   UNL     1     -10.204  17.457   7.573  1.00  0.00     0.016 A 
ATOM     15  C   UNL     1     -11.482  17.391   7.004  1.00  0.00     0.047 A 
ATOM     16  C   UNL     1     -11.888  16.251   6.309  1.00  0.00     0.115 A 
ATOM     17  C   UNL     1      -9.731  15.232   6.750  1.00  0.00     0.016 A 
ATOM     18  C   UNL     1     -11.019  15.161   6.208  1.00  0.00     0.047 A 
BRANCH  16  19
ATOM     19  O   UNL     1     -13.160  16.198   5.740  1.00  0.00    -0.508 OA
ATOM     20  H   UNL     1     -13.281  16.060   4.745  1.00  0.00     0.293 HD
ENDBRANCH  16  19
ENDBRANCH   3  13
BRANCH  10  21
ATOM     21  O   UNL     1      -3.518  15.930  10.646  1.00  0.00    -0.507 OA
ATOM     22  H   UNL     1      -2.944  16.587  11.158  1.00  0.00     0.293 HD
ENDBRANCH  10  21
BRANCH  11  23
ATOM     23  O   UNL     1      -2.303  16.311   6.021  1.00  0.00    -0.508 OA
ATOM     24  H   UNL     1      -1.324  16.415   6.272  1.00  0.00     0.293 HD
ENDBRANCH  11  23
ENDBRANCH   1   2
BRANCH   1  25
ATOM     25  C   UNL     1      -9.731  15.621  10.752  1.00  0.00     0.339 C 
ATOM     26  C   UNL     1      -9.184  14.798  11.948  1.00  0.00     0.214 C 
ATOM     27  O   UNL     1     -11.031  16.165  10.965  1.00  0.00    -0.332 OA
ATOM     28  C   UNL     1      -9.366  15.531  13.284  1.00  0.00     0.180 C 
ATOM     29  C   UNL     1     -11.216  16.849  12.201  1.00  0.00     0.179 C 
ATOM     30  C   UNL     1     -10.819  16.000  13.424  1.00  0.00     0.177 C 
BRANCH  26  31
ATOM     31  O   UNL     1      -9.837  13.553  11.969  1.00  0.00    -0.384 OA
ATOM     32  H   UNL     1     -10.809  13.723  11.846  1.00  0.00     0.211 HD
ENDBRANCH  26  31
BRANCH  28  33
ATOM     33  O   UNL     1      -8.999  14.695  14.358  1.00  0.00    -0.387 OA
ATOM     34  H   UNL     1      -9.180  15.203  15.192  1.00  0.00     0.211 HD
ENDBRANCH  28  33
BRANCH  29  35
ATOM     35  C   UNL     1     -10.601  18.259  12.203  1.00  0.00     0.191 C 
BRANCH  35  36
ATOM     36  O   UNL     1     -10.814  18.886  10.968  1.00  0.00    -0.394 OA
ATOM     37  H   UNL     1     -10.220  19.683  10.960  1.00  0.00     0.210 HD
ENDBRANCH  35  36
ENDBRANCH  29  35
BRANCH  30  38
ATOM     38  O   UNL     1     -11.687  14.895  13.523  1.00  0.00    -0.387 OA
ATOM     39  H   UNL     1     -11.790  14.510  12.613  1.00  0.00     0.211 HD
ENDBRANCH  30  38
ENDBRANCH   1  25
TORSDOF 11
ENDMDL
MODEL 5
REMARK VINA RESULT:    -6.583      2.484      7.038
REMARK INTER + INTRA:         -11.137
REMARK INTER:                  -9.669
REMARK INTRA:                  -1.468
REMARK UNBOUND:                -1.668
REMARK SMILES O=c1c(O[C@@H]2O[C@H](CO)[C@@H](O)[C@@H](O)[C@H]2O)c(-c2ccc(O)cc2)oc2cc(O)cc(O)c12
REMARK SMILES IDX 4 1 3 2 16 3 24 4 2 5 25 6 1 7 32 8 26 9 30 10 27 11 29 12
REMARK SMILES IDX 17 13 18 14 19 15 20 16 23 17 22 18 21 19 31 21 28 23 5 25
REMARK SMILES IDX 14 26 6 27 12 28 7 29 10 30 15 31 13 33 8 35 9 36 11 38
REMARK H PARENT 21 20 31 22 28 24 15 32 13 34 9 37 11 39
REMARK Flexibility Score: inf
ROOT
ATOM      1  O   UNL     1      -6.161  14.735  11.558  1.00  0.00    -0.454 OA
ENDROOT
BRANCH   1   2
ATOM      2  C   UNL     1      -7.373  14.119  11.960  1.00  0.00     0.214 A 
ATOM      3  C   UNL     1      -8.553  14.898  12.051  1.00  0.00     0.180 A 
ATOM      4  O   UNL     1      -9.719  14.307  12.288  1.00  0.00    -0.452 OA
ATOM      5  C   UNL     1      -7.479  12.729  12.213  1.00  0.00     0.239 A 
ATOM      6  C   UNL     1      -9.861  13.005  12.483  1.00  0.00     0.146 A 
ATOM      7  O   UNL     1      -6.465  11.999  12.114  1.00  0.00    -0.285 OA
ATOM      8  C   UNL     1      -8.735  12.153  12.514  1.00  0.00     0.111 A 
ATOM      9  C   UNL     1     -11.149  12.497  12.675  1.00  0.00     0.094 A 
ATOM     10  C   UNL     1      -8.936  10.772  12.811  1.00  0.00     0.134 A 
ATOM     11  C   UNL     1     -11.344  11.130  12.891  1.00  0.00     0.123 A 
ATOM     12  C   UNL     1     -10.241  10.276  12.949  1.00  0.00     0.093 A 
BRANCH   3  13
ATOM     13  C   UNL     1      -8.581  16.375  11.892  1.00  0.00     0.021 A 
ATOM     14  C   UNL     1      -8.157  17.254  12.907  1.00  0.00     0.016 A 
ATOM     15  C   UNL     1      -8.239  18.640  12.729  1.00  0.00     0.047 A 
ATOM     16  C   UNL     1      -8.779  19.172  11.557  1.00  0.00     0.115 A 
ATOM     17  C   UNL     1      -9.159  16.924  10.730  1.00  0.00     0.016 A 
ATOM     18  C   UNL     1      -9.265  18.310  10.570  1.00  0.00     0.047 A 
BRANCH  16  19
ATOM     19  O   UNL     1      -8.850  20.555  11.388  1.00  0.00    -0.508 OA
ATOM     20  H   UNL     1      -8.229  21.034  10.749  1.00  0.00     0.293 HD
ENDBRANCH  16  19
ENDBRANCH   3  13
BRANCH  10  21
ATOM     21  O   UNL     1      -7.887   9.875  13.022  1.00  0.00    -0.507 OA
ATOM     22  H   UNL     1      -7.004  10.147  13.433  1.00  0.00     0.293 HD
ENDBRANCH  10  21
BRANCH  11  23
ATOM     23  O   UNL     1     -12.625  10.620  13.077  1.00  0.00    -0.508 OA
ATOM     24  H   UNL     1     -13.404  11.225  13.326  1.00  0.00     0.293 HD
ENDBRANCH  11  23
ENDBRANCH   1   2
BRANCH   1  25
ATOM     25  C   UNL     1      -5.449  14.461  10.341  1.00  0.00     0.339 C 
ATOM     26  C   UNL     1      -6.316  14.679   9.073  1.00  0.00     0.214 C 
ATOM     27  O   UNL     1      -4.203  15.153  10.322  1.00  0.00    -0.332 OA
ATOM     28  C   UNL     1      -6.407  16.161   8.685  1.00  0.00     0.180 C 
ATOM     29  C   UNL     1      -4.271  16.530   9.963  1.00  0.00     0.179 C 
ATOM     30  C   UNL     1      -5.000  16.769   8.626  1.00  0.00     0.177 C 
BRANCH  26  31
ATOM     31  O   UNL     1      -5.769  13.920   8.023  1.00  0.00    -0.384 OA
ATOM     32  H   UNL     1      -6.155  13.004   8.084  1.00  0.00     0.211 HD
ENDBRANCH  26  31
BRANCH  28  33
ATOM     33  O   UNL     1      -7.071  16.305   7.449  1.00  0.00    -0.387 OA
ATOM     34  H   UNL     1      -7.450  17.223   7.433  1.00  0.00     0.211 HD
ENDBRANCH  28  33
BRANCH  29  35
ATOM     35  C   UNL     1      -4.775  17.424  11.109  1.00  0.00     0.191 C 
BRANCH  35  36
ATOM     36  O   UNL     1      -4.323  16.937  12.343  1.00  0.00    -0.394 OA
ATOM     37  H   UNL     1      -4.086  17.738  12.882  1.00  0.00     0.210 HD
ENDBRANCH  35  36
ENDBRANCH  29  35
BRANCH  30  38
ATOM     38  O   UNL     1      -4.254  16.190   7.581  1.00  0.00    -0.387 OA
ATOM     39  H   UNL     1      -3.817  16.928   7.078  1.00  0.00     0.211 HD
ENDBRANCH  30  38
ENDBRANCH   1  25
TORSDOF 11
ENDMDL
MODEL 6
REMARK VINA RESULT:    -6.557      1.124      2.235
REMARK INTER + INTRA:         -11.100
REMARK INTER:                  -9.869
REMARK INTRA:                  -1.231
REMARK UNBOUND:                -1.668
REMARK SMILES O=c1c(O[C@@H]2O[C@H](CO)[C@@H](O)[C@@H](O)[C@H]2O)c(-c2ccc(O)cc2)oc2cc(O)cc(O)c12
REMARK SMILES IDX 4 1 3 2 16 3 24 4 2 5 25 6 1 7 32 8 26 9 30 10 27 11 29 12
REMARK SMILES IDX 17 13 18 14 19 15 20 16 23 17 22 18 21 19 31 21 28 23 5 25
REMARK SMILES IDX 14 26 6 27 12 28 7 29 10 30 15 31 13 33 8 35 9 36 11 38
REMARK H PARENT 21 20 31 22 28 24 15 32 13 34 9 37 11 39
REMARK Flexibility Score: inf
ROOT
ATOM      1  O   UNL     1      -7.546  16.082  10.311  1.00  0.00    -0.454 OA
ENDROOT
BRANCH   1   2
ATOM      2  C   UNL     1      -6.493  16.061   9.362  1.00  0.00     0.214 A 
ATOM      3  C   UNL     1      -6.790  16.239   7.988  1.00  0.00     0.180 A 
ATOM      4  O   UNL     1      -5.802  16.362   7.109  1.00  0.00    -0.452 OA
ATOM      5  C   UNL     1      -5.131  15.935   9.731  1.00  0.00     0.239 A 
ATOM      6  C   UNL     1      -4.518  16.296   7.426  1.00  0.00     0.146 A 
ATOM      7  O   UNL     1      -4.823  15.805  10.940  1.00  0.00    -0.285 OA
ATOM      8  C   UNL     1      -4.115  16.020   8.751  1.00  0.00     0.111 A 
ATOM      9  C   UNL     1      -3.571  16.490   6.416  1.00  0.00     0.094 A 
ATOM     10  C   UNL     1      -2.722  15.877   9.022  1.00  0.00     0.134 A 
ATOM     11  C   UNL     1      -2.206  16.422   6.705  1.00  0.00     0.123 A 
ATOM     12  C   UNL     1      -1.789  16.126   8.004  1.00  0.00     0.093 A 
BRANCH   3  13
ATOM     13  C   UNL     1      -8.171  16.304   7.444  1.00  0.00     0.021 A 
ATOM     14  C   UNL     1      -8.668  15.360   6.526  1.00  0.00     0.016 A 
ATOM     15  C   UNL     1      -9.963  15.483   6.007  1.00  0.00     0.047 A 
ATOM     16  C   UNL     1     -10.767  16.566   6.365  1.00  0.00     0.115 A 
ATOM     17  C   UNL     1      -8.979  17.413   7.768  1.00  0.00     0.016 A 
ATOM     18  C   UNL     1     -10.261  17.545   7.225  1.00  0.00     0.047 A 
BRANCH  16  19
ATOM     19  O   UNL     1     -12.058  16.675   5.848  1.00  0.00    -0.508 OA
ATOM     20  H   UNL     1     -12.297  17.407   5.192  1.00  0.00     0.293 HD
ENDBRANCH  16  19
ENDBRANCH   3  13
BRANCH  10  21
ATOM     21  O   UNL     1      -2.223  15.450  10.255  1.00  0.00    -0.507 OA
ATOM     22  H   UNL     1      -1.524  15.964  10.774  1.00  0.00     0.293 HD
ENDBRANCH  10  21
BRANCH  11  23
ATOM     23  O   UNL     1      -1.261  16.621   5.703  1.00  0.00    -0.508 OA
ATOM     24  H   UNL     1      -0.539  15.931   5.513  1.00  0.00     0.293 HD
ENDBRANCH  11  23
ENDBRANCH   1   2
BRANCH   1  25
ATOM     25  C   UNL     1      -8.324  14.946  10.721  1.00  0.00     0.339 C 
ATOM     26  C   UNL     1      -7.557  14.010  11.692  1.00  0.00     0.214 C 
ATOM     27  O   UNL     1      -9.602  15.359  11.197  1.00  0.00    -0.332 OA
ATOM     28  C   UNL     1      -7.570  14.538  13.133  1.00  0.00     0.180 C 
ATOM     29  C   UNL     1      -9.630  15.851  12.533  1.00  0.00     0.179 C 
ATOM     30  C   UNL     1      -9.007  14.874  13.549  1.00  0.00     0.177 C 
BRANCH  26  31
ATOM     31  O   UNL     1      -8.132  12.729  11.624  1.00  0.00    -0.384 OA
ATOM     32  H   UNL     1      -8.915  12.785  11.012  1.00  0.00     0.211 HD
ENDBRANCH  26  31
BRANCH  28  33
ATOM     33  O   UNL     1      -6.999  13.591  14.008  1.00  0.00    -0.387 OA
ATOM     34  H   UNL     1      -6.022  13.586  13.826  1.00  0.00     0.211 HD
ENDBRANCH  28  33
BRANCH  29  35
ATOM     35  C   UNL     1      -9.097  17.290  12.654  1.00  0.00     0.191 C 
BRANCH  35  36
ATOM     36  O   UNL     1      -9.503  18.054  11.551  1.00  0.00    -0.394 OA
ATOM     37  H   UNL     1      -9.472  17.441  10.768  1.00  0.00     0.210 HD
ENDBRANCH  35  36
ENDBRANCH  29  35
BRANCH  30  38
ATOM     38  O   UNL     1      -9.790  13.705  13.609  1.00  0.00    -0.387 OA
ATOM     39  H   UNL     1      -9.246  13.001  14.052  1.00  0.00     0.211 HD
ENDBRANCH  30  38
ENDBRANCH   1  25
TORSDOF 11
ENDMDL
MODEL 7
REMARK VINA RESULT:    -6.497      2.374      6.074
REMARK INTER + INTRA:         -11.014
REMARK INTER:                  -9.450
REMARK INTRA:                  -1.565
REMARK UNBOUND:                -1.668
REMARK SMILES O=c1c(O[C@@H]2O[C@H](CO)[C@@H](O)[C@@H](O)[C@H]2O)c(-c2ccc(O)cc2)oc2cc(O)cc(O)c12
REMARK SMILES IDX 4 1 3 2 16 3 24 4 2 5 25 6 1 7 32 8 26 9 30 10 27 11 29 12
REMARK SMILES IDX 17 13 18 14 19 15 20 16 23 17 22 18 21 19 31 21 28 23 5 25
REMARK SMILES IDX 14 26 6 27 12 28 7 29 10 30 15 31 13 33 8 35 9 36 11 38
REMARK H PARENT 21 20 31 22 28 24 15 32 13 34 9 37 11 39
REMARK Flexibility Score: inf
ROOT
ATOM      1  O   UNL     1      -6.829  16.106   8.558  1.00  0.00    -0.454 OA
ENDROOT
BRANCH   1   2
ATOM      2  C   UNL     1      -7.251  16.429   9.873  1.00  0.00     0.214 A 
ATOM      3  C   UNL     1      -8.631  16.608  10.137  1.00  0.00     0.180 A 
ATOM      4  O   UNL     1      -9.049  16.769  11.388  1.00  0.00    -0.452 OA
ATOM      5  C   UNL     1      -6.353  16.516  10.965  1.00  0.00     0.239 A 
ATOM      6  C   UNL     1      -8.242  16.809  12.437  1.00  0.00     0.146 A 
ATOM      7  O   UNL     1      -5.126  16.335  10.780  1.00  0.00    -0.285 OA
ATOM      8  C   UNL     1      -6.841  16.742  12.274  1.00  0.00     0.111 A 
ATOM      9  C   UNL     1      -8.809  16.936  13.709  1.00  0.00     0.094 A 
ATOM     10  C   UNL     1      -6.015  16.874  13.429  1.00  0.00     0.134 A 
ATOM     11  C   UNL     1      -7.995  16.989  14.843  1.00  0.00     0.123 A 
ATOM     12  C   UNL     1      -6.606  16.948  14.698  1.00  0.00     0.093 A 
BRANCH   3  13
ATOM     13  C   UNL     1      -9.678  16.625   9.083  1.00  0.00     0.021 A 
ATOM     14  C   UNL     1      -9.598  17.455   7.950  1.00  0.00     0.016 A 
ATOM     15  C   UNL     1     -10.628  17.468   7.001  1.00  0.00     0.047 A 
ATOM     16  C   UNL     1     -11.768  16.685   7.185  1.00  0.00     0.115 A 
ATOM     17  C   UNL     1     -10.850  15.867   9.276  1.00  0.00     0.016 A 
ATOM     18  C   UNL     1     -11.888  15.905   8.339  1.00  0.00     0.047 A 
BRANCH  16  19
ATOM     19  O   UNL     1     -12.785  16.700   6.231  1.00  0.00    -0.508 OA
ATOM     20  H   UNL     1     -13.709  16.352   6.449  1.00  0.00     0.293 HD
ENDBRANCH  16  19
ENDBRANCH   3  13
BRANCH  10  21
ATOM     21  O   UNL     1      -4.624  16.981  13.366  1.00  0.00    -0.507 OA
ATOM     22  H   UNL     1      -4.101  17.675  13.883  1.00  0.00     0.293 HD
ENDBRANCH  10  21
BRANCH  11  23
ATOM     23  O   UNL     1      -8.557  17.108  16.110  1.00  0.00    -0.508 OA
ATOM     24  H   UNL     1      -8.992  16.315  16.572  1.00  0.00     0.293 HD
ENDBRANCH  11  23
ENDBRANCH   1   2
BRANCH   1  25
ATOM     25  C   UNL     1      -6.709  14.779   8.022  1.00  0.00     0.339 C 
ATOM     26  C   UNL     1      -7.479  14.595   6.688  1.00  0.00     0.214 C 
ATOM     27  O   UNL     1      -5.340  14.384   7.964  1.00  0.00    -0.332 OA
ATOM     28  C   UNL     1      -6.698  15.149   5.490  1.00  0.00     0.180 C 
ATOM     29  C   UNL     1      -4.601  14.890   6.857  1.00  0.00     0.179 C 
ATOM     30  C   UNL     1      -5.269  14.592   5.500  1.00  0.00     0.177 C 
BRANCH  26  31
ATOM     31  O   UNL     1      -7.753  13.227   6.517  1.00  0.00    -0.384 OA
ATOM     32  H   UNL     1      -8.323  12.938   7.280  1.00  0.00     0.211 HD
ENDBRANCH  26  31
BRANCH  28  33
ATOM     33  O   UNL     1      -7.355  14.830   4.284  1.00  0.00    -0.387 OA
ATOM     34  H   UNL     1      -7.164  15.569   3.649  1.00  0.00     0.211 HD
ENDBRANCH  28  33
BRANCH  29  35
ATOM     35  C   UNL     1      -4.191  16.363   7.032  1.00  0.00     0.191 C 
BRANCH  35  36
ATOM     36  O   UNL     1      -3.814  16.609   8.360  1.00  0.00    -0.394 OA
ATOM     37  H   UNL     1      -2.821  16.649   8.358  1.00  0.00     0.210 HD
ENDBRANCH  35  36
ENDBRANCH  29  35
BRANCH  30  38
ATOM     38  O   UNL     1      -5.279  13.201   5.284  1.00  0.00    -0.387 OA
ATOM     39  H   UNL     1      -5.303  12.758   6.173  1.00  0.00     0.211 HD
ENDBRANCH  30  38
ENDBRANCH   1  25
TORSDOF 11
ENDMDL
MODEL 8
REMARK VINA RESULT:    -6.425      5.032      7.465
REMARK INTER + INTRA:         -10.910
REMARK INTER:                  -9.442
REMARK INTRA:                  -1.467
REMARK UNBOUND:                -1.668
REMARK SMILES O=c1c(O[C@@H]2O[C@H](CO)[C@@H](O)[C@@H](O)[C@H]2O)c(-c2ccc(O)cc2)oc2cc(O)cc(O)c12
REMARK SMILES IDX 4 1 3 2 16 3 24 4 2 5 25 6 1 7 32 8 26 9 30 10 27 11 29 12
REMARK SMILES IDX 17 13 18 14 19 15 20 16 23 17 22 18 21 19 31 21 28 23 5 25
REMARK SMILES IDX 14 26 6 27 12 28 7 29 10 30 15 31 13 33 8 35 9 36 11 38
REMARK H PARENT 21 20 31 22 28 24 15 32 13 34 9 37 11 39
REMARK Flexibility Score: inf
ROOT
ATOM      1  O   UNL     1     -10.198  16.455  12.957  1.00  0.00    -0.454 OA
ENDROOT
BRANCH   1   2
ATOM      2  C   UNL     1     -11.058  16.616  11.842  1.00  0.00     0.214 A 
ATOM      3  C   UNL     1     -11.129  17.873  11.193  1.00  0.00     0.180 A 
ATOM      4  O   UNL     1     -11.821  17.998  10.066  1.00  0.00    -0.452 OA
ATOM      5  C   UNL     1     -11.812  15.548  11.295  1.00  0.00     0.239 A 
ATOM      6  C   UNL     1     -12.499  17.010   9.502  1.00  0.00     0.146 A 
ATOM      7  O   UNL     1     -11.755  14.411  11.821  1.00  0.00    -0.285 OA
ATOM      8  C   UNL     1     -12.577  15.743  10.121  1.00  0.00     0.111 A 
ATOM      9  C   UNL     1     -13.148  17.255   8.289  1.00  0.00     0.094 A 
ATOM     10  C   UNL     1     -13.388  14.739   9.515  1.00  0.00     0.134 A 
ATOM     11  C   UNL     1     -13.880  16.243   7.663  1.00  0.00     0.123 A 
ATOM     12  C   UNL     1     -13.988  14.991   8.272  1.00  0.00     0.093 A 
BRANCH   3  13
ATOM     13  C   UNL     1     -10.460  19.101  11.698  1.00  0.00     0.021 A 
ATOM     14  C   UNL     1     -11.172  20.164  12.284  1.00  0.00     0.016 A 
ATOM     15  C   UNL     1     -10.505  21.320  12.708  1.00  0.00     0.047 A 
ATOM     16  C   UNL     1      -9.129  21.450  12.522  1.00  0.00     0.115 A 
ATOM     17  C   UNL     1      -9.077  19.260  11.481  1.00  0.00     0.016 A 
ATOM     18  C   UNL     1      -8.421  20.429  11.881  1.00  0.00     0.047 A 
BRANCH  16  19
ATOM     19  O   UNL     1      -8.473  22.603  12.955  1.00  0.00    -0.508 OA
ATOM     20  H   UNL     1      -7.513  22.569  13.272  1.00  0.00     0.293 HD
ENDBRANCH  16  19
ENDBRANCH   3  13
BRANCH  10  21
ATOM     21  O   UNL     1     -13.663  13.510  10.118  1.00  0.00    -0.507 OA
ATOM     22  H   UNL     1     -14.581  13.257  10.458  1.00  0.00     0.293 HD
ENDBRANCH  10  21
BRANCH  11  23
ATOM     23  O   UNL     1     -14.522  16.482   6.451  1.00  0.00    -0.508 OA
ATOM     24  H   UNL     1     -15.497  16.769   6.418  1.00  0.00     0.293 HD
ENDBRANCH  11  23
ENDBRANCH   1   2
BRANCH   1  25
ATOM     25  C   UNL     1      -9.001  15.660  12.979  1.00  0.00     0.339 C 
ATOM     26  C   UNL     1      -7.802  16.395  13.635  1.00  0.00     0.214 C 
ATOM     27  O   UNL     1      -9.265  14.371  13.527  1.00  0.00    -0.332 OA
ATOM     28  C   UNL     1      -7.863  16.345  15.168  1.00  0.00     0.180 C 
ATOM     29  C   UNL     1      -9.324  14.308  14.948  1.00  0.00     0.179 C 
ATOM     30  C   UNL     1      -8.075  14.898  15.631  1.00  0.00     0.177 C 
BRANCH  26  31
ATOM     31  O   UNL     1      -6.612  15.815  13.163  1.00  0.00    -0.384 OA
ATOM     32  H   UNL     1      -6.362  15.088  13.796  1.00  0.00     0.211 HD
ENDBRANCH  26  31
BRANCH  28  33
ATOM     33  O   UNL     1      -6.686  16.886  15.724  1.00  0.00    -0.387 OA
ATOM     34  H   UNL     1      -6.546  17.770  15.294  1.00  0.00     0.211 HD
ENDBRANCH  28  33
BRANCH  29  35
ATOM     35  C   UNL     1     -10.649  14.845  15.518  1.00  0.00     0.191 C 
BRANCH  35  36
ATOM     36  O   UNL     1     -11.729  14.395  14.745  1.00  0.00    -0.394 OA
ATOM     37  H   UNL     1     -12.549  14.681  15.229  1.00  0.00     0.210 HD
ENDBRANCH  35  36
ENDBRANCH  29  35
BRANCH  30  38
ATOM     38  O   UNL     1      -6.954  14.108  15.310  1.00  0.00    -0.387 OA
ATOM     39  H   UNL     1      -6.471  14.557  14.567  1.00  0.00     0.211 HD
ENDBRANCH  30  38
ENDBRANCH   1  25
TORSDOF 11
ENDMDL
MODEL 9
REMARK VINA RESULT:    -6.311      3.375      6.346
REMARK INTER + INTRA:         -10.747
REMARK INTER:                  -9.585
REMARK INTRA:                  -1.162
REMARK UNBOUND:                -1.668
REMARK SMILES O=c1c(O[C@@H]2O[C@H](CO)[C@@H](O)[C@@H](O)[C@H]2O)c(-c2ccc(O)cc2)oc2cc(O)cc(O)c12
REMARK SMILES IDX 4 1 3 2 16 3 24 4 2 5 25 6 1 7 32 8 26 9 30 10 27 11 29 12
REMARK SMILES IDX 17 13 18 14 19 15 20 16 23 17 22 18 21 19 31 21 28 23 5 25
REMARK SMILES IDX 14 26 6 27 12 28 7 29 10 30 15 31 13 33 8 35 9 36 11 38
REMARK H PARENT 21 20 31 22 28 24 15 32 13 34 9 37 11 39
REMARK Flexibility Score: inf
ROOT
ATOM      1  O   UNL     1      -7.352  15.199  13.601  1.00  0.00    -0.454 OA
ENDROOT
BRANCH   1   2
ATOM      2  C   UNL     1      -7.396  16.593  13.346  1.00  0.00     0.214 A 
ATOM      3  C   UNL     1      -7.009  17.080  12.074  1.00  0.00     0.180 A 
ATOM      4  O   UNL     1      -7.179  18.364  11.777  1.00  0.00    -0.452 OA
ATOM      5  C   UNL     1      -7.879  17.530  14.292  1.00  0.00     0.239 A 
ATOM      6  C   UNL     1      -7.671  19.258  12.621  1.00  0.00     0.146 A 
ATOM      7  O   UNL     1      -8.260  17.137  15.420  1.00  0.00    -0.285 OA
ATOM      8  C   UNL     1      -7.994  18.897  13.948  1.00  0.00     0.111 A 
ATOM      9  C   UNL     1      -7.847  20.570  12.173  1.00  0.00     0.094 A 
ATOM     10  C   UNL     1      -8.440  19.916  14.840  1.00  0.00     0.134 A 
ATOM     11  C   UNL     1      -8.356  21.547  13.032  1.00  0.00     0.123 A 
ATOM     12  C   UNL     1      -8.658  21.214  14.355  1.00  0.00     0.093 A 
BRANCH   3  13
ATOM     13  C   UNL     1      -6.409  16.231  11.012  1.00  0.00     0.021 A 
ATOM     14  C   UNL     1      -5.063  15.820  11.041  1.00  0.00     0.016 A 
ATOM     15  C   UNL     1      -4.529  15.053   9.998  1.00  0.00     0.047 A 
ATOM     16  C   UNL     1      -5.314  14.717   8.894  1.00  0.00     0.115 A 
ATOM     17  C   UNL     1      -7.181  15.916   9.875  1.00  0.00     0.016 A 
ATOM     18  C   UNL     1      -6.633  15.174   8.823  1.00  0.00     0.047 A 
BRANCH  16  19
ATOM     19  O   UNL     1      -4.775  13.947   7.864  1.00  0.00    -0.508 OA
ATOM     20  H   UNL     1      -3.832  14.104   7.535  1.00  0.00     0.293 HD
ENDBRANCH  16  19
ENDBRANCH   3  13
BRANCH  10  21
ATOM     21  O   UNL     1      -8.635  19.705  16.206  1.00  0.00    -0.507 OA
ATOM     22  H   UNL     1      -9.266  20.263  16.766  1.00  0.00     0.293 HD
ENDBRANCH  10  21
BRANCH  11  23
ATOM     23  O   UNL     1      -8.539  22.853  12.587  1.00  0.00    -0.508 OA
ATOM     24  H   UNL     1      -7.837  23.570  12.750  1.00  0.00     0.293 HD
ENDBRANCH  11  23
ENDBRANCH   1   2
BRANCH   1  25
ATOM     25  C   UNL     1      -8.434  14.277  13.390  1.00  0.00     0.339 C 
ATOM     26  C   UNL     1      -8.232  13.388  12.135  1.00  0.00     0.214 C 
ATOM     27  O   UNL     1      -8.711  13.549  14.583  1.00  0.00    -0.332 OA
ATOM     28  C   UNL     1      -7.284  12.212  12.408  1.00  0.00     0.180 C 
ATOM     29  C   UNL     1      -7.841  12.453  14.850  1.00  0.00     0.179 C 
ATOM     30  C   UNL     1      -7.734  11.467  13.671  1.00  0.00     0.177 C 
BRANCH  26  31
ATOM     31  O   UNL     1      -9.489  12.927  11.708  1.00  0.00    -0.384 OA
ATOM     32  H   UNL     1      -9.625  13.248  10.776  1.00  0.00     0.211 HD
ENDBRANCH  26  31
BRANCH  28  33
ATOM     33  O   UNL     1      -7.245  11.344  11.298  1.00  0.00    -0.387 OA
ATOM     34  H   UNL     1      -6.398  11.536  10.815  1.00  0.00     0.211 HD
ENDBRANCH  28  33
BRANCH  29  35
ATOM     35  C   UNL     1      -6.477  12.895  15.411  1.00  0.00     0.191 C 
BRANCH  35  36
ATOM     36  O   UNL     1      -5.571  11.826  15.386  1.00  0.00    -0.394 OA
ATOM     37  H   UNL     1      -4.924  11.999  16.120  1.00  0.00     0.210 HD
ENDBRANCH  35  36
ENDBRANCH  29  35
BRANCH  30  38
ATOM     38  O   UNL     1      -8.984  10.853  13.465  1.00  0.00    -0.387 OA
ATOM     39  H   UNL     1      -8.925  10.322  12.627  1.00  0.00     0.211 HD
ENDBRANCH  30  38
ENDBRANCH   1  25
TORSDOF 11
ENDMDL
