MODEL 1
REMARK VINA RESULT:    -3.422      0.000      0.000
REMARK INTER + INTRA:          -7.340
REMARK INTER:                  -6.223
REMARK INTRA:                  -1.116
REMARK UNBOUND:                -1.116
REMARK SMILES CCCCCCCCCCCCCCCC(=O)[O-]
REMARK SMILES IDX 9 1 10 2 11 3 12 4 13 5 14 6 15 7 16 8 17 9 18 10 8 11 7 12
REMARK SMILES IDX 6 13 5 14 4 15 3 16 2 17 1 18
REMARK H PARENT
REMARK Flexibility Score: inf
ROOT
ATOM      1  C   UNL     1      11.439  -7.899   6.204  1.00  0.00     0.000 C 
ENDROOT
BRANCH   1   2
ATOM      2  C   UNL     1      12.943  -8.211   6.111  1.00  0.00     0.000 C 
BRANCH   2   3
ATOM      3  C   UNL     1      13.616  -7.557   4.891  1.00  0.00     0.000 C 
BRANCH   3   4
ATOM      4  C   UNL     1      15.125  -7.830   4.757  1.00  0.00     0.000 C 
BRANCH   4   5
ATOM      5  C   UNL     1      15.916  -7.460   6.020  1.00  0.00     0.000 C 
BRANCH   5   6
ATOM      6  C   UNL     1      17.272  -8.180   6.052  1.00  0.00     0.006 C 
BRANCH   6   7
ATOM      7  C   UNL     1      18.429  -7.227   6.379  1.00  0.00     0.053 C 
BRANCH   7   8
ATOM      8  C   UNL     1      18.956  -7.447   7.764  1.00  0.00     0.041 C 
ATOM      9  O   UNL     1      19.388  -8.580   8.105  1.00  0.00    -0.550 OA
ATOM     10  O   UNL     1      19.003  -6.392   8.667  1.00  0.00    -0.550 OA
ENDBRANCH   7   8
ENDBRANCH   6   7
ENDBRANCH   5   6
ENDBRANCH   4   5
ENDBRANCH   3   4
ENDBRANCH   2   3
ENDBRANCH   1   2
BRANCH   1  11
ATOM     11  C   UNL     1      10.762  -7.829   4.825  1.00  0.00     0.000 C 
BRANCH  11  12
ATOM     12  C   UNL     1       9.831  -9.027   4.567  1.00  0.00    -0.000 C 
BRANCH  12  13
ATOM     13  C   UNL     1       8.426  -8.596   4.116  1.00  0.00    -0.000 C 
BRANCH  13  14
ATOM     14  C   UNL     1       8.014  -7.229   4.682  1.00  0.00    -0.000 C 
BRANCH  14  15
ATOM     15  C   UNL     1       6.736  -7.347   5.525  1.00  0.00    -0.000 C 
BRANCH  15  16
ATOM     16  C   UNL     1       6.653  -8.670   6.308  1.00  0.00    -0.000 C 
BRANCH  16  17
ATOM     17  C   UNL     1       7.423  -8.682   7.641  1.00  0.00    -0.003 C 
ATOM     18  C   UNL     1       8.175  -9.990   7.885  1.00  0.00     0.004 C 
ENDBRANCH  16  17
ENDBRANCH  15  16
ENDBRANCH  14  15
ENDBRANCH  13  14
ENDBRANCH  12  13
ENDBRANCH  11  12
ENDBRANCH   1  11
TORSDOF 14
ENDMDL
MODEL 2
REMARK VINA RESULT:    -3.401      4.738      9.335
REMARK INTER + INTRA:          -7.301
REMARK INTER:                  -6.309
REMARK INTRA:                  -0.992
REMARK UNBOUND:                -1.116
REMARK SMILES CCCCCCCCCCCCCCCC(=O)[O-]
REMARK SMILES IDX 9 1 10 2 11 3 12 4 13 5 14 6 15 7 16 8 17 9 18 10 8 11 7 12
REMARK SMILES IDX 6 13 5 14 4 15 3 16 2 17 1 18
REMARK H PARENT
REMARK Flexibility Score: inf
ROOT
ATOM      1  C   UNL     1      12.681  -7.532   4.382  1.00  0.00     0.000 C 
ENDROOT
BRANCH   1   2
ATOM      2  C   UNL     1      11.288  -7.154   4.917  1.00  0.00     0.000 C 
BRANCH   2   3
ATOM      3  C   UNL     1      10.833  -8.047   6.085  1.00  0.00     0.000 C 
BRANCH   3   4
ATOM      4  C   UNL     1       9.454  -8.707   5.900  1.00  0.00     0.000 C 
BRANCH   4   5
ATOM      5  C   UNL     1       8.851  -9.215   7.217  1.00  0.00     0.000 C 
BRANCH   5   6
ATOM      6  C   UNL     1       7.389  -8.768   7.362  1.00  0.00     0.006 C 
BRANCH   6   7
ATOM      7  C   UNL     1       6.628  -8.826   6.031  1.00  0.00     0.053 C 
BRANCH   7   8
ATOM      8  C   UNL     1       5.784  -7.607   5.820  1.00  0.00     0.041 C 
ATOM      9  O   UNL     1       4.812  -7.641   5.019  1.00  0.00    -0.550 OA
ATOM     10  O   UNL     1       6.047  -6.445   6.533  1.00  0.00    -0.550 OA
ENDBRANCH   7   8
ENDBRANCH   6   7
ENDBRANCH   5   6
ENDBRANCH   4   5
ENDBRANCH   3   4
ENDBRANCH   2   3
ENDBRANCH   1   2
BRANCH   1  11
ATOM     11  C   UNL     1      13.128  -8.933   4.831  1.00  0.00     0.000 C 
BRANCH  11  12
ATOM     12  C   UNL     1      14.588  -8.956   5.315  1.00  0.00    -0.000 C 
BRANCH  12  13
ATOM     13  C   UNL     1      14.868  -7.904   6.400  1.00  0.00    -0.000 C 
BRANCH  13  14
ATOM     14  C   UNL     1      15.953  -6.898   5.987  1.00  0.00    -0.000 C 
BRANCH  14  15
ATOM     15  C   UNL     1      17.117  -7.608   5.278  1.00  0.00    -0.000 C 
BRANCH  15  16
ATOM     16  C   UNL     1      18.495  -7.183   5.814  1.00  0.00    -0.000 C 
BRANCH  16  17
ATOM     17  C   UNL     1      18.878  -7.795   7.174  1.00  0.00    -0.003 C 
ATOM     18  C   UNL     1      18.708  -6.819   8.338  1.00  0.00     0.004 C 
ENDBRANCH  16  17
ENDBRANCH  15  16
ENDBRANCH  14  15
ENDBRANCH  13  14
ENDBRANCH  12  13
ENDBRANCH  11  12
ENDBRANCH   1  11
TORSDOF 14
ENDMDL
MODEL 3
REMARK VINA RESULT:    -3.393      4.254      9.151
REMARK INTER + INTRA:          -7.286
REMARK INTER:                  -6.094
REMARK INTRA:                  -1.192
REMARK UNBOUND:                -1.116
REMARK SMILES CCCCCCCCCCCCCCCC(=O)[O-]
REMARK SMILES IDX 9 1 10 2 11 3 12 4 13 5 14 6 15 7 16 8 17 9 18 10 8 11 7 12
REMARK SMILES IDX 6 13 5 14 4 15 3 16 2 17 1 18
REMARK H PARENT
REMARK Flexibility Score: inf
ROOT
ATOM      1  C   UNL     1      15.127  -7.689   6.683  1.00  0.00     0.000 C 
ENDROOT
BRANCH   1   2
ATOM      2  C   UNL     1      14.280  -8.677   5.860  1.00  0.00     0.000 C 
BRANCH   2   3
ATOM      3  C   UNL     1      13.006  -8.035   5.284  1.00  0.00     0.000 C 
BRANCH   3   4
ATOM      4  C   UNL     1      11.842  -7.893   6.281  1.00  0.00     0.000 C 
BRANCH   4   5
ATOM      5  C   UNL     1      10.521  -7.493   5.608  1.00  0.00     0.000 C 
BRANCH   5   6
ATOM      6  C   UNL     1       9.572  -8.696   5.499  1.00  0.00     0.006 C 
BRANCH   6   7
ATOM      7  C   UNL     1       9.173  -9.248   6.874  1.00  0.00     0.053 C 
BRANCH   7   8
ATOM      8  C   UNL     1       7.789  -8.825   7.263  1.00  0.00     0.041 C 
ATOM      9  O   UNL     1       7.104  -8.110   6.485  1.00  0.00    -0.550 OA
ATOM     10  O   UNL     1       7.244  -9.250   8.468  1.00  0.00    -0.550 OA
ENDBRANCH   7   8
ENDBRANCH   6   7
ENDBRANCH   5   6
ENDBRANCH   4   5
ENDBRANCH   3   4
ENDBRANCH   2   3
ENDBRANCH   1   2
BRANCH   1  11
ATOM     11  C   UNL     1      15.953  -6.738   5.801  1.00  0.00     0.000 C 
BRANCH  11  12
ATOM     12  C   UNL     1      16.290  -7.351   4.431  1.00  0.00    -0.000 C 
BRANCH  12  13
ATOM     13  C   UNL     1      17.756  -7.802   4.330  1.00  0.00    -0.000 C 
BRANCH  13  14
ATOM     14  C   UNL     1      18.743  -6.626   4.358  1.00  0.00    -0.000 C 
BRANCH  14  15
ATOM     15  C   UNL     1      19.643  -6.695   5.601  1.00  0.00    -0.000 C 
BRANCH  15  16
ATOM     16  C   UNL     1      19.688  -8.098   6.233  1.00  0.00    -0.000 C 
BRANCH  16  17
ATOM     17  C   UNL     1      19.017  -8.206   7.614  1.00  0.00    -0.003 C 
ATOM     18  C   UNL     1      18.781  -6.847   8.272  1.00  0.00     0.004 C 
ENDBRANCH  16  17
ENDBRANCH  15  16
ENDBRANCH  14  15
ENDBRANCH  13  14
ENDBRANCH  12  13
ENDBRANCH  11  12
ENDBRANCH   1  11
TORSDOF 14
ENDMDL
MODEL 4
REMARK VINA RESULT:    -3.367      1.465      2.455
REMARK INTER + INTRA:          -7.240
REMARK INTER:                  -6.032
REMARK INTRA:                  -1.208
REMARK UNBOUND:                -1.116
REMARK SMILES CCCCCCCCCCCCCCCC(=O)[O-]
REMARK SMILES IDX 9 1 10 2 11 3 12 4 13 5 14 6 15 7 16 8 17 9 18 10 8 11 7 12
REMARK SMILES IDX 6 13 5 14 4 15 3 16 2 17 1 18
REMARK H PARENT
REMARK Flexibility Score: inf
ROOT
ATOM      1  C   UNL     1      11.162  -7.731   6.023  1.00  0.00     0.000 C 
ENDROOT
BRANCH   1   2
ATOM      2  C   UNL     1      12.642  -7.843   5.613  1.00  0.00     0.000 C 
BRANCH   2   3
ATOM      3  C   UNL     1      13.530  -8.419   6.730  1.00  0.00     0.000 C 
BRANCH   3   4
ATOM      4  C   UNL     1      15.039  -8.426   6.423  1.00  0.00     0.000 C 
BRANCH   4   5
ATOM      5  C   UNL     1      15.668  -7.027   6.485  1.00  0.00     0.000 C 
BRANCH   5   6
ATOM      6  C   UNL     1      16.316  -6.654   5.143  1.00  0.00     0.006 C 
BRANCH   6   7
ATOM      7  C   UNL     1      17.495  -7.571   4.791  1.00  0.00     0.053 C 
BRANCH   7   8
ATOM      8  C   UNL     1      18.798  -7.011   5.274  1.00  0.00     0.041 C 
ATOM      9  O   UNL     1      19.482  -6.264   4.525  1.00  0.00    -0.550 OA
ATOM     10  O   UNL     1      19.239  -7.284   6.562  1.00  0.00    -0.550 OA
ENDBRANCH   7   8
ENDBRANCH   6   7
ENDBRANCH   5   6
ENDBRANCH   4   5
ENDBRANCH   3   4
ENDBRANCH   2   3
ENDBRANCH   1   2
BRANCH   1  11
ATOM     11  C   UNL     1      10.209  -8.325   4.973  1.00  0.00     0.000 C 
BRANCH  11  12
ATOM     12  C   UNL     1       9.285  -9.405   5.561  1.00  0.00    -0.000 C 
BRANCH  12  13
ATOM     13  C   UNL     1       8.963  -9.162   7.045  1.00  0.00    -0.000 C 
BRANCH  13  14
ATOM     14  C   UNL     1       7.509  -8.719   7.271  1.00  0.00    -0.000 C 
BRANCH  14  15
ATOM     15  C   UNL     1       6.568  -9.392   6.261  1.00  0.00    -0.000 C 
BRANCH  15  16
ATOM     16  C   UNL     1       5.644  -8.392   5.543  1.00  0.00    -0.000 C 
BRANCH  16  17
ATOM     17  C   UNL     1       6.243  -6.988   5.340  1.00  0.00    -0.003 C 
ATOM     18  C   UNL     1       6.990  -6.844   4.014  1.00  0.00     0.004 C 
ENDBRANCH  16  17
ENDBRANCH  15  16
ENDBRANCH  14  15
ENDBRANCH  13  14
ENDBRANCH  12  13
ENDBRANCH  11  12
ENDBRANCH   1  11
TORSDOF 14
ENDMDL
MODEL 5
REMARK VINA RESULT:    -3.291      1.146      2.175
REMARK INTER + INTRA:          -7.101
REMARK INTER:                  -6.329
REMARK INTRA:                  -0.772
REMARK UNBOUND:                -1.116
REMARK SMILES CCCCCCCCCCCCCCCC(=O)[O-]
REMARK SMILES IDX 9 1 10 2 11 3 12 4 13 5 14 6 15 7 16 8 17 9 18 10 8 11 7 12
REMARK SMILES IDX 6 13 5 14 4 15 3 16 2 17 1 18
REMARK H PARENT
REMARK Flexibility Score: inf
ROOT
ATOM      1  C   UNL     1      12.841  -8.085   6.385  1.00  0.00     0.000 C 
ENDROOT
BRANCH   1   2
ATOM      2  C   UNL     1      14.235  -8.618   6.011  1.00  0.00     0.000 C 
BRANCH   2   3
ATOM      3  C   UNL     1      15.348  -7.574   6.211  1.00  0.00     0.000 C 
BRANCH   3   4
ATOM      4  C   UNL     1      15.727  -6.779   4.947  1.00  0.00     0.000 C 
BRANCH   4   5
ATOM      5  C   UNL     1      17.220  -6.880   4.601  1.00  0.00     0.000 C 
BRANCH   5   6
ATOM      6  C   UNL     1      17.936  -7.865   5.536  1.00  0.00     0.006 C 
BRANCH   6   7
ATOM      7  C   UNL     1      19.069  -7.198   6.327  1.00  0.00     0.053 C 
BRANCH   7   8
ATOM      8  C   UNL     1      18.972  -7.493   7.793  1.00  0.00     0.041 C 
ATOM      9  O   UNL     1      18.365  -6.699   8.559  1.00  0.00    -0.550 OA
ATOM     10  O   UNL     1      19.519  -8.662   8.306  1.00  0.00    -0.550 OA
ENDBRANCH   7   8
ENDBRANCH   6   7
ENDBRANCH   5   6
ENDBRANCH   4   5
ENDBRANCH   3   4
ENDBRANCH   2   3
ENDBRANCH   1   2
BRANCH   1  11
ATOM     11  C   UNL     1      12.022  -7.653   5.158  1.00  0.00     0.000 C 
BRANCH  11  12
ATOM     12  C   UNL     1      10.696  -8.423   5.035  1.00  0.00    -0.000 C 
BRANCH  12  13
ATOM     13  C   UNL     1       9.972  -8.572   6.383  1.00  0.00    -0.000 C 
BRANCH  13  14
ATOM     14  C   UNL     1       8.712  -9.445   6.288  1.00  0.00    -0.000 C 
BRANCH  14  15
ATOM     15  C   UNL     1       7.543  -8.806   7.052  1.00  0.00    -0.000 C 
BRANCH  15  16
ATOM     16  C   UNL     1       6.317  -8.540   6.162  1.00  0.00    -0.000 C 
BRANCH  16  17
ATOM     17  C   UNL     1       6.031  -7.053   5.882  1.00  0.00    -0.003 C 
ATOM     18  C   UNL     1       5.906  -6.739   4.392  1.00  0.00     0.004 C 
ENDBRANCH  16  17
ENDBRANCH  15  16
ENDBRANCH  14  15
ENDBRANCH  13  14
ENDBRANCH  12  13
ENDBRANCH  11  12
ENDBRANCH   1  11
TORSDOF 14
ENDMDL
MODEL 6
REMARK VINA RESULT:    -3.263      2.260      2.893
REMARK INTER + INTRA:          -7.049
REMARK INTER:                  -6.396
REMARK INTRA:                  -0.653
REMARK UNBOUND:                -1.116
REMARK SMILES CCCCCCCCCCCCCCCC(=O)[O-]
REMARK SMILES IDX 9 1 10 2 11 3 12 4 13 5 14 6 15 7 16 8 17 9 18 10 8 11 7 12
REMARK SMILES IDX 6 13 5 14 4 15 3 16 2 17 1 18
REMARK H PARENT
REMARK Flexibility Score: inf
ROOT
ATOM      1  C   UNL     1      13.840  -8.312   6.814  1.00  0.00     0.000 C 
ENDROOT
BRANCH   1   2
ATOM      2  C   UNL     1      15.323  -8.447   6.424  1.00  0.00     0.000 C 
BRANCH   2   3
ATOM      3  C   UNL     1      16.060  -7.097   6.399  1.00  0.00     0.000 C 
BRANCH   3   4
ATOM      4  C   UNL     1      16.582  -6.666   5.016  1.00  0.00     0.000 C 
BRANCH   4   5
ATOM      5  C   UNL     1      17.835  -7.440   4.580  1.00  0.00     0.000 C 
BRANCH   5   6
ATOM      6  C   UNL     1      18.975  -6.480   4.214  1.00  0.00     0.006 C 
BRANCH   6   7
ATOM      7  C   UNL     1      20.267  -6.790   4.982  1.00  0.00     0.053 C 
BRANCH   7   8
ATOM      8  C   UNL     1      21.310  -5.737   4.762  1.00  0.00     0.041 C 
ATOM      9  O   UNL     1      22.530  -6.052   4.728  1.00  0.00    -0.550 OA
ATOM     10  O   UNL     1      20.935  -4.416   4.560  1.00  0.00    -0.550 OA
ENDBRANCH   7   8
ENDBRANCH   6   7
ENDBRANCH   5   6
ENDBRANCH   4   5
ENDBRANCH   3   4
ENDBRANCH   2   3
ENDBRANCH   1   2
BRANCH   1  11
ATOM     11  C   UNL     1      12.959  -7.849   5.642  1.00  0.00     0.000 C 
BRANCH  11  12
ATOM     12  C   UNL     1      11.462  -7.843   5.999  1.00  0.00    -0.000 C 
BRANCH  12  13
ATOM     13  C   UNL     1      10.582  -7.333   4.846  1.00  0.00    -0.000 C 
BRANCH  13  14
ATOM     14  C   UNL     1       9.142  -7.861   4.920  1.00  0.00    -0.000 C 
BRANCH  14  15
ATOM     15  C   UNL     1       9.118  -9.325   5.386  1.00  0.00    -0.000 C 
BRANCH  15  16
ATOM     16  C   UNL     1       7.710  -9.807   5.780  1.00  0.00    -0.000 C 
BRANCH  16  17
ATOM     17  C   UNL     1       7.506 -10.046   7.286  1.00  0.00    -0.003 C 
ATOM     18  C   UNL     1       7.532  -8.756   8.106  1.00  0.00     0.004 C 
ENDBRANCH  16  17
ENDBRANCH  15  16
ENDBRANCH  14  15
ENDBRANCH  13  14
ENDBRANCH  12  13
ENDBRANCH  11  12
ENDBRANCH   1  11
TORSDOF 14
ENDMDL
MODEL 7
REMARK VINA RESULT:    -3.243      1.586      2.774
REMARK INTER + INTRA:          -7.014
REMARK INTER:                  -6.203
REMARK INTRA:                  -0.811
REMARK UNBOUND:                -1.116
REMARK SMILES CCCCCCCCCCCCCCCC(=O)[O-]
REMARK SMILES IDX 9 1 10 2 11 3 12 4 13 5 14 6 15 7 16 8 17 9 18 10 8 11 7 12
REMARK SMILES IDX 6 13 5 14 4 15 3 16 2 17 1 18
REMARK H PARENT
REMARK Flexibility Score: inf
ROOT
ATOM      1  C   UNL     1      15.116  -7.856   7.122  1.00  0.00     0.000 C 
ENDROOT
BRANCH   1   2
ATOM      2  C   UNL     1      16.015  -6.894   6.324  1.00  0.00     0.000 C 
BRANCH   2   3
ATOM      3  C   UNL     1      16.557  -7.520   5.026  1.00  0.00     0.000 C 
BRANCH   3   4
ATOM      4  C   UNL     1      17.778  -6.803   4.421  1.00  0.00     0.000 C 
BRANCH   4   5
ATOM      5  C   UNL     1      19.114  -7.353   4.939  1.00  0.00     0.000 C 
BRANCH   5   6
ATOM      6  C   UNL     1      18.924  -8.723   5.607  1.00  0.00     0.006 C 
BRANCH   6   7
ATOM      7  C   UNL     1      20.046  -9.046   6.603  1.00  0.00     0.053 C 
BRANCH   7   8
ATOM      8  C   UNL     1      19.632  -8.767   8.016  1.00  0.00     0.041 C 
ATOM      9  O   UNL     1      19.913  -9.586   8.931  1.00  0.00    -0.550 OA
ATOM     10  O   UNL     1      18.967  -7.588   8.328  1.00  0.00    -0.550 OA
ENDBRANCH   7   8
ENDBRANCH   6   7
ENDBRANCH   5   6
ENDBRANCH   4   5
ENDBRANCH   3   4
ENDBRANCH   2   3
ENDBRANCH   1   2
BRANCH   1  11
ATOM     11  C   UNL     1      14.097  -8.589   6.234  1.00  0.00     0.000 C 
BRANCH  11  12
ATOM     12  C   UNL     1      12.657  -8.102   6.468  1.00  0.00    -0.000 C 
BRANCH  12  13
ATOM     13  C   UNL     1      11.978  -7.623   5.174  1.00  0.00    -0.000 C 
BRANCH  13  14
ATOM     14  C   UNL     1      10.447  -7.729   5.233  1.00  0.00    -0.000 C 
BRANCH  14  15
ATOM     15  C   UNL     1      10.001  -8.568   6.440  1.00  0.00    -0.000 C 
BRANCH  15  16
ATOM     16  C   UNL     1       8.794  -9.471   6.131  1.00  0.00    -0.000 C 
BRANCH  16  17
ATOM     17  C   UNL     1       8.138 -10.120   7.363  1.00  0.00    -0.003 C 
ATOM     18  C   UNL     1       7.396  -9.115   8.244  1.00  0.00     0.004 C 
ENDBRANCH  16  17
ENDBRANCH  15  16
ENDBRANCH  14  15
ENDBRANCH  13  14
ENDBRANCH  12  13
ENDBRANCH  11  12
ENDBRANCH   1  11
TORSDOF 14
ENDMDL
MODEL 8
REMARK VINA RESULT:    -3.189      4.482      9.703
REMARK INTER + INTRA:          -6.916
REMARK INTER:                  -6.084
REMARK INTRA:                  -0.832
REMARK UNBOUND:                -1.116
REMARK SMILES CCCCCCCCCCCCCCCC(=O)[O-]
REMARK SMILES IDX 9 1 10 2 11 3 12 4 13 5 14 6 15 7 16 8 17 9 18 10 8 11 7 12
REMARK SMILES IDX 6 13 5 14 4 15 3 16 2 17 1 18
REMARK H PARENT
REMARK Flexibility Score: inf
ROOT
ATOM      1  C   UNL     1      14.915  -8.021   7.239  1.00  0.00     0.000 C 
ENDROOT
BRANCH   1   2
ATOM      2  C   UNL     1      13.553  -8.306   6.581  1.00  0.00     0.000 C 
BRANCH   2   3
ATOM      3  C   UNL     1      13.446  -7.734   5.156  1.00  0.00     0.000 C 
BRANCH   3   4
ATOM      4  C   UNL     1      12.024  -7.721   4.566  1.00  0.00     0.000 C 
BRANCH   4   5
ATOM      5  C   UNL     1      10.953  -7.324   5.593  1.00  0.00     0.000 C 
BRANCH   5   6
ATOM      6  C   UNL     1       9.673  -8.151   5.402  1.00  0.00     0.006 C 
BRANCH   6   7
ATOM      7  C   UNL     1       9.342  -9.005   6.633  1.00  0.00     0.053 C 
BRANCH   7   8
ATOM      8  C   UNL     1       7.953  -8.746   7.132  1.00  0.00     0.041 C 
ATOM      9  O   UNL     1       7.089  -8.243   6.366  1.00  0.00    -0.550 OA
ATOM     10  O   UNL     1       7.603  -9.094   8.430  1.00  0.00    -0.550 OA
ENDBRANCH   7   8
ENDBRANCH   6   7
ENDBRANCH   5   6
ENDBRANCH   4   5
ENDBRANCH   3   4
ENDBRANCH   2   3
ENDBRANCH   1   2
BRANCH   1  11
ATOM     11  C   UNL     1      15.729  -6.958   6.482  1.00  0.00     0.000 C 
BRANCH  11  12
ATOM     12  C   UNL     1      16.938  -7.559   5.745  1.00  0.00    -0.000 C 
BRANCH  12  13
ATOM     13  C   UNL     1      17.056  -7.057   4.297  1.00  0.00    -0.000 C 
BRANCH  13  14
ATOM     14  C   UNL     1      18.482  -6.617   3.935  1.00  0.00    -0.000 C 
BRANCH  14  15
ATOM     15  C   UNL     1      19.470  -6.984   5.053  1.00  0.00    -0.000 C 
BRANCH  15  16
ATOM     16  C   UNL     1      20.417  -5.829   5.421  1.00  0.00    -0.000 C 
BRANCH  16  17
ATOM     17  C   UNL     1      21.418  -5.436   4.320  1.00  0.00    -0.003 C 
ATOM     18  C   UNL     1      22.766  -6.143   4.458  1.00  0.00     0.004 C 
ENDBRANCH  16  17
ENDBRANCH  15  16
ENDBRANCH  14  15
ENDBRANCH  13  14
ENDBRANCH  12  13
ENDBRANCH  11  12
ENDBRANCH   1  11
TORSDOF 14
ENDMDL
MODEL 9
REMARK VINA RESULT:    -2.853      4.177      9.104
REMARK INTER + INTRA:          -6.304
REMARK INTER:                  -5.233
REMARK INTRA:                  -1.071
REMARK UNBOUND:                -1.116
REMARK SMILES CCCCCCCCCCCCCCCC(=O)[O-]
REMARK SMILES IDX 9 1 10 2 11 3 12 4 13 5 14 6 15 7 16 8 17 9 18 10 8 11 7 12
REMARK SMILES IDX 6 13 5 14 4 15 3 16 2 17 1 18
REMARK H PARENT
REMARK Flexibility Score: inf
ROOT
ATOM      1  C   UNL     1      14.568  -9.753   5.826  1.00  0.00     0.000 C 
ENDROOT
BRANCH   1   2
ATOM      2  C   UNL     1      13.780  -8.530   6.330  1.00  0.00     0.000 C 
BRANCH   2   3
ATOM      3  C   UNL     1      12.886  -7.905   5.244  1.00  0.00     0.000 C 
BRANCH   3   4
ATOM      4  C   UNL     1      11.466  -7.532   5.707  1.00  0.00     0.000 C 
BRANCH   4   5
ATOM      5  C   UNL     1      10.492  -7.319   4.540  1.00  0.00     0.000 C 
BRANCH   5   6
ATOM      6  C   UNL     1       9.059  -7.696   4.942  1.00  0.00     0.006 C 
BRANCH   6   7
ATOM      7  C   UNL     1       8.920  -9.189   5.270  1.00  0.00     0.053 C 
BRANCH   7   8
ATOM      8  C   UNL     1       8.179  -9.410   6.553  1.00  0.00     0.041 C 
ATOM      9  O   UNL     1       8.800  -9.763   7.590  1.00  0.00    -0.550 OA
ATOM     10  O   UNL     1       6.808  -9.192   6.611  1.00  0.00    -0.550 OA
ENDBRANCH   7   8
ENDBRANCH   6   7
ENDBRANCH   5   6
ENDBRANCH   4   5
ENDBRANCH   3   4
ENDBRANCH   2   3
ENDBRANCH   1   2
BRANCH   1  11
ATOM     11  C   UNL     1      15.923  -9.371   5.207  1.00  0.00     0.000 C 
BRANCH  11  12
ATOM     12  C   UNL     1      17.098 -10.118   5.861  1.00  0.00    -0.000 C 
BRANCH  12  13
ATOM     13  C   UNL     1      18.463  -9.530   5.469  1.00  0.00    -0.000 C 
BRANCH  13  14
ATOM     14  C   UNL     1      19.581  -9.919   6.448  1.00  0.00    -0.000 C 
BRANCH  14  15
ATOM     15  C   UNL     1      19.581  -8.994   7.675  1.00  0.00    -0.000 C 
BRANCH  15  16
ATOM     16  C   UNL     1      19.238  -7.535   7.327  1.00  0.00    -0.000 C 
BRANCH  16  17
ATOM     17  C   UNL     1      18.225  -6.865   8.273  1.00  0.00    -0.003 C 
ATOM     18  C   UNL     1      16.808  -6.828   7.701  1.00  0.00     0.004 C 
ENDBRANCH  16  17
ENDBRANCH  15  16
ENDBRANCH  14  15
ENDBRANCH  13  14
ENDBRANCH  12  13
ENDBRANCH  11  12
ENDBRANCH   1  11
TORSDOF 14
ENDMDL
