MODEL 1
REMARK VINA RESULT:    -0.656      0.000      0.000
REMARK INTER + INTRA:          -8.258
REMARK INTER:                  -1.730
REMARK INTRA:                  -6.528
REMARK UNBOUND:                -6.528
REMARK SMILES CCCCCCCCCCCCCCCCCCCCCCCCCCCCCC(=O)[O-]
REMARK SMILES IDX 16 1 17 2 18 3 19 4 20 5 21 6 22 7 23 8 24 9 25 10 26 11
REMARK SMILES IDX 27 12 28 13 29 14 30 15 31 16 32 17 15 18 14 19 13 20 12 21
REMARK SMILES IDX 11 22 10 23 9 24 8 25 7 26 6 27 5 28 4 29 3 30 2 31 1 32
REMARK H PARENT
REMARK Flexibility Score: inf
ROOT
ATOM      1  C   UNL     1      35.780   5.025  36.789  1.00  0.00     0.000 C 
ENDROOT
BRANCH   1   2
ATOM      2  C   UNL     1      35.087   4.325  37.972  1.00  0.00     0.000 C 
BRANCH   2   3
ATOM      3  C   UNL     1      34.111   5.250  38.720  1.00  0.00     0.000 C 
BRANCH   3   4
ATOM      4  C   UNL     1      33.176   4.544  39.722  1.00  0.00     0.000 C 
BRANCH   4   5
ATOM      5  C   UNL     1      33.361   5.009  41.182  1.00  0.00     0.000 C 
BRANCH   5   6
ATOM      6  C   UNL     1      33.717   3.847  42.125  1.00  0.00     0.000 C 
BRANCH   6   7
ATOM      7  C   UNL     1      34.040   2.547  41.369  1.00  0.00     0.000 C 
BRANCH   7   8
ATOM      8  C   UNL     1      35.353   1.861  41.798  1.00  0.00     0.000 C 
BRANCH   8   9
ATOM      9  C   UNL     1      36.610   2.293  41.013  1.00  0.00     0.000 C 
BRANCH   9  10
ATOM     10  C   UNL     1      37.695   2.997  41.849  1.00  0.00     0.000 C 
BRANCH  10  11
ATOM     11  C   UNL     1      37.372   4.473  42.125  1.00  0.00     0.000 C 
BRANCH  11  12
ATOM     12  C   UNL     1      37.229   5.260  40.814  1.00  0.00     0.000 C 
BRANCH  12  13
ATOM     13  C   UNL     1      36.666   6.677  41.020  1.00  0.00     0.006 C 
BRANCH  13  14
ATOM     14  C   UNL     1      37.743   7.747  41.284  1.00  0.00     0.053 C 
BRANCH  14  15
ATOM     15  C   UNL     1      37.875   8.726  40.156  1.00  0.00     0.041 C 
ATOM     16  O   UNL     1      38.631   8.467  39.183  1.00  0.00    -0.550 OA
ATOM     17  O   UNL     1      37.197   9.938  40.197  1.00  0.00    -0.550 OA
ENDBRANCH  14  15
ENDBRANCH  13  14
ENDBRANCH  12  13
ENDBRANCH  11  12
ENDBRANCH  10  11
ENDBRANCH   9  10
ENDBRANCH   8   9
ENDBRANCH   7   8
ENDBRANCH   6   7
ENDBRANCH   5   6
ENDBRANCH   4   5
ENDBRANCH   3   4
ENDBRANCH   2   3
ENDBRANCH   1   2
BRANCH   1  18
ATOM     18  C   UNL     1      36.837   6.043  37.243  1.00  0.00     0.000 C 
BRANCH  18  19
ATOM     19  C   UNL     1      38.233   5.417  37.416  1.00  0.00     0.000 C 
BRANCH  19  20
ATOM     20  C   UNL     1      38.437   4.166  36.547  1.00  0.00     0.000 C 
BRANCH  20  21
ATOM     21  C   UNL     1      38.786   2.916  37.370  1.00  0.00     0.000 C 
BRANCH  21  22
ATOM     22  C   UNL     1      40.242   2.458  37.173  1.00  0.00     0.000 C 
BRANCH  22  23
ATOM     23  C   UNL     1      40.828   1.701  38.383  1.00  0.00     0.000 C 
BRANCH  23  24
ATOM     24  C   UNL     1      40.450   2.361  39.722  1.00  0.00    -0.000 C 
BRANCH  24  25
ATOM     25  C   UNL     1      41.644   2.461  40.685  1.00  0.00    -0.000 C 
BRANCH  25  26
ATOM     26  C   UNL     1      41.993   3.919  41.035  1.00  0.00    -0.000 C 
BRANCH  26  27
ATOM     27  C   UNL     1      40.811   4.880  40.830  1.00  0.00    -0.000 C 
BRANCH  27  28
ATOM     28  C   UNL     1      41.105   6.092  39.926  1.00  0.00    -0.000 C 
BRANCH  28  29
ATOM     29  C   UNL     1      42.344   5.911  39.021  1.00  0.00    -0.000 C 
BRANCH  29  30
ATOM     30  C   UNL     1      41.961   5.607  37.562  1.00  0.00    -0.000 C 
BRANCH  30  31
ATOM     31  C   UNL     1      43.072   4.869  36.800  1.00  0.00    -0.003 C 
ATOM     32  C   UNL     1      43.783   3.819  37.653  1.00  0.00     0.004 C 
ENDBRANCH  30  31
ENDBRANCH  29  30
ENDBRANCH  28  29
ENDBRANCH  27  28
ENDBRANCH  26  27
ENDBRANCH  25  26
ENDBRANCH  24  25
ENDBRANCH  23  24
ENDBRANCH  22  23
ENDBRANCH  21  22
ENDBRANCH  20  21
ENDBRANCH  19  20
ENDBRANCH  18  19
ENDBRANCH   1  18
TORSDOF 28
ENDMDL
MODEL 2
REMARK VINA RESULT:    -0.645      2.563      5.781
REMARK INTER + INTRA:          -8.230
REMARK INTER:                  -1.590
REMARK INTRA:                  -6.640
REMARK UNBOUND:                -6.528
REMARK SMILES CCCCCCCCCCCCCCCCCCCCCCCCCCCCCC(=O)[O-]
REMARK SMILES IDX 16 1 17 2 18 3 19 4 20 5 21 6 22 7 23 8 24 9 25 10 26 11
REMARK SMILES IDX 27 12 28 13 29 14 30 15 31 16 32 17 15 18 14 19 13 20 12 21
REMARK SMILES IDX 11 22 10 23 9 24 8 25 7 26 6 27 5 28 4 29 3 30 2 31 1 32
REMARK H PARENT
REMARK Flexibility Score: inf
ROOT
ATOM      1  C   UNL     1      34.331   5.525  35.568  1.00  0.00     0.000 C 
ENDROOT
BRANCH   1   2
ATOM      2  C   UNL     1      33.867   6.884  36.122  1.00  0.00     0.000 C 
BRANCH   2   3
ATOM      3  C   UNL     1      33.315   6.785  37.555  1.00  0.00     0.000 C 
BRANCH   3   4
ATOM      4  C   UNL     1      33.007   8.134  38.233  1.00  0.00     0.000 C 
BRANCH   4   5
ATOM      5  C   UNL     1      33.978   9.268  37.839  1.00  0.00     0.000 C 
BRANCH   5   6
ATOM      6  C   UNL     1      34.523  10.023  39.063  1.00  0.00     0.000 C 
BRANCH   6   7
ATOM      7  C   UNL     1      33.876   9.562  40.381  1.00  0.00     0.000 C 
BRANCH   7   8
ATOM      8  C   UNL     1      34.875   9.239  41.511  1.00  0.00     0.000 C 
BRANCH   8   9
ATOM      9  C   UNL     1      35.412   7.792  41.523  1.00  0.00     0.000 C 
BRANCH   9  10
ATOM     10  C   UNL     1      36.658   7.549  40.652  1.00  0.00     0.000 C 
BRANCH  10  11
ATOM     11  C   UNL     1      36.361   6.695  39.410  1.00  0.00     0.000 C 
BRANCH  11  12
ATOM     12  C   UNL     1      36.914   7.358  38.140  1.00  0.00     0.000 C 
BRANCH  12  13
ATOM     13  C   UNL     1      38.398   7.745  38.259  1.00  0.00     0.006 C 
BRANCH  13  14
ATOM     14  C   UNL     1      39.329   6.960  37.315  1.00  0.00     0.053 C 
BRANCH  14  15
ATOM     15  C   UNL     1      39.509   7.635  35.988  1.00  0.00     0.041 C 
ATOM     16  O   UNL     1      40.353   8.562  35.863  1.00  0.00    -0.550 OA
ATOM     17  O   UNL     1      38.721   7.271  34.903  1.00  0.00    -0.550 OA
ENDBRANCH  14  15
ENDBRANCH  13  14
ENDBRANCH  12  13
ENDBRANCH  11  12
ENDBRANCH  10  11
ENDBRANCH   9  10
ENDBRANCH   8   9
ENDBRANCH   7   8
ENDBRANCH   6   7
ENDBRANCH   5   6
ENDBRANCH   4   5
ENDBRANCH   3   4
ENDBRANCH   2   3
ENDBRANCH   1   2
BRANCH   1  18
ATOM     18  C   UNL     1      34.291   4.412  36.627  1.00  0.00     0.000 C 
BRANCH  18  19
ATOM     19  C   UNL     1      35.691   3.884  36.991  1.00  0.00     0.000 C 
BRANCH  19  20
ATOM     20  C   UNL     1      35.648   2.754  38.032  1.00  0.00     0.000 C 
BRANCH  20  21
ATOM     21  C   UNL     1      37.023   2.458  38.651  1.00  0.00     0.000 C 
BRANCH  21  22
ATOM     22  C   UNL     1      38.056   3.562  38.367  1.00  0.00     0.000 C 
BRANCH  22  23
ATOM     23  C   UNL     1      38.846   4.015  39.613  1.00  0.00     0.000 C 
BRANCH  23  24
ATOM     24  C   UNL     1      38.575   3.116  40.833  1.00  0.00    -0.000 C 
BRANCH  24  25
ATOM     25  C   UNL     1      38.121   3.916  42.065  1.00  0.00    -0.000 C 
BRANCH  25  26
ATOM     26  C   UNL     1      36.607   4.193  42.058  1.00  0.00    -0.000 C 
BRANCH  26  27
ATOM     27  C   UNL     1      35.767   2.906  42.072  1.00  0.00    -0.000 C 
BRANCH  27  28
ATOM     28  C   UNL     1      34.242   3.124  42.125  1.00  0.00    -0.000 C 
BRANCH  28  29
ATOM     29  C   UNL     1      33.585   3.278  40.736  1.00  0.00    -0.000 C 
BRANCH  29  30
ATOM     30  C   UNL     1      33.192   4.735  40.435  1.00  0.00    -0.000 C 
BRANCH  30  31
ATOM     31  C   UNL     1      32.678   5.478  41.677  1.00  0.00    -0.003 C 
ATOM     32  C   UNL     1      31.740   6.635  41.332  1.00  0.00     0.004 C 
ENDBRANCH  30  31
ENDBRANCH  29  30
ENDBRANCH  28  29
ENDBRANCH  27  28
ENDBRANCH  26  27
ENDBRANCH  25  26
ENDBRANCH  24  25
ENDBRANCH  23  24
ENDBRANCH  22  23
ENDBRANCH  21  22
ENDBRANCH  20  21
ENDBRANCH  19  20
ENDBRANCH  18  19
ENDBRANCH   1  18
TORSDOF 28
ENDMDL
MODEL 3
REMARK VINA RESULT:    -0.596      2.472      6.917
REMARK INTER + INTRA:          -8.098
REMARK INTER:                  -1.591
REMARK INTRA:                  -6.507
REMARK UNBOUND:                -6.528
REMARK SMILES CCCCCCCCCCCCCCCCCCCCCCCCCCCCCC(=O)[O-]
REMARK SMILES IDX 16 1 17 2 18 3 19 4 20 5 21 6 22 7 23 8 24 9 25 10 26 11
REMARK SMILES IDX 27 12 28 13 29 14 30 15 31 16 32 17 15 18 14 19 13 20 12 21
REMARK SMILES IDX 11 22 10 23 9 24 8 25 7 26 6 27 5 28 4 29 3 30 2 31 1 32
REMARK H PARENT
REMARK Flexibility Score: inf
ROOT
ATOM      1  C   UNL     1      37.209   4.692  37.334  1.00  0.00     0.000 C 
ENDROOT
BRANCH   1   2
ATOM      2  C   UNL     1      36.756   3.222  37.395  1.00  0.00     0.000 C 
BRANCH   2   3
ATOM      3  C   UNL     1      37.924   2.250  37.641  1.00  0.00     0.000 C 
BRANCH   3   4
ATOM      4  C   UNL     1      38.911   2.102  36.466  1.00  0.00     0.000 C 
BRANCH   4   5
ATOM      5  C   UNL     1      38.227   1.967  35.089  1.00  0.00     0.000 C 
BRANCH   5   6
ATOM      6  C   UNL     1      38.656   3.075  34.111  1.00  0.00     0.000 C 
BRANCH   6   7
ATOM      7  C   UNL     1      39.725   4.008  34.706  1.00  0.00     0.000 C 
BRANCH   7   8
ATOM      8  C   UNL     1      39.447   5.513  34.509  1.00  0.00     0.000 C 
BRANCH   8   9
ATOM      9  C   UNL     1      40.329   6.462  35.348  1.00  0.00     0.000 C 
BRANCH   9  10
ATOM     10  C   UNL     1      39.574   7.306  36.391  1.00  0.00     0.000 C 
BRANCH  10  11
ATOM     11  C   UNL     1      40.080   7.077  37.823  1.00  0.00     0.000 C 
BRANCH  11  12
ATOM     12  C   UNL     1      41.102   5.932  37.870  1.00  0.00     0.000 C 
BRANCH  12  13
ATOM     13  C   UNL     1      40.627   4.734  38.711  1.00  0.00     0.006 C 
BRANCH  13  14
ATOM     14  C   UNL     1      41.496   3.472  38.549  1.00  0.00     0.053 C 
BRANCH  14  15
ATOM     15  C   UNL     1      41.350   2.519  39.699  1.00  0.00     0.041 C 
ATOM     16  O   UNL     1      40.936   1.347  39.496  1.00  0.00    -0.550 OA
ATOM     17  O   UNL     1      41.632   2.935  40.994  1.00  0.00    -0.550 OA
ENDBRANCH  14  15
ENDBRANCH  13  14
ENDBRANCH  12  13
ENDBRANCH  11  12
ENDBRANCH  10  11
ENDBRANCH   9  10
ENDBRANCH   8   9
ENDBRANCH   7   8
ENDBRANCH   6   7
ENDBRANCH   5   6
ENDBRANCH   4   5
ENDBRANCH   3   4
ENDBRANCH   2   3
ENDBRANCH   1   2
BRANCH   1  18
ATOM     18  C   UNL     1      36.168   5.655  37.924  1.00  0.00     0.000 C 
BRANCH  18  19
ATOM     19  C   UNL     1      36.722   6.490  39.093  1.00  0.00     0.000 C 
BRANCH  19  20
ATOM     20  C   UNL     1      35.730   7.556  39.586  1.00  0.00     0.000 C 
BRANCH  20  21
ATOM     21  C   UNL     1      34.345   7.432  38.930  1.00  0.00     0.000 C 
BRANCH  21  22
ATOM     22  C   UNL     1      33.198   7.407  39.956  1.00  0.00     0.000 C 
BRANCH  22  23
ATOM     23  C   UNL     1      32.811   5.989  40.425  1.00  0.00     0.000 C 
BRANCH  23  24
ATOM     24  C   UNL     1      33.396   5.654  41.809  1.00  0.00    -0.000 C 
BRANCH  24  25
ATOM     25  C   UNL     1      34.566   4.660  41.728  1.00  0.00    -0.000 C 
BRANCH  25  26
ATOM     26  C   UNL     1      34.456   3.724  40.512  1.00  0.00    -0.000 C 
BRANCH  26  27
ATOM     27  C   UNL     1      34.549   2.238  40.895  1.00  0.00    -0.000 C 
BRANCH  27  28
ATOM     28  C   UNL     1      35.945   1.607  40.726  1.00  0.00    -0.000 C 
BRANCH  28  29
ATOM     29  C   UNL     1      36.765   1.546  42.033  1.00  0.00    -0.000 C 
BRANCH  29  30
ATOM     30  C   UNL     1      38.145   2.212  41.888  1.00  0.00    -0.000 C 
BRANCH  30  31
ATOM     31  C   UNL     1      38.087   3.529  41.098  1.00  0.00    -0.003 C 
ATOM     32  C   UNL     1      38.384   4.754  41.962  1.00  0.00     0.004 C 
ENDBRANCH  30  31
ENDBRANCH  29  30
ENDBRANCH  28  29
ENDBRANCH  27  28
ENDBRANCH  26  27
ENDBRANCH  25  26
ENDBRANCH  24  25
ENDBRANCH  23  24
ENDBRANCH  22  23
ENDBRANCH  21  22
ENDBRANCH  20  21
ENDBRANCH  19  20
ENDBRANCH  18  19
ENDBRANCH   1  18
TORSDOF 28
ENDMDL
MODEL 4
REMARK VINA RESULT:    -0.572      2.320      4.703
REMARK INTER + INTRA:          -8.036
REMARK INTER:                  -0.960
REMARK INTRA:                  -7.076
REMARK UNBOUND:                -6.528
REMARK SMILES CCCCCCCCCCCCCCCCCCCCCCCCCCCCCC(=O)[O-]
REMARK SMILES IDX 16 1 17 2 18 3 19 4 20 5 21 6 22 7 23 8 24 9 25 10 26 11
REMARK SMILES IDX 27 12 28 13 29 14 30 15 31 16 32 17 15 18 14 19 13 20 12 21
REMARK SMILES IDX 11 22 10 23 9 24 8 25 7 26 6 27 5 28 4 29 3 30 2 31 1 32
REMARK H PARENT
REMARK Flexibility Score: inf
ROOT
ATOM      1  C   UNL     1      40.160   5.052  32.920  1.00  0.00     0.000 C 
ENDROOT
BRANCH   1   2
ATOM      2  C   UNL     1      38.981   4.065  32.992  1.00  0.00     0.000 C 
BRANCH   2   3
ATOM      3  C   UNL     1      37.799   4.609  33.814  1.00  0.00     0.000 C 
BRANCH   3   4
ATOM      4  C   UNL     1      36.861   3.536  34.401  1.00  0.00     0.000 C 
BRANCH   4   5
ATOM      5  C   UNL     1      37.303   2.088  34.100  1.00  0.00     0.000 C 
BRANCH   5   6
ATOM      6  C   UNL     1      37.120   1.158  35.312  1.00  0.00     0.000 C 
BRANCH   6   7
ATOM      7  C   UNL     1      36.453   1.862  36.506  1.00  0.00     0.000 C 
BRANCH   7   8
ATOM      8  C   UNL     1      36.454   1.049  37.816  1.00  0.00     0.000 C 
BRANCH   8   9
ATOM      9  C   UNL     1      36.857   1.837  39.081  1.00  0.00     0.000 C 
BRANCH   9  10
ATOM     10  C   UNL     1      37.686   1.045  40.109  1.00  0.00     0.000 C 
BRANCH  10  11
ATOM     11  C   UNL     1      38.012   1.861  41.369  1.00  0.00     0.000 C 
BRANCH  11  12
ATOM     12  C   UNL     1      38.779   3.143  41.012  1.00  0.00     0.000 C 
BRANCH  12  13
ATOM     13  C   UNL     1      38.448   4.323  41.942  1.00  0.00     0.006 C 
BRANCH  13  14
ATOM     14  C   UNL     1      36.998   4.830  41.819  1.00  0.00     0.053 C 
BRANCH  14  15
ATOM     15  C   UNL     1      36.802   5.741  40.644  1.00  0.00     0.041 C 
ATOM     16  O   UNL     1      37.189   6.938  40.704  1.00  0.00    -0.550 OA
ATOM     17  O   UNL     1      36.158   5.283  39.501  1.00  0.00    -0.550 OA
ENDBRANCH  14  15
ENDBRANCH  13  14
ENDBRANCH  12  13
ENDBRANCH  11  12
ENDBRANCH  10  11
ENDBRANCH   9  10
ENDBRANCH   8   9
ENDBRANCH   7   8
ENDBRANCH   6   7
ENDBRANCH   5   6
ENDBRANCH   4   5
ENDBRANCH   3   4
ENDBRANCH   2   3
ENDBRANCH   1   2
BRANCH   1  18
ATOM     18  C   UNL     1      41.507   4.347  32.704  1.00  0.00     0.000 C 
BRANCH  18  19
ATOM     19  C   UNL     1      42.510   4.612  33.842  1.00  0.00     0.000 C 
BRANCH  19  20
ATOM     20  C   UNL     1      42.074   5.762  34.763  1.00  0.00     0.000 C 
BRANCH  20  21
ATOM     21  C   UNL     1      42.860   5.802  36.083  1.00  0.00     0.000 C 
BRANCH  21  22
ATOM     22  C   UNL     1      43.245   4.402  36.592  1.00  0.00     0.000 C 
BRANCH  22  23
ATOM     23  C   UNL     1      43.122   4.236  38.121  1.00  0.00     0.000 C 
BRANCH  23  24
ATOM     24  C   UNL     1      42.602   5.513  38.805  1.00  0.00    -0.000 C 
BRANCH  24  25
ATOM     25  C   UNL     1      41.255   5.295  39.513  1.00  0.00    -0.000 C 
BRANCH  25  26
ATOM     26  C   UNL     1      40.178   6.287  39.040  1.00  0.00    -0.000 C 
BRANCH  26  27
ATOM     27  C   UNL     1      39.604   5.929  37.659  1.00  0.00    -0.000 C 
BRANCH  27  28
ATOM     28  C   UNL     1      38.940   4.541  37.569  1.00  0.00    -0.000 C 
BRANCH  28  29
ATOM     29  C   UNL     1      39.730   3.525  36.715  1.00  0.00    -0.000 C 
BRANCH  29  30
ATOM     30  C   UNL     1      40.081   2.250  37.501  1.00  0.00    -0.000 C 
BRANCH  30  31
ATOM     31  C   UNL     1      40.844   1.222  36.653  1.00  0.00    -0.003 C 
ATOM     32  C   UNL     1      40.911   1.603  35.174  1.00  0.00     0.004 C 
ENDBRANCH  30  31
ENDBRANCH  29  30
ENDBRANCH  28  29
ENDBRANCH  27  28
ENDBRANCH  26  27
ENDBRANCH  25  26
ENDBRANCH  24  25
ENDBRANCH  23  24
ENDBRANCH  22  23
ENDBRANCH  21  22
ENDBRANCH  20  21
ENDBRANCH  19  20
ENDBRANCH  18  19
ENDBRANCH   1  18
TORSDOF 28
ENDMDL
MODEL 5
REMARK VINA RESULT:    -0.569      1.732      5.834
REMARK INTER + INTRA:          -8.028
REMARK INTER:                  -1.327
REMARK INTRA:                  -6.700
REMARK UNBOUND:                -6.528
REMARK SMILES CCCCCCCCCCCCCCCCCCCCCCCCCCCCCC(=O)[O-]
REMARK SMILES IDX 16 1 17 2 18 3 19 4 20 5 21 6 22 7 23 8 24 9 25 10 26 11
REMARK SMILES IDX 27 12 28 13 29 14 30 15 31 16 32 17 15 18 14 19 13 20 12 21
REMARK SMILES IDX 11 22 10 23 9 24 8 25 7 26 6 27 5 28 4 29 3 30 2 31 1 32
REMARK H PARENT
REMARK Flexibility Score: inf
ROOT
ATOM      1  C   UNL     1      39.377   6.184  34.662  1.00  0.00     0.000 C 
ENDROOT
BRANCH   1   2
ATOM      2  C   UNL     1      40.448   5.673  35.642  1.00  0.00     0.000 C 
BRANCH   2   3
ATOM      3  C   UNL     1      40.180   4.234  36.117  1.00  0.00     0.000 C 
BRANCH   3   4
ATOM      4  C   UNL     1      41.379   3.530  36.782  1.00  0.00     0.000 C 
BRANCH   4   5
ATOM      5  C   UNL     1      42.561   4.472  37.097  1.00  0.00     0.000 C 
BRANCH   5   6
ATOM      6  C   UNL     1      43.121   4.256  38.513  1.00  0.00     0.000 C 
BRANCH   6   7
ATOM      7  C   UNL     1      42.076   3.678  39.482  1.00  0.00     0.000 C 
BRANCH   7   8
ATOM      8  C   UNL     1      41.419   4.717  40.415  1.00  0.00     0.000 C 
BRANCH   8   9
ATOM      9  C   UNL     1      40.222   5.482  39.810  1.00  0.00     0.000 C 
BRANCH   9  10
ATOM     10  C   UNL     1      40.537   6.906  39.317  1.00  0.00     0.000 C 
BRANCH  10  11
ATOM     11  C   UNL     1      39.330   7.590  38.658  1.00  0.00     0.000 C 
BRANCH  11  12
ATOM     12  C   UNL     1      38.557   8.443  39.674  1.00  0.00     0.000 C 
BRANCH  12  13
ATOM     13  C   UNL     1      37.061   8.092  39.744  1.00  0.00     0.006 C 
BRANCH  13  14
ATOM     14  C   UNL     1      36.195   8.832  38.706  1.00  0.00     0.053 C 
BRANCH  14  15
ATOM     15  C   UNL     1      35.423   9.970  39.305  1.00  0.00     0.041 C 
ATOM     16  O   UNL     1      34.407  10.423  38.713  1.00  0.00    -0.550 OA
ATOM     17  O   UNL     1      35.845  10.557  40.492  1.00  0.00    -0.550 OA
ENDBRANCH  14  15
ENDBRANCH  13  14
ENDBRANCH  12  13
ENDBRANCH  11  12
ENDBRANCH  10  11
ENDBRANCH   9  10
ENDBRANCH   8   9
ENDBRANCH   7   8
ENDBRANCH   6   7
ENDBRANCH   5   6
ENDBRANCH   4   5
ENDBRANCH   3   4
ENDBRANCH   2   3
ENDBRANCH   1   2
BRANCH   1  18
ATOM     18  C   UNL     1      38.279   5.145  34.393  1.00  0.00     0.000 C 
BRANCH  18  19
ATOM     19  C   UNL     1      36.873   5.650  34.768  1.00  0.00     0.000 C 
BRANCH  19  20
ATOM     20  C   UNL     1      36.817   6.263  36.177  1.00  0.00     0.000 C 
BRANCH  20  21
ATOM     21  C   UNL     1      36.148   5.338  37.205  1.00  0.00     0.000 C 
BRANCH  21  22
ATOM     22  C   UNL     1      37.158   4.670  38.155  1.00  0.00     0.000 C 
BRANCH  22  23
ATOM     23  C   UNL     1      37.242   3.137  38.001  1.00  0.00     0.000 C 
BRANCH  23  24
ATOM     24  C   UNL     1      38.347   2.523  38.879  1.00  0.00    -0.000 C 
BRANCH  24  25
ATOM     25  C   UNL     1      37.832   1.366  39.750  1.00  0.00    -0.000 C 
BRANCH  25  26
ATOM     26  C   UNL     1      37.406   1.835  41.153  1.00  0.00    -0.000 C 
BRANCH  26  27
ATOM     27  C   UNL     1      38.310   2.947  41.709  1.00  0.00    -0.000 C 
BRANCH  27  28
ATOM     28  C   UNL     1      37.580   4.249  42.093  1.00  0.00    -0.000 C 
BRANCH  28  29
ATOM     29  C   UNL     1      36.042   4.117  42.125  1.00  0.00    -0.000 C 
BRANCH  29  30
ATOM     30  C   UNL     1      35.348   5.154  41.223  1.00  0.00    -0.000 C 
BRANCH  30  31
ATOM     31  C   UNL     1      34.028   4.636  40.634  1.00  0.00    -0.003 C 
ATOM     32  C   UNL     1      34.161   3.253  39.997  1.00  0.00     0.004 C 
ENDBRANCH  30  31
ENDBRANCH  29  30
ENDBRANCH  28  29
ENDBRANCH  27  28
ENDBRANCH  26  27
ENDBRANCH  25  26
ENDBRANCH  24  25
ENDBRANCH  23  24
ENDBRANCH  22  23
ENDBRANCH  21  22
ENDBRANCH  20  21
ENDBRANCH  19  20
ENDBRANCH  18  19
ENDBRANCH   1  18
TORSDOF 28
ENDMDL
MODEL 6
REMARK VINA RESULT:    -0.553      2.292      3.724
REMARK INTER + INTRA:          -7.986
REMARK INTER:                  -1.255
REMARK INTRA:                  -6.731
REMARK UNBOUND:                -6.528
REMARK SMILES CCCCCCCCCCCCCCCCCCCCCCCCCCCCCC(=O)[O-]
REMARK SMILES IDX 16 1 17 2 18 3 19 4 20 5 21 6 22 7 23 8 24 9 25 10 26 11
REMARK SMILES IDX 27 12 28 13 29 14 30 15 31 16 32 17 15 18 14 19 13 20 12 21
REMARK SMILES IDX 11 22 10 23 9 24 8 25 7 26 6 27 5 28 4 29 3 30 2 31 1 32
REMARK H PARENT
REMARK Flexibility Score: inf
ROOT
ATOM      1  C   UNL     1      34.178   6.003  37.082  1.00  0.00     0.000 C 
ENDROOT
BRANCH   1   2
ATOM      2  C   UNL     1      32.653   5.814  37.169  1.00  0.00     0.000 C 
BRANCH   2   3
ATOM      3  C   UNL     1      32.008   6.674  38.270  1.00  0.00     0.000 C 
BRANCH   3   4
ATOM      4  C   UNL     1      32.993   7.522  39.099  1.00  0.00     0.000 C 
BRANCH   4   5
ATOM      5  C   UNL     1      32.361   8.168  40.350  1.00  0.00     0.000 C 
BRANCH   5   6
ATOM      6  C   UNL     1      32.586   7.328  41.619  1.00  0.00     0.000 C 
BRANCH   6   7
ATOM      7  C   UNL     1      31.355   6.486  41.998  1.00  0.00     0.000 C 
BRANCH   7   8
ATOM      8  C   UNL     1      31.623   4.972  42.119  1.00  0.00     0.000 C 
BRANCH   8   9
ATOM      9  C   UNL     1      32.605   4.391  41.080  1.00  0.00     0.000 C 
BRANCH   9  10
ATOM     10  C   UNL     1      33.708   3.485  41.657  1.00  0.00     0.000 C 
BRANCH  10  11
ATOM     11  C   UNL     1      34.963   4.265  42.078  1.00  0.00     0.000 C 
BRANCH  11  12
ATOM     12  C   UNL     1      35.473   5.148  40.930  1.00  0.00     0.000 C 
BRANCH  12  13
ATOM     13  C   UNL     1      36.351   6.316  41.411  1.00  0.00     0.006 C 
BRANCH  13  14
ATOM     14  C   UNL     1      36.431   7.491  40.417  1.00  0.00     0.053 C 
BRANCH  14  15
ATOM     15  C   UNL     1      36.278   8.824  41.086  1.00  0.00     0.041 C 
ATOM     16  O   UNL     1      36.939   9.088  42.125  1.00  0.00    -0.550 OA
ATOM     17  O   UNL     1      35.378   9.759  40.587  1.00  0.00    -0.550 OA
ENDBRANCH  14  15
ENDBRANCH  13  14
ENDBRANCH  12  13
ENDBRANCH  11  12
ENDBRANCH  10  11
ENDBRANCH   9  10
ENDBRANCH   8   9
ENDBRANCH   7   8
ENDBRANCH   6   7
ENDBRANCH   5   6
ENDBRANCH   4   5
ENDBRANCH   3   4
ENDBRANCH   2   3
ENDBRANCH   1   2
BRANCH   1  18
ATOM     18  C   UNL     1      34.954   4.768  37.561  1.00  0.00     0.000 C 
BRANCH  18  19
ATOM     19  C   UNL     1      34.053   3.533  37.750  1.00  0.00     0.000 C 
BRANCH  19  20
ATOM     20  C   UNL     1      34.810   2.209  37.559  1.00  0.00     0.000 C 
BRANCH  20  21
ATOM     21  C   UNL     1      35.355   1.637  38.877  1.00  0.00     0.000 C 
BRANCH  21  22
ATOM     22  C   UNL     1      36.891   1.678  38.956  1.00  0.00     0.000 C 
BRANCH  22  23
ATOM     23  C   UNL     1      37.435   2.051  40.351  1.00  0.00     0.000 C 
BRANCH  23  24
ATOM     24  C   UNL     1      38.673   2.963  40.269  1.00  0.00    -0.000 C 
BRANCH  24  25
ATOM     25  C   UNL     1      38.527   4.058  39.199  1.00  0.00    -0.000 C 
BRANCH  25  26
ATOM     26  C   UNL     1      39.357   5.311  39.527  1.00  0.00    -0.000 C 
BRANCH  26  27
ATOM     27  C   UNL     1      39.389   6.324  38.371  1.00  0.00    -0.000 C 
BRANCH  27  28
ATOM     28  C   UNL     1      38.219   6.212  37.374  1.00  0.00    -0.000 C 
BRANCH  28  29
ATOM     29  C   UNL     1      38.650   6.299  35.894  1.00  0.00    -0.000 C 
BRANCH  29  30
ATOM     30  C   UNL     1      37.863   5.325  34.999  1.00  0.00    -0.000 C 
BRANCH  30  31
ATOM     31  C   UNL     1      38.006   3.863  35.446  1.00  0.00    -0.003 C 
ATOM     32  C   UNL     1      36.958   2.943  34.821  1.00  0.00     0.004 C 
ENDBRANCH  30  31
ENDBRANCH  29  30
ENDBRANCH  28  29
ENDBRANCH  27  28
ENDBRANCH  26  27
ENDBRANCH  25  26
ENDBRANCH  24  25
ENDBRANCH  23  24
ENDBRANCH  22  23
ENDBRANCH  21  22
ENDBRANCH  20  21
ENDBRANCH  19  20
ENDBRANCH  18  19
ENDBRANCH   1  18
TORSDOF 28
ENDMDL
MODEL 7
REMARK VINA RESULT:    -0.533      2.487      5.279
REMARK INTER + INTRA:          -7.933
REMARK INTER:                  -1.188
REMARK INTRA:                  -6.745
REMARK UNBOUND:                -6.528
REMARK SMILES CCCCCCCCCCCCCCCCCCCCCCCCCCCCCC(=O)[O-]
REMARK SMILES IDX 16 1 17 2 18 3 19 4 20 5 21 6 22 7 23 8 24 9 25 10 26 11
REMARK SMILES IDX 27 12 28 13 29 14 30 15 31 16 32 17 15 18 14 19 13 20 12 21
REMARK SMILES IDX 11 22 10 23 9 24 8 25 7 26 6 27 5 28 4 29 3 30 2 31 1 32
REMARK H PARENT
REMARK Flexibility Score: inf
ROOT
ATOM      1  C   UNL     1      39.196   5.428  37.794  1.00  0.00     0.000 C 
ENDROOT
BRANCH   1   2
ATOM      2  C   UNL     1      37.862   4.674  37.945  1.00  0.00     0.000 C 
BRANCH   2   3
ATOM      3  C   UNL     1      38.032   3.146  37.883  1.00  0.00     0.000 C 
BRANCH   3   4
ATOM      4  C   UNL     1      37.187   2.437  36.807  1.00  0.00     0.000 C 
BRANCH   4   5
ATOM      5  C   UNL     1      36.131   3.346  36.142  1.00  0.00     0.000 C 
BRANCH   5   6
ATOM      6  C   UNL     1      36.362   3.502  34.629  1.00  0.00     0.000 C 
BRANCH   6   7
ATOM      7  C   UNL     1      36.187   4.952  34.149  1.00  0.00     0.000 C 
BRANCH   7   8
ATOM      8  C   UNL     1      37.438   5.840  34.309  1.00  0.00     0.000 C 
BRANCH   8   9
ATOM      9  C   UNL     1      37.269   7.056  35.244  1.00  0.00     0.000 C 
BRANCH   9  10
ATOM     10  C   UNL     1      35.851   7.256  35.808  1.00  0.00     0.000 C 
BRANCH  10  11
ATOM     11  C   UNL     1      35.833   7.418  37.336  1.00  0.00     0.000 C 
BRANCH  11  12
ATOM     12  C   UNL     1      34.421   7.199  37.896  1.00  0.00     0.000 C 
BRANCH  12  13
ATOM     13  C   UNL     1      33.948   5.739  37.788  1.00  0.00     0.006 C 
BRANCH  13  14
ATOM     14  C   UNL     1      34.253   4.887  39.036  1.00  0.00     0.053 C 
BRANCH  14  15
ATOM     15  C   UNL     1      33.011   4.397  39.718  1.00  0.00     0.041 C 
ATOM     16  O   UNL     1      32.963   4.340  40.976  1.00  0.00    -0.550 OA
ATOM     17  O   UNL     1      31.922   3.967  38.969  1.00  0.00    -0.550 OA
ENDBRANCH  14  15
ENDBRANCH  13  14
ENDBRANCH  12  13
ENDBRANCH  11  12
ENDBRANCH  10  11
ENDBRANCH   9  10
ENDBRANCH   8   9
ENDBRANCH   7   8
ENDBRANCH   6   7
ENDBRANCH   5   6
ENDBRANCH   4   5
ENDBRANCH   3   4
ENDBRANCH   2   3
ENDBRANCH   1   2
BRANCH   1  18
ATOM     18  C   UNL     1      39.613   6.152  39.083  1.00  0.00     0.000 C 
BRANCH  18  19
ATOM     19  C   UNL     1      38.420   6.785  39.825  1.00  0.00     0.000 C 
BRANCH  19  20
ATOM     20  C   UNL     1      38.225   6.211  41.237  1.00  0.00     0.000 C 
BRANCH  20  21
ATOM     21  C   UNL     1      36.789   5.727  41.493  1.00  0.00     0.000 C 
BRANCH  21  22
ATOM     22  C   UNL     1      36.697   4.204  41.687  1.00  0.00     0.000 C 
BRANCH  22  23
ATOM     23  C   UNL     1      38.027   3.546  42.108  1.00  0.00     0.000 C 
BRANCH  23  24
ATOM     24  C   UNL     1      38.212   2.153  41.479  1.00  0.00    -0.000 C 
BRANCH  24  25
ATOM     25  C   UNL     1      39.630   1.942  40.922  1.00  0.00    -0.000 C 
BRANCH  25  26
ATOM     26  C   UNL     1      40.461   3.237  40.932  1.00  0.00    -0.000 C 
BRANCH  26  27
ATOM     27  C   UNL     1      41.752   3.122  40.106  1.00  0.00    -0.000 C 
BRANCH  27  28
ATOM     28  C   UNL     1      41.542   2.889  38.597  1.00  0.00    -0.000 C 
BRANCH  28  29
ATOM     29  C   UNL     1      42.710   3.390  37.719  1.00  0.00    -0.000 C 
BRANCH  29  30
ATOM     30  C   UNL     1      42.271   3.680  36.273  1.00  0.00    -0.000 C 
BRANCH  30  31
ATOM     31  C   UNL     1      41.165   2.731  35.788  1.00  0.00    -0.003 C 
ATOM     32  C   UNL     1      40.206   3.391  34.799  1.00  0.00     0.004 C 
ENDBRANCH  30  31
ENDBRANCH  29  30
ENDBRANCH  28  29
ENDBRANCH  27  28
ENDBRANCH  26  27
ENDBRANCH  25  26
ENDBRANCH  24  25
ENDBRANCH  23  24
ENDBRANCH  22  23
ENDBRANCH  21  22
ENDBRANCH  20  21
ENDBRANCH  19  20
ENDBRANCH  18  19
ENDBRANCH   1  18
TORSDOF 28
ENDMDL
MODEL 8
REMARK VINA RESULT:     0.345      2.587      5.721
REMARK INTER + INTRA:          -5.620
REMARK INTER:                   1.366
REMARK INTRA:                  -6.985
REMARK UNBOUND:                -6.528
REMARK SMILES CCCCCCCCCCCCCCCCCCCCCCCCCCCCCC(=O)[O-]
REMARK SMILES IDX 16 1 17 2 18 3 19 4 20 5 21 6 22 7 23 8 24 9 25 10 26 11
REMARK SMILES IDX 27 12 28 13 29 14 30 15 31 16 32 17 15 18 14 19 13 20 12 21
REMARK SMILES IDX 11 22 10 23 9 24 8 25 7 26 6 27 5 28 4 29 3 30 2 31 1 32
REMARK H PARENT
REMARK Flexibility Score: inf
ROOT
ATOM      1  C   UNL     1      37.326   6.892  34.247  1.00  0.00     0.000 C 
ENDROOT
BRANCH   1   2
ATOM      2  C   UNL     1      36.935   5.489  34.744  1.00  0.00     0.000 C 
BRANCH   2   3
ATOM      3  C   UNL     1      35.411   5.286  34.814  1.00  0.00     0.000 C 
BRANCH   3   4
ATOM      4  C   UNL     1      34.930   4.305  35.902  1.00  0.00     0.000 C 
BRANCH   4   5
ATOM      5  C   UNL     1      35.999   3.981  36.968  1.00  0.00     0.000 C 
BRANCH   5   6
ATOM      6  C   UNL     1      35.379   3.664  38.339  1.00  0.00     0.000 C 
BRANCH   6   7
ATOM      7  C   UNL     1      33.945   4.201  38.481  1.00  0.00     0.000 C 
BRANCH   7   8
ATOM      8  C   UNL     1      33.576   4.687  39.898  1.00  0.00     0.000 C 
BRANCH   8   9
ATOM      9  C   UNL     1      33.797   3.657  41.026  1.00  0.00     0.000 C 
BRANCH   9  10
ATOM     10  C   UNL     1      34.784   4.093  42.125  1.00  0.00     0.000 C 
BRANCH  10  11
ATOM     11  C   UNL     1      36.080   3.268  42.125  1.00  0.00     0.000 C 
BRANCH  11  12
ATOM     12  C   UNL     1      37.287   4.139  41.747  1.00  0.00     0.000 C 
BRANCH  12  13
ATOM     13  C   UNL     1      38.531   3.316  41.370  1.00  0.00     0.006 C 
BRANCH  13  14
ATOM     14  C   UNL     1      38.444   2.651  39.982  1.00  0.00     0.053 C 
BRANCH  14  15
ATOM     15  C   UNL     1      39.569   3.055  39.077  1.00  0.00     0.041 C 
ATOM     16  O   UNL     1      39.895   2.317  38.110  1.00  0.00    -0.550 OA
ATOM     17  O   UNL     1      40.281   4.223  39.322  1.00  0.00    -0.550 OA
ENDBRANCH  14  15
ENDBRANCH  13  14
ENDBRANCH  12  13
ENDBRANCH  11  12
ENDBRANCH  10  11
ENDBRANCH   9  10
ENDBRANCH   8   9
ENDBRANCH   7   8
ENDBRANCH   6   7
ENDBRANCH   5   6
ENDBRANCH   4   5
ENDBRANCH   3   4
ENDBRANCH   2   3
ENDBRANCH   1   2
BRANCH   1  18
ATOM     18  C   UNL     1      38.329   7.589  35.178  1.00  0.00     0.000 C 
BRANCH  18  19
ATOM     19  C   UNL     1      38.629   6.774  36.450  1.00  0.00     0.000 C 
BRANCH  19  20
ATOM     20  C   UNL     1      39.377   7.590  37.517  1.00  0.00     0.000 C 
BRANCH  20  21
ATOM     21  C   UNL     1      38.817   7.379  38.932  1.00  0.00     0.000 C 
BRANCH  21  22
ATOM     22  C   UNL     1      37.488   6.604  38.941  1.00  0.00     0.000 C 
BRANCH  22  23
ATOM     23  C   UNL     1      36.446   7.162  39.932  1.00  0.00     0.000 C 
BRANCH  23  24
ATOM     24  C   UNL     1      35.304   7.909  39.218  1.00  0.00    -0.000 C 
BRANCH  24  25
ATOM     25  C   UNL     1      35.237   7.583  37.717  1.00  0.00    -0.000 C 
BRANCH  25  26
ATOM     26  C   UNL     1      35.310   8.846  36.840  1.00  0.00    -0.000 C 
BRANCH  26  27
ATOM     27  C   UNL     1      35.731  10.095  37.630  1.00  0.00    -0.000 C 
BRANCH  27  28
ATOM     28  C   UNL     1      37.226  10.457  37.531  1.00  0.00    -0.000 C 
BRANCH  28  29
ATOM     29  C   UNL     1      37.820  11.024  38.839  1.00  0.00    -0.000 C 
BRANCH  29  30
ATOM     30  C   UNL     1      36.778  11.096  39.969  1.00  0.00    -0.000 C 
BRANCH  30  31
ATOM     31  C   UNL     1      37.408  10.967  41.364  1.00  0.00    -0.003 C 
ATOM     32  C   UNL     1      38.571   9.977  41.403  1.00  0.00     0.004 C 
ENDBRANCH  30  31
ENDBRANCH  29  30
ENDBRANCH  28  29
ENDBRANCH  27  28
ENDBRANCH  26  27
ENDBRANCH  25  26
ENDBRANCH  24  25
ENDBRANCH  23  24
ENDBRANCH  22  23
ENDBRANCH  21  22
ENDBRANCH  20  21
ENDBRANCH  19  20
ENDBRANCH  18  19
ENDBRANCH   1  18
TORSDOF 28
ENDMDL
