MODEL 1
REMARK VINA RESULT:    -7.257      0.000      0.000
REMARK INTER + INTRA:          -8.837
REMARK INTER:                  -8.529
REMARK INTRA:                  -0.307
REMARK UNBOUND:                -0.307
REMARK SMILES O=c1cc(-c2ccc(O)c(O)c2)oc2cc(O)cc(O)c12
REMARK SMILES IDX 4 1 3 2 2 3 1 4 21 5 19 6 18 7 16 8 15 9 14 10 13 11 5 12
REMARK SMILES IDX 6 13 7 14 8 15 12 16 10 17 9 18 11 20 20 22 17 24
REMARK H PARENT 9 19 11 21 20 23 17 25
REMARK Flexibility Score: inf
ROOT
ATOM      1  C   UNL     1       0.684  20.911 -34.503  1.00  0.00     0.138 A 
ATOM      2  C   UNL     1      -0.396  21.326 -35.294  1.00  0.00     0.100 A 
ATOM      3  C   UNL     1      -0.196  21.600 -36.647  1.00  0.00     0.197 A 
ATOM      4  O   UNL     1      -1.197  21.911 -37.344  1.00  0.00    -0.289 OA
ATOM      5  C   UNL     1       1.100  21.487 -37.204  1.00  0.00     0.107 A 
ATOM      6  C   UNL     1       1.430  21.781 -38.561  1.00  0.00     0.134 A 
ATOM      7  C   UNL     1       2.724  21.520 -39.028  1.00  0.00     0.093 A 
ATOM      8  C   UNL     1       3.715  21.034 -38.172  1.00  0.00     0.123 A 
ATOM      9  C   UNL     1       3.418  20.796 -36.833  1.00  0.00     0.094 A 
ATOM     10  C   UNL     1       2.127  21.014 -36.345  1.00  0.00     0.146 A 
ATOM     11  O   UNL     1       1.881  20.760 -35.063  1.00  0.00    -0.456 OA
ENDROOT
BRANCH   1  12
ATOM     12  C   UNL     1       0.528  20.607 -33.058  1.00  0.00     0.021 A 
ATOM     13  C   UNL     1      -0.700  20.176 -32.522  1.00  0.00     0.016 A 
ATOM     14  C   UNL     1      -0.820  19.907 -31.156  1.00  0.00     0.051 A 
ATOM     15  C   UNL     1       0.277  20.070 -30.302  1.00  0.00     0.157 A 
ATOM     16  C   UNL     1       1.622  20.782 -32.191  1.00  0.00     0.062 A 
ATOM     17  C   UNL     1       1.503  20.512 -30.823  1.00  0.00     0.158 A 
BRANCH  15  18
ATOM     18  O   UNL     1       0.152  19.800 -28.941  1.00  0.00    -0.504 OA
ATOM     19  H   UNL     1      -0.385  20.400 -28.327  1.00  0.00     0.293 HD
ENDBRANCH  15  18
BRANCH  17  20
ATOM     20  O   UNL     1       2.614  20.689 -29.999  1.00  0.00    -0.504 OA
ATOM     21  H   UNL     1       3.073  19.912 -29.540  1.00  0.00     0.293 HD
ENDBRANCH  17  20
ENDBRANCH   1  12
BRANCH   6  22
ATOM     22  O   UNL     1       0.538  22.347 -39.477  1.00  0.00    -0.507 OA
ATOM     23  H   UNL     1      -0.326  21.922 -39.778  1.00  0.00     0.293 HD
ENDBRANCH   6  22
BRANCH   8  24
ATOM     24  O   UNL     1       5.004  20.793 -38.642  1.00  0.00    -0.508 OA
ATOM     25  H   UNL     1       5.767  21.429 -38.445  1.00  0.00     0.293 HD
ENDBRANCH   8  24
TORSDOF 5
ENDMDL
MODEL 2
REMARK VINA RESULT:    -7.164      1.877      3.390
REMARK INTER + INTRA:          -8.728
REMARK INTER:                  -8.456
REMARK INTRA:                  -0.272
REMARK UNBOUND:                -0.307
REMARK SMILES O=c1cc(-c2ccc(O)c(O)c2)oc2cc(O)cc(O)c12
REMARK SMILES IDX 4 1 3 2 2 3 1 4 21 5 19 6 18 7 16 8 15 9 14 10 13 11 5 12
REMARK SMILES IDX 6 13 7 14 8 15 12 16 10 17 9 18 11 20 20 22 17 24
REMARK H PARENT 9 19 11 21 20 23 17 25
REMARK Flexibility Score: inf
ROOT
ATOM      1  C   UNL     1       1.143  20.236 -34.959  1.00  0.00     0.138 A 
ATOM      2  C   UNL     1       2.499  19.887 -34.877  1.00  0.00     0.100 A 
ATOM      3  C   UNL     1       3.355  20.193 -35.935  1.00  0.00     0.197 A 
ATOM      4  O   UNL     1       4.577  19.924 -35.806  1.00  0.00    -0.289 OA
ATOM      5  C   UNL     1       2.844  20.823 -37.095  1.00  0.00     0.107 A 
ATOM      6  C   UNL     1       3.616  21.146 -38.251  1.00  0.00     0.134 A 
ATOM      7  C   UNL     1       3.027  21.874 -39.292  1.00  0.00     0.093 A 
ATOM      8  C   UNL     1       1.679  22.239 -39.244  1.00  0.00     0.123 A 
ATOM      9  C   UNL     1       0.903  21.882 -38.144  1.00  0.00     0.094 A 
ATOM     10  C   UNL     1       1.471  21.185 -37.074  1.00  0.00     0.146 A 
ATOM     11  O   UNL     1       0.699  20.876 -36.036  1.00  0.00    -0.456 OA
ENDROOT
BRANCH   1  12
ATOM     12  C   UNL     1       0.188  19.934 -33.863  1.00  0.00     0.021 A 
ATOM     13  C   UNL     1       0.311  20.524 -32.591  1.00  0.00     0.016 A 
ATOM     14  C   UNL     1      -0.596  20.213 -31.576  1.00  0.00     0.051 A 
ATOM     15  C   UNL     1      -1.637  19.304 -31.808  1.00  0.00     0.157 A 
ATOM     16  C   UNL     1      -0.851  19.012 -34.084  1.00  0.00     0.062 A 
ATOM     17  C   UNL     1      -1.762  18.700 -33.069  1.00  0.00     0.158 A 
BRANCH  15  18
ATOM     18  O   UNL     1      -2.540  18.999 -30.792  1.00  0.00    -0.504 OA
ATOM     19  H   UNL     1      -3.021  19.724 -30.274  1.00  0.00     0.293 HD
ENDBRANCH  15  18
BRANCH  17  20
ATOM     20  O   UNL     1      -2.784  17.788 -33.332  1.00  0.00    -0.504 OA
ATOM     21  H   UNL     1      -2.752  16.833 -32.999  1.00  0.00     0.293 HD
ENDBRANCH  17  20
ENDBRANCH   1  12
BRANCH   6  22
ATOM     22  O   UNL     1       4.945  20.756 -38.437  1.00  0.00    -0.507 OA
ATOM     23  H   UNL     1       5.746  21.354 -38.299  1.00  0.00     0.293 HD
ENDBRANCH   6  22
BRANCH   8  24
ATOM     24  O   UNL     1       1.097  22.949 -40.292  1.00  0.00    -0.508 OA
ATOM     25  H   UNL     1       0.615  22.479 -41.048  1.00  0.00     0.293 HD
ENDBRANCH   8  24
TORSDOF 5
ENDMDL
MODEL 3
REMARK VINA RESULT:    -7.126      1.727      7.639
REMARK INTER + INTRA:          -8.683
REMARK INTER:                  -8.407
REMARK INTRA:                  -0.277
REMARK UNBOUND:                -0.307
REMARK SMILES O=c1cc(-c2ccc(O)c(O)c2)oc2cc(O)cc(O)c12
REMARK SMILES IDX 4 1 3 2 2 3 1 4 21 5 19 6 18 7 16 8 15 9 14 10 13 11 5 12
REMARK SMILES IDX 6 13 7 14 8 15 12 16 10 17 9 18 11 20 20 22 17 24
REMARK H PARENT 9 19 11 21 20 23 17 25
REMARK Flexibility Score: inf
ROOT
ATOM      1  C   UNL     1       0.515  20.471 -33.276  1.00  0.00     0.138 A 
ATOM      2  C   UNL     1       1.371  20.785 -32.211  1.00  0.00     0.100 A 
ATOM      3  C   UNL     1       0.970  20.519 -30.902  1.00  0.00     0.197 A 
ATOM      4  O   UNL     1       1.785  20.754 -29.972  1.00  0.00    -0.289 OA
ATOM      5  C   UNL     1      -0.309  19.964 -30.656  1.00  0.00     0.107 A 
ATOM      6  C   UNL     1      -0.839  19.689 -29.360  1.00  0.00     0.134 A 
ATOM      7  C   UNL     1      -2.070  19.031 -29.245  1.00  0.00     0.093 A 
ATOM      8  C   UNL     1      -2.816  18.693 -30.377  1.00  0.00     0.123 A 
ATOM      9  C   UNL     1      -2.331  19.006 -31.645  1.00  0.00     0.094 A 
ATOM     10  C   UNL     1      -1.091  19.632 -31.794  1.00  0.00     0.146 A 
ATOM     11  O   UNL     1      -0.658  19.900 -33.022  1.00  0.00    -0.456 OA
ENDROOT
BRANCH   1  12
ATOM     12  C   UNL     1       0.891  20.733 -34.689  1.00  0.00     0.021 A 
ATOM     13  C   UNL     1       2.031  20.147 -35.272  1.00  0.00     0.016 A 
ATOM     14  C   UNL     1       2.365  20.420 -36.600  1.00  0.00     0.051 A 
ATOM     15  C   UNL     1       1.576  21.287 -37.367  1.00  0.00     0.157 A 
ATOM     16  C   UNL     1       0.112  21.613 -35.461  1.00  0.00     0.062 A 
ATOM     17  C   UNL     1       0.445  21.887 -36.792  1.00  0.00     0.158 A 
BRANCH  15  18
ATOM     18  O   UNL     1       1.914  21.554 -38.692  1.00  0.00    -0.504 OA
ATOM     19  H   UNL     1       1.389  22.216 -39.251  1.00  0.00     0.293 HD
ENDBRANCH  15  18
BRANCH  17  20
ATOM     20  O   UNL     1      -0.359  22.758 -37.526  1.00  0.00    -0.504 OA
ATOM     21  H   UNL     1      -1.255  23.082 -37.183  1.00  0.00     0.293 HD
ENDBRANCH  17  20
ENDBRANCH   1  12
BRANCH   6  22
ATOM     22  O   UNL     1      -0.216  20.059 -28.166  1.00  0.00    -0.507 OA
ATOM     23  H   UNL     1      -0.283  20.970 -27.738  1.00  0.00     0.293 HD
ENDBRANCH   6  22
BRANCH   8  24
ATOM     24  O   UNL     1      -4.047  18.053 -30.252  1.00  0.00    -0.508 OA
ATOM     25  H   UNL     1      -4.111  17.071 -30.013  1.00  0.00     0.293 HD
ENDBRANCH   8  24
TORSDOF 5
ENDMDL
MODEL 4
REMARK VINA RESULT:    -7.014      1.470      2.362
REMARK INTER + INTRA:          -8.551
REMARK INTER:                  -8.266
REMARK INTRA:                  -0.285
REMARK UNBOUND:                -0.307
REMARK SMILES O=c1cc(-c2ccc(O)c(O)c2)oc2cc(O)cc(O)c12
REMARK SMILES IDX 4 1 3 2 2 3 1 4 21 5 19 6 18 7 16 8 15 9 14 10 13 11 5 12
REMARK SMILES IDX 6 13 7 14 8 15 12 16 10 17 9 18 11 20 20 22 17 24
REMARK H PARENT 9 19 11 21 20 23 17 25
REMARK Flexibility Score: inf
ROOT
ATOM      1  C   UNL     1      -0.015  20.477 -32.964  1.00  0.00     0.138 A 
ATOM      2  C   UNL     1      -1.116  20.836 -33.755  1.00  0.00     0.100 A 
ATOM      3  C   UNL     1      -0.936  21.083 -35.116  1.00  0.00     0.197 A 
ATOM      4  O   UNL     1      -1.953  21.342 -35.811  1.00  0.00    -0.289 OA
ATOM      5  C   UNL     1       0.358  21.001 -35.682  1.00  0.00     0.107 A 
ATOM      6  C   UNL     1       0.667  21.272 -37.049  1.00  0.00     0.134 A 
ATOM      7  C   UNL     1       1.965  21.045 -37.521  1.00  0.00     0.093 A 
ATOM      8  C   UNL     1       2.980  20.614 -36.662  1.00  0.00     0.123 A 
ATOM      9  C   UNL     1       2.701  20.399 -35.315  1.00  0.00     0.094 A 
ATOM     10  C   UNL     1       1.408  20.584 -34.820  1.00  0.00     0.146 A 
ATOM     11  O   UNL     1       1.181  20.354 -33.531  1.00  0.00    -0.456 OA
ENDROOT
BRANCH   1  12
ATOM     12  C   UNL     1      -0.149  20.204 -31.510  1.00  0.00     0.021 A 
ATOM     13  C   UNL     1       0.910  20.440 -30.613  1.00  0.00     0.016 A 
ATOM     14  C   UNL     1       0.759  20.163 -29.252  1.00  0.00     0.051 A 
ATOM     15  C   UNL     1      -0.445  19.640 -28.764  1.00  0.00     0.157 A 
ATOM     16  C   UNL     1      -1.350  19.665 -31.015  1.00  0.00     0.062 A 
ATOM     17  C   UNL     1      -1.503  19.388 -29.652  1.00  0.00     0.158 A 
BRANCH  15  18
ATOM     18  O   UNL     1      -0.591  19.368 -27.406  1.00  0.00    -0.504 OA
ATOM     19  H   UNL     1      -0.592  18.419 -27.051  1.00  0.00     0.293 HD
ENDBRANCH  15  18
BRANCH  17  20
ATOM     20  O   UNL     1      -2.713  18.864 -29.199  1.00  0.00    -0.504 OA
ATOM     21  H   UNL     1      -2.914  17.872 -29.224  1.00  0.00     0.293 HD
ENDBRANCH  17  20
ENDBRANCH   1  12
BRANCH   6  22
ATOM     22  O   UNL     1      -0.251  21.785 -37.970  1.00  0.00    -0.507 OA
ATOM     23  H   UNL     1      -0.006  22.261 -38.824  1.00  0.00     0.293 HD
ENDBRANCH   6  22
BRANCH   8  24
ATOM     24  O   UNL     1       4.272  20.406 -37.137  1.00  0.00    -0.508 OA
ATOM     25  H   UNL     1       4.627  19.474 -37.317  1.00  0.00     0.293 HD
ENDBRANCH   8  24
TORSDOF 5
ENDMDL
MODEL 5
REMARK VINA RESULT:    -6.986      1.525      6.836
REMARK INTER + INTRA:          -8.518
REMARK INTER:                  -8.221
REMARK INTRA:                  -0.297
REMARK UNBOUND:                -0.307
REMARK SMILES O=c1cc(-c2ccc(O)c(O)c2)oc2cc(O)cc(O)c12
REMARK SMILES IDX 4 1 3 2 2 3 1 4 21 5 19 6 18 7 16 8 15 9 14 10 13 11 5 12
REMARK SMILES IDX 6 13 7 14 8 15 12 16 10 17 9 18 11 20 20 22 17 24
REMARK H PARENT 9 19 11 21 20 23 17 25
REMARK Flexibility Score: inf
ROOT
ATOM      1  C   UNL     1       0.033  21.248 -35.011  1.00  0.00     0.138 A 
ATOM      2  C   UNL     1      -1.305  20.950 -34.718  1.00  0.00     0.100 A 
ATOM      3  C   UNL     1      -1.654  20.537 -33.431  1.00  0.00     0.197 A 
ATOM      4  O   UNL     1      -2.870  20.338 -33.182  1.00  0.00    -0.289 OA
ATOM      5  C   UNL     1      -0.651  20.392 -32.443  1.00  0.00     0.107 A 
ATOM      6  C   UNL     1      -0.885  19.939 -31.110  1.00  0.00     0.134 A 
ATOM      7  C   UNL     1       0.167  19.946 -30.185  1.00  0.00     0.093 A 
ATOM      8  C   UNL     1       1.455  20.333 -30.561  1.00  0.00     0.123 A 
ATOM      9  C   UNL     1       1.705  20.726 -31.874  1.00  0.00     0.094 A 
ATOM     10  C   UNL     1       0.669  20.762 -32.812  1.00  0.00     0.146 A 
ATOM     11  O   UNL     1       0.947  21.156 -34.050  1.00  0.00    -0.456 OA
ENDROOT
BRANCH   1  12
ATOM     12  C   UNL     1       0.460  21.691 -36.364  1.00  0.00     0.021 A 
ATOM     13  C   UNL     1      -0.327  22.565 -37.138  1.00  0.00     0.016 A 
ATOM     14  C   UNL     1       0.095  22.956 -38.411  1.00  0.00     0.051 A 
ATOM     15  C   UNL     1       1.302  22.478 -38.936  1.00  0.00     0.157 A 
ATOM     16  C   UNL     1       1.663  21.204 -36.904  1.00  0.00     0.062 A 
ATOM     17  C   UNL     1       2.088  21.596 -38.178  1.00  0.00     0.158 A 
BRANCH  15  18
ATOM     18  O   UNL     1       1.719  22.873 -40.206  1.00  0.00    -0.504 OA
ATOM     19  H   UNL     1       2.690  22.819 -40.487  1.00  0.00     0.293 HD
ENDBRANCH  15  18
BRANCH  17  20
ATOM     20  O   UNL     1       3.293  21.099 -38.673  1.00  0.00    -0.504 OA
ATOM     21  H   UNL     1       3.974  21.693 -39.129  1.00  0.00     0.293 HD
ENDBRANCH  17  20
ENDBRANCH   1  12
BRANCH   6  22
ATOM     22  O   UNL     1      -2.113  19.452 -30.654  1.00  0.00    -0.507 OA
ATOM     23  H   UNL     1      -2.929  20.019 -30.478  1.00  0.00     0.293 HD
ENDBRANCH   6  22
BRANCH   8  24
ATOM     24  O   UNL     1       2.499  20.323 -29.639  1.00  0.00    -0.508 OA
ATOM     25  H   UNL     1       2.375  19.955 -28.703  1.00  0.00     0.293 HD
ENDBRANCH   8  24
TORSDOF 5
ENDMDL
MODEL 6
REMARK VINA RESULT:    -6.968      1.689      6.867
REMARK INTER + INTRA:          -8.497
REMARK INTER:                  -8.214
REMARK INTRA:                  -0.283
REMARK UNBOUND:                -0.307
REMARK SMILES O=c1cc(-c2ccc(O)c(O)c2)oc2cc(O)cc(O)c12
REMARK SMILES IDX 4 1 3 2 2 3 1 4 21 5 19 6 18 7 16 8 15 9 14 10 13 11 5 12
REMARK SMILES IDX 6 13 7 14 8 15 12 16 10 17 9 18 11 20 20 22 17 24
REMARK H PARENT 9 19 11 21 20 23 17 25
REMARK Flexibility Score: inf
ROOT
ATOM      1  C   UNL     1       1.203  20.242 -35.187  1.00  0.00     0.138 A 
ATOM      2  C   UNL     1      -0.057  19.782 -35.592  1.00  0.00     0.100 A 
ATOM      3  C   UNL     1      -1.033  19.508 -34.632  1.00  0.00     0.197 A 
ATOM      4  O   UNL     1      -2.174  19.157 -35.030  1.00  0.00    -0.289 OA
ATOM      5  C   UNL     1      -0.733  19.667 -33.258  1.00  0.00     0.107 A 
ATOM      6  C   UNL     1      -1.636  19.378 -32.191  1.00  0.00     0.134 A 
ATOM      7  C   UNL     1      -1.268  19.684 -30.875  1.00  0.00     0.093 A 
ATOM      8  C   UNL     1      -0.008  20.212 -30.583  1.00  0.00     0.123 A 
ATOM      9  C   UNL     1       0.900  20.447 -31.612  1.00  0.00     0.094 A 
ATOM     10  C   UNL     1       0.550  20.183 -32.939  1.00  0.00     0.146 A 
ATOM     11  O   UNL     1       1.441  20.435 -33.893  1.00  0.00    -0.456 OA
ENDROOT
BRANCH   1  12
ATOM     12  C   UNL     1       2.278  20.549 -36.165  1.00  0.00     0.021 A 
ATOM     13  C   UNL     1       3.638  20.360 -35.852  1.00  0.00     0.016 A 
ATOM     14  C   UNL     1       4.628  20.666 -36.788  1.00  0.00     0.051 A 
ATOM     15  C   UNL     1       4.282  21.172 -38.047  1.00  0.00     0.157 A 
ATOM     16  C   UNL     1       1.939  21.070 -37.426  1.00  0.00     0.062 A 
ATOM     17  C   UNL     1       2.930  21.377 -38.365  1.00  0.00     0.158 A 
BRANCH  15  18
ATOM     18  O   UNL     1       5.274  21.475 -38.978  1.00  0.00    -0.504 OA
ATOM     19  H   UNL     1       5.340  22.391 -39.405  1.00  0.00     0.293 HD
ENDBRANCH  15  18
BRANCH  17  20
ATOM     20  O   UNL     1       2.552  21.883 -39.608  1.00  0.00    -0.504 OA
ATOM     21  H   UNL     1       2.093  21.310 -40.306  1.00  0.00     0.293 HD
ENDBRANCH  17  20
ENDBRANCH   1  12
BRANCH   6  22
ATOM     22  O   UNL     1      -2.884  18.774 -32.366  1.00  0.00    -0.507 OA
ATOM     23  H   UNL     1      -3.612  19.119 -32.973  1.00  0.00     0.293 HD
ENDBRANCH   6  22
BRANCH   8  24
ATOM     24  O   UNL     1       0.355  20.498 -29.269  1.00  0.00    -0.508 OA
ATOM     25  H   UNL     1       1.021  21.230 -29.051  1.00  0.00     0.293 HD
ENDBRANCH   8  24
TORSDOF 5
ENDMDL
MODEL 7
REMARK VINA RESULT:    -6.956      2.194      6.969
REMARK INTER + INTRA:          -8.483
REMARK INTER:                  -8.177
REMARK INTRA:                  -0.306
REMARK UNBOUND:                -0.307
REMARK SMILES O=c1cc(-c2ccc(O)c(O)c2)oc2cc(O)cc(O)c12
REMARK SMILES IDX 4 1 3 2 2 3 1 4 21 5 19 6 18 7 16 8 15 9 14 10 13 11 5 12
REMARK SMILES IDX 6 13 7 14 8 15 12 16 10 17 9 18 11 20 20 22 17 24
REMARK H PARENT 9 19 11 21 20 23 17 25
REMARK Flexibility Score: inf
ROOT
ATOM      1  C   UNL     1       0.262  19.870 -33.875  1.00  0.00     0.138 A 
ATOM      2  C   UNL     1      -1.015  19.433 -34.253  1.00  0.00     0.100 A 
ATOM      3  C   UNL     1      -1.970  19.162 -33.272  1.00  0.00     0.197 A 
ATOM      4  O   UNL     1      -3.125  18.832 -33.645  1.00  0.00    -0.289 OA
ATOM      5  C   UNL     1      -1.633  19.299 -31.905  1.00  0.00     0.107 A 
ATOM      6  C   UNL     1      -2.512  19.011 -30.819  1.00  0.00     0.134 A 
ATOM      7  C   UNL     1      -2.107  19.295 -29.509  1.00  0.00     0.093 A 
ATOM      8  C   UNL     1      -0.832  19.801 -29.242  1.00  0.00     0.123 A 
ATOM      9  C   UNL     1       0.054  20.035 -30.292  1.00  0.00     0.094 A 
ATOM     10  C   UNL     1      -0.334  19.793 -31.612  1.00  0.00     0.146 A 
ATOM     11  O   UNL     1       0.536  20.043 -32.586  1.00  0.00    -0.456 OA
ENDROOT
BRANCH   1  12
ATOM     12  C   UNL     1       1.317  20.172 -34.877  1.00  0.00     0.021 A 
ATOM     13  C   UNL     1       0.998  20.622 -36.172  1.00  0.00     0.016 A 
ATOM     14  C   UNL     1       2.011  20.889 -37.097  1.00  0.00     0.051 A 
ATOM     15  C   UNL     1       3.355  20.704 -36.750  1.00  0.00     0.157 A 
ATOM     16  C   UNL     1       2.668  19.976 -34.541  1.00  0.00     0.062 A 
ATOM     17  C   UNL     1       3.683  20.243 -35.465  1.00  0.00     0.158 A 
BRANCH  15  18
ATOM     18  O   UNL     1       4.361  20.973 -37.676  1.00  0.00    -0.504 OA
ATOM     19  H   UNL     1       5.103  20.310 -37.862  1.00  0.00     0.293 HD
ENDBRANCH  15  18
BRANCH  17  20
ATOM     20  O   UNL     1       5.012  20.046 -35.089  1.00  0.00    -0.504 OA
ATOM     21  H   UNL     1       5.767  20.605 -35.466  1.00  0.00     0.293 HD
ENDBRANCH  17  20
ENDBRANCH   1  12
BRANCH   6  22
ATOM     22  O   UNL     1      -3.773  18.427 -30.968  1.00  0.00    -0.507 OA
ATOM     23  H   UNL     1      -4.052  17.545 -30.565  1.00  0.00     0.293 HD
ENDBRANCH   6  22
BRANCH   8  24
ATOM     24  O   UNL     1      -0.431  20.066 -27.935  1.00  0.00    -0.508 OA
ATOM     25  H   UNL     1      -0.517  19.371 -27.203  1.00  0.00     0.293 HD
ENDBRANCH   8  24
TORSDOF 5
ENDMDL
MODEL 8
REMARK VINA RESULT:    -6.951      2.841      7.875
REMARK INTER + INTRA:          -8.477
REMARK INTER:                  -8.182
REMARK INTRA:                  -0.295
REMARK UNBOUND:                -0.307
REMARK SMILES O=c1cc(-c2ccc(O)c(O)c2)oc2cc(O)cc(O)c12
REMARK SMILES IDX 4 1 3 2 2 3 1 4 21 5 19 6 18 7 16 8 15 9 14 10 13 11 5 12
REMARK SMILES IDX 6 13 7 14 8 15 12 16 10 17 9 18 11 20 20 22 17 24
REMARK H PARENT 9 19 11 21 20 23 17 25
REMARK Flexibility Score: inf
ROOT
ATOM      1  C   UNL     1       1.003  21.535 -39.335  1.00  0.00     0.138 A 
ATOM      2  C   UNL     1       2.379  21.737 -39.509  1.00  0.00     0.100 A 
ATOM      3  C   UNL     1       3.262  21.392 -38.484  1.00  0.00     0.197 A 
ATOM      4  O   UNL     1       4.495  21.527 -38.693  1.00  0.00    -0.289 OA
ATOM      5  C   UNL     1       2.760  20.872 -37.268  1.00  0.00     0.107 A 
ATOM      6  C   UNL     1       3.563  20.524 -36.140  1.00  0.00     0.134 A 
ATOM      7  C   UNL     1       2.966  19.909 -35.032  1.00  0.00     0.093 A 
ATOM      8  C   UNL     1       1.588  19.684 -34.988  1.00  0.00     0.123 A 
ATOM      9  C   UNL     1       0.788  20.069 -36.062  1.00  0.00     0.094 A 
ATOM     10  C   UNL     1       1.358  20.654 -37.195  1.00  0.00     0.146 A 
ATOM     11  O   UNL     1       0.562  20.993 -38.204  1.00  0.00    -0.456 OA
ENDROOT
BRANCH   1  12
ATOM     12  C   UNL     1       0.019  21.884 -40.391  1.00  0.00     0.021 A 
ATOM     13  C   UNL     1      -1.362  21.677 -40.213  1.00  0.00     0.016 A 
ATOM     14  C   UNL     1      -2.263  22.006 -41.228  1.00  0.00     0.051 A 
ATOM     15  C   UNL     1      -1.804  22.538 -42.439  1.00  0.00     0.157 A 
ATOM     16  C   UNL     1       0.474  22.405 -41.616  1.00  0.00     0.062 A 
ATOM     17  C   UNL     1      -0.428  22.736 -42.634  1.00  0.00     0.158 A 
BRANCH  15  18
ATOM     18  O   UNL     1      -2.708  22.865 -43.448  1.00  0.00    -0.504 OA
ATOM     19  H   UNL     1      -2.470  23.521 -44.182  1.00  0.00     0.293 HD
ENDBRANCH  15  18
BRANCH  17  20
ATOM     20  O   UNL     1       0.062  23.260 -43.829  1.00  0.00    -0.504 OA
ATOM     21  H   UNL     1      -0.530  23.400 -44.639  1.00  0.00     0.293 HD
ENDBRANCH  17  20
ENDBRANCH   1  12
BRANCH   6  22
ATOM     22  O   UNL     1       4.933  20.782 -36.047  1.00  0.00    -0.507 OA
ATOM     23  H   UNL     1       5.604  20.180 -35.594  1.00  0.00     0.293 HD
ENDBRANCH   6  22
BRANCH   8  24
ATOM     24  O   UNL     1       1.001  19.085 -33.875  1.00  0.00    -0.508 OA
ATOM     25  H   UNL     1       1.561  18.662 -33.145  1.00  0.00     0.293 HD
ENDBRANCH   8  24
TORSDOF 5
ENDMDL
MODEL 9
REMARK VINA RESULT:    -6.897      2.267      2.943
REMARK INTER + INTRA:          -8.414
REMARK INTER:                  -8.116
REMARK INTRA:                  -0.298
REMARK UNBOUND:                -0.307
REMARK SMILES O=c1cc(-c2ccc(O)c(O)c2)oc2cc(O)cc(O)c12
REMARK SMILES IDX 4 1 3 2 2 3 1 4 21 5 19 6 18 7 16 8 15 9 14 10 13 11 5 12
REMARK SMILES IDX 6 13 7 14 8 15 12 16 10 17 9 18 11 20 20 22 17 24
REMARK H PARENT 9 19 11 21 20 23 17 25
REMARK Flexibility Score: inf
ROOT
ATOM      1  C   UNL     1      -0.481  19.436 -34.202  1.00  0.00     0.138 A 
ATOM      2  C   UNL     1      -0.929  19.737 -35.496  1.00  0.00     0.100 A 
ATOM      3  C   UNL     1      -0.014  20.157 -36.462  1.00  0.00     0.197 A 
ATOM      4  O   UNL     1      -0.436  20.360 -37.630  1.00  0.00    -0.289 OA
ATOM      5  C   UNL     1       1.351  20.307 -36.121  1.00  0.00     0.107 A 
ATOM      6  C   UNL     1       2.365  20.768 -37.013  1.00  0.00     0.134 A 
ATOM      7  C   UNL     1       3.703  20.765 -36.597  1.00  0.00     0.093 A 
ATOM      8  C   UNL     1       4.054  20.374 -35.303  1.00  0.00     0.123 A 
ATOM      9  C   UNL     1       3.065  19.973 -34.407  1.00  0.00     0.094 A 
ATOM     10  C   UNL     1       1.726  19.934 -34.803  1.00  0.00     0.146 A 
ATOM     11  O   UNL     1       0.815  19.532 -33.922  1.00  0.00    -0.456 OA
ENDROOT
BRANCH   1  12
ATOM     12  C   UNL     1      -1.411  18.985 -33.135  1.00  0.00     0.021 A 
ATOM     13  C   UNL     1      -2.487  18.119 -33.410  1.00  0.00     0.016 A 
ATOM     14  C   UNL     1      -3.351  17.719 -32.388  1.00  0.00     0.051 A 
ATOM     15  C   UNL     1      -3.164  18.181 -31.079  1.00  0.00     0.157 A 
ATOM     16  C   UNL     1      -1.238  19.455 -31.821  1.00  0.00     0.062 A 
ATOM     17  C   UNL     1      -2.103  19.055 -30.796  1.00  0.00     0.158 A 
BRANCH  15  18
ATOM     18  O   UNL     1      -4.029  17.778 -30.064  1.00  0.00    -0.504 OA
ATOM     19  H   UNL     1      -4.748  18.394 -29.703  1.00  0.00     0.293 HD
ENDBRANCH  15  18
BRANCH  17  20
ATOM     20  O   UNL     1      -1.891  19.536 -29.505  1.00  0.00    -0.504 OA
ATOM     21  H   UNL     1      -2.640  19.609 -28.828  1.00  0.00     0.293 HD
ENDBRANCH  17  20
ENDBRANCH   1  12
BRANCH   6  22
ATOM     22  O   UNL     1       2.113  21.259 -38.297  1.00  0.00    -0.507 OA
ATOM     23  H   UNL     1       1.202  21.305 -38.727  1.00  0.00     0.293 HD
ENDBRANCH   6  22
BRANCH   8  24
ATOM     24  O   UNL     1       5.385  20.389 -34.893  1.00  0.00    -0.508 OA
ATOM     25  H   UNL     1       6.031  21.101 -35.213  1.00  0.00     0.293 HD
ENDBRANCH   8  24
TORSDOF 5
ENDMDL
