MODEL 1
REMARK VINA RESULT:    -7.704      0.000      0.000
REMARK INTER + INTRA:          -9.332
REMARK INTER:                  -9.506
REMARK INTRA:                   0.174
REMARK UNBOUND:                 0.174
REMARK SMILES Oc1cc(O)c2cc(O)c(-c3cc(O)c(O)c(O)c3)[o+]c2c1
REMARK SMILES IDX 10 1 20 2 21 3 22 4 2 5 3 6 4 7 6 8 7 9 8 10 11 11 12 12
REMARK SMILES IDX 13 13 19 14 15 15 17 16 14 17 16 19 18 21 9 23 1 25 5 27
REMARK H PARENT 14 18 16 20 18 22 9 24 1 26 5 28
REMARK Flexibility Score: inf
ROOT
ATOM      1  C   UNL     1     -57.720  27.115 -22.658  1.00  0.00     0.402 A 
ATOM      2  O   UNL     1     -56.496  27.496 -22.294  1.00  0.00    -0.202 OA
ATOM      3  C   UNL     1     -56.265  28.526 -21.486  1.00  0.00     0.368 A 
ATOM      4  C   UNL     1     -54.949  28.859 -21.147  1.00  0.00     0.162 A 
ATOM      5  C   UNL     1     -54.693  29.939 -20.293  1.00  0.00     0.128 A 
ATOM      6  C   UNL     1     -55.756  30.688 -19.777  1.00  0.00     0.093 A 
ATOM      7  C   UNL     1     -57.081  30.367 -20.108  1.00  0.00     0.136 A 
ATOM      8  C   UNL     1     -57.339  29.281 -20.966  1.00  0.00     0.125 A 
ATOM      9  C   UNL     1     -58.639  28.920 -21.337  1.00  0.00     0.078 A 
ATOM     10  C   UNL     1     -58.841  27.836 -22.198  1.00  0.00     0.223 A 
ENDROOT
BRANCH   1  11
ATOM     11  C   UNL     1     -57.851  25.946 -23.557  1.00  0.00     0.091 A 
ATOM     12  C   UNL     1     -56.795  25.617 -24.419  1.00  0.00     0.068 A 
ATOM     13  C   UNL     1     -56.884  24.504 -25.266  1.00  0.00     0.162 A 
ATOM     14  C   UNL     1     -58.991  25.125 -23.527  1.00  0.00     0.068 A 
ATOM     15  C   UNL     1     -58.036  23.699 -25.244  1.00  0.00     0.200 A 
ATOM     16  C   UNL     1     -59.088  24.011 -24.367  1.00  0.00     0.162 A 
BRANCH  13  17
ATOM     17  O   UNL     1     -55.833  24.196 -26.128  1.00  0.00    -0.504 OA
ATOM     18  H   UNL     1     -55.074  23.588 -25.844  1.00  0.00     0.293 HD
ENDBRANCH  13  17
BRANCH  15  19
ATOM     19  O   UNL     1     -58.143  22.588 -26.083  1.00  0.00    -0.502 OA
ATOM     20  H   UNL     1     -59.016  22.327 -26.525  1.00  0.00     0.293 HD
ENDBRANCH  15  19
BRANCH  16  21
ATOM     21  O   UNL     1     -60.237  23.223 -24.313  1.00  0.00    -0.504 OA
ATOM     22  H   UNL     1     -60.940  23.242 -25.042  1.00  0.00     0.293 HD
ENDBRANCH  16  21
ENDBRANCH   1  11
BRANCH  10  23
ATOM     23  O   UNL     1     -60.131  27.504 -22.611  1.00  0.00    -0.500 OA
ATOM     24  H   UNL     1     -60.937  27.659 -22.018  1.00  0.00     0.294 HD
ENDBRANCH  10  23
BRANCH   5  25
ATOM     25  O   UNL     1     -53.385  30.276 -19.951  1.00  0.00    -0.507 OA
ATOM     26  H   UNL     1     -53.114  30.437 -18.989  1.00  0.00     0.293 HD
ENDBRANCH   5  25
BRANCH   7  27
ATOM     27  O   UNL     1     -58.132  31.123 -19.587  1.00  0.00    -0.507 OA
ATOM     28  H   UNL     1     -58.701  30.784 -18.821  1.00  0.00     0.293 HD
ENDBRANCH   7  27
TORSDOF 7
ENDMDL
MODEL 2
REMARK VINA RESULT:    -7.622      0.062      1.795
REMARK INTER + INTRA:          -9.231
REMARK INTER:                  -9.490
REMARK INTRA:                   0.260
REMARK UNBOUND:                 0.174
REMARK SMILES Oc1cc(O)c2cc(O)c(-c3cc(O)c(O)c(O)c3)[o+]c2c1
REMARK SMILES IDX 10 1 20 2 21 3 22 4 2 5 3 6 4 7 6 8 7 9 8 10 11 11 12 12
REMARK SMILES IDX 13 13 19 14 15 15 17 16 14 17 16 19 18 21 9 23 1 25 5 27
REMARK H PARENT 14 18 16 20 18 22 9 24 1 26 5 28
REMARK Flexibility Score: inf
ROOT
ATOM      1  C   UNL     1     -57.694  27.064 -22.642  1.00  0.00     0.402 A 
ATOM      2  O   UNL     1     -56.473  27.456 -22.279  1.00  0.00    -0.202 OA
ATOM      3  C   UNL     1     -56.250  28.497 -21.484  1.00  0.00     0.368 A 
ATOM      4  C   UNL     1     -54.938  28.841 -21.145  1.00  0.00     0.162 A 
ATOM      5  C   UNL     1     -54.690  29.934 -20.304  1.00  0.00     0.128 A 
ATOM      6  C   UNL     1     -55.758  30.684 -19.802  1.00  0.00     0.093 A 
ATOM      7  C   UNL     1     -57.081  30.352 -20.133  1.00  0.00     0.136 A 
ATOM      8  C   UNL     1     -57.330  29.253 -20.978  1.00  0.00     0.125 A 
ATOM      9  C   UNL     1     -58.627  28.881 -21.348  1.00  0.00     0.078 A 
ATOM     10  C   UNL     1     -58.820  27.785 -22.195  1.00  0.00     0.223 A 
ENDROOT
BRANCH   1  11
ATOM     11  C   UNL     1     -57.816  25.882 -23.526  1.00  0.00     0.091 A 
ATOM     12  C   UNL     1     -58.988  25.111 -23.489  1.00  0.00     0.068 A 
ATOM     13  C   UNL     1     -59.137  24.000 -24.330  1.00  0.00     0.162 A 
ATOM     14  C   UNL     1     -56.806  25.548 -24.443  1.00  0.00     0.068 A 
ATOM     15  C   UNL     1     -58.113  23.660 -25.230  1.00  0.00     0.200 A 
ATOM     16  C   UNL     1     -56.947  24.441 -25.287  1.00  0.00     0.162 A 
BRANCH  13  17
ATOM     17  O   UNL     1     -60.300  23.233 -24.274  1.00  0.00    -0.504 OA
ATOM     18  H   UNL     1     -60.365  22.409 -23.688  1.00  0.00     0.293 HD
ENDBRANCH  13  17
BRANCH  15  19
ATOM     19  O   UNL     1     -58.244  22.554 -26.072  1.00  0.00    -0.502 OA
ATOM     20  H   UNL     1     -58.521  22.643 -27.043  1.00  0.00     0.293 HD
ENDBRANCH  15  19
BRANCH  16  21
ATOM     21  O   UNL     1     -55.920  24.137 -26.179  1.00  0.00    -0.504 OA
ATOM     22  H   UNL     1     -55.655  23.183 -26.393  1.00  0.00     0.293 HD
ENDBRANCH  16  21
ENDBRANCH   1  11
BRANCH  10  23
ATOM     23  O   UNL     1     -60.107  27.440 -22.609  1.00  0.00    -0.500 OA
ATOM     24  H   UNL     1     -60.863  28.114 -22.614  1.00  0.00     0.294 HD
ENDBRANCH  10  23
BRANCH   5  25
ATOM     25  O   UNL     1     -53.385  30.282 -19.962  1.00  0.00    -0.507 OA
ATOM     26  H   UNL     1     -53.093  30.356 -18.995  1.00  0.00     0.293 HD
ENDBRANCH   5  25
BRANCH   7  27
ATOM     27  O   UNL     1     -58.137  31.109 -19.626  1.00  0.00    -0.507 OA
ATOM     28  H   UNL     1     -58.970  31.291 -20.173  1.00  0.00     0.293 HD
ENDBRANCH   7  27
TORSDOF 7
ENDMDL
MODEL 3
REMARK VINA RESULT:    -7.529      7.317     12.169
REMARK INTER + INTRA:          -9.115
REMARK INTER:                  -8.794
REMARK INTRA:                  -0.322
REMARK UNBOUND:                 0.174
REMARK SMILES Oc1cc(O)c2cc(O)c(-c3cc(O)c(O)c(O)c3)[o+]c2c1
REMARK SMILES IDX 10 1 20 2 21 3 22 4 2 5 3 6 4 7 6 8 7 9 8 10 11 11 12 12
REMARK SMILES IDX 13 13 19 14 15 15 17 16 14 17 16 19 18 21 9 23 1 25 5 27
REMARK H PARENT 14 18 16 20 18 22 9 24 1 26 5 28
REMARK Flexibility Score: inf
ROOT
ATOM      1  C   UNL     1     -60.048  20.909 -29.988  1.00  0.00     0.402 A 
ATOM      2  O   UNL     1     -60.583  20.000 -29.174  1.00  0.00    -0.202 OA
ATOM      3  C   UNL     1     -60.609  18.700 -29.451  1.00  0.00     0.368 A 
ATOM      4  C   UNL     1     -61.186  17.809 -28.541  1.00  0.00     0.162 A 
ATOM      5  C   UNL     1     -61.215  16.437 -28.820  1.00  0.00     0.128 A 
ATOM      6  C   UNL     1     -60.666  15.956 -30.013  1.00  0.00     0.093 A 
ATOM      7  C   UNL     1     -60.084  16.837 -30.937  1.00  0.00     0.136 A 
ATOM      8  C   UNL     1     -60.054  18.217 -30.656  1.00  0.00     0.125 A 
ATOM      9  C   UNL     1     -59.495  19.142 -31.544  1.00  0.00     0.078 A 
ATOM     10  C   UNL     1     -59.496  20.503 -31.220  1.00  0.00     0.223 A 
ENDROOT
BRANCH   1  11
ATOM     11  C   UNL     1     -60.071  22.328 -29.565  1.00  0.00     0.091 A 
ATOM     12  C   UNL     1     -59.140  22.782 -28.619  1.00  0.00     0.068 A 
ATOM     13  C   UNL     1     -59.128  24.124 -28.216  1.00  0.00     0.162 A 
ATOM     14  C   UNL     1     -60.972  23.245 -30.133  1.00  0.00     0.068 A 
ATOM     15  C   UNL     1     -60.045  25.031 -28.774  1.00  0.00     0.200 A 
ATOM     16  C   UNL     1     -60.965  24.587 -29.738  1.00  0.00     0.162 A 
BRANCH  13  17
ATOM     17  O   UNL     1     -58.207  24.559 -27.265  1.00  0.00    -0.504 OA
ATOM     18  H   UNL     1     -58.501  24.899 -26.357  1.00  0.00     0.293 HD
ENDBRANCH  13  17
BRANCH  15  19
ATOM     19  O   UNL     1     -60.048  26.371 -28.382  1.00  0.00    -0.502 OA
ATOM     20  H   UNL     1     -60.820  26.992 -28.590  1.00  0.00     0.293 HD
ENDBRANCH  15  19
BRANCH  16  21
ATOM     21  O   UNL     1     -61.878  25.466 -30.320  1.00  0.00    -0.504 OA
ATOM     22  H   UNL     1     -62.690  25.810 -29.821  1.00  0.00     0.293 HD
ENDBRANCH  16  21
ENDBRANCH   1  11
BRANCH  10  23
ATOM     23  O   UNL     1     -58.987  21.436 -32.123  1.00  0.00    -0.500 OA
ATOM     24  H   UNL     1     -58.279  22.108 -31.852  1.00  0.00     0.294 HD
ENDBRANCH  10  23
BRANCH   5  25
ATOM     25  O   UNL     1     -61.788  15.543 -27.917  1.00  0.00    -0.507 OA
ATOM     26  H   UNL     1     -62.364  15.863 -27.148  1.00  0.00     0.293 HD
ENDBRANCH   5  25
BRANCH   7  27
ATOM     27  O   UNL     1     -59.541  16.344 -32.123  1.00  0.00    -0.507 OA
ATOM     28  H   UNL     1     -59.787  15.428 -32.479  1.00  0.00     0.293 HD
ENDBRANCH   7  27
TORSDOF 7
ENDMDL
MODEL 4
REMARK VINA RESULT:    -7.391      1.273      1.282
REMARK INTER + INTRA:          -8.945
REMARK INTER:                  -8.570
REMARK INTRA:                  -0.376
REMARK UNBOUND:                 0.174
REMARK SMILES Oc1cc(O)c2cc(O)c(-c3cc(O)c(O)c(O)c3)[o+]c2c1
REMARK SMILES IDX 10 1 20 2 21 3 22 4 2 5 3 6 4 7 6 8 7 9 8 10 11 11 12 12
REMARK SMILES IDX 13 13 19 14 15 15 17 16 14 17 16 19 18 21 9 23 1 25 5 27
REMARK H PARENT 14 18 16 20 18 22 9 24 1 26 5 28
REMARK Flexibility Score: inf
ROOT
ATOM      1  C   UNL     1     -58.205  27.559 -22.988  1.00  0.00     0.402 A 
ATOM      2  O   UNL     1     -56.924  27.708 -22.652  1.00  0.00    -0.202 OA
ATOM      3  C   UNL     1     -56.509  28.574 -21.732  1.00  0.00     0.368 A 
ATOM      4  C   UNL     1     -55.146  28.667 -21.434  1.00  0.00     0.162 A 
ATOM      5  C   UNL     1     -54.697  29.572 -20.464  1.00  0.00     0.128 A 
ATOM      6  C   UNL     1     -55.615  30.386 -19.792  1.00  0.00     0.093 A 
ATOM      7  C   UNL     1     -56.985  30.306 -20.081  1.00  0.00     0.136 A 
ATOM      8  C   UNL     1     -57.437  29.396 -21.056  1.00  0.00     0.125 A 
ATOM      9  C   UNL     1     -58.790  29.277 -21.390  1.00  0.00     0.078 A 
ATOM     10  C   UNL     1     -59.186  28.361 -22.371  1.00  0.00     0.223 A 
ENDROOT
BRANCH   1  11
ATOM     11  C   UNL     1     -58.545  26.555 -24.021  1.00  0.00     0.091 A 
ATOM     12  C   UNL     1     -58.345  26.863 -25.375  1.00  0.00     0.068 A 
ATOM     13  C   UNL     1     -58.640  25.924 -26.373  1.00  0.00     0.162 A 
ATOM     14  C   UNL     1     -59.014  25.277 -23.673  1.00  0.00     0.068 A 
ATOM     15  C   UNL     1     -59.127  24.654 -26.017  1.00  0.00     0.200 A 
ATOM     16  C   UNL     1     -59.309  24.332 -24.662  1.00  0.00     0.162 A 
BRANCH  13  17
ATOM     17  O   UNL     1     -58.449  26.248 -27.715  1.00  0.00    -0.504 OA
ATOM     18  H   UNL     1     -57.522  26.356 -28.109  1.00  0.00     0.293 HD
ENDBRANCH  13  17
BRANCH  15  19
ATOM     19  O   UNL     1     -59.428  23.708 -26.998  1.00  0.00    -0.502 OA
ATOM     20  H   UNL     1     -59.938  23.946 -27.840  1.00  0.00     0.293 HD
ENDBRANCH  15  19
BRANCH  16  21
ATOM     21  O   UNL     1     -59.777  23.076 -24.277  1.00  0.00    -0.504 OA
ATOM     22  H   UNL     1     -60.495  22.586 -24.797  1.00  0.00     0.293 HD
ENDBRANCH  16  21
ENDBRANCH   1  11
BRANCH  10  23
ATOM     23  O   UNL     1     -60.527  28.275 -22.746  1.00  0.00    -0.500 OA
ATOM     24  H   UNL     1     -60.844  27.608 -23.438  1.00  0.00     0.294 HD
ENDBRANCH  10  23
BRANCH   5  25
ATOM     25  O   UNL     1     -53.341  29.670 -20.161  1.00  0.00    -0.507 OA
ATOM     26  H   UNL     1     -52.693  28.923 -20.381  1.00  0.00     0.293 HD
ENDBRANCH   5  25
BRANCH   7  27
ATOM     27  O   UNL     1     -57.889  31.124 -19.404  1.00  0.00    -0.507 OA
ATOM     28  H   UNL     1     -58.105  32.060 -19.729  1.00  0.00     0.293 HD
ENDBRANCH   7  27
TORSDOF 7
ENDMDL
MODEL 5
REMARK VINA RESULT:    -7.325      4.885     10.838
REMARK INTER + INTRA:          -8.864
REMARK INTER:                  -8.956
REMARK INTRA:                   0.092
REMARK UNBOUND:                 0.174
REMARK SMILES Oc1cc(O)c2cc(O)c(-c3cc(O)c(O)c(O)c3)[o+]c2c1
REMARK SMILES IDX 10 1 20 2 21 3 22 4 2 5 3 6 4 7 6 8 7 9 8 10 11 11 12 12
REMARK SMILES IDX 13 13 19 14 15 15 17 16 14 17 16 19 18 21 9 23 1 25 5 27
REMARK H PARENT 14 18 16 20 18 22 9 24 1 26 5 28
REMARK Flexibility Score: inf
ROOT
ATOM      1  C   UNL     1     -58.745  21.554 -27.958  1.00  0.00     0.402 A 
ATOM      2  O   UNL     1     -59.462  20.476 -27.642  1.00  0.00    -0.202 OA
ATOM      3  C   UNL     1     -59.788  19.535 -28.523  1.00  0.00     0.368 A 
ATOM      4  C   UNL     1     -60.539  18.430 -28.109  1.00  0.00     0.162 A 
ATOM      5  C   UNL     1     -60.885  17.430 -29.027  1.00  0.00     0.128 A 
ATOM      6  C   UNL     1     -60.478  17.536 -30.361  1.00  0.00     0.093 A 
ATOM      7  C   UNL     1     -59.725  18.639 -30.791  1.00  0.00     0.136 A 
ATOM      8  C   UNL     1     -59.376  19.644 -29.869  1.00  0.00     0.125 A 
ATOM      9  C   UNL     1     -58.634  20.769 -30.243  1.00  0.00     0.078 A 
ATOM     10  C   UNL     1     -58.319  21.743 -29.289  1.00  0.00     0.223 A 
ENDROOT
BRANCH   1  11
ATOM     11  C   UNL     1     -58.438  22.529 -26.887  1.00  0.00     0.091 A 
ATOM     12  C   UNL     1     -59.360  22.726 -25.848  1.00  0.00     0.068 A 
ATOM     13  C   UNL     1     -59.086  23.628 -24.812  1.00  0.00     0.162 A 
ATOM     14  C   UNL     1     -57.217  23.223 -26.858  1.00  0.00     0.068 A 
ATOM     15  C   UNL     1     -57.870  24.333 -24.800  1.00  0.00     0.200 A 
ATOM     16  C   UNL     1     -56.934  24.124 -25.827  1.00  0.00     0.162 A 
BRANCH  13  17
ATOM     17  O   UNL     1     -60.017  23.825 -23.793  1.00  0.00    -0.504 OA
ATOM     18  H   UNL     1     -60.158  23.138 -23.063  1.00  0.00     0.293 HD
ENDBRANCH  13  17
BRANCH  15  19
ATOM     19  O   UNL     1     -57.582  25.238 -23.777  1.00  0.00    -0.502 OA
ATOM     20  H   UNL     1     -57.690  26.238 -23.894  1.00  0.00     0.293 HD
ENDBRANCH  15  19
BRANCH  16  21
ATOM     21  O   UNL     1     -55.713  24.799 -25.835  1.00  0.00    -0.504 OA
ATOM     22  H   UNL     1     -55.601  25.717 -25.423  1.00  0.00     0.293 HD
ENDBRANCH  16  21
ENDBRANCH   1  11
BRANCH  10  23
ATOM     23  O   UNL     1     -57.624  22.891 -29.666  1.00  0.00    -0.500 OA
ATOM     24  H   UNL     1     -56.648  23.024 -29.430  1.00  0.00     0.294 HD
ENDBRANCH  10  23
BRANCH   5  25
ATOM     25  O   UNL     1     -61.633  16.326 -28.623  1.00  0.00    -0.507 OA
ATOM     26  H   UNL     1     -62.615  16.409 -28.388  1.00  0.00     0.293 HD
ENDBRANCH   5  25
BRANCH   7  27
ATOM     27  O   UNL     1     -59.326  18.733 -32.125  1.00  0.00    -0.507 OA
ATOM     28  H   UNL     1     -59.809  19.334 -32.782  1.00  0.00     0.293 HD
ENDBRANCH   7  27
TORSDOF 7
ENDMDL
MODEL 6
REMARK VINA RESULT:    -7.060      6.861     11.866
REMARK INTER + INTRA:          -8.537
REMARK INTER:                  -8.200
REMARK INTRA:                  -0.337
REMARK UNBOUND:                 0.174
REMARK SMILES Oc1cc(O)c2cc(O)c(-c3cc(O)c(O)c(O)c3)[o+]c2c1
REMARK SMILES IDX 10 1 20 2 21 3 22 4 2 5 3 6 4 7 6 8 7 9 8 10 11 11 12 12
REMARK SMILES IDX 13 13 19 14 15 15 17 16 14 17 16 19 18 21 9 23 1 25 5 27
REMARK H PARENT 14 18 16 20 18 22 9 24 1 26 5 28
REMARK Flexibility Score: inf
ROOT
ATOM      1  C   UNL     1     -60.023  22.336 -30.157  1.00  0.00     0.402 A 
ATOM      2  O   UNL     1     -61.085  21.600 -29.830  1.00  0.00    -0.202 OA
ATOM      3  C   UNL     1     -61.233  20.331 -30.197  1.00  0.00     0.368 A 
ATOM      4  C   UNL     1     -62.376  19.626 -29.808  1.00  0.00     0.162 A 
ATOM      5  C   UNL     1     -62.541  18.287 -30.186  1.00  0.00     0.128 A 
ATOM      6  C   UNL     1     -61.559  17.653 -30.954  1.00  0.00     0.093 A 
ATOM      7  C   UNL     1     -60.407  18.347 -31.353  1.00  0.00     0.136 A 
ATOM      8  C   UNL     1     -60.241  19.693 -30.974  1.00  0.00     0.125 A 
ATOM      9  C   UNL     1     -59.117  20.437 -31.349  1.00  0.00     0.078 A 
ATOM     10  C   UNL     1     -59.003  21.773 -30.951  1.00  0.00     0.223 A 
ENDROOT
BRANCH   1  11
ATOM     11  C   UNL     1     -59.968  23.737 -29.682  1.00  0.00     0.091 A 
ATOM     12  C   UNL     1     -60.824  24.692 -30.250  1.00  0.00     0.068 A 
ATOM     13  C   UNL     1     -60.807  26.021 -29.805  1.00  0.00     0.162 A 
ATOM     14  C   UNL     1     -59.115  24.120 -28.633  1.00  0.00     0.068 A 
ATOM     15  C   UNL     1     -59.936  26.401 -28.769  1.00  0.00     0.200 A 
ATOM     16  C   UNL     1     -59.092  25.444 -28.181  1.00  0.00     0.162 A 
BRANCH  13  17
ATOM     17  O   UNL     1     -61.652  26.963 -30.387  1.00  0.00    -0.504 OA
ATOM     18  H   UNL     1     -62.014  26.845 -31.326  1.00  0.00     0.293 HD
ENDBRANCH  13  17
BRANCH  15  19
ATOM     19  O   UNL     1     -59.904  27.720 -28.315  1.00  0.00    -0.502 OA
ATOM     20  H   UNL     1     -59.136  28.346 -28.527  1.00  0.00     0.293 HD
ENDBRANCH  15  19
BRANCH  16  21
ATOM     21  O   UNL     1     -58.228  25.787 -27.142  1.00  0.00    -0.504 OA
ATOM     22  H   UNL     1     -57.368  26.299 -27.303  1.00  0.00     0.293 HD
ENDBRANCH  16  21
ENDBRANCH   1  11
BRANCH  10  23
ATOM     23  O   UNL     1     -57.910  22.534 -31.365  1.00  0.00    -0.500 OA
ATOM     24  H   UNL     1     -57.336  23.045 -30.705  1.00  0.00     0.294 HD
ENDBRANCH  10  23
BRANCH   5  25
ATOM     25  O   UNL     1     -63.677  17.578 -29.801  1.00  0.00    -0.507 OA
ATOM     26  H   UNL     1     -63.818  17.282 -28.843  1.00  0.00     0.293 HD
ENDBRANCH   5  25
BRANCH   7  27
ATOM     27  O   UNL     1     -59.436  17.703 -32.121  1.00  0.00    -0.507 OA
ATOM     28  H   UNL     1     -58.467  17.665 -31.828  1.00  0.00     0.293 HD
ENDBRANCH   7  27
TORSDOF 7
ENDMDL
MODEL 7
REMARK VINA RESULT:    -7.044      3.041      8.540
REMARK INTER + INTRA:          -8.517
REMARK INTER:                  -8.139
REMARK INTRA:                  -0.378
REMARK UNBOUND:                 0.174
REMARK SMILES Oc1cc(O)c2cc(O)c(-c3cc(O)c(O)c(O)c3)[o+]c2c1
REMARK SMILES IDX 10 1 20 2 21 3 22 4 2 5 3 6 4 7 6 8 7 9 8 10 11 11 12 12
REMARK SMILES IDX 13 13 19 14 15 15 17 16 14 17 16 19 18 21 9 23 1 25 5 27
REMARK H PARENT 14 18 16 20 18 22 9 24 1 26 5 28
REMARK Flexibility Score: inf
ROOT
ATOM      1  C   UNL     1     -58.668  24.877 -26.324  1.00  0.00     0.402 A 
ATOM      2  O   UNL     1     -58.858  23.561 -26.227  1.00  0.00    -0.202 OA
ATOM      3  C   UNL     1     -58.732  22.730 -27.257  1.00  0.00     0.368 A 
ATOM      4  C   UNL     1     -58.944  21.360 -27.071  1.00  0.00     0.162 A 
ATOM      5  C   UNL     1     -58.810  20.474 -28.148  1.00  0.00     0.128 A 
ATOM      6  C   UNL     1     -58.465  20.960 -29.413  1.00  0.00     0.093 A 
ATOM      7  C   UNL     1     -58.251  22.332 -29.615  1.00  0.00     0.136 A 
ATOM      8  C   UNL     1     -58.384  23.223 -28.534  1.00  0.00     0.125 A 
ATOM      9  C   UNL     1     -58.191  24.601 -28.679  1.00  0.00     0.078 A 
ATOM     10  C   UNL     1     -58.342  25.444 -27.573  1.00  0.00     0.223 A 
ENDROOT
BRANCH   1  11
ATOM     11  C   UNL     1     -58.829  25.699 -25.104  1.00  0.00     0.091 A 
ATOM     12  C   UNL     1     -60.082  26.257 -24.807  1.00  0.00     0.068 A 
ATOM     13  C   UNL     1     -60.266  27.022 -23.648  1.00  0.00     0.162 A 
ATOM     14  C   UNL     1     -57.766  25.889 -24.205  1.00  0.00     0.068 A 
ATOM     15  C   UNL     1     -59.193  27.224 -22.764  1.00  0.00     0.200 A 
ATOM     16  C   UNL     1     -57.941  26.651 -23.044  1.00  0.00     0.162 A 
BRANCH  13  17
ATOM     17  O   UNL     1     -61.513  27.582 -23.372  1.00  0.00    -0.504 OA
ATOM     18  H   UNL     1     -62.311  27.008 -23.129  1.00  0.00     0.293 HD
ENDBRANCH  13  17
BRANCH  15  19
ATOM     19  O   UNL     1     -59.358  27.987 -21.606  1.00  0.00    -0.502 OA
ATOM     20  H   UNL     1     -58.687  27.970 -20.848  1.00  0.00     0.293 HD
ENDBRANCH  15  19
BRANCH  16  21
ATOM     21  O   UNL     1     -56.861  26.821 -22.179  1.00  0.00    -0.504 OA
ATOM     22  H   UNL     1     -56.752  27.652 -21.610  1.00  0.00     0.293 HD
ENDBRANCH  16  21
ENDBRANCH   1  11
BRANCH  10  23
ATOM     23  O   UNL     1     -58.201  26.824 -27.722  1.00  0.00    -0.500 OA
ATOM     24  H   UNL     1     -58.512  27.471 -27.007  1.00  0.00     0.294 HD
ENDBRANCH  10  23
BRANCH   5  25
ATOM     25  O   UNL     1     -59.019  19.108 -27.970  1.00  0.00    -0.507 OA
ATOM     26  H   UNL     1     -59.168  18.710 -27.050  1.00  0.00     0.293 HD
ENDBRANCH   5  25
BRANCH   7  27
ATOM     27  O   UNL     1     -57.908  22.804 -30.883  1.00  0.00    -0.507 OA
ATOM     28  H   UNL     1     -58.544  23.376 -31.426  1.00  0.00     0.293 HD
ENDBRANCH   7  27
TORSDOF 7
ENDMDL
MODEL 8
REMARK VINA RESULT:    -7.021      3.039      8.369
REMARK INTER + INTRA:          -8.489
REMARK INTER:                  -8.122
REMARK INTRA:                  -0.367
REMARK UNBOUND:                 0.174
REMARK SMILES Oc1cc(O)c2cc(O)c(-c3cc(O)c(O)c(O)c3)[o+]c2c1
REMARK SMILES IDX 10 1 20 2 21 3 22 4 2 5 3 6 4 7 6 8 7 9 8 10 11 11 12 12
REMARK SMILES IDX 13 13 19 14 15 15 17 16 14 17 16 19 18 21 9 23 1 25 5 27
REMARK H PARENT 14 18 16 20 18 22 9 24 1 26 5 28
REMARK Flexibility Score: inf
ROOT
ATOM      1  C   UNL     1     -58.719  24.834 -26.203  1.00  0.00     0.402 A 
ATOM      2  O   UNL     1     -58.908  23.517 -26.128  1.00  0.00    -0.202 OA
ATOM      3  C   UNL     1     -58.752  22.700 -27.165  1.00  0.00     0.368 A 
ATOM      4  C   UNL     1     -58.965  21.328 -27.003  1.00  0.00     0.162 A 
ATOM      5  C   UNL     1     -58.800  20.456 -28.087  1.00  0.00     0.128 A 
ATOM      6  C   UNL     1     -58.421  20.960 -29.336  1.00  0.00     0.093 A 
ATOM      7  C   UNL     1     -58.204  22.335 -29.514  1.00  0.00     0.136 A 
ATOM      8  C   UNL     1     -58.370  23.211 -28.425  1.00  0.00     0.125 A 
ATOM      9  C   UNL     1     -58.176  24.591 -28.546  1.00  0.00     0.078 A 
ATOM     10  C   UNL     1     -58.360  25.419 -27.434  1.00  0.00     0.223 A 
ENDROOT
BRANCH   1  11
ATOM     11  C   UNL     1     -58.916  25.640 -24.976  1.00  0.00     0.091 A 
ATOM     12  C   UNL     1     -57.850  25.801 -24.078  1.00  0.00     0.068 A 
ATOM     13  C   UNL     1     -58.002  26.575 -22.920  1.00  0.00     0.162 A 
ATOM     14  C   UNL     1     -60.132  26.295 -24.718  1.00  0.00     0.068 A 
ATOM     15  C   UNL     1     -59.228  27.210 -22.659  1.00  0.00     0.200 A 
ATOM     16  C   UNL     1     -60.292  27.071 -23.565  1.00  0.00     0.162 A 
BRANCH  13  17
ATOM     17  O   UNL     1     -56.940  26.715 -22.029  1.00  0.00    -0.504 OA
ATOM     18  H   UNL     1     -57.035  27.238 -21.166  1.00  0.00     0.293 HD
ENDBRANCH  13  17
BRANCH  15  19
ATOM     19  O   UNL     1     -59.398  27.982 -21.508  1.00  0.00    -0.502 OA
ATOM     20  H   UNL     1     -60.181  28.615 -21.393  1.00  0.00     0.293 HD
ENDBRANCH  15  19
BRANCH  16  21
ATOM     21  O   UNL     1     -61.516  27.700 -23.341  1.00  0.00    -0.504 OA
ATOM     22  H   UNL     1     -62.142  27.413 -22.598  1.00  0.00     0.293 HD
ENDBRANCH  16  21
ENDBRANCH   1  11
BRANCH  10  23
ATOM     23  O   UNL     1     -58.218  26.801 -27.561  1.00  0.00    -0.500 OA
ATOM     24  H   UNL     1     -58.875  27.445 -27.136  1.00  0.00     0.294 HD
ENDBRANCH  10  23
BRANCH   5  25
ATOM     25  O   UNL     1     -59.009  19.087 -27.934  1.00  0.00    -0.507 OA
ATOM     26  H   UNL     1     -59.791  18.728 -27.399  1.00  0.00     0.293 HD
ENDBRANCH   5  25
BRANCH   7  27
ATOM     27  O   UNL     1     -57.828  22.824 -30.766  1.00  0.00    -0.507 OA
ATOM     28  H   UNL     1     -58.497  22.922 -31.520  1.00  0.00     0.293 HD
ENDBRANCH   7  27
TORSDOF 7
ENDMDL
MODEL 9
REMARK VINA RESULT:    -6.631      5.180     10.903
REMARK INTER + INTRA:          -8.008
REMARK INTER:                  -7.624
REMARK INTRA:                  -0.384
REMARK UNBOUND:                 0.174
REMARK SMILES Oc1cc(O)c2cc(O)c(-c3cc(O)c(O)c(O)c3)[o+]c2c1
REMARK SMILES IDX 10 1 20 2 21 3 22 4 2 5 3 6 4 7 6 8 7 9 8 10 11 11 12 12
REMARK SMILES IDX 13 13 19 14 15 15 17 16 14 17 16 19 18 21 9 23 1 25 5 27
REMARK H PARENT 14 18 16 20 18 22 9 24 1 26 5 28
REMARK Flexibility Score: inf
ROOT
ATOM      1  C   UNL     1     -59.010  21.942 -28.558  1.00  0.00     0.402 A 
ATOM      2  O   UNL     1     -59.677  20.899 -28.064  1.00  0.00    -0.202 OA
ATOM      3  C   UNL     1     -59.911  19.790 -28.758  1.00  0.00     0.368 A 
ATOM      4  C   UNL     1     -60.615  18.738 -28.165  1.00  0.00     0.162 A 
ATOM      5  C   UNL     1     -60.864  17.562 -28.885  1.00  0.00     0.128 A 
ATOM      6  C   UNL     1     -60.408  17.441 -30.201  1.00  0.00     0.093 A 
ATOM      7  C   UNL     1     -59.701  18.488 -30.811  1.00  0.00     0.136 A 
ATOM      8  C   UNL     1     -59.450  19.670 -30.087  1.00  0.00     0.125 A 
ATOM      9  C   UNL     1     -58.757  20.749 -30.646  1.00  0.00     0.078 A 
ATOM     10  C   UNL     1     -58.540  21.904 -29.886  1.00  0.00     0.223 A 
ENDROOT
BRANCH   1  11
ATOM     11  C   UNL     1     -58.805  23.120 -27.684  1.00  0.00     0.091 A 
ATOM     12  C   UNL     1     -59.777  24.131 -27.649  1.00  0.00     0.068 A 
ATOM     13  C   UNL     1     -59.617  25.246 -26.816  1.00  0.00     0.162 A 
ATOM     14  C   UNL     1     -57.682  23.221 -26.845  1.00  0.00     0.068 A 
ATOM     15  C   UNL     1     -58.482  25.350 -25.994  1.00  0.00     0.200 A 
ATOM     16  C   UNL     1     -57.516  24.330 -26.009  1.00  0.00     0.162 A 
BRANCH  13  17
ATOM     17  O   UNL     1     -60.584  26.251 -26.801  1.00  0.00    -0.504 OA
ATOM     18  H   UNL     1     -60.531  27.029 -26.155  1.00  0.00     0.293 HD
ENDBRANCH  13  17
BRANCH  15  19
ATOM     19  O   UNL     1     -58.305  26.455 -25.161  1.00  0.00    -0.502 OA
ATOM     20  H   UNL     1     -57.674  26.440 -24.369  1.00  0.00     0.293 HD
ENDBRANCH  15  19
BRANCH  16  21
ATOM     21  O   UNL     1     -56.385  24.398 -25.195  1.00  0.00    -0.504 OA
ATOM     22  H   UNL     1     -55.811  25.230 -25.137  1.00  0.00     0.293 HD
ENDBRANCH  16  21
ENDBRANCH   1  11
BRANCH  10  23
ATOM     23  O   UNL     1     -57.895  23.003 -30.454  1.00  0.00    -0.500 OA
ATOM     24  H   UNL     1     -58.163  23.953 -30.226  1.00  0.00     0.294 HD
ENDBRANCH  10  23
BRANCH   5  25
ATOM     25  O   UNL     1     -61.565  16.509 -28.301  1.00  0.00    -0.507 OA
ATOM     26  H   UNL     1     -61.185  15.570 -28.274  1.00  0.00     0.293 HD
ENDBRANCH   5  25
BRANCH   7  27
ATOM     27  O   UNL     1     -59.252  18.354 -32.125  1.00  0.00    -0.507 OA
ATOM     28  H   UNL     1     -59.198  19.149 -32.751  1.00  0.00     0.293 HD
ENDBRANCH   7  27
TORSDOF 7
ENDMDL
