MODEL 1
REMARK VINA RESULT:    -3.127      0.000      0.000
REMARK INTER + INTRA:         -12.066
REMARK INTER:                  -7.149
REMARK INTRA:                  -4.917
REMARK UNBOUND:                -4.917
REMARK SMILES CCCCCCCCCCCCCCCCCCCCCCCC(=O)[O-]
REMARK SMILES IDX 13 1 14 2 15 3 16 4 17 5 18 6 19 7 20 8 21 9 22 10 23 11
REMARK SMILES IDX 24 12 25 13 26 14 12 15 11 16 10 17 9 18 8 19 7 20 6 21 5 22
REMARK SMILES IDX 4 23 3 24 2 25 1 26
REMARK H PARENT
REMARK Flexibility Score: inf
ROOT
ATOM      1  C   UNL     1     188.240 176.215 173.471  1.00  0.00     0.000 C 
ENDROOT
BRANCH   1   2
ATOM      2  C   UNL     1     188.195 176.977 174.805  1.00  0.00     0.000 C 
BRANCH   2   3
ATOM      3  C   UNL     1     187.436 176.216 175.908  1.00  0.00     0.000 C 
BRANCH   3   4
ATOM      4  C   UNL     1     186.848 174.857 175.482  1.00  0.00     0.000 C 
BRANCH   4   5
ATOM      5  C   UNL     1     187.227 173.713 176.433  1.00  0.00     0.000 C 
BRANCH   5   6
ATOM      6  C   UNL     1     186.441 173.808 177.750  1.00  0.00     0.000 C 
BRANCH   6   7
ATOM      7  C   UNL     1     187.354 173.877 178.986  1.00  0.00     0.000 C 
BRANCH   7   8
ATOM      8  C   UNL     1     186.934 174.911 180.052  1.00  0.00     0.000 C 
BRANCH   8   9
ATOM      9  C   UNL     1     186.908 176.372 179.569  1.00  0.00     0.000 C 
BRANCH   9  10
ATOM     10  C   UNL     1     187.439 177.359 180.623  1.00  0.00     0.006 C 
BRANCH  10  11
ATOM     11  C   UNL     1     188.434 176.699 181.588  1.00  0.00     0.053 C 
BRANCH  11  12
ATOM     12  C   UNL     1     189.637 177.559 181.823  1.00  0.00     0.041 C 
ATOM     13  O   UNL     1     190.699 177.053 182.271  1.00  0.00    -0.550 OA
ATOM     14  O   UNL     1     189.576 178.925 181.574  1.00  0.00    -0.550 OA
ENDBRANCH  11  12
ENDBRANCH  10  11
ENDBRANCH   9  10
ENDBRANCH   8   9
ENDBRANCH   7   8
ENDBRANCH   6   7
ENDBRANCH   5   6
ENDBRANCH   4   5
ENDBRANCH   3   4
ENDBRANCH   2   3
ENDBRANCH   1   2
BRANCH   1  15
ATOM     15  C   UNL     1     189.617 176.288 172.784  1.00  0.00     0.000 C 
BRANCH  15  16
ATOM     16  C   UNL     1     190.768 175.615 173.554  1.00  0.00     0.000 C 
BRANCH  16  17
ATOM     17  C   UNL     1     190.501 174.130 173.851  1.00  0.00     0.000 C 
BRANCH  17  18
ATOM     18  C   UNL     1     190.694 173.785 175.337  1.00  0.00    -0.000 C 
BRANCH  18  19
ATOM     19  C   UNL     1     191.080 175.011 176.182  1.00  0.00    -0.000 C 
BRANCH  19  20
ATOM     20  C   UNL     1     190.596 174.909 177.640  1.00  0.00    -0.000 C 
BRANCH  20  21
ATOM     21  C   UNL     1     190.309 176.259 178.321  1.00  0.00    -0.000 C 
BRANCH  21  22
ATOM     22  C   UNL     1     191.154 177.411 177.748  1.00  0.00    -0.000 C 
BRANCH  22  23
ATOM     23  C   UNL     1     190.446 178.769 177.847  1.00  0.00    -0.000 C 
BRANCH  23  24
ATOM     24  C   UNL     1     190.260 179.440 176.476  1.00  0.00    -0.000 C 
BRANCH  24  25
ATOM     25  C   UNL     1     191.237 178.863 175.447  1.00  0.00    -0.003 C 
ATOM     26  C   UNL     1     191.026 179.494 174.073  1.00  0.00     0.004 C 
ENDBRANCH  24  25
ENDBRANCH  23  24
ENDBRANCH  22  23
ENDBRANCH  21  22
ENDBRANCH  20  21
ENDBRANCH  19  20
ENDBRANCH  18  19
ENDBRANCH  17  18
ENDBRANCH  16  17
ENDBRANCH  15  16
ENDBRANCH   1  15
TORSDOF 22
ENDMDL
MODEL 2
REMARK VINA RESULT:    -3.116      1.809      3.275
REMARK INTER + INTRA:         -12.039
REMARK INTER:                  -6.787
REMARK INTRA:                  -5.253
REMARK UNBOUND:                -4.917
REMARK SMILES CCCCCCCCCCCCCCCCCCCCCCCC(=O)[O-]
REMARK SMILES IDX 13 1 14 2 15 3 16 4 17 5 18 6 19 7 20 8 21 9 22 10 23 11
REMARK SMILES IDX 24 12 25 13 26 14 12 15 11 16 10 17 9 18 8 19 7 20 6 21 5 22
REMARK SMILES IDX 4 23 3 24 2 25 1 26
REMARK H PARENT
REMARK Flexibility Score: inf
ROOT
ATOM      1  C   UNL     1     187.161 176.024 174.855  1.00  0.00     0.000 C 
ENDROOT
BRANCH   1   2
ATOM      2  C   UNL     1     187.482 176.443 176.299  1.00  0.00     0.000 C 
BRANCH   2   3
ATOM      3  C   UNL     1     186.306 177.154 176.995  1.00  0.00     0.000 C 
BRANCH   3   4
ATOM      4  C   UNL     1     185.689 176.394 178.185  1.00  0.00     0.000 C 
BRANCH   4   5
ATOM      5  C   UNL     1     184.947 175.118 177.762  1.00  0.00     0.000 C 
BRANCH   5   6
ATOM      6  C   UNL     1     185.633 173.867 178.331  1.00  0.00     0.000 C 
BRANCH   6   7
ATOM      7  C   UNL     1     186.754 174.203 179.331  1.00  0.00     0.000 C 
BRANCH   7   8
ATOM      8  C   UNL     1     188.170 173.770 178.896  1.00  0.00     0.000 C 
BRANCH   8   9
ATOM      9  C   UNL     1     189.260 174.843 179.066  1.00  0.00     0.000 C 
BRANCH   9  10
ATOM     10  C   UNL     1     188.927 175.863 180.169  1.00  0.00     0.006 C 
BRANCH  10  11
ATOM     11  C   UNL     1     189.854 177.085 180.129  1.00  0.00     0.053 C 
BRANCH  11  12
ATOM     12  C   UNL     1     189.417 178.083 179.102  1.00  0.00     0.041 C 
ATOM     13  O   UNL     1     188.388 178.781 179.294  1.00  0.00    -0.550 OA
ATOM     14  O   UNL     1     190.134 178.223 177.919  1.00  0.00    -0.550 OA
ENDBRANCH  11  12
ENDBRANCH  10  11
ENDBRANCH   9  10
ENDBRANCH   8   9
ENDBRANCH   7   8
ENDBRANCH   6   7
ENDBRANCH   5   6
ENDBRANCH   4   5
ENDBRANCH   3   4
ENDBRANCH   2   3
ENDBRANCH   1   2
BRANCH   1  15
ATOM     15  C   UNL     1     186.938 174.507 174.705  1.00  0.00     0.000 C 
BRANCH  15  16
ATOM     16  C   UNL     1     188.066 173.623 175.267  1.00  0.00     0.000 C 
BRANCH  16  17
ATOM     17  C   UNL     1     189.073 173.183 174.192  1.00  0.00     0.000 C 
BRANCH  17  18
ATOM     18  C   UNL     1     190.525 173.510 174.578  1.00  0.00    -0.000 C 
BRANCH  18  19
ATOM     19  C   UNL     1     190.636 174.127 175.983  1.00  0.00    -0.000 C 
BRANCH  19  20
ATOM     20  C   UNL     1     191.207 175.557 175.965  1.00  0.00    -0.000 C 
BRANCH  20  21
ATOM     21  C   UNL     1     191.344 176.180 174.564  1.00  0.00    -0.000 C 
BRANCH  21  22
ATOM     22  C   UNL     1     190.459 177.425 174.374  1.00  0.00    -0.000 C 
BRANCH  22  23
ATOM     23  C   UNL     1     190.029 177.626 172.914  1.00  0.00    -0.000 C 
BRANCH  23  24
ATOM     24  C   UNL     1     189.792 176.296 172.180  1.00  0.00    -0.000 C 
BRANCH  24  25
ATOM     25  C   UNL     1     188.460 176.318 171.422  1.00  0.00    -0.003 C 
ATOM     26  C   UNL     1     188.003 174.905 171.072  1.00  0.00     0.004 C 
ENDBRANCH  24  25
ENDBRANCH  23  24
ENDBRANCH  22  23
ENDBRANCH  21  22
ENDBRANCH  20  21
ENDBRANCH  19  20
ENDBRANCH  18  19
ENDBRANCH  17  18
ENDBRANCH  16  17
ENDBRANCH  15  16
ENDBRANCH   1  15
TORSDOF 22
ENDMDL
MODEL 3
REMARK VINA RESULT:    -2.966      1.562      3.614
REMARK INTER + INTRA:         -11.698
REMARK INTER:                  -7.297
REMARK INTRA:                  -4.401
REMARK UNBOUND:                -4.917
REMARK SMILES CCCCCCCCCCCCCCCCCCCCCCCC(=O)[O-]
REMARK SMILES IDX 13 1 14 2 15 3 16 4 17 5 18 6 19 7 20 8 21 9 22 10 23 11
REMARK SMILES IDX 24 12 25 13 26 14 12 15 11 16 10 17 9 18 8 19 7 20 6 21 5 22
REMARK SMILES IDX 4 23 3 24 2 25 1 26
REMARK H PARENT
REMARK Flexibility Score: inf
ROOT
ATOM      1  C   UNL     1     187.550 177.062 176.119  1.00  0.00     0.000 C 
ENDROOT
BRANCH   1   2
ATOM      2  C   UNL     1     186.724 175.798 175.825  1.00  0.00     0.000 C 
BRANCH   2   3
ATOM      3  C   UNL     1     186.354 175.013 177.097  1.00  0.00     0.000 C 
BRANCH   3   4
ATOM      4  C   UNL     1     187.242 173.789 177.395  1.00  0.00     0.000 C 
BRANCH   4   5
ATOM      5  C   UNL     1     187.705 173.724 178.857  1.00  0.00     0.000 C 
BRANCH   5   6
ATOM      6  C   UNL     1     188.022 175.126 179.398  1.00  0.00     0.000 C 
BRANCH   6   7
ATOM      7  C   UNL     1     189.501 175.515 179.222  1.00  0.00     0.000 C 
BRANCH   7   8
ATOM      8  C   UNL     1     189.758 177.017 178.983  1.00  0.00     0.000 C 
BRANCH   8   9
ATOM      9  C   UNL     1     190.875 177.632 179.844  1.00  0.00     0.000 C 
BRANCH   9  10
ATOM     10  C   UNL     1     190.338 178.581 180.930  1.00  0.00     0.006 C 
BRANCH  10  11
ATOM     11  C   UNL     1     189.460 177.851 181.956  1.00  0.00     0.053 C 
BRANCH  11  12
ATOM     12  C   UNL     1     188.055 178.367 181.956  1.00  0.00     0.041 C 
ATOM     13  O   UNL     1     187.218 177.927 182.786  1.00  0.00    -0.550 OA
ATOM     14  O   UNL     1     187.662 179.317 181.020  1.00  0.00    -0.550 OA
ENDBRANCH  11  12
ENDBRANCH  10  11
ENDBRANCH   9  10
ENDBRANCH   8   9
ENDBRANCH   7   8
ENDBRANCH   6   7
ENDBRANCH   5   6
ENDBRANCH   4   5
ENDBRANCH   3   4
ENDBRANCH   2   3
ENDBRANCH   1   2
BRANCH   1  15
ATOM     15  C   UNL     1     188.693 177.280 175.109  1.00  0.00     0.000 C 
BRANCH  15  16
ATOM     16  C   UNL     1     189.727 178.346 175.514  1.00  0.00     0.000 C 
BRANCH  16  17
ATOM     17  C   UNL     1     191.169 177.811 175.512  1.00  0.00     0.000 C 
BRANCH  17  18
ATOM     18  C   UNL     1     191.257 176.361 175.009  1.00  0.00    -0.000 C 
BRANCH  18  19
ATOM     19  C   UNL     1     191.409 175.346 176.156  1.00  0.00    -0.000 C 
BRANCH  19  20
ATOM     20  C   UNL     1     190.538 174.092 175.965  1.00  0.00    -0.000 C 
BRANCH  20  21
ATOM     21  C   UNL     1     190.408 173.611 174.508  1.00  0.00    -0.000 C 
BRANCH  21  22
ATOM     22  C   UNL     1     188.965 173.690 173.978  1.00  0.00    -0.000 C 
BRANCH  22  23
ATOM     23  C   UNL     1     188.853 174.522 172.693  1.00  0.00    -0.000 C 
BRANCH  23  24
ATOM     24  C   UNL     1     190.215 174.751 172.017  1.00  0.00    -0.000 C 
BRANCH  24  25
ATOM     25  C   UNL     1     190.265 176.123 171.335  1.00  0.00    -0.003 C 
ATOM     26  C   UNL     1     188.954 176.880 171.526  1.00  0.00     0.004 C 
ENDBRANCH  24  25
ENDBRANCH  23  24
ENDBRANCH  22  23
ENDBRANCH  21  22
ENDBRANCH  20  21
ENDBRANCH  19  20
ENDBRANCH  18  19
ENDBRANCH  17  18
ENDBRANCH  16  17
ENDBRANCH  15  16
ENDBRANCH   1  15
TORSDOF 22
ENDMDL
MODEL 4
REMARK VINA RESULT:    -2.962      1.518      3.182
REMARK INTER + INTRA:         -11.687
REMARK INTER:                  -7.434
REMARK INTRA:                  -4.253
REMARK UNBOUND:                -4.917
REMARK SMILES CCCCCCCCCCCCCCCCCCCCCCCC(=O)[O-]
REMARK SMILES IDX 13 1 14 2 15 3 16 4 17 5 18 6 19 7 20 8 21 9 22 10 23 11
REMARK SMILES IDX 24 12 25 13 26 14 12 15 11 16 10 17 9 18 8 19 7 20 6 21 5 22
REMARK SMILES IDX 4 23 3 24 2 25 1 26
REMARK H PARENT
REMARK Flexibility Score: inf
ROOT
ATOM      1  C   UNL     1     187.111 175.885 175.877  1.00  0.00     0.000 C 
ENDROOT
BRANCH   1   2
ATOM      2  C   UNL     1     185.808 176.002 176.685  1.00  0.00     0.000 C 
BRANCH   2   3
ATOM      3  C   UNL     1     184.964 174.714 176.657  1.00  0.00     0.000 C 
BRANCH   3   4
ATOM      4  C   UNL     1     185.367 173.643 177.689  1.00  0.00     0.000 C 
BRANCH   4   5
ATOM      5  C   UNL     1     185.226 174.123 179.140  1.00  0.00     0.000 C 
BRANCH   5   6
ATOM      6  C   UNL     1     186.599 174.245 179.817  1.00  0.00     0.000 C 
BRANCH   6   7
ATOM      7  C   UNL     1     187.750 173.742 178.928  1.00  0.00     0.000 C 
BRANCH   7   8
ATOM      8  C   UNL     1     189.058 174.555 179.028  1.00  0.00     0.000 C 
BRANCH   8   9
ATOM      9  C   UNL     1     188.870 176.067 179.248  1.00  0.00     0.000 C 
BRANCH   9  10
ATOM     10  C   UNL     1     189.578 176.579 180.514  1.00  0.00     0.006 C 
BRANCH  10  11
ATOM     11  C   UNL     1     188.596 176.831 181.667  1.00  0.00     0.053 C 
BRANCH  11  12
ATOM     12  C   UNL     1     188.727 178.217 182.218  1.00  0.00     0.041 C 
ATOM     13  O   UNL     1     189.696 178.945 181.878  1.00  0.00    -0.550 OA
ATOM     14  O   UNL     1     187.793 178.695 183.129  1.00  0.00    -0.550 OA
ENDBRANCH  11  12
ENDBRANCH  10  11
ENDBRANCH   9  10
ENDBRANCH   8   9
ENDBRANCH   7   8
ENDBRANCH   6   7
ENDBRANCH   5   6
ENDBRANCH   4   5
ENDBRANCH   3   4
ENDBRANCH   2   3
ENDBRANCH   1   2
BRANCH   1  15
ATOM     15  C   UNL     1     187.033 174.824 174.763  1.00  0.00     0.000 C 
BRANCH  15  16
ATOM     16  C   UNL     1     188.102 173.719 174.838  1.00  0.00     0.000 C 
BRANCH  16  17
ATOM     17  C   UNL     1     189.345 174.141 175.639  1.00  0.00     0.000 C 
BRANCH  17  18
ATOM     18  C   UNL     1     190.649 173.611 175.021  1.00  0.00    -0.000 C 
BRANCH  18  19
ATOM     19  C   UNL     1     190.473 173.172 173.557  1.00  0.00    -0.000 C 
BRANCH  19  20
ATOM     20  C   UNL     1     191.012 174.207 172.553  1.00  0.00    -0.000 C 
BRANCH  20  21
ATOM     21  C   UNL     1     189.947 175.149 171.961  1.00  0.00    -0.000 C 
BRANCH  21  22
ATOM     22  C   UNL     1     190.244 176.634 172.234  1.00  0.00    -0.000 C 
BRANCH  22  23
ATOM     23  C   UNL     1     189.410 177.200 173.392  1.00  0.00    -0.000 C 
BRANCH  23  24
ATOM     24  C   UNL     1     190.260 177.991 174.400  1.00  0.00    -0.000 C 
BRANCH  24  25
ATOM     25  C   UNL     1     191.366 177.112 174.994  1.00  0.00    -0.003 C 
ATOM     26  C   UNL     1     191.305 177.108 176.519  1.00  0.00     0.004 C 
ENDBRANCH  24  25
ENDBRANCH  23  24
ENDBRANCH  22  23
ENDBRANCH  21  22
ENDBRANCH  20  21
ENDBRANCH  19  20
ENDBRANCH  18  19
ENDBRANCH  17  18
ENDBRANCH  16  17
ENDBRANCH  15  16
ENDBRANCH   1  15
TORSDOF 22
ENDMDL
MODEL 5
REMARK VINA RESULT:    -2.956      2.737      5.709
REMARK INTER + INTRA:         -11.674
REMARK INTER:                  -7.013
REMARK INTRA:                  -4.661
REMARK UNBOUND:                -4.917
REMARK SMILES CCCCCCCCCCCCCCCCCCCCCCCC(=O)[O-]
REMARK SMILES IDX 13 1 14 2 15 3 16 4 17 5 18 6 19 7 20 8 21 9 22 10 23 11
REMARK SMILES IDX 24 12 25 13 26 14 12 15 11 16 10 17 9 18 8 19 7 20 6 21 5 22
REMARK SMILES IDX 4 23 3 24 2 25 1 26
REMARK H PARENT
REMARK Flexibility Score: inf
ROOT
ATOM      1  C   UNL     1     186.426 176.704 175.899  1.00  0.00     0.000 C 
ENDROOT
BRANCH   1   2
ATOM      2  C   UNL     1     187.545 175.996 175.116  1.00  0.00     0.000 C 
BRANCH   2   3
ATOM      3  C   UNL     1     187.022 175.207 173.901  1.00  0.00     0.000 C 
BRANCH   3   4
ATOM      4  C   UNL     1     187.922 174.047 173.434  1.00  0.00     0.000 C 
BRANCH   4   5
ATOM      5  C   UNL     1     188.686 173.378 174.586  1.00  0.00     0.000 C 
BRANCH   5   6
ATOM      6  C   UNL     1     190.203 173.479 174.373  1.00  0.00     0.000 C 
BRANCH   6   7
ATOM      7  C   UNL     1     190.576 174.119 173.024  1.00  0.00     0.000 C 
BRANCH   7   8
ATOM      8  C   UNL     1     191.000 175.601 173.098  1.00  0.00     0.000 C 
BRANCH   8   9
ATOM      9  C   UNL     1     191.350 176.109 174.508  1.00  0.00     0.000 C 
BRANCH   9  10
ATOM     10  C   UNL     1     190.861 177.546 174.762  1.00  0.00     0.006 C 
BRANCH  10  11
ATOM     11  C   UNL     1     190.195 178.161 173.524  1.00  0.00     0.053 C 
BRANCH  11  12
ATOM     12  C   UNL     1     190.386 179.645 173.467  1.00  0.00     0.041 C 
ATOM     13  O   UNL     1     191.519 180.129 173.207  1.00  0.00    -0.550 OA
ATOM     14  O   UNL     1     189.317 180.495 173.727  1.00  0.00    -0.550 OA
ENDBRANCH  11  12
ENDBRANCH  10  11
ENDBRANCH   9  10
ENDBRANCH   8   9
ENDBRANCH   7   8
ENDBRANCH   6   7
ENDBRANCH   5   6
ENDBRANCH   4   5
ENDBRANCH   3   4
ENDBRANCH   2   3
ENDBRANCH   1   2
BRANCH   1  15
ATOM     15  C   UNL     1     186.173 176.077 177.283  1.00  0.00     0.000 C 
BRANCH  15  16
ATOM     16  C   UNL     1     185.795 174.585 177.265  1.00  0.00     0.000 C 
BRANCH  16  17
ATOM     17  C   UNL     1     186.906 173.680 177.825  1.00  0.00     0.000 C 
BRANCH  17  18
ATOM     18  C   UNL     1     187.513 174.232 179.125  1.00  0.00    -0.000 C 
BRANCH  18  19
ATOM     19  C   UNL     1     189.051 174.200 179.117  1.00  0.00    -0.000 C 
BRANCH  19  20
ATOM     20  C   UNL     1     189.657 174.874 177.873  1.00  0.00    -0.000 C 
BRANCH  20  21
ATOM     21  C   UNL     1     190.397 176.195 178.149  1.00  0.00    -0.000 C 
BRANCH  21  22
ATOM     22  C   UNL     1     189.459 177.415 178.166  1.00  0.00    -0.000 C 
BRANCH  22  23
ATOM     23  C   UNL     1     189.173 177.921 179.587  1.00  0.00    -0.000 C 
BRANCH  23  24
ATOM     24  C   UNL     1     190.286 177.549 180.581  1.00  0.00    -0.000 C 
BRANCH  24  25
ATOM     25  C   UNL     1     189.722 176.750 181.761  1.00  0.00    -0.003 C 
ATOM     26  C   UNL     1     188.196 176.755 181.750  1.00  0.00     0.004 C 
ENDBRANCH  24  25
ENDBRANCH  23  24
ENDBRANCH  22  23
ENDBRANCH  21  22
ENDBRANCH  20  21
ENDBRANCH  19  20
ENDBRANCH  18  19
ENDBRANCH  17  18
ENDBRANCH  16  17
ENDBRANCH  15  16
ENDBRANCH   1  15
TORSDOF 22
ENDMDL
MODEL 6
REMARK VINA RESULT:    -2.951      3.284      6.086
REMARK INTER + INTRA:         -11.663
REMARK INTER:                  -6.640
REMARK INTRA:                  -5.023
REMARK UNBOUND:                -4.917
REMARK SMILES CCCCCCCCCCCCCCCCCCCCCCCC(=O)[O-]
REMARK SMILES IDX 13 1 14 2 15 3 16 4 17 5 18 6 19 7 20 8 21 9 22 10 23 11
REMARK SMILES IDX 24 12 25 13 26 14 12 15 11 16 10 17 9 18 8 19 7 20 6 21 5 22
REMARK SMILES IDX 4 23 3 24 2 25 1 26
REMARK H PARENT
REMARK Flexibility Score: inf
ROOT
ATOM      1  C   UNL     1     188.664 178.323 172.486  1.00  0.00     0.000 C 
ENDROOT
BRANCH   1   2
ATOM      2  C   UNL     1     188.777 177.187 171.456  1.00  0.00     0.000 C 
BRANCH   2   3
ATOM      3  C   UNL     1     190.158 176.503 171.464  1.00  0.00     0.000 C 
BRANCH   3   4
ATOM      4  C   UNL     1     190.128 174.964 171.412  1.00  0.00     0.000 C 
BRANCH   4   5
ATOM      5  C   UNL     1     190.877 174.308 172.580  1.00  0.00     0.000 C 
BRANCH   5   6
ATOM      6  C   UNL     1     191.118 175.315 173.715  1.00  0.00     0.000 C 
BRANCH   6   7
ATOM      7  C   UNL     1     190.789 174.739 175.104  1.00  0.00     0.000 C 
BRANCH   7   8
ATOM      8  C   UNL     1     189.292 174.465 175.361  1.00  0.00     0.000 C 
BRANCH   8   9
ATOM      9  C   UNL     1     188.334 175.563 174.865  1.00  0.00     0.000 C 
BRANCH   9  10
ATOM     10  C   UNL     1     187.020 174.997 174.299  1.00  0.00     0.006 C 
BRANCH  10  11
ATOM     11  C   UNL     1     187.242 173.713 173.488  1.00  0.00     0.053 C 
BRANCH  11  12
ATOM     12  C   UNL     1     186.412 172.578 174.001  1.00  0.00     0.041 C 
ATOM     13  O   UNL     1     186.717 172.007 175.081  1.00  0.00    -0.550 OA
ATOM     14  O   UNL     1     185.315 172.132 173.273  1.00  0.00    -0.550 OA
ENDBRANCH  11  12
ENDBRANCH  10  11
ENDBRANCH   9  10
ENDBRANCH   8   9
ENDBRANCH   7   8
ENDBRANCH   6   7
ENDBRANCH   5   6
ENDBRANCH   4   5
ENDBRANCH   3   4
ENDBRANCH   2   3
ENDBRANCH   1   2
BRANCH   1  15
ATOM     15  C   UNL     1     190.010 178.665 173.154  1.00  0.00     0.000 C 
BRANCH  15  16
ATOM     16  C   UNL     1     189.945 178.892 174.675  1.00  0.00     0.000 C 
BRANCH  16  17
ATOM     17  C   UNL     1     191.265 178.552 175.388  1.00  0.00     0.000 C 
BRANCH  17  18
ATOM     18  C   UNL     1     191.038 177.893 176.758  1.00  0.00    -0.000 C 
BRANCH  18  19
ATOM     19  C   UNL     1     189.658 178.226 177.352  1.00  0.00    -0.000 C 
BRANCH  19  20
ATOM     20  C   UNL     1     189.062 177.064 178.167  1.00  0.00    -0.000 C 
BRANCH  20  21
ATOM     21  C   UNL     1     190.090 176.043 178.686  1.00  0.00    -0.000 C 
BRANCH  21  22
ATOM     22  C   UNL     1     189.449 174.710 179.108  1.00  0.00    -0.000 C 
BRANCH  22  23
ATOM     23  C   UNL     1     187.915 174.763 179.098  1.00  0.00    -0.000 C 
BRANCH  23  24
ATOM     24  C   UNL     1     187.292 173.659 178.227  1.00  0.00    -0.000 C 
BRANCH  24  25
ATOM     25  C   UNL     1     185.763 173.674 178.335  1.00  0.00    -0.003 C 
ATOM     26  C   UNL     1     185.138 174.462 177.187  1.00  0.00     0.004 C 
ENDBRANCH  24  25
ENDBRANCH  23  24
ENDBRANCH  22  23
ENDBRANCH  21  22
ENDBRANCH  20  21
ENDBRANCH  19  20
ENDBRANCH  18  19
ENDBRANCH  17  18
ENDBRANCH  16  17
ENDBRANCH  15  16
ENDBRANCH   1  15
TORSDOF 22
ENDMDL
MODEL 7
REMARK VINA RESULT:    -2.950      1.536      3.776
REMARK INTER + INTRA:         -11.661
REMARK INTER:                  -6.926
REMARK INTRA:                  -4.736
REMARK UNBOUND:                -4.917
REMARK SMILES CCCCCCCCCCCCCCCCCCCCCCCC(=O)[O-]
REMARK SMILES IDX 13 1 14 2 15 3 16 4 17 5 18 6 19 7 20 8 21 9 22 10 23 11
REMARK SMILES IDX 24 12 25 13 26 14 12 15 11 16 10 17 9 18 8 19 7 20 6 21 5 22
REMARK SMILES IDX 4 23 3 24 2 25 1 26
REMARK H PARENT
REMARK Flexibility Score: inf
ROOT
ATOM      1  C   UNL     1     188.880 177.886 176.781  1.00  0.00     0.000 C 
ENDROOT
BRANCH   1   2
ATOM      2  C   UNL     1     188.134 176.672 177.360  1.00  0.00     0.000 C 
BRANCH   2   3
ATOM      3  C   UNL     1     189.067 175.489 177.680  1.00  0.00     0.000 C 
BRANCH   3   4
ATOM      4  C   UNL     1     188.508 174.465 178.685  1.00  0.00     0.000 C 
BRANCH   4   5
ATOM      5  C   UNL     1     187.340 173.644 178.119  1.00  0.00     0.000 C 
BRANCH   5   6
ATOM      6  C   UNL     1     186.026 173.986 178.838  1.00  0.00     0.000 C 
BRANCH   6   7
ATOM      7  C   UNL     1     186.241 174.439 180.293  1.00  0.00     0.000 C 
BRANCH   7   8
ATOM      8  C   UNL     1     185.384 175.642 180.737  1.00  0.00     0.000 C 
BRANCH   8   9
ATOM      9  C   UNL     1     186.150 176.969 180.885  1.00  0.00     0.000 C 
BRANCH   9  10
ATOM     10  C   UNL     1     187.569 176.779 181.447  1.00  0.00     0.006 C 
BRANCH  10  11
ATOM     11  C   UNL     1     188.578 177.749 180.817  1.00  0.00     0.053 C 
BRANCH  11  12
ATOM     12  C   UNL     1     189.989 177.284 181.002  1.00  0.00     0.041 C 
ATOM     13  O   UNL     1     190.336 176.722 182.074  1.00  0.00    -0.550 OA
ATOM     14  O   UNL     1     190.929 177.496 180.000  1.00  0.00    -0.550 OA
ENDBRANCH  11  12
ENDBRANCH  10  11
ENDBRANCH   9  10
ENDBRANCH   8   9
ENDBRANCH   7   8
ENDBRANCH   6   7
ENDBRANCH   5   6
ENDBRANCH   4   5
ENDBRANCH   3   4
ENDBRANCH   2   3
ENDBRANCH   1   2
BRANCH   1  15
ATOM     15  C   UNL     1     188.521 178.165 175.309  1.00  0.00     0.000 C 
BRANCH  15  16
ATOM     16  C   UNL     1     189.645 177.882 174.297  1.00  0.00     0.000 C 
BRANCH  16  17
ATOM     17  C   UNL     1     190.958 177.443 174.968  1.00  0.00     0.000 C 
BRANCH  17  18
ATOM     18  C   UNL     1     191.311 175.978 174.665  1.00  0.00    -0.000 C 
BRANCH  18  19
ATOM     19  C   UNL     1     190.911 175.557 173.241  1.00  0.00    -0.000 C 
BRANCH  19  20
ATOM     20  C   UNL     1     190.338 174.130 173.177  1.00  0.00    -0.000 C 
BRANCH  20  21
ATOM     21  C   UNL     1     189.921 173.539 174.536  1.00  0.00    -0.000 C 
BRANCH  21  22
ATOM     22  C   UNL     1     188.403 173.319 174.652  1.00  0.00    -0.000 C 
BRANCH  22  23
ATOM     23  C   UNL     1     187.611 174.087 173.584  1.00  0.00    -0.000 C 
BRANCH  23  24
ATOM     24  C   UNL     1     186.795 175.248 174.174  1.00  0.00    -0.000 C 
BRANCH  24  25
ATOM     25  C   UNL     1     185.617 174.723 175.004  1.00  0.00    -0.003 C 
ATOM     26  C   UNL     1     184.929 175.856 175.760  1.00  0.00     0.004 C 
ENDBRANCH  24  25
ENDBRANCH  23  24
ENDBRANCH  22  23
ENDBRANCH  21  22
ENDBRANCH  20  21
ENDBRANCH  19  20
ENDBRANCH  18  19
ENDBRANCH  17  18
ENDBRANCH  16  17
ENDBRANCH  15  16
ENDBRANCH   1  15
TORSDOF 22
ENDMDL
MODEL 8
REMARK VINA RESULT:    -2.944      3.319      6.761
REMARK INTER + INTRA:         -11.647
REMARK INTER:                  -6.970
REMARK INTRA:                  -4.677
REMARK UNBOUND:                -4.917
REMARK SMILES CCCCCCCCCCCCCCCCCCCCCCCC(=O)[O-]
REMARK SMILES IDX 13 1 14 2 15 3 16 4 17 5 18 6 19 7 20 8 21 9 22 10 23 11
REMARK SMILES IDX 24 12 25 13 26 14 12 15 11 16 10 17 9 18 8 19 7 20 6 21 5 22
REMARK SMILES IDX 4 23 3 24 2 25 1 26
REMARK H PARENT
REMARK Flexibility Score: inf
ROOT
ATOM      1  C   UNL     1     186.362 175.284 177.389  1.00  0.00     0.000 C 
ENDROOT
BRANCH   1   2
ATOM      2  C   UNL     1     186.845 175.875 176.053  1.00  0.00     0.000 C 
BRANCH   2   3
ATOM      3  C   UNL     1     187.596 177.209 176.222  1.00  0.00     0.000 C 
BRANCH   3   4
ATOM      4  C   UNL     1     188.597 177.546 175.101  1.00  0.00     0.000 C 
BRANCH   4   5
ATOM      5  C   UNL     1     189.975 177.966 175.631  1.00  0.00     0.000 C 
BRANCH   5   6
ATOM      6  C   UNL     1     191.063 176.980 175.182  1.00  0.00     0.000 C 
BRANCH   6   7
ATOM      7  C   UNL     1     191.364 175.902 176.238  1.00  0.00     0.000 C 
BRANCH   7   8
ATOM      8  C   UNL     1     191.204 174.446 175.751  1.00  0.00     0.000 C 
BRANCH   8   9
ATOM      9  C   UNL     1     189.752 173.992 175.520  1.00  0.00     0.000 C 
BRANCH   9  10
ATOM     10  C   UNL     1     189.523 173.419 174.110  1.00  0.00     0.006 C 
BRANCH  10  11
ATOM     11  C   UNL     1     189.166 174.509 173.091  1.00  0.00     0.053 C 
BRANCH  11  12
ATOM     12  C   UNL     1     190.283 174.757 172.125  1.00  0.00     0.041 C 
ATOM     13  O   UNL     1     190.267 175.776 171.386  1.00  0.00    -0.550 OA
ATOM     14  O   UNL     1     191.330 173.848 172.022  1.00  0.00    -0.550 OA
ENDBRANCH  11  12
ENDBRANCH  10  11
ENDBRANCH   9  10
ENDBRANCH   8   9
ENDBRANCH   7   8
ENDBRANCH   6   7
ENDBRANCH   5   6
ENDBRANCH   4   5
ENDBRANCH   3   4
ENDBRANCH   2   3
ENDBRANCH   1   2
BRANCH   1  15
ATOM     15  C   UNL     1     186.814 173.827 177.599  1.00  0.00     0.000 C 
BRANCH  15  16
ATOM     16  C   UNL     1     187.894 173.627 178.677  1.00  0.00     0.000 C 
BRANCH  16  17
ATOM     17  C   UNL     1     188.199 174.913 179.464  1.00  0.00     0.000 C 
BRANCH  17  18
ATOM     18  C   UNL     1     189.511 175.577 179.016  1.00  0.00    -0.000 C 
BRANCH  18  19
ATOM     19  C   UNL     1     189.706 176.973 179.633  1.00  0.00    -0.000 C 
BRANCH  19  20
ATOM     20  C   UNL     1     188.476 177.455 180.423  1.00  0.00    -0.000 C 
BRANCH  20  21
ATOM     21  C   UNL     1     187.628 178.524 179.710  1.00  0.00    -0.000 C 
BRANCH  21  22
ATOM     22  C   UNL     1     186.126 178.191 179.706  1.00  0.00    -0.000 C 
BRANCH  22  23
ATOM     23  C   UNL     1     185.726 177.251 180.852  1.00  0.00    -0.000 C 
BRANCH  23  24
ATOM     24  C   UNL     1     184.722 176.175 180.410  1.00  0.00    -0.000 C 
BRANCH  24  25
ATOM     25  C   UNL     1     185.107 174.802 180.972  1.00  0.00    -0.003 C 
ATOM     26  C   UNL     1     184.061 173.749 180.617  1.00  0.00     0.004 C 
ENDBRANCH  24  25
ENDBRANCH  23  24
ENDBRANCH  22  23
ENDBRANCH  21  22
ENDBRANCH  20  21
ENDBRANCH  19  20
ENDBRANCH  18  19
ENDBRANCH  17  18
ENDBRANCH  16  17
ENDBRANCH  15  16
ENDBRANCH   1  15
TORSDOF 22
ENDMDL
MODEL 9
REMARK VINA RESULT:    -2.935      1.193      2.734
REMARK INTER + INTRA:         -11.627
REMARK INTER:                  -6.704
REMARK INTRA:                  -4.923
REMARK UNBOUND:                -4.917
REMARK SMILES CCCCCCCCCCCCCCCCCCCCCCCC(=O)[O-]
REMARK SMILES IDX 13 1 14 2 15 3 16 4 17 5 18 6 19 7 20 8 21 9 22 10 23 11
REMARK SMILES IDX 24 12 25 13 26 14 12 15 11 16 10 17 9 18 8 19 7 20 6 21 5 22
REMARK SMILES IDX 4 23 3 24 2 25 1 26
REMARK H PARENT
REMARK Flexibility Score: inf
ROOT
ATOM      1  C   UNL     1     186.612 177.348 175.344  1.00  0.00     0.000 C 
ENDROOT
BRANCH   1   2
ATOM      2  C   UNL     1     187.112 175.998 174.803  1.00  0.00     0.000 C 
BRANCH   2   3
ATOM      3  C   UNL     1     186.173 174.827 175.146  1.00  0.00     0.000 C 
BRANCH   3   4
ATOM      4  C   UNL     1     186.778 173.747 176.063  1.00  0.00     0.000 C 
BRANCH   4   5
ATOM      5  C   UNL     1     186.102 173.680 177.441  1.00  0.00     0.000 C 
BRANCH   5   6
ATOM      6  C   UNL     1     187.144 173.726 178.568  1.00  0.00     0.000 C 
BRANCH   6   7
ATOM      7  C   UNL     1     186.624 174.430 179.834  1.00  0.00     0.000 C 
BRANCH   7   8
ATOM      8  C   UNL     1     185.993 175.818 179.597  1.00  0.00     0.000 C 
BRANCH   8   9
ATOM      9  C   UNL     1     186.364 176.889 180.638  1.00  0.00     0.000 C 
BRANCH   9  10
ATOM     10  C   UNL     1     187.724 176.625 181.308  1.00  0.00     0.006 C 
BRANCH  10  11
ATOM     11  C   UNL     1     188.252 177.855 182.057  1.00  0.00     0.053 C 
BRANCH  11  12
ATOM     12  C   UNL     1     189.718 178.060 181.831  1.00  0.00     0.041 C 
ATOM     13  O   UNL     1     190.135 179.123 181.302  1.00  0.00    -0.550 OA
ATOM     14  O   UNL     1     190.622 177.064 182.182  1.00  0.00    -0.550 OA
ENDBRANCH  11  12
ENDBRANCH  10  11
ENDBRANCH   9  10
ENDBRANCH   8   9
ENDBRANCH   7   8
ENDBRANCH   6   7
ENDBRANCH   5   6
ENDBRANCH   4   5
ENDBRANCH   3   4
ENDBRANCH   2   3
ENDBRANCH   1   2
BRANCH   1  15
ATOM     15  C   UNL     1     187.616 178.021 176.300  1.00  0.00     0.000 C 
BRANCH  15  16
ATOM     16  C   UNL     1     188.274 177.080 177.325  1.00  0.00     0.000 C 
BRANCH  16  17
ATOM     17  C   UNL     1     189.479 177.719 178.036  1.00  0.00     0.000 C 
BRANCH  17  18
ATOM     18  C   UNL     1     190.465 176.670 178.576  1.00  0.00    -0.000 C 
BRANCH  18  19
ATOM     19  C   UNL     1     190.179 175.258 178.035  1.00  0.00    -0.000 C 
BRANCH  19  20
ATOM     20  C   UNL     1     191.127 174.851 176.893  1.00  0.00    -0.000 C 
BRANCH  20  21
ATOM     21  C   UNL     1     190.429 174.519 175.562  1.00  0.00    -0.000 C 
BRANCH  21  22
ATOM     22  C   UNL     1     190.768 175.518 174.442  1.00  0.00    -0.000 C 
BRANCH  22  23
ATOM     23  C   UNL     1     191.392 176.815 174.977  1.00  0.00    -0.000 C 
BRANCH  23  24
ATOM     24  C   UNL     1     190.749 178.073 174.372  1.00  0.00    -0.000 C 
BRANCH  24  25
ATOM     25  C   UNL     1     189.919 177.722 173.132  1.00  0.00    -0.003 C 
ATOM     26  C   UNL     1     188.957 178.852 172.776  1.00  0.00     0.004 C 
ENDBRANCH  24  25
ENDBRANCH  23  24
ENDBRANCH  22  23
ENDBRANCH  21  22
ENDBRANCH  20  21
ENDBRANCH  19  20
ENDBRANCH  18  19
ENDBRANCH  17  18
ENDBRANCH  16  17
ENDBRANCH  15  16
ENDBRANCH   1  15
TORSDOF 22
ENDMDL
