MODEL 1
REMARK VINA RESULT:    -5.136      0.000      0.000
REMARK INTER + INTRA:         -17.488
REMARK INTER:                 -12.941
REMARK INTRA:                  -4.547
REMARK UNBOUND:                -4.547
REMARK SMILES CCCCCCCCCCCCCCCCCCCCCCCCCCCC(=O)[O-]
REMARK SMILES IDX 15 1 16 2 17 3 18 4 19 5 20 6 21 7 22 8 23 9 24 10 25 11
REMARK SMILES IDX 26 12 27 13 28 14 29 15 30 16 14 17 13 18 12 19 11 20 10 21
REMARK SMILES IDX 9 22 8 23 7 24 6 25 5 26 4 27 3 28 2 29 1 30
REMARK H PARENT
REMARK Flexibility Score: inf
ROOT
ATOM      1  C   UNL     1      -0.368   3.983  25.289  1.00  0.00     0.000 C 
ENDROOT
BRANCH   1   2
ATOM      2  C   UNL     1      -0.384   5.055  26.391  1.00  0.00     0.000 C 
BRANCH   2   3
ATOM      3  C   UNL     1      -0.480   4.420  27.786  1.00  0.00     0.000 C 
BRANCH   3   4
ATOM      4  C   UNL     1      -1.527   5.114  28.672  1.00  0.00     0.000 C 
BRANCH   4   5
ATOM      5  C   UNL     1      -0.937   6.288  29.474  1.00  0.00     0.000 C 
BRANCH   5   6
ATOM      6  C   UNL     1       0.592   6.168  29.648  1.00  0.00     0.000 C 
BRANCH   6   7
ATOM      7  C   UNL     1       1.065   6.352  31.099  1.00  0.00     0.000 C 
BRANCH   7   8
ATOM      8  C   UNL     1       1.502   5.037  31.758  1.00  0.00     0.000 C 
BRANCH   8   9
ATOM      9  C   UNL     1       2.423   4.236  30.827  1.00  0.00     0.000 C 
BRANCH   9  10
ATOM     10  C   UNL     1       3.819   4.863  30.687  1.00  0.00     0.000 C 
BRANCH  10  11
ATOM     11  C   UNL     1       4.504   4.484  29.363  1.00  0.00     0.000 C 
BRANCH  11  12
ATOM     12  C   UNL     1       4.009   5.330  28.179  1.00  0.00     0.006 C 
BRANCH  12  13
ATOM     13  C   UNL     1       3.283   4.493  27.116  1.00  0.00     0.053 C 
BRANCH  13  14
ATOM     14  C   UNL     1       3.397   5.140  25.772  1.00  0.00     0.041 C 
ATOM     15  O   UNL     1       4.118   4.624  24.879  1.00  0.00    -0.550 OA
ATOM     16  O   UNL     1       2.736   6.335  25.517  1.00  0.00    -0.550 OA
ENDBRANCH  13  14
ENDBRANCH  12  13
ENDBRANCH  11  12
ENDBRANCH  10  11
ENDBRANCH   9  10
ENDBRANCH   8   9
ENDBRANCH   7   8
ENDBRANCH   6   7
ENDBRANCH   5   6
ENDBRANCH   4   5
ENDBRANCH   3   4
ENDBRANCH   2   3
ENDBRANCH   1   2
BRANCH   1  17
ATOM     17  C   UNL     1      -0.073   4.559  23.891  1.00  0.00     0.000 C 
BRANCH  17  18
ATOM     18  C   UNL     1      -1.252   4.513  22.902  1.00  0.00     0.000 C 
BRANCH  18  19
ATOM     19  C   UNL     1      -1.287   5.718  21.947  1.00  0.00     0.000 C 
BRANCH  19  20
ATOM     20  C   UNL     1      -2.545   6.576  22.163  1.00  0.00     0.000 C 
BRANCH  20  21
ATOM     21  C   UNL     1      -2.662   7.064  23.617  1.00  0.00     0.000 C 
BRANCH  21  22
ATOM     22  C   UNL     1      -3.992   6.651  24.268  1.00  0.00    -0.000 C 
BRANCH  22  23
ATOM     23  C   UNL     1      -3.782   5.972  25.632  1.00  0.00    -0.000 C 
BRANCH  23  24
ATOM     24  C   UNL     1      -4.110   4.469  25.613  1.00  0.00    -0.000 C 
BRANCH  24  25
ATOM     25  C   UNL     1      -5.560   4.154  25.195  1.00  0.00    -0.000 C 
BRANCH  25  26
ATOM     26  C   UNL     1      -5.654   2.919  24.282  1.00  0.00    -0.000 C 
BRANCH  26  27
ATOM     27  C   UNL     1      -4.568   2.913  23.193  1.00  0.00    -0.000 C 
BRANCH  27  28
ATOM     28  C   UNL     1      -4.946   3.796  21.990  1.00  0.00    -0.000 C 
BRANCH  28  29
ATOM     29  C   UNL     1      -4.142   3.443  20.728  1.00  0.00    -0.003 C 
ATOM     30  C   UNL     1      -4.248   4.521  19.649  1.00  0.00     0.004 C 
ENDBRANCH  28  29
ENDBRANCH  27  28
ENDBRANCH  26  27
ENDBRANCH  25  26
ENDBRANCH  24  25
ENDBRANCH  23  24
ENDBRANCH  22  23
ENDBRANCH  21  22
ENDBRANCH  20  21
ENDBRANCH  19  20
ENDBRANCH  18  19
ENDBRANCH  17  18
ENDBRANCH   1  17
TORSDOF 26
ENDMDL
MODEL 2
REMARK VINA RESULT:    -5.067      2.653      8.595
REMARK INTER + INTRA:         -17.316
REMARK INTER:                 -12.484
REMARK INTRA:                  -4.832
REMARK UNBOUND:                -4.547
REMARK SMILES CCCCCCCCCCCCCCCCCCCCCCCCCCCC(=O)[O-]
REMARK SMILES IDX 15 1 16 2 17 3 18 4 19 5 20 6 21 7 22 8 23 9 24 10 25 11
REMARK SMILES IDX 26 12 27 13 28 14 29 15 30 16 14 17 13 18 12 19 11 20 10 21
REMARK SMILES IDX 9 22 8 23 7 24 6 25 5 26 4 27 3 28 2 29 1 30
REMARK H PARENT
REMARK Flexibility Score: inf
ROOT
ATOM      1  C   UNL     1      -1.333   5.686  22.108  1.00  0.00     0.000 C 
ENDROOT
BRANCH   1   2
ATOM      2  C   UNL     1      -1.871   6.824  22.992  1.00  0.00     0.000 C 
BRANCH   2   3
ATOM      3  C   UNL     1      -3.405   6.857  22.986  1.00  0.00     0.000 C 
BRANCH   3   4
ATOM      4  C   UNL     1      -4.002   6.498  24.356  1.00  0.00     0.000 C 
BRANCH   4   5
ATOM      5  C   UNL     1      -5.468   6.033  24.259  1.00  0.00     0.000 C 
BRANCH   5   6
ATOM      6  C   UNL     1      -5.673   4.619  24.843  1.00  0.00     0.000 C 
BRANCH   6   7
ATOM      7  C   UNL     1      -4.358   3.882  25.151  1.00  0.00     0.000 C 
BRANCH   7   8
ATOM      8  C   UNL     1      -3.955   2.891  24.051  1.00  0.00     0.000 C 
BRANCH   8   9
ATOM      9  C   UNL     1      -4.900   2.994  22.845  1.00  0.00     0.000 C 
BRANCH   9  10
ATOM     10  C   UNL     1      -4.173   3.387  21.550  1.00  0.00     0.000 C 
BRANCH  10  11
ATOM     11  C   UNL     1      -5.145   3.784  20.426  1.00  0.00     0.000 C 
BRANCH  11  12
ATOM     12  C   UNL     1      -5.015   5.263  20.028  1.00  0.00     0.006 C 
BRANCH  12  13
ATOM     13  C   UNL     1      -3.681   5.574  19.335  1.00  0.00     0.053 C 
BRANCH  13  14
ATOM     14  C   UNL     1      -3.589   7.030  19.003  1.00  0.00     0.041 C 
ATOM     15  O   UNL     1      -2.761   7.765  19.600  1.00  0.00    -0.550 OA
ATOM     16  O   UNL     1      -4.446   7.583  18.059  1.00  0.00    -0.550 OA
ENDBRANCH  13  14
ENDBRANCH  12  13
ENDBRANCH  11  12
ENDBRANCH  10  11
ENDBRANCH   9  10
ENDBRANCH   8   9
ENDBRANCH   7   8
ENDBRANCH   6   7
ENDBRANCH   5   6
ENDBRANCH   4   5
ENDBRANCH   3   4
ENDBRANCH   2   3
ENDBRANCH   1   2
BRANCH   1  17
ATOM     17  C   UNL     1      -0.859   4.464  22.919  1.00  0.00     0.000 C 
BRANCH  17  18
ATOM     18  C   UNL     1       0.566   4.572  23.492  1.00  0.00     0.000 C 
BRANCH  18  19
ATOM     19  C   UNL     1       0.591   4.996  24.971  1.00  0.00     0.000 C 
BRANCH  19  20
ATOM     20  C   UNL     1       0.445   3.787  25.909  1.00  0.00     0.000 C 
BRANCH  20  21
ATOM     21  C   UNL     1      -0.897   3.804  26.661  1.00  0.00     0.000 C 
BRANCH  21  22
ATOM     22  C   UNL     1      -1.419   5.231  26.893  1.00  0.00    -0.000 C 
BRANCH  22  23
ATOM     23  C   UNL     1      -1.931   5.434  28.329  1.00  0.00    -0.000 C 
BRANCH  23  24
ATOM     24  C   UNL     1      -0.838   5.925  29.294  1.00  0.00    -0.000 C 
BRANCH  24  25
ATOM     25  C   UNL     1       0.370   6.572  28.588  1.00  0.00    -0.000 C 
BRANCH  25  26
ATOM     26  C   UNL     1       1.681   5.807  28.846  1.00  0.00    -0.000 C 
BRANCH  26  27
ATOM     27  C   UNL     1       1.500   4.661  29.855  1.00  0.00    -0.000 C 
BRANCH  27  28
ATOM     28  C   UNL     1       2.230   4.934  31.183  1.00  0.00    -0.000 C 
BRANCH  28  29
ATOM     29  C   UNL     1       1.308   5.565  32.240  1.00  0.00    -0.003 C 
ATOM     30  C   UNL     1       1.561   7.063  32.413  1.00  0.00     0.004 C 
ENDBRANCH  28  29
ENDBRANCH  27  28
ENDBRANCH  26  27
ENDBRANCH  25  26
ENDBRANCH  24  25
ENDBRANCH  23  24
ENDBRANCH  22  23
ENDBRANCH  21  22
ENDBRANCH  20  21
ENDBRANCH  19  20
ENDBRANCH  18  19
ENDBRANCH  17  18
ENDBRANCH   1  17
TORSDOF 26
ENDMDL
MODEL 3
REMARK VINA RESULT:    -5.059      2.929      8.625
REMARK INTER + INTRA:         -17.295
REMARK INTER:                 -11.943
REMARK INTRA:                  -5.352
REMARK UNBOUND:                -4.547
REMARK SMILES CCCCCCCCCCCCCCCCCCCCCCCCCCCC(=O)[O-]
REMARK SMILES IDX 15 1 16 2 17 3 18 4 19 5 20 6 21 7 22 8 23 9 24 10 25 11
REMARK SMILES IDX 26 12 27 13 28 14 29 15 30 16 14 17 13 18 12 19 11 20 10 21
REMARK SMILES IDX 9 22 8 23 7 24 6 25 5 26 4 27 3 28 2 29 1 30
REMARK H PARENT
REMARK Flexibility Score: inf
ROOT
ATOM      1  C   UNL     1      -1.414   4.490  28.283  1.00  0.00     0.000 C 
ENDROOT
BRANCH   1   2
ATOM      2  C   UNL     1      -1.830   4.504  26.803  1.00  0.00     0.000 C 
BRANCH   2   3
ATOM      3  C   UNL     1      -3.111   5.322  26.591  1.00  0.00     0.000 C 
BRANCH   3   4
ATOM      4  C   UNL     1      -3.167   5.969  25.197  1.00  0.00     0.000 C 
BRANCH   4   5
ATOM      5  C   UNL     1      -2.070   5.438  24.255  1.00  0.00     0.000 C 
BRANCH   5   6
ATOM      6  C   UNL     1      -1.588   6.510  23.256  1.00  0.00     0.000 C 
BRANCH   6   7
ATOM      7  C   UNL     1      -1.302   5.959  21.849  1.00  0.00     0.000 C 
BRANCH   7   8
ATOM      8  C   UNL     1      -2.322   6.427  20.802  1.00  0.00     0.000 C 
BRANCH   8   9
ATOM      9  C   UNL     1      -3.252   5.277  20.390  1.00  0.00     0.000 C 
BRANCH   9  10
ATOM     10  C   UNL     1      -4.708   5.506  20.822  1.00  0.00     0.000 C 
BRANCH  10  11
ATOM     11  C   UNL     1      -5.075   4.722  22.095  1.00  0.00     0.000 C 
BRANCH  11  12
ATOM     12  C   UNL     1      -4.378   3.354  22.166  1.00  0.00     0.006 C 
BRANCH  12  13
ATOM     13  C   UNL     1      -4.383   2.761  23.582  1.00  0.00     0.053 C 
BRANCH  13  14
ATOM     14  C   UNL     1      -5.752   2.845  24.180  1.00  0.00     0.041 C 
ATOM     15  O   UNL     1      -6.681   2.119  23.741  1.00  0.00    -0.550 OA
ATOM     16  O   UNL     1      -6.011   3.752  25.200  1.00  0.00    -0.550 OA
ENDBRANCH  13  14
ENDBRANCH  12  13
ENDBRANCH  11  12
ENDBRANCH  10  11
ENDBRANCH   9  10
ENDBRANCH   8   9
ENDBRANCH   7   8
ENDBRANCH   6   7
ENDBRANCH   5   6
ENDBRANCH   4   5
ENDBRANCH   3   4
ENDBRANCH   2   3
ENDBRANCH   1   2
BRANCH   1  17
ATOM     17  C   UNL     1      -1.662   5.835  28.993  1.00  0.00     0.000 C 
BRANCH  17  18
ATOM     18  C   UNL     1      -0.551   6.885  28.812  1.00  0.00     0.000 C 
BRANCH  18  19
ATOM     19  C   UNL     1      -0.966   8.052  27.900  1.00  0.00     0.000 C 
BRANCH  19  20
ATOM     20  C   UNL     1      -0.284   7.967  26.525  1.00  0.00     0.000 C 
BRANCH  20  21
ATOM     21  C   UNL     1       1.089   7.277  26.609  1.00  0.00     0.000 C 
BRANCH  21  22
ATOM     22  C   UNL     1       1.543   6.711  25.253  1.00  0.00    -0.000 C 
BRANCH  22  23
ATOM     23  C   UNL     1       1.413   5.180  25.193  1.00  0.00    -0.000 C 
BRANCH  23  24
ATOM     24  C   UNL     1       2.509   4.451  25.988  1.00  0.00    -0.000 C 
BRANCH  24  25
ATOM     25  C   UNL     1       1.973   3.331  26.902  1.00  0.00    -0.000 C 
BRANCH  25  26
ATOM     26  C   UNL     1       2.610   3.359  28.303  1.00  0.00    -0.000 C 
BRANCH  26  27
ATOM     27  C   UNL     1       2.059   4.502  29.173  1.00  0.00    -0.000 C 
BRANCH  27  28
ATOM     28  C   UNL     1       1.982   4.116  30.661  1.00  0.00    -0.000 C 
BRANCH  28  29
ATOM     29  C   UNL     1       1.505   5.280  31.545  1.00  0.00    -0.003 C 
ATOM     30  C   UNL     1       2.309   6.559  31.308  1.00  0.00     0.004 C 
ENDBRANCH  28  29
ENDBRANCH  27  28
ENDBRANCH  26  27
ENDBRANCH  25  26
ENDBRANCH  24  25
ENDBRANCH  23  24
ENDBRANCH  22  23
ENDBRANCH  21  22
ENDBRANCH  20  21
ENDBRANCH  19  20
ENDBRANCH  18  19
ENDBRANCH  17  18
ENDBRANCH   1  17
TORSDOF 26
ENDMDL
MODEL 4
REMARK VINA RESULT:    -5.005      0.964      2.571
REMARK INTER + INTRA:         -17.159
REMARK INTER:                 -12.343
REMARK INTRA:                  -4.816
REMARK UNBOUND:                -4.547
REMARK SMILES CCCCCCCCCCCCCCCCCCCCCCCCCCCC(=O)[O-]
REMARK SMILES IDX 15 1 16 2 17 3 18 4 19 5 20 6 21 7 22 8 23 9 24 10 25 11
REMARK SMILES IDX 26 12 27 13 28 14 29 15 30 16 14 17 13 18 12 19 11 20 10 21
REMARK SMILES IDX 9 22 8 23 7 24 6 25 5 26 4 27 3 28 2 29 1 30
REMARK H PARENT
REMARK Flexibility Score: inf
ROOT
ATOM      1  C   UNL     1      -0.691   4.356  26.857  1.00  0.00     0.000 C 
ENDROOT
BRANCH   1   2
ATOM      2  C   UNL     1      -1.755   4.605  27.938  1.00  0.00     0.000 C 
BRANCH   2   3
ATOM      3  C   UNL     1      -1.249   5.586  29.004  1.00  0.00     0.000 C 
BRANCH   3   4
ATOM      4  C   UNL     1      -0.615   6.843  28.387  1.00  0.00     0.000 C 
BRANCH   4   5
ATOM      5  C   UNL     1       0.459   7.470  29.295  1.00  0.00     0.000 C 
BRANCH   5   6
ATOM      6  C   UNL     1       0.147   7.270  30.793  1.00  0.00     0.000 C 
BRANCH   6   7
ATOM      7  C   UNL     1       1.358   6.802  31.618  1.00  0.00     0.000 C 
BRANCH   7   8
ATOM      8  C   UNL     1       1.307   5.308  31.963  1.00  0.00     0.000 C 
BRANCH   8   9
ATOM      9  C   UNL     1       2.200   4.495  31.016  1.00  0.00     0.000 C 
BRANCH   9  10
ATOM     10  C   UNL     1       3.495   5.232  30.640  1.00  0.00     0.000 C 
BRANCH  10  11
ATOM     11  C   UNL     1       3.930   4.956  29.190  1.00  0.00     0.000 C 
BRANCH  11  12
ATOM     12  C   UNL     1       2.735   4.742  28.246  1.00  0.00     0.006 C 
BRANCH  12  13
ATOM     13  C   UNL     1       2.788   5.651  27.010  1.00  0.00     0.053 C 
BRANCH  13  14
ATOM     14  C   UNL     1       3.112   4.853  25.786  1.00  0.00     0.041 C 
ATOM     15  O   UNL     1       4.157   4.153  25.745  1.00  0.00    -0.550 OA
ATOM     16  O   UNL     1       2.278   4.911  24.677  1.00  0.00    -0.550 OA
ENDBRANCH  13  14
ENDBRANCH  12  13
ENDBRANCH  11  12
ENDBRANCH  10  11
ENDBRANCH   9  10
ENDBRANCH   8   9
ENDBRANCH   7   8
ENDBRANCH   6   7
ENDBRANCH   5   6
ENDBRANCH   4   5
ENDBRANCH   3   4
ENDBRANCH   2   3
ENDBRANCH   1   2
BRANCH   1  17
ATOM     17  C   UNL     1      -1.296   4.018  25.480  1.00  0.00     0.000 C 
BRANCH  17  18
ATOM     18  C   UNL     1      -1.060   5.073  24.385  1.00  0.00     0.000 C 
BRANCH  18  19
ATOM     19  C   UNL     1      -0.881   4.461  22.985  1.00  0.00     0.000 C 
BRANCH  19  20
ATOM     20  C   UNL     1      -1.309   5.440  21.879  1.00  0.00     0.000 C 
BRANCH  20  21
ATOM     21  C   UNL     1      -2.460   6.352  22.337  1.00  0.00     0.000 C 
BRANCH  21  22
ATOM     22  C   UNL     1      -3.752   6.109  21.540  1.00  0.00    -0.000 C 
BRANCH  22  23
ATOM     23  C   UNL     1      -3.561   5.056  20.436  1.00  0.00    -0.000 C 
BRANCH  23  24
ATOM     24  C   UNL     1      -4.045   3.656  20.849  1.00  0.00    -0.000 C 
BRANCH  24  25
ATOM     25  C   UNL     1      -4.989   3.658  22.068  1.00  0.00    -0.000 C 
BRANCH  25  26
ATOM     26  C   UNL     1      -4.450   2.806  23.231  1.00  0.00    -0.000 C 
BRANCH  26  27
ATOM     27  C   UNL     1      -4.702   3.459  24.600  1.00  0.00    -0.000 C 
BRANCH  27  28
ATOM     28  C   UNL     1      -5.485   4.779  24.480  1.00  0.00    -0.000 C 
BRANCH  28  29
ATOM     29  C   UNL     1      -5.350   5.658  25.734  1.00  0.00    -0.003 C 
ATOM     30  C   UNL     1      -4.161   6.616  25.648  1.00  0.00     0.004 C 
ENDBRANCH  28  29
ENDBRANCH  27  28
ENDBRANCH  26  27
ENDBRANCH  25  26
ENDBRANCH  24  25
ENDBRANCH  23  24
ENDBRANCH  22  23
ENDBRANCH  21  22
ENDBRANCH  20  21
ENDBRANCH  19  20
ENDBRANCH  18  19
ENDBRANCH  17  18
ENDBRANCH   1  17
TORSDOF 26
ENDMDL
MODEL 5
REMARK VINA RESULT:    -4.998      2.196      4.189
REMARK INTER + INTRA:         -17.141
REMARK INTER:                 -12.265
REMARK INTRA:                  -4.876
REMARK UNBOUND:                -4.547
REMARK SMILES CCCCCCCCCCCCCCCCCCCCCCCCCCCC(=O)[O-]
REMARK SMILES IDX 15 1 16 2 17 3 18 4 19 5 20 6 21 7 22 8 23 9 24 10 25 11
REMARK SMILES IDX 26 12 27 13 28 14 29 15 30 16 14 17 13 18 12 19 11 20 10 21
REMARK SMILES IDX 9 22 8 23 7 24 6 25 5 26 4 27 3 28 2 29 1 30
REMARK H PARENT
REMARK Flexibility Score: inf
ROOT
ATOM      1  C   UNL     1      -0.886   6.009  29.224  1.00  0.00     0.000 C 
ENDROOT
BRANCH   1   2
ATOM      2  C   UNL     1      -0.806   7.373  28.521  1.00  0.00     0.000 C 
BRANCH   2   3
ATOM      3  C   UNL     1       0.644   7.735  28.168  1.00  0.00     0.000 C 
BRANCH   3   4
ATOM      4  C   UNL     1       0.984   7.422  26.703  1.00  0.00     0.000 C 
BRANCH   4   5
ATOM      5  C   UNL     1       2.382   6.795  26.542  1.00  0.00     0.000 C 
BRANCH   5   6
ATOM      6  C   UNL     1       2.356   5.260  26.702  1.00  0.00     0.000 C 
BRANCH   6   7
ATOM      7  C   UNL     1       3.713   4.658  27.102  1.00  0.00     0.000 C 
BRANCH   7   8
ATOM      8  C   UNL     1       3.652   3.860  28.412  1.00  0.00     0.000 C 
BRANCH   8   9
ATOM      9  C   UNL     1       2.214   3.785  28.943  1.00  0.00     0.000 C 
BRANCH   9  10
ATOM     10  C   UNL     1       2.102   4.197  30.419  1.00  0.00     0.000 C 
BRANCH  10  11
ATOM     11  C   UNL     1       3.302   5.039  30.888  1.00  0.00     0.000 C 
BRANCH  11  12
ATOM     12  C   UNL     1       3.037   6.549  30.788  1.00  0.00     0.006 C 
BRANCH  12  13
ATOM     13  C   UNL     1       4.012   7.258  29.836  1.00  0.00     0.053 C 
BRANCH  13  14
ATOM     14  C   UNL     1       5.290   7.584  30.543  1.00  0.00     0.041 C 
ATOM     15  O   UNL     1       6.243   6.763  30.539  1.00  0.00    -0.550 OA
ATOM     16  O   UNL     1       5.414   8.781  31.238  1.00  0.00    -0.550 OA
ENDBRANCH  13  14
ENDBRANCH  12  13
ENDBRANCH  11  12
ENDBRANCH  10  11
ENDBRANCH   9  10
ENDBRANCH   8   9
ENDBRANCH   7   8
ENDBRANCH   6   7
ENDBRANCH   5   6
ENDBRANCH   4   5
ENDBRANCH   3   4
ENDBRANCH   2   3
ENDBRANCH   1   2
BRANCH   1  17
ATOM     17  C   UNL     1      -1.143   4.841  28.252  1.00  0.00     0.000 C 
BRANCH  17  18
ATOM     18  C   UNL     1      -2.514   4.861  27.553  1.00  0.00     0.000 C 
BRANCH  18  19
ATOM     19  C   UNL     1      -2.414   5.092  26.035  1.00  0.00     0.000 C 
BRANCH  19  20
ATOM     20  C   UNL     1      -1.282   4.259  25.409  1.00  0.00     0.000 C 
BRANCH  20  21
ATOM     21  C   UNL     1      -0.481   5.068  24.374  1.00  0.00     0.000 C 
BRANCH  21  22
ATOM     22  C   UNL     1      -0.510   4.424  22.979  1.00  0.00    -0.000 C 
BRANCH  22  23
ATOM     23  C   UNL     1      -1.252   5.297  21.953  1.00  0.00    -0.000 C 
BRANCH  23  24
ATOM     24  C   UNL     1      -2.767   5.370  22.208  1.00  0.00    -0.000 C 
BRANCH  24  25
ATOM     25  C   UNL     1      -3.612   4.643  21.144  1.00  0.00    -0.000 C 
BRANCH  25  26
ATOM     26  C   UNL     1      -4.265   3.359  21.687  1.00  0.00    -0.000 C 
BRANCH  26  27
ATOM     27  C   UNL     1      -4.051   3.189  23.200  1.00  0.00    -0.000 C 
BRANCH  27  28
ATOM     28  C   UNL     1      -5.376   3.218  23.983  1.00  0.00    -0.000 C 
BRANCH  28  29
ATOM     29  C   UNL     1      -5.732   4.628  24.481  1.00  0.00    -0.003 C 
ATOM     30  C   UNL     1      -6.220   4.628  25.930  1.00  0.00     0.004 C 
ENDBRANCH  28  29
ENDBRANCH  27  28
ENDBRANCH  26  27
ENDBRANCH  25  26
ENDBRANCH  24  25
ENDBRANCH  23  24
ENDBRANCH  22  23
ENDBRANCH  21  22
ENDBRANCH  20  21
ENDBRANCH  19  20
ENDBRANCH  18  19
ENDBRANCH  17  18
ENDBRANCH   1  17
TORSDOF 26
ENDMDL
MODEL 6
REMARK VINA RESULT:    -4.989      2.707      7.994
REMARK INTER + INTRA:         -17.118
REMARK INTER:                 -11.656
REMARK INTRA:                  -5.463
REMARK UNBOUND:                -4.547
REMARK SMILES CCCCCCCCCCCCCCCCCCCCCCCCCCCC(=O)[O-]
REMARK SMILES IDX 15 1 16 2 17 3 18 4 19 5 20 6 21 7 22 8 23 9 24 10 25 11
REMARK SMILES IDX 26 12 27 13 28 14 29 15 30 16 14 17 13 18 12 19 11 20 10 21
REMARK SMILES IDX 9 22 8 23 7 24 6 25 5 26 4 27 3 28 2 29 1 30
REMARK H PARENT
REMARK Flexibility Score: inf
ROOT
ATOM      1  C   UNL     1      -0.630   4.419  23.395  1.00  0.00     0.000 C 
ENDROOT
BRANCH   1   2
ATOM      2  C   UNL     1      -1.315   5.435  22.468  1.00  0.00     0.000 C 
BRANCH   2   3
ATOM      3  C   UNL     1      -2.013   6.542  23.271  1.00  0.00     0.000 C 
BRANCH   3   4
ATOM      4  C   UNL     1      -3.428   6.838  22.749  1.00  0.00     0.000 C 
BRANCH   4   5
ATOM      5  C   UNL     1      -4.298   7.574  23.785  1.00  0.00     0.000 C 
BRANCH   5   6
ATOM      6  C   UNL     1      -3.891   7.236  25.235  1.00  0.00     0.000 C 
BRANCH   6   7
ATOM      7  C   UNL     1      -4.574   5.975  25.790  1.00  0.00     0.000 C 
BRANCH   7   8
ATOM      8  C   UNL     1      -5.916   5.672  25.111  1.00  0.00     0.000 C 
BRANCH   8   9
ATOM      9  C   UNL     1      -5.975   4.214  24.636  1.00  0.00     0.000 C 
BRANCH   9  10
ATOM     10  C   UNL     1      -4.628   3.488  24.773  1.00  0.00     0.000 C 
BRANCH  10  11
ATOM     11  C   UNL     1      -4.046   3.064  23.413  1.00  0.00     0.000 C 
BRANCH  11  12
ATOM     12  C   UNL     1      -4.904   3.540  22.230  1.00  0.00     0.006 C 
BRANCH  12  13
ATOM     13  C   UNL     1      -4.174   3.422  20.885  1.00  0.00     0.053 C 
BRANCH  13  14
ATOM     14  C   UNL     1      -4.518   4.578  19.999  1.00  0.00     0.041 C 
ATOM     15  O   UNL     1      -5.582   5.223  20.184  1.00  0.00    -0.550 OA
ATOM     16  O   UNL     1      -3.681   4.919  18.944  1.00  0.00    -0.550 OA
ENDBRANCH  13  14
ENDBRANCH  12  13
ENDBRANCH  11  12
ENDBRANCH  10  11
ENDBRANCH   9  10
ENDBRANCH   8   9
ENDBRANCH   7   8
ENDBRANCH   6   7
ENDBRANCH   5   6
ENDBRANCH   4   5
ENDBRANCH   3   4
ENDBRANCH   2   3
ENDBRANCH   1   2
BRANCH   1  17
ATOM     17  C   UNL     1      -0.497   4.918  24.847  1.00  0.00     0.000 C 
BRANCH  17  18
ATOM     18  C   UNL     1      -1.023   3.951  25.922  1.00  0.00     0.000 C 
BRANCH  18  19
ATOM     19  C   UNL     1      -1.469   4.665  27.210  1.00  0.00     0.000 C 
BRANCH  19  20
ATOM     20  C   UNL     1      -1.047   6.144  27.213  1.00  0.00     0.000 C 
BRANCH  20  21
ATOM     21  C   UNL     1      -0.905   6.697  28.642  1.00  0.00     0.000 C 
BRANCH  21  22
ATOM     22  C   UNL     1      -0.442   5.624  29.640  1.00  0.00    -0.000 C 
BRANCH  22  23
ATOM     23  C   UNL     1       1.026   5.817  30.057  1.00  0.00    -0.000 C 
BRANCH  23  24
ATOM     24  C   UNL     1       1.836   4.510  30.034  1.00  0.00    -0.000 C 
BRANCH  24  25
ATOM     25  C   UNL     1       1.737   3.740  28.703  1.00  0.00    -0.000 C 
BRANCH  25  26
ATOM     26  C   UNL     1       3.026   3.838  27.868  1.00  0.00    -0.000 C 
BRANCH  26  27
ATOM     27  C   UNL     1       2.739   4.019  26.368  1.00  0.00    -0.000 C 
BRANCH  27  28
ATOM     28  C   UNL     1       3.732   4.985  25.698  1.00  0.00    -0.000 C 
BRANCH  28  29
ATOM     29  C   UNL     1       3.704   6.387  26.330  1.00  0.00    -0.003 C 
ATOM     30  C   UNL     1       2.296   6.982  26.365  1.00  0.00     0.004 C 
ENDBRANCH  28  29
ENDBRANCH  27  28
ENDBRANCH  26  27
ENDBRANCH  25  26
ENDBRANCH  24  25
ENDBRANCH  23  24
ENDBRANCH  22  23
ENDBRANCH  21  22
ENDBRANCH  20  21
ENDBRANCH  19  20
ENDBRANCH  18  19
ENDBRANCH  17  18
ENDBRANCH   1  17
TORSDOF 26
ENDMDL
MODEL 7
REMARK VINA RESULT:    -4.970      2.896      8.405
REMARK INTER + INTRA:         -17.071
REMARK INTER:                 -11.128
REMARK INTRA:                  -5.943
REMARK UNBOUND:                -4.547
REMARK SMILES CCCCCCCCCCCCCCCCCCCCCCCCCCCC(=O)[O-]
REMARK SMILES IDX 15 1 16 2 17 3 18 4 19 5 20 6 21 7 22 8 23 9 24 10 25 11
REMARK SMILES IDX 26 12 27 13 28 14 29 15 30 16 14 17 13 18 12 19 11 20 10 21
REMARK SMILES IDX 9 22 8 23 7 24 6 25 5 26 4 27 3 28 2 29 1 30
REMARK H PARENT
REMARK Flexibility Score: inf
ROOT
ATOM      1  C   UNL     1      -0.358   4.218  27.368  1.00  0.00     0.000 C 
ENDROOT
BRANCH   1   2
ATOM      2  C   UNL     1      -0.698   3.719  25.955  1.00  0.00     0.000 C 
BRANCH   2   3
ATOM      3  C   UNL     1      -0.036   4.593  24.880  1.00  0.00     0.000 C 
BRANCH   3   4
ATOM      4  C   UNL     1       0.003   6.078  25.277  1.00  0.00     0.000 C 
BRANCH   4   5
ATOM      5  C   UNL     1      -0.553   6.999  24.175  1.00  0.00     0.000 C 
BRANCH   5   6
ATOM      6  C   UNL     1      -2.096   7.050  24.180  1.00  0.00     0.000 C 
BRANCH   6   7
ATOM      7  C   UNL     1      -2.702   7.252  25.579  1.00  0.00     0.000 C 
BRANCH   7   8
ATOM      8  C   UNL     1      -3.748   6.188  25.938  1.00  0.00     0.000 C 
BRANCH   8   9
ATOM      9  C   UNL     1      -4.241   5.456  24.682  1.00  0.00     0.000 C 
BRANCH   9  10
ATOM     10  C   UNL     1      -4.232   3.928  24.841  1.00  0.00     0.000 C 
BRANCH  10  11
ATOM     11  C   UNL     1      -3.421   3.225  23.739  1.00  0.00     0.000 C 
BRANCH  11  12
ATOM     12  C   UNL     1      -3.406   4.017  22.422  1.00  0.00     0.006 C 
BRANCH  12  13
ATOM     13  C   UNL     1      -4.298   3.386  21.343  1.00  0.00     0.053 C 
BRANCH  13  14
ATOM     14  C   UNL     1      -5.120   4.437  20.663  1.00  0.00     0.041 C 
ATOM     15  O   UNL     1      -6.285   4.173  20.270  1.00  0.00    -0.550 OA
ATOM     16  O   UNL     1      -4.583   5.697  20.431  1.00  0.00    -0.550 OA
ENDBRANCH  13  14
ENDBRANCH  12  13
ENDBRANCH  11  12
ENDBRANCH  10  11
ENDBRANCH   9  10
ENDBRANCH   8   9
ENDBRANCH   7   8
ENDBRANCH   6   7
ENDBRANCH   5   6
ENDBRANCH   4   5
ENDBRANCH   3   4
ENDBRANCH   2   3
ENDBRANCH   1   2
BRANCH   1  17
ATOM     17  C   UNL     1      -1.604   4.438  28.248  1.00  0.00     0.000 C 
BRANCH  17  18
ATOM     18  C   UNL     1      -1.661   5.794  28.974  1.00  0.00     0.000 C 
BRANCH  18  19
ATOM     19  C   UNL     1      -0.320   6.548  28.950  1.00  0.00     0.000 C 
BRANCH  19  20
ATOM     20  C   UNL     1      -0.493   7.996  28.462  1.00  0.00     0.000 C 
BRANCH  20  21
ATOM     21  C   UNL     1       0.831   8.591  27.951  1.00  0.00     0.000 C 
BRANCH  21  22
ATOM     22  C   UNL     1       2.057   7.947  28.618  1.00  0.00    -0.000 C 
BRANCH  22  23
ATOM     23  C   UNL     1       3.057   7.400  27.586  1.00  0.00    -0.000 C 
BRANCH  23  24
ATOM     24  C   UNL     1       3.021   5.867  27.466  1.00  0.00    -0.000 C 
BRANCH  24  25
ATOM     25  C   UNL     1       3.564   5.133  28.708  1.00  0.00    -0.000 C 
BRANCH  25  26
ATOM     26  C   UNL     1       2.756   3.867  29.044  1.00  0.00    -0.000 C 
BRANCH  26  27
ATOM     27  C   UNL     1       1.897   4.039  30.307  1.00  0.00    -0.000 C 
BRANCH  27  28
ATOM     28  C   UNL     1       2.395   5.192  31.197  1.00  0.00    -0.000 C 
BRANCH  28  29
ATOM     29  C   UNL     1       1.306   5.709  32.152  1.00  0.00    -0.003 C 
ATOM     30  C   UNL     1       1.326   7.232  32.289  1.00  0.00     0.004 C 
ENDBRANCH  28  29
ENDBRANCH  27  28
ENDBRANCH  26  27
ENDBRANCH  25  26
ENDBRANCH  24  25
ENDBRANCH  23  24
ENDBRANCH  22  23
ENDBRANCH  21  22
ENDBRANCH  20  21
ENDBRANCH  19  20
ENDBRANCH  18  19
ENDBRANCH  17  18
ENDBRANCH   1  17
TORSDOF 26
ENDMDL
MODEL 8
REMARK VINA RESULT:    -4.966      2.188      4.084
REMARK INTER + INTRA:         -17.062
REMARK INTER:                 -12.098
REMARK INTRA:                  -4.964
REMARK UNBOUND:                -4.547
REMARK SMILES CCCCCCCCCCCCCCCCCCCCCCCCCCCC(=O)[O-]
REMARK SMILES IDX 15 1 16 2 17 3 18 4 19 5 20 6 21 7 22 8 23 9 24 10 25 11
REMARK SMILES IDX 26 12 27 13 28 14 29 15 30 16 14 17 13 18 12 19 11 20 10 21
REMARK SMILES IDX 9 22 8 23 7 24 6 25 5 26 4 27 3 28 2 29 1 30
REMARK H PARENT
REMARK Flexibility Score: inf
ROOT
ATOM      1  C   UNL     1      -1.361   3.730  25.426  1.00  0.00     0.000 C 
ENDROOT
BRANCH   1   2
ATOM      2  C   UNL     1      -1.473   4.629  26.668  1.00  0.00     0.000 C 
BRANCH   2   3
ATOM      3  C   UNL     1      -1.502   6.114  26.281  1.00  0.00     0.000 C 
BRANCH   3   4
ATOM      4  C   UNL     1      -0.221   6.852  26.702  1.00  0.00     0.000 C 
BRANCH   4   5
ATOM      5  C   UNL     1       0.721   7.125  25.515  1.00  0.00     0.000 C 
BRANCH   5   6
ATOM      6  C   UNL     1       1.697   5.956  25.263  1.00  0.00     0.000 C 
BRANCH   6   7
ATOM      7  C   UNL     1       3.137   6.245  25.721  1.00  0.00     0.000 C 
BRANCH   7   8
ATOM      8  C   UNL     1       3.987   4.975  25.864  1.00  0.00     0.000 C 
BRANCH   8   9
ATOM      9  C   UNL     1       4.034   4.508  27.325  1.00  0.00     0.000 C 
BRANCH   9  10
ATOM     10  C   UNL     1       3.348   3.150  27.539  1.00  0.00     0.000 C 
BRANCH  10  11
ATOM     11  C   UNL     1       1.861   3.294  27.909  1.00  0.00     0.000 C 
BRANCH  11  12
ATOM     12  C   UNL     1       1.620   4.375  28.975  1.00  0.00     0.006 C 
BRANCH  12  13
ATOM     13  C   UNL     1       1.991   3.904  30.389  1.00  0.00     0.053 C 
BRANCH  13  14
ATOM     14  C   UNL     1       2.662   5.006  31.148  1.00  0.00     0.041 C 
ATOM     15  O   UNL     1       3.900   5.195  31.029  1.00  0.00    -0.550 OA
ATOM     16  O   UNL     1       1.924   5.800  32.017  1.00  0.00    -0.550 OA
ENDBRANCH  13  14
ENDBRANCH  12  13
ENDBRANCH  11  12
ENDBRANCH  10  11
ENDBRANCH   9  10
ENDBRANCH   8   9
ENDBRANCH   7   8
ENDBRANCH   6   7
ENDBRANCH   5   6
ENDBRANCH   4   5
ENDBRANCH   3   4
ENDBRANCH   2   3
ENDBRANCH   1   2
BRANCH   1  17
ATOM     17  C   UNL     1      -1.746   4.453  24.120  1.00  0.00     0.000 C 
BRANCH  17  18
ATOM     18  C   UNL     1      -0.742   4.293  22.964  1.00  0.00     0.000 C 
BRANCH  18  19
ATOM     19  C   UNL     1      -0.915   5.355  21.864  1.00  0.00     0.000 C 
BRANCH  19  20
ATOM     20  C   UNL     1      -1.188   6.747  22.458  1.00  0.00     0.000 C 
BRANCH  20  21
ATOM     21  C   UNL     1      -2.272   7.503  21.669  1.00  0.00     0.000 C 
BRANCH  21  22
ATOM     22  C   UNL     1      -2.420   6.981  20.231  1.00  0.00    -0.000 C 
BRANCH  22  23
ATOM     23  C   UNL     1      -3.832   7.220  19.672  1.00  0.00    -0.000 C 
BRANCH  23  24
ATOM     24  C   UNL     1      -4.515   5.929  19.188  1.00  0.00    -0.000 C 
BRANCH  24  25
ATOM     25  C   UNL     1      -3.676   4.657  19.419  1.00  0.00    -0.000 C 
BRANCH  25  26
ATOM     26  C   UNL     1      -4.425   3.600  20.251  1.00  0.00    -0.000 C 
BRANCH  26  27
ATOM     27  C   UNL     1      -4.311   3.859  21.762  1.00  0.00    -0.000 C 
BRANCH  27  28
ATOM     28  C   UNL     1      -5.684   4.097  22.417  1.00  0.00    -0.000 C 
BRANCH  28  29
ATOM     29  C   UNL     1      -5.922   5.577  22.760  1.00  0.00    -0.003 C 
ATOM     30  C   UNL     1      -4.889   6.119  23.748  1.00  0.00     0.004 C 
ENDBRANCH  28  29
ENDBRANCH  27  28
ENDBRANCH  26  27
ENDBRANCH  25  26
ENDBRANCH  24  25
ENDBRANCH  23  24
ENDBRANCH  22  23
ENDBRANCH  21  22
ENDBRANCH  20  21
ENDBRANCH  19  20
ENDBRANCH  18  19
ENDBRANCH  17  18
ENDBRANCH   1  17
TORSDOF 26
ENDMDL
MODEL 9
REMARK VINA RESULT:    -4.966      3.002      8.438
REMARK INTER + INTRA:         -17.061
REMARK INTER:                 -11.631
REMARK INTRA:                  -5.430
REMARK UNBOUND:                -4.547
REMARK SMILES CCCCCCCCCCCCCCCCCCCCCCCCCCCC(=O)[O-]
REMARK SMILES IDX 15 1 16 2 17 3 18 4 19 5 20 6 21 7 22 8 23 9 24 10 25 11
REMARK SMILES IDX 26 12 27 13 28 14 29 15 30 16 14 17 13 18 12 19 11 20 10 21
REMARK SMILES IDX 9 22 8 23 7 24 6 25 5 26 4 27 3 28 2 29 1 30
REMARK H PARENT
REMARK Flexibility Score: inf
ROOT
ATOM      1  C   UNL     1      -2.181   4.506  28.256  1.00  0.00     0.000 C 
ENDROOT
BRANCH   1   2
ATOM      2  C   UNL     1      -2.523   4.952  26.825  1.00  0.00     0.000 C 
BRANCH   2   3
ATOM      3  C   UNL     1      -4.028   4.837  26.549  1.00  0.00     0.000 C 
BRANCH   3   4
ATOM      4  C   UNL     1      -4.577   6.056  25.789  1.00  0.00     0.000 C 
BRANCH   4   5
ATOM      5  C   UNL     1      -3.483   7.091  25.464  1.00  0.00     0.000 C 
BRANCH   5   6
ATOM      6  C   UNL     1      -3.777   7.861  24.159  1.00  0.00     0.000 C 
BRANCH   6   7
ATOM      7  C   UNL     1      -2.652   7.758  23.115  1.00  0.00     0.000 C 
BRANCH   7   8
ATOM      8  C   UNL     1      -1.512   6.830  23.553  1.00  0.00     0.000 C 
BRANCH   8   9
ATOM      9  C   UNL     1      -1.059   5.931  22.393  1.00  0.00     0.000 C 
BRANCH   9  10
ATOM     10  C   UNL     1      -1.129   4.435  22.737  1.00  0.00     0.000 C 
BRANCH  10  11
ATOM     11  C   UNL     1      -2.497   4.025  23.309  1.00  0.00     0.000 C 
BRANCH  11  12
ATOM     12  C   UNL     1      -3.535   3.744  22.212  1.00  0.00     0.006 C 
BRANCH  12  13
ATOM     13  C   UNL     1      -4.670   4.777  22.193  1.00  0.00     0.053 C 
BRANCH  13  14
ATOM     14  C   UNL     1      -5.995   4.104  22.373  1.00  0.00     0.041 C 
ATOM     15  O   UNL     1      -6.687   3.791  21.370  1.00  0.00    -0.550 OA
ATOM     16  O   UNL     1      -6.481   3.856  23.650  1.00  0.00    -0.550 OA
ENDBRANCH  13  14
ENDBRANCH  12  13
ENDBRANCH  11  12
ENDBRANCH  10  11
ENDBRANCH   9  10
ENDBRANCH   8   9
ENDBRANCH   7   8
ENDBRANCH   6   7
ENDBRANCH   5   6
ENDBRANCH   4   5
ENDBRANCH   3   4
ENDBRANCH   2   3
ENDBRANCH   1   2
BRANCH   1  17
ATOM     17  C   UNL     1      -1.351   5.546  29.032  1.00  0.00     0.000 C 
BRANCH  17  18
ATOM     18  C   UNL     1      -1.288   6.943  28.389  1.00  0.00     0.000 C 
BRANCH  18  19
ATOM     19  C   UNL     1       0.133   7.344  27.955  1.00  0.00     0.000 C 
BRANCH  19  20
ATOM     20  C   UNL     1       0.361   7.085  26.456  1.00  0.00     0.000 C 
BRANCH  20  21
ATOM     21  C   UNL     1       1.484   6.060  26.217  1.00  0.00     0.000 C 
BRANCH  21  22
ATOM     22  C   UNL     1       0.939   4.659  25.896  1.00  0.00    -0.000 C 
BRANCH  22  23
ATOM     23  C   UNL     1       1.647   3.563  26.710  1.00  0.00    -0.000 C 
BRANCH  23  24
ATOM     24  C   UNL     1       1.618   3.824  28.226  1.00  0.00    -0.000 C 
BRANCH  24  25
ATOM     25  C   UNL     1       2.977   4.258  28.809  1.00  0.00    -0.000 C 
BRANCH  25  26
ATOM     26  C   UNL     1       2.862   5.496  29.715  1.00  0.00    -0.000 C 
BRANCH  26  27
ATOM     27  C   UNL     1       2.780   5.125  31.205  1.00  0.00    -0.000 C 
BRANCH  27  28
ATOM     28  C   UNL     1       1.358   5.290  31.769  1.00  0.00    -0.000 C 
BRANCH  28  29
ATOM     29  C   UNL     1       0.830   6.726  31.620  1.00  0.00    -0.003 C 
ATOM     30  C   UNL     1       1.616   7.726  32.469  1.00  0.00     0.004 C 
ENDBRANCH  28  29
ENDBRANCH  27  28
ENDBRANCH  26  27
ENDBRANCH  25  26
ENDBRANCH  24  25
ENDBRANCH  23  24
ENDBRANCH  22  23
ENDBRANCH  21  22
ENDBRANCH  20  21
ENDBRANCH  19  20
ENDBRANCH  18  19
ENDBRANCH  17  18
ENDBRANCH   1  17
TORSDOF 26
ENDMDL
