MODEL 1
REMARK VINA RESULT:    -3.780      0.000      0.000
REMARK INTER + INTRA:          -4.757
REMARK INTER:                  -4.442
REMARK INTRA:                  -0.315
REMARK UNBOUND:                -0.315
REMARK SMILES O=c1cc(-c2ccc(O)c(O)c2)oc2cc(O)cc(O)c12
REMARK SMILES IDX 4 1 3 2 2 3 1 4 21 5 19 6 18 7 16 8 15 9 14 10 13 11 5 12
REMARK SMILES IDX 6 13 7 14 8 15 12 16 10 17 9 18 11 20 20 22 17 24
REMARK H PARENT 9 19 11 21 20 23 17 25
REMARK Flexibility Score: inf
ROOT
ATOM      1  C   UNL     1      -9.049 -22.223  19.854  1.00  0.00     0.138 A 
ATOM      2  C   UNL     1      -9.947 -21.691  18.917  1.00  0.00     0.100 A 
ATOM      3  C   UNL     1      -9.531 -21.484  17.602  1.00  0.00     0.197 A 
ATOM      4  O   UNL     1     -10.376 -21.064  16.770  1.00  0.00    -0.289 OA
ATOM      5  C   UNL     1      -8.198 -21.782  17.231  1.00  0.00     0.107 A 
ATOM      6  C   UNL     1      -7.650 -21.573  15.929  1.00  0.00     0.134 A 
ATOM      7  C   UNL     1      -6.351 -22.015  15.649  1.00  0.00     0.093 A 
ATOM      8  C   UNL     1      -5.559 -22.602  16.639  1.00  0.00     0.123 A 
ATOM      9  C   UNL     1      -6.066 -22.761  17.927  1.00  0.00     0.094 A 
ATOM     10  C   UNL     1      -7.369 -22.362  18.229  1.00  0.00     0.146 A 
ATOM     11  O   UNL     1      -7.820 -22.545  19.467  1.00  0.00    -0.456 OA
ENDROOT
BRANCH   1  12
ATOM     12  C   UNL     1      -9.439 -22.462  21.266  1.00  0.00     0.021 A 
ATOM     13  C   UNL     1     -10.787 -22.446  21.675  1.00  0.00     0.016 A 
ATOM     14  C   UNL     1     -11.124 -22.665  23.013  1.00  0.00     0.051 A 
ATOM     15  C   UNL     1     -10.124 -22.894  23.966  1.00  0.00     0.157 A 
ATOM     16  C   UNL     1      -8.441 -22.681  22.233  1.00  0.00     0.062 A 
ATOM     17  C   UNL     1      -8.780 -22.900  23.575  1.00  0.00     0.158 A 
BRANCH  15  18
ATOM     18  O   UNL     1     -10.458 -23.114  25.301  1.00  0.00    -0.504 OA
ATOM     19  H   UNL     1     -10.816 -22.369  25.888  1.00  0.00     0.293 HD
ENDBRANCH  15  18
BRANCH  17  20
ATOM     20  O   UNL     1      -7.786 -23.125  24.527  1.00  0.00    -0.504 OA
ATOM     21  H   UNL     1      -7.519 -22.411  25.194  1.00  0.00     0.293 HD
ENDBRANCH  17  20
ENDBRANCH   1  12
BRANCH   6  22
ATOM     22  O   UNL     1      -8.325 -20.921  14.894  1.00  0.00    -0.507 OA
ATOM     23  H   UNL     1      -7.894 -20.589  14.044  1.00  0.00     0.293 HD
ENDBRANCH   6  22
BRANCH   8  24
ATOM     24  O   UNL     1      -4.262 -23.024  16.354  1.00  0.00    -0.508 OA
ATOM     25  H   UNL     1      -3.500 -22.869  17.004  1.00  0.00     0.293 HD
ENDBRANCH   8  24
TORSDOF 5
ENDMDL
MODEL 2
REMARK VINA RESULT:    -3.623      1.183      2.691
REMARK INTER + INTRA:          -4.574
REMARK INTER:                  -4.287
REMARK INTRA:                  -0.287
REMARK UNBOUND:                -0.315
REMARK SMILES O=c1cc(-c2ccc(O)c(O)c2)oc2cc(O)cc(O)c12
REMARK SMILES IDX 4 1 3 2 2 3 1 4 21 5 19 6 18 7 16 8 15 9 14 10 13 11 5 12
REMARK SMILES IDX 6 13 7 14 8 15 12 16 10 17 9 18 11 20 20 22 17 24
REMARK H PARENT 9 19 11 21 20 23 17 25
REMARK Flexibility Score: inf
ROOT
ATOM      1  C   UNL     1      -8.700 -22.457  19.867  1.00  0.00     0.138 A 
ATOM      2  C   UNL     1      -7.416 -22.900  19.519  1.00  0.00     0.100 A 
ATOM      3  C   UNL     1      -6.946 -22.705  18.220  1.00  0.00     0.197 A 
ATOM      4  O   UNL     1      -5.768 -23.057  17.955  1.00  0.00    -0.289 OA
ATOM      5  C   UNL     1      -7.781 -22.093  17.255  1.00  0.00     0.107 A 
ATOM      6  C   UNL     1      -7.424 -21.881  15.889  1.00  0.00     0.134 A 
ATOM      7  C   UNL     1      -8.287 -21.158  15.055  1.00  0.00     0.093 A 
ATOM      8  C   UNL     1      -9.520 -20.695  15.521  1.00  0.00     0.123 A 
ATOM      9  C   UNL     1      -9.901 -20.945  16.838  1.00  0.00     0.094 A 
ATOM     10  C   UNL     1      -9.048 -21.632  17.704  1.00  0.00     0.146 A 
ATOM     11  O   UNL     1      -9.443 -21.836  18.956  1.00  0.00    -0.456 OA
ENDROOT
BRANCH   1  12
ATOM     12  C   UNL     1      -9.249 -22.639  21.234  1.00  0.00     0.021 A 
ATOM     13  C   UNL     1     -10.636 -22.698  21.472  1.00  0.00     0.016 A 
ATOM     14  C   UNL     1     -11.125 -22.861  22.771  1.00  0.00     0.051 A 
ATOM     15  C   UNL     1     -10.241 -22.960  23.853  1.00  0.00     0.157 A 
ATOM     16  C   UNL     1      -8.369 -22.727  22.328  1.00  0.00     0.062 A 
ATOM     17  C   UNL     1      -8.861 -22.891  23.631  1.00  0.00     0.158 A 
BRANCH  15  18
ATOM     18  O   UNL     1     -10.726 -23.125  25.149  1.00  0.00    -0.504 OA
ATOM     19  H   UNL     1     -10.300 -22.654  25.939  1.00  0.00     0.293 HD
ENDBRANCH  15  18
BRANCH  17  20
ATOM     20  O   UNL     1      -7.982 -22.986  24.709  1.00  0.00    -0.504 OA
ATOM     21  H   UNL     1      -7.469 -23.837  24.902  1.00  0.00     0.293 HD
ENDBRANCH  17  20
ENDBRANCH   1  12
BRANCH   6  22
ATOM     22  O   UNL     1      -6.256 -22.374  15.301  1.00  0.00    -0.507 OA
ATOM     23  H   UNL     1      -5.785 -21.954  14.514  1.00  0.00     0.293 HD
ENDBRANCH   6  22
BRANCH   8  24
ATOM     24  O   UNL     1     -10.379 -19.992  14.679  1.00  0.00    -0.508 OA
ATOM     25  H   UNL     1     -11.386 -20.075  14.761  1.00  0.00     0.293 HD
ENDBRANCH   8  24
TORSDOF 5
ENDMDL
MODEL 3
REMARK VINA RESULT:    -2.798     12.744     17.823
REMARK INTER + INTRA:          -3.604
REMARK INTER:                  -3.333
REMARK INTRA:                  -0.270
REMARK UNBOUND:                -0.315
REMARK SMILES O=c1cc(-c2ccc(O)c(O)c2)oc2cc(O)cc(O)c12
REMARK SMILES IDX 4 1 3 2 2 3 1 4 21 5 19 6 18 7 16 8 15 9 14 10 13 11 5 12
REMARK SMILES IDX 6 13 7 14 8 15 12 16 10 17 9 18 11 20 20 22 17 24
REMARK H PARENT 9 19 11 21 20 23 17 25
REMARK Flexibility Score: inf
ROOT
ATOM      1  C   UNL     1       7.061 -22.216  12.938  1.00  0.00     0.138 A 
ATOM      2  C   UNL     1       7.890 -22.101  14.063  1.00  0.00     0.100 A 
ATOM      3  C   UNL     1       7.336 -22.184  15.340  1.00  0.00     0.197 A 
ATOM      4  O   UNL     1       8.112 -22.140  16.329  1.00  0.00    -0.289 OA
ATOM      5  C   UNL     1       5.938 -22.349  15.491  1.00  0.00     0.107 A 
ATOM      6  C   UNL     1       5.257 -22.404  16.745  1.00  0.00     0.134 A 
ATOM      7  C   UNL     1       3.885 -22.689  16.772  1.00  0.00     0.093 A 
ATOM      8  C   UNL     1       3.160 -22.858  15.590  1.00  0.00     0.123 A 
ATOM      9  C   UNL     1       3.806 -22.752  14.360  1.00  0.00     0.094 A 
ATOM     10  C   UNL     1       5.179 -22.504  14.300  1.00  0.00     0.146 A 
ATOM     11  O   UNL     1       5.760 -22.425  13.107  1.00  0.00    -0.456 OA
ENDROOT
BRANCH   1  12
ATOM     12  C   UNL     1       7.598 -22.134  11.557  1.00  0.00     0.021 A 
ATOM     13  C   UNL     1       8.462 -23.118  11.039  1.00  0.00     0.016 A 
ATOM     14  C   UNL     1       8.961 -23.010   9.738  1.00  0.00     0.051 A 
ATOM     15  C   UNL     1       8.612 -21.917   8.935  1.00  0.00     0.157 A 
ATOM     16  C   UNL     1       7.263 -21.033  10.747  1.00  0.00     0.062 A 
ATOM     17  C   UNL     1       7.763 -20.926   9.442  1.00  0.00     0.158 A 
BRANCH  15  18
ATOM     18  O   UNL     1       9.106 -21.808   7.636  1.00  0.00    -0.504 OA
ATOM     19  H   UNL     1      10.096 -21.698   7.453  1.00  0.00     0.293 HD
ENDBRANCH  15  18
BRANCH  17  20
ATOM     20  O   UNL     1       7.420 -19.836   8.642  1.00  0.00    -0.504 OA
ATOM     21  H   UNL     1       7.955 -18.976   8.660  1.00  0.00     0.293 HD
ENDBRANCH  17  20
ENDBRANCH   1  12
BRANCH   6  22
ATOM     22  O   UNL     1       5.869 -22.166  17.978  1.00  0.00    -0.507 OA
ATOM     23  H   UNL     1       5.908 -22.826  18.740  1.00  0.00     0.293 HD
ENDBRANCH   6  22
BRANCH   8  24
ATOM     24  O   UNL     1       1.793 -23.124  15.627  1.00  0.00    -0.508 OA
ATOM     25  H   UNL     1       1.226 -23.101  14.787  1.00  0.00     0.293 HD
ENDBRANCH   8  24
TORSDOF 5
ENDMDL
MODEL 4
REMARK VINA RESULT:    -1.184     14.637     17.391
REMARK INTER + INTRA:          -1.707
REMARK INTER:                  -1.439
REMARK INTRA:                  -0.268
REMARK UNBOUND:                -0.315
REMARK SMILES O=c1cc(-c2ccc(O)c(O)c2)oc2cc(O)cc(O)c12
REMARK SMILES IDX 4 1 3 2 2 3 1 4 21 5 19 6 18 7 16 8 15 9 14 10 13 11 5 12
REMARK SMILES IDX 6 13 7 14 8 15 12 16 10 17 9 18 11 20 20 22 17 24
REMARK H PARENT 9 19 11 21 20 23 17 25
REMARK Flexibility Score: inf
ROOT
ATOM      1  C   UNL     1       7.432 -21.624  13.005  1.00  0.00     0.138 A 
ATOM      2  C   UNL     1       8.198 -22.534  12.262  1.00  0.00     0.100 A 
ATOM      3  C   UNL     1       8.382 -22.326  10.896  1.00  0.00     0.197 A 
ATOM      4  O   UNL     1       9.125 -23.125  10.268  1.00  0.00    -0.289 OA
ATOM      5  C   UNL     1       7.768 -21.219  10.263  1.00  0.00     0.107 A 
ATOM      6  C   UNL     1       7.852 -20.930   8.867  1.00  0.00     0.134 A 
ATOM      7  C   UNL     1       7.301 -19.741   8.375  1.00  0.00     0.093 A 
ATOM      8  C   UNL     1       6.616 -18.861   9.216  1.00  0.00     0.123 A 
ATOM      9  C   UNL     1       6.482 -19.160  10.570  1.00  0.00     0.094 A 
ATOM     10  C   UNL     1       7.050 -20.321  11.098  1.00  0.00     0.146 A 
ATOM     11  O   UNL     1       6.912 -20.563  12.398  1.00  0.00    -0.456 OA
ENDROOT
BRANCH   1  12
ATOM     12  C   UNL     1       7.204 -21.797  14.462  1.00  0.00     0.021 A 
ATOM     13  C   UNL     1       8.232 -21.594  15.402  1.00  0.00     0.016 A 
ATOM     14  C   UNL     1       7.990 -21.774  16.767  1.00  0.00     0.051 A 
ATOM     15  C   UNL     1       6.723 -22.167  17.215  1.00  0.00     0.157 A 
ATOM     16  C   UNL     1       5.937 -22.203  14.920  1.00  0.00     0.062 A 
ATOM     17  C   UNL     1       5.695 -22.383  16.290  1.00  0.00     0.158 A 
BRANCH  15  18
ATOM     18  O   UNL     1       6.479 -22.345  18.576  1.00  0.00    -0.504 OA
ATOM     19  H   UNL     1       7.205 -22.661  19.208  1.00  0.00     0.293 HD
ENDBRANCH  15  18
BRANCH  17  20
ATOM     20  O   UNL     1       4.435 -22.778  16.738  1.00  0.00    -0.504 OA
ATOM     21  H   UNL     1       4.320 -23.542  17.392  1.00  0.00     0.293 HD
ENDBRANCH  17  20
ENDBRANCH   1  12
BRANCH   6  22
ATOM     22  O   UNL     1       8.439 -21.782   7.928  1.00  0.00    -0.507 OA
ATOM     23  H   UNL     1       9.193 -22.424   8.123  1.00  0.00     0.293 HD
ENDBRANCH   6  22
BRANCH   8  24
ATOM     24  O   UNL     1       6.056 -17.688   8.714  1.00  0.00    -0.508 OA
ATOM     25  H   UNL     1       5.685 -17.639   7.772  1.00  0.00     0.293 HD
ENDBRANCH   8  24
TORSDOF 5
ENDMDL
