MODEL 1
REMARK VINA RESULT:    -4.252      0.000      0.000
REMARK INTER + INTRA:         -11.210
REMARK INTER:                  -8.228
REMARK INTRA:                  -2.981
REMARK UNBOUND:                -2.981
REMARK SMILES CCCCCCCCCCCCCCCCCC(=O)[O-]
REMARK SMILES IDX 10 1 11 2 12 3 13 4 14 5 15 6 16 7 17 8 18 9 19 10 20 11
REMARK SMILES IDX 9 12 8 13 7 14 6 15 5 16 4 17 3 18 2 19 1 20
REMARK H PARENT
REMARK Flexibility Score: inf
ROOT
ATOM      1  C   UNL     1       7.245 -14.475  23.852  1.00  0.00     0.000 C 
ENDROOT
BRANCH   1   2
ATOM      2  C   UNL     1       6.131 -15.519  24.010  1.00  0.00     0.000 C 
BRANCH   2   3
ATOM      3  C   UNL     1       6.626 -16.826  24.652  1.00  0.00     0.000 C 
BRANCH   3   4
ATOM      4  C   UNL     1       6.800 -18.005  23.674  1.00  0.00     0.000 C 
BRANCH   4   5
ATOM      5  C   UNL     1       8.116 -17.959  22.867  1.00  0.00     0.000 C 
BRANCH   5   6
ATOM      6  C   UNL     1       8.744 -19.352  22.694  1.00  0.00     0.000 C 
BRANCH   6   7
ATOM      7  C   UNL     1       7.698 -20.477  22.675  1.00  0.00     0.006 C 
BRANCH   7   8
ATOM      8  C   UNL     1       8.317 -21.856  22.412  1.00  0.00     0.053 C 
BRANCH   8   9
ATOM      9  C   UNL     1       8.991 -21.878  21.077  1.00  0.00     0.041 C 
ATOM     10  O   UNL     1      10.214 -22.164  20.988  1.00  0.00    -0.550 OA
ATOM     11  O   UNL     1       8.257 -21.634  19.923  1.00  0.00    -0.550 OA
ENDBRANCH   8   9
ENDBRANCH   7   8
ENDBRANCH   6   7
ENDBRANCH   5   6
ENDBRANCH   4   5
ENDBRANCH   3   4
ENDBRANCH   2   3
ENDBRANCH   1   2
BRANCH   1  12
ATOM     12  C   UNL     1       8.372 -14.721  24.866  1.00  0.00     0.000 C 
BRANCH  12  13
ATOM     13  C   UNL     1       9.745 -14.903  24.199  1.00  0.00    -0.000 C 
BRANCH  13  14
ATOM     14  C   UNL     1      10.692 -15.884  24.918  1.00  0.00    -0.000 C 
BRANCH  14  15
ATOM     15  C   UNL     1      10.043 -16.615  26.112  1.00  0.00    -0.000 C 
BRANCH  15  16
ATOM     16  C   UNL     1      10.176 -18.145  26.004  1.00  0.00    -0.000 C 
BRANCH  16  17
ATOM     17  C   UNL     1       8.982 -18.889  26.623  1.00  0.00    -0.000 C 
BRANCH  17  18
ATOM     18  C   UNL     1       8.944 -20.373  26.227  1.00  0.00    -0.000 C 
BRANCH  18  19
ATOM     19  C   UNL     1       7.509 -20.912  26.258  1.00  0.00    -0.003 C 
ATOM     20  C   UNL     1       6.682 -20.220  27.338  1.00  0.00     0.004 C 
ENDBRANCH  18  19
ENDBRANCH  17  18
ENDBRANCH  16  17
ENDBRANCH  15  16
ENDBRANCH  14  15
ENDBRANCH  13  14
ENDBRANCH  12  13
ENDBRANCH   1  12
TORSDOF 16
ENDMDL
MODEL 2
REMARK VINA RESULT:    -4.096      2.874      4.991
REMARK INTER + INTRA:         -10.908
REMARK INTER:                  -7.862
REMARK INTRA:                  -3.046
REMARK UNBOUND:                -2.981
REMARK SMILES CCCCCCCCCCCCCCCCCC(=O)[O-]
REMARK SMILES IDX 10 1 11 2 12 3 13 4 14 5 15 6 16 7 17 8 18 9 19 10 20 11
REMARK SMILES IDX 9 12 8 13 7 14 6 15 5 16 4 17 3 18 2 19 1 20
REMARK H PARENT
REMARK Flexibility Score: inf
ROOT
ATOM      1  C   UNL     1       7.488 -16.030  22.302  1.00  0.00     0.000 C 
ENDROOT
BRANCH   1   2
ATOM      2  C   UNL     1       7.036 -15.545  23.686  1.00  0.00     0.000 C 
BRANCH   2   3
ATOM      3  C   UNL     1       6.384 -16.658  24.524  1.00  0.00     0.000 C 
BRANCH   3   4
ATOM      4  C   UNL     1       6.979 -16.843  25.934  1.00  0.00     0.000 C 
BRANCH   4   5
ATOM      5  C   UNL     1       8.065 -17.937  26.016  1.00  0.00     0.000 C 
BRANCH   5   6
ATOM      6  C   UNL     1       9.375 -17.415  26.631  1.00  0.00     0.000 C 
BRANCH   6   7
ATOM      7  C   UNL     1       9.866 -16.118  25.971  1.00  0.00     0.006 C 
BRANCH   7   8
ATOM      8  C   UNL     1      11.018 -16.355  24.985  1.00  0.00     0.053 C 
BRANCH   8   9
ATOM      9  C   UNL     1      11.077 -15.251  23.979  1.00  0.00     0.041 C 
ATOM     10  O   UNL     1      11.956 -15.260  23.076  1.00  0.00    -0.550 OA
ATOM     11  O   UNL     1      10.131 -14.234  24.005  1.00  0.00    -0.550 OA
ENDBRANCH   8   9
ENDBRANCH   7   8
ENDBRANCH   6   7
ENDBRANCH   5   6
ENDBRANCH   4   5
ENDBRANCH   3   4
ENDBRANCH   2   3
ENDBRANCH   1   2
BRANCH   1  12
ATOM     12  C   UNL     1       8.218 -17.377  22.407  1.00  0.00     0.000 C 
BRANCH  12  13
ATOM     13  C   UNL     1       7.825 -18.356  21.288  1.00  0.00    -0.000 C 
BRANCH  13  14
ATOM     14  C   UNL     1       7.631 -19.816  21.741  1.00  0.00    -0.000 C 
BRANCH  14  15
ATOM     15  C   UNL     1       6.798 -19.964  23.032  1.00  0.00    -0.000 C 
BRANCH  15  16
ATOM     16  C   UNL     1       7.472 -20.889  24.061  1.00  0.00    -0.000 C 
BRANCH  16  17
ATOM     17  C   UNL     1       8.623 -21.708  23.457  1.00  0.00    -0.000 C 
BRANCH  17  18
ATOM     18  C   UNL     1       9.820 -21.835  24.411  1.00  0.00    -0.000 C 
BRANCH  18  19
ATOM     19  C   UNL     1      10.423 -20.460  24.720  1.00  0.00    -0.003 C 
ATOM     20  C   UNL     1      10.940 -19.786  23.452  1.00  0.00     0.004 C 
ENDBRANCH  18  19
ENDBRANCH  17  18
ENDBRANCH  16  17
ENDBRANCH  15  16
ENDBRANCH  14  15
ENDBRANCH  13  14
ENDBRANCH  12  13
ENDBRANCH   1  12
TORSDOF 16
ENDMDL
MODEL 3
REMARK VINA RESULT:    -4.077      2.134      4.291
REMARK INTER + INTRA:         -10.872
REMARK INTER:                  -7.834
REMARK INTRA:                  -3.038
REMARK UNBOUND:                -2.981
REMARK SMILES CCCCCCCCCCCCCCCCCC(=O)[O-]
REMARK SMILES IDX 10 1 11 2 12 3 13 4 14 5 15 6 16 7 17 8 18 9 19 10 20 11
REMARK SMILES IDX 9 12 8 13 7 14 6 15 5 16 4 17 3 18 2 19 1 20
REMARK H PARENT
REMARK Flexibility Score: inf
ROOT
ATOM      1  C   UNL     1       6.750 -13.624  22.822  1.00  0.00     0.000 C 
ENDROOT
BRANCH   1   2
ATOM      2  C   UNL     1       7.251 -14.466  24.004  1.00  0.00     0.000 C 
BRANCH   2   3
ATOM      3  C   UNL     1       6.517 -15.812  24.130  1.00  0.00     0.000 C 
BRANCH   3   4
ATOM      4  C   UNL     1       7.076 -16.758  25.211  1.00  0.00     0.000 C 
BRANCH   4   5
ATOM      5  C   UNL     1       7.200 -18.227  24.753  1.00  0.00     0.000 C 
BRANCH   5   6
ATOM      6  C   UNL     1       6.960 -18.391  23.243  1.00  0.00     0.000 C 
BRANCH   6   7
ATOM      7  C   UNL     1       7.633 -19.646  22.668  1.00  0.00     0.006 C 
BRANCH   7   8
ATOM      8  C   UNL     1       7.155 -19.977  21.248  1.00  0.00     0.053 C 
BRANCH   8   9
ATOM      9  C   UNL     1       8.072 -20.971  20.608  1.00  0.00     0.041 C 
ATOM     10  O   UNL     1       8.021 -22.186  20.936  1.00  0.00    -0.550 OA
ATOM     11  O   UNL     1       8.950 -20.565  19.611  1.00  0.00    -0.550 OA
ENDBRANCH   8   9
ENDBRANCH   7   8
ENDBRANCH   6   7
ENDBRANCH   5   6
ENDBRANCH   4   5
ENDBRANCH   3   4
ENDBRANCH   2   3
ENDBRANCH   1   2
BRANCH   1  12
ATOM     12  C   UNL     1       5.848 -14.458  21.901  1.00  0.00     0.000 C 
BRANCH  12  13
ATOM     13  C   UNL     1       5.943 -14.030  20.427  1.00  0.00    -0.000 C 
BRANCH  13  14
ATOM     14  C   UNL     1       6.847 -14.918  19.550  1.00  0.00    -0.000 C 
BRANCH  14  15
ATOM     15  C   UNL     1       7.290 -16.228  20.235  1.00  0.00    -0.000 C 
BRANCH  15  16
ATOM     16  C   UNL     1       8.638 -16.743  19.698  1.00  0.00    -0.000 C 
BRANCH  16  17
ATOM     17  C   UNL     1       9.626 -17.100  20.819  1.00  0.00    -0.000 C 
BRANCH  17  18
ATOM     18  C   UNL     1       9.517 -16.153  22.024  1.00  0.00    -0.000 C 
BRANCH  18  19
ATOM     19  C   UNL     1      10.352 -16.666  23.203  1.00  0.00    -0.003 C 
ATOM     20  C   UNL     1      10.853 -15.513  24.068  1.00  0.00     0.004 C 
ENDBRANCH  18  19
ENDBRANCH  17  18
ENDBRANCH  16  17
ENDBRANCH  15  16
ENDBRANCH  14  15
ENDBRANCH  13  14
ENDBRANCH  12  13
ENDBRANCH   1  12
TORSDOF 16
ENDMDL
MODEL 4
REMARK VINA RESULT:    -4.066      1.454      2.865
REMARK INTER + INTRA:         -10.851
REMARK INTER:                  -7.709
REMARK INTRA:                  -3.143
REMARK UNBOUND:                -2.981
REMARK SMILES CCCCCCCCCCCCCCCCCC(=O)[O-]
REMARK SMILES IDX 10 1 11 2 12 3 13 4 14 5 15 6 16 7 17 8 18 9 19 10 20 11
REMARK SMILES IDX 9 12 8 13 7 14 6 15 5 16 4 17 3 18 2 19 1 20
REMARK H PARENT
REMARK Flexibility Score: inf
ROOT
ATOM      1  C   UNL     1       8.450 -14.385  24.804  1.00  0.00     0.000 C 
ENDROOT
BRANCH   1   2
ATOM      2  C   UNL     1       9.816 -14.794  24.235  1.00  0.00     0.000 C 
BRANCH   2   3
ATOM      3  C   UNL     1      10.452 -15.968  24.997  1.00  0.00     0.000 C 
BRANCH   3   4
ATOM      4  C   UNL     1      10.670 -17.244  24.160  1.00  0.00     0.000 C 
BRANCH   4   5
ATOM      5  C   UNL     1      10.053 -17.178  22.746  1.00  0.00     0.000 C 
BRANCH   5   6
ATOM      6  C   UNL     1       9.619 -18.562  22.232  1.00  0.00     0.000 C 
BRANCH   6   7
ATOM      7  C   UNL     1       8.341 -18.505  21.382  1.00  0.00     0.006 C 
BRANCH   7   8
ATOM      8  C   UNL     1       8.345 -19.527  20.237  1.00  0.00     0.053 C 
BRANCH   8   9
ATOM      9  C   UNL     1       7.716 -20.808  20.682  1.00  0.00     0.041 C 
ATOM     10  O   UNL     1       8.264 -21.911  20.414  1.00  0.00    -0.550 OA
ATOM     11  O   UNL     1       6.550 -20.786  21.436  1.00  0.00    -0.550 OA
ENDBRANCH   8   9
ENDBRANCH   7   8
ENDBRANCH   6   7
ENDBRANCH   5   6
ENDBRANCH   4   5
ENDBRANCH   3   4
ENDBRANCH   2   3
ENDBRANCH   1   2
BRANCH   1  12
ATOM     12  C   UNL     1       7.425 -14.189  23.677  1.00  0.00     0.000 C 
BRANCH  12  13
ATOM     13  C   UNL     1       6.768 -15.507  23.233  1.00  0.00    -0.000 C 
BRANCH  13  14
ATOM     14  C   UNL     1       6.158 -16.344  24.374  1.00  0.00    -0.000 C 
BRANCH  14  15
ATOM     15  C   UNL     1       6.767 -17.756  24.507  1.00  0.00    -0.000 C 
BRANCH  15  16
ATOM     16  C   UNL     1       7.440 -17.976  25.875  1.00  0.00    -0.000 C 
BRANCH  16  17
ATOM     17  C   UNL     1       8.130 -19.345  25.982  1.00  0.00    -0.000 C 
BRANCH  17  18
ATOM     18  C   UNL     1       7.432 -20.424  25.142  1.00  0.00    -0.000 C 
BRANCH  18  19
ATOM     19  C   UNL     1       8.454 -21.272  24.377  1.00  0.00    -0.003 C 
ATOM     20  C   UNL     1       9.800 -21.297  25.097  1.00  0.00     0.004 C 
ENDBRANCH  18  19
ENDBRANCH  17  18
ENDBRANCH  16  17
ENDBRANCH  15  16
ENDBRANCH  14  15
ENDBRANCH  13  14
ENDBRANCH  12  13
ENDBRANCH   1  12
TORSDOF 16
ENDMDL
MODEL 5
REMARK VINA RESULT:    -3.979      2.177      4.298
REMARK INTER + INTRA:         -10.682
REMARK INTER:                  -8.029
REMARK INTRA:                  -2.653
REMARK UNBOUND:                -2.981
REMARK SMILES CCCCCCCCCCCCCCCCCC(=O)[O-]
REMARK SMILES IDX 10 1 11 2 12 3 13 4 14 5 15 6 16 7 17 8 18 9 19 10 20 11
REMARK SMILES IDX 9 12 8 13 7 14 6 15 5 16 4 17 3 18 2 19 1 20
REMARK H PARENT
REMARK Flexibility Score: inf
ROOT
ATOM      1  C   UNL     1       6.345 -16.341  24.469  1.00  0.00     0.000 C 
ENDROOT
BRANCH   1   2
ATOM      2  C   UNL     1       6.367 -15.246  23.392  1.00  0.00     0.000 C 
BRANCH   2   3
ATOM      3  C   UNL     1       7.356 -14.114  23.714  1.00  0.00     0.000 C 
BRANCH   3   4
ATOM      4  C   UNL     1       8.326 -14.408  24.876  1.00  0.00     0.000 C 
BRANCH   4   5
ATOM      5  C   UNL     1       9.688 -14.978  24.425  1.00  0.00     0.000 C 
BRANCH   5   6
ATOM      6  C   UNL     1      10.049 -16.280  25.161  1.00  0.00     0.000 C 
BRANCH   6   7
ATOM      7  C   UNL     1      11.185 -17.054  24.475  1.00  0.00     0.006 C 
BRANCH   7   8
ATOM      8  C   UNL     1      10.957 -18.571  24.482  1.00  0.00     0.053 C 
BRANCH   8   9
ATOM      9  C   UNL     1      11.821 -19.222  25.514  1.00  0.00     0.041 C 
ATOM     10  O   UNL     1      12.724 -18.563  26.094  1.00  0.00    -0.550 OA
ATOM     11  O   UNL     1      11.598 -20.545  25.874  1.00  0.00    -0.550 OA
ENDBRANCH   8   9
ENDBRANCH   7   8
ENDBRANCH   6   7
ENDBRANCH   5   6
ENDBRANCH   4   5
ENDBRANCH   3   4
ENDBRANCH   2   3
ENDBRANCH   1   2
BRANCH   1  12
ATOM     12  C   UNL     1       6.764 -17.695  23.878  1.00  0.00     0.000 C 
BRANCH  12  13
ATOM     13  C   UNL     1       7.617 -17.553  22.607  1.00  0.00    -0.000 C 
BRANCH  13  14
ATOM     14  C   UNL     1       7.831 -18.859  21.818  1.00  0.00    -0.000 C 
BRANCH  14  15
ATOM     15  C   UNL     1       7.123 -20.084  22.436  1.00  0.00    -0.000 C 
BRANCH  15  16
ATOM     16  C   UNL     1       8.081 -21.272  22.641  1.00  0.00    -0.000 C 
BRANCH  16  17
ATOM     17  C   UNL     1       8.586 -21.383  24.089  1.00  0.00    -0.000 C 
BRANCH  17  18
ATOM     18  C   UNL     1       7.481 -21.112  25.120  1.00  0.00    -0.000 C 
BRANCH  18  19
ATOM     19  C   UNL     1       8.061 -20.489  26.396  1.00  0.00    -0.003 C 
ATOM     20  C   UNL     1       7.090 -19.484  27.010  1.00  0.00     0.004 C 
ENDBRANCH  18  19
ENDBRANCH  17  18
ENDBRANCH  16  17
ENDBRANCH  15  16
ENDBRANCH  14  15
ENDBRANCH  13  14
ENDBRANCH  12  13
ENDBRANCH   1  12
TORSDOF 16
ENDMDL
MODEL 6
REMARK VINA RESULT:    -3.966      3.013      5.546
REMARK INTER + INTRA:         -10.656
REMARK INTER:                  -8.008
REMARK INTRA:                  -2.648
REMARK UNBOUND:                -2.981
REMARK SMILES CCCCCCCCCCCCCCCCCC(=O)[O-]
REMARK SMILES IDX 10 1 11 2 12 3 13 4 14 5 15 6 16 7 17 8 18 9 19 10 20 11
REMARK SMILES IDX 9 12 8 13 7 14 6 15 5 16 4 17 3 18 2 19 1 20
REMARK H PARENT
REMARK Flexibility Score: inf
ROOT
ATOM      1  C   UNL     1       7.559 -17.846  21.543  1.00  0.00     0.000 C 
ENDROOT
BRANCH   1   2
ATOM      2  C   UNL     1       7.801 -19.219  20.899  1.00  0.00     0.000 C 
BRANCH   2   3
ATOM      3  C   UNL     1       7.248 -20.379  21.743  1.00  0.00     0.000 C 
BRANCH   3   4
ATOM      4  C   UNL     1       6.631 -19.964  23.093  1.00  0.00     0.000 C 
BRANCH   4   5
ATOM      5  C   UNL     1       7.258 -20.674  24.312  1.00  0.00     0.000 C 
BRANCH   5   6
ATOM      6  C   UNL     1       8.754 -20.353  24.471  1.00  0.00     0.000 C 
BRANCH   6   7
ATOM      7  C   UNL     1       9.008 -18.890  24.866  1.00  0.00     0.006 C 
BRANCH   7   8
ATOM      8  C   UNL     1      10.355 -18.364  24.353  1.00  0.00     0.053 C 
BRANCH   8   9
ATOM      9  C   UNL     1      11.156 -17.797  25.482  1.00  0.00     0.041 C 
ATOM     10  O   UNL     1      11.924 -18.538  26.151  1.00  0.00    -0.550 OA
ATOM     11  O   UNL     1      11.095 -16.438  25.764  1.00  0.00    -0.550 OA
ENDBRANCH   8   9
ENDBRANCH   7   8
ENDBRANCH   6   7
ENDBRANCH   5   6
ENDBRANCH   4   5
ENDBRANCH   3   4
ENDBRANCH   2   3
ENDBRANCH   1   2
BRANCH   1  12
ATOM     12  C   UNL     1       8.711 -16.882  21.222  1.00  0.00     0.000 C 
BRANCH  12  13
ATOM     13  C   UNL     1       8.373 -15.909  20.080  1.00  0.00    -0.000 C 
BRANCH  13  14
ATOM     14  C   UNL     1       6.867 -15.737  19.797  1.00  0.00    -0.000 C 
BRANCH  14  15
ATOM     15  C   UNL     1       6.354 -14.297  20.003  1.00  0.00    -0.000 C 
BRANCH  15  16
ATOM     16  C   UNL     1       5.689 -14.104  21.379  1.00  0.00    -0.000 C 
BRANCH  16  17
ATOM     17  C   UNL     1       6.636 -13.473  22.411  1.00  0.00    -0.000 C 
BRANCH  17  18
ATOM     18  C   UNL     1       7.041 -14.457  23.518  1.00  0.00    -0.000 C 
BRANCH  18  19
ATOM     19  C   UNL     1       5.895 -15.425  23.838  1.00  0.00    -0.003 C 
ATOM     20  C   UNL     1       6.348 -16.516  24.804  1.00  0.00     0.004 C 
ENDBRANCH  18  19
ENDBRANCH  17  18
ENDBRANCH  16  17
ENDBRANCH  15  16
ENDBRANCH  14  15
ENDBRANCH  13  14
ENDBRANCH  12  13
ENDBRANCH   1  12
TORSDOF 16
ENDMDL
MODEL 7
REMARK VINA RESULT:    -3.915      2.227      4.520
REMARK INTER + INTRA:         -10.558
REMARK INTER:                  -7.901
REMARK INTRA:                  -2.657
REMARK UNBOUND:                -2.981
REMARK SMILES CCCCCCCCCCCCCCCCCC(=O)[O-]
REMARK SMILES IDX 10 1 11 2 12 3 13 4 14 5 15 6 16 7 17 8 18 9 19 10 20 11
REMARK SMILES IDX 9 12 8 13 7 14 6 15 5 16 4 17 3 18 2 19 1 20
REMARK H PARENT
REMARK Flexibility Score: inf
ROOT
ATOM      1  C   UNL     1       9.378 -18.785  23.068  1.00  0.00     0.000 C 
ENDROOT
BRANCH   1   2
ATOM      2  C   UNL     1       8.730 -18.328  21.754  1.00  0.00     0.000 C 
BRANCH   2   3
ATOM      3  C   UNL     1       8.610 -19.462  20.722  1.00  0.00     0.000 C 
BRANCH   3   4
ATOM      4  C   UNL     1       7.476 -20.470  20.994  1.00  0.00     0.000 C 
BRANCH   4   5
ATOM      5  C   UNL     1       7.811 -21.917  20.574  1.00  0.00     0.000 C 
BRANCH   5   6
ATOM      6  C   UNL     1       9.182 -22.377  21.101  1.00  0.00     0.000 C 
BRANCH   6   7
ATOM      7  C   UNL     1       9.188 -22.600  22.621  1.00  0.00     0.006 C 
BRANCH   7   8
ATOM      8  C   UNL     1      10.606 -22.699  23.199  1.00  0.00     0.053 C 
BRANCH   8   9
ATOM      9  C   UNL     1      10.567 -22.615  24.691  1.00  0.00     0.041 C 
ATOM     10  O   UNL     1      11.414 -23.238  25.385  1.00  0.00    -0.550 OA
ATOM     11  O   UNL     1       9.627 -21.808  25.318  1.00  0.00    -0.550 OA
ENDBRANCH   8   9
ENDBRANCH   7   8
ENDBRANCH   6   7
ENDBRANCH   5   6
ENDBRANCH   4   5
ENDBRANCH   3   4
ENDBRANCH   2   3
ENDBRANCH   1   2
BRANCH   1  12
ATOM     12  C   UNL     1       8.347 -18.808  24.206  1.00  0.00     0.000 C 
BRANCH  12  13
ATOM     13  C   UNL     1       7.030 -18.109  23.831  1.00  0.00    -0.000 C 
BRANCH  13  14
ATOM     14  C   UNL     1       6.623 -16.949  24.760  1.00  0.00    -0.000 C 
BRANCH  14  15
ATOM     15  C   UNL     1       6.388 -15.613  24.024  1.00  0.00    -0.000 C 
BRANCH  15  16
ATOM     16  C   UNL     1       7.700 -14.981  23.526  1.00  0.00    -0.000 C 
BRANCH  16  17
ATOM     17  C   UNL     1       8.727 -14.784  24.652  1.00  0.00    -0.000 C 
BRANCH  17  18
ATOM     18  C   UNL     1      10.163 -15.089  24.199  1.00  0.00    -0.000 C 
BRANCH  18  19
ATOM     19  C   UNL     1      10.826 -16.113  25.128  1.00  0.00    -0.003 C 
ATOM     20  C   UNL     1       9.973 -16.367  26.368  1.00  0.00     0.004 C 
ENDBRANCH  18  19
ENDBRANCH  17  18
ENDBRANCH  16  17
ENDBRANCH  15  16
ENDBRANCH  14  15
ENDBRANCH  13  14
ENDBRANCH  12  13
ENDBRANCH   1  12
TORSDOF 16
ENDMDL
MODEL 8
REMARK VINA RESULT:    -3.909      1.515      3.973
REMARK INTER + INTRA:         -10.546
REMARK INTER:                  -7.702
REMARK INTRA:                  -2.845
REMARK UNBOUND:                -2.981
REMARK SMILES CCCCCCCCCCCCCCCCCC(=O)[O-]
REMARK SMILES IDX 10 1 11 2 12 3 13 4 14 5 15 6 16 7 17 8 18 9 19 10 20 11
REMARK SMILES IDX 9 12 8 13 7 14 6 15 5 16 4 17 3 18 2 19 1 20
REMARK H PARENT
REMARK Flexibility Score: inf
ROOT
ATOM      1  C   UNL     1       8.006 -15.973  26.062  1.00  0.00     0.000 C 
ENDROOT
BRANCH   1   2
ATOM      2  C   UNL     1       9.214 -16.797  26.531  1.00  0.00     0.000 C 
BRANCH   2   3
ATOM      3  C   UNL     1       9.055 -18.300  26.251  1.00  0.00     0.000 C 
BRANCH   3   4
ATOM      4  C   UNL     1       7.603 -18.774  26.048  1.00  0.00     0.000 C 
BRANCH   4   5
ATOM      5  C   UNL     1       7.465 -19.985  25.101  1.00  0.00     0.000 C 
BRANCH   5   6
ATOM      6  C   UNL     1       8.632 -20.977  25.246  1.00  0.00     0.000 C 
BRANCH   6   7
ATOM      7  C   UNL     1       9.490 -21.073  23.976  1.00  0.00     0.006 C 
BRANCH   7   8
ATOM      8  C   UNL     1       9.430 -22.461  23.324  1.00  0.00     0.053 C 
BRANCH   8   9
ATOM      9  C   UNL     1       8.782 -22.377  21.979  1.00  0.00     0.041 C 
ATOM     10  O   UNL     1       9.000 -23.266  21.113  1.00  0.00    -0.550 OA
ATOM     11  O   UNL     1       7.896 -21.345  21.697  1.00  0.00    -0.550 OA
ENDBRANCH   8   9
ENDBRANCH   7   8
ENDBRANCH   6   7
ENDBRANCH   5   6
ENDBRANCH   4   5
ENDBRANCH   3   4
ENDBRANCH   2   3
ENDBRANCH   1   2
BRANCH   1  12
ATOM     12  C   UNL     1       8.460 -14.749  25.254  1.00  0.00     0.000 C 
BRANCH  12  13
ATOM     13  C   UNL     1       7.473 -14.372  24.137  1.00  0.00    -0.000 C 
BRANCH  13  14
ATOM     14  C   UNL     1       6.757 -15.565  23.473  1.00  0.00    -0.000 C 
BRANCH  14  15
ATOM     15  C   UNL     1       7.437 -16.057  22.178  1.00  0.00    -0.000 C 
BRANCH  15  16
ATOM     16  C   UNL     1       8.003 -17.482  22.320  1.00  0.00    -0.000 C 
BRANCH  16  17
ATOM     17  C   UNL     1       9.458 -17.495  22.815  1.00  0.00    -0.000 C 
BRANCH  17  18
ATOM     18  C   UNL     1      10.244 -16.254  22.367  1.00  0.00    -0.000 C 
BRANCH  18  19
ATOM     19  C   UNL     1      11.361 -15.922  23.363  1.00  0.00    -0.003 C 
ATOM     20  C   UNL     1      11.822 -14.475  23.213  1.00  0.00     0.004 C 
ENDBRANCH  18  19
ENDBRANCH  17  18
ENDBRANCH  16  17
ENDBRANCH  15  16
ENDBRANCH  14  15
ENDBRANCH  13  14
ENDBRANCH  12  13
ENDBRANCH   1  12
TORSDOF 16
ENDMDL
MODEL 9
REMARK VINA RESULT:    -3.898      2.603      4.681
REMARK INTER + INTRA:         -10.525
REMARK INTER:                  -7.990
REMARK INTRA:                  -2.535
REMARK UNBOUND:                -2.981
REMARK SMILES CCCCCCCCCCCCCCCCCC(=O)[O-]
REMARK SMILES IDX 10 1 11 2 12 3 13 4 14 5 15 6 16 7 17 8 18 9 19 10 20 11
REMARK SMILES IDX 9 12 8 13 7 14 6 15 5 16 4 17 3 18 2 19 1 20
REMARK H PARENT
REMARK Flexibility Score: inf
ROOT
ATOM      1  C   UNL     1       7.277 -14.311  23.815  1.00  0.00     0.000 C 
ENDROOT
BRANCH   1   2
ATOM      2  C   UNL     1       8.465 -14.407  24.782  1.00  0.00     0.000 C 
BRANCH   2   3
ATOM      3  C   UNL     1       9.776 -14.794  24.079  1.00  0.00     0.000 C 
BRANCH   3   4
ATOM      4  C   UNL     1      10.568 -15.928  24.759  1.00  0.00     0.000 C 
BRANCH   4   5
ATOM      5  C   UNL     1      10.915 -17.101  23.818  1.00  0.00     0.000 C 
BRANCH   5   6
ATOM      6  C   UNL     1      10.610 -18.470  24.452  1.00  0.00     0.000 C 
BRANCH   6   7
ATOM      7  C   UNL     1      10.587 -18.420  25.987  1.00  0.00     0.006 C 
BRANCH   7   8
ATOM      8  C   UNL     1      11.433 -19.529  26.627  1.00  0.00     0.053 C 
BRANCH   8   9
ATOM      9  C   UNL     1      10.651 -20.231  27.691  1.00  0.00     0.041 C 
ATOM     10  O   UNL     1      10.976 -20.110  28.902  1.00  0.00    -0.550 OA
ATOM     11  O   UNL     1       9.531 -20.979  27.352  1.00  0.00    -0.550 OA
ENDBRANCH   8   9
ENDBRANCH   7   8
ENDBRANCH   6   7
ENDBRANCH   5   6
ENDBRANCH   4   5
ENDBRANCH   3   4
ENDBRANCH   2   3
ENDBRANCH   1   2
BRANCH   1  12
ATOM     12  C   UNL     1       6.344 -15.520  23.975  1.00  0.00     0.000 C 
BRANCH  12  13
ATOM     13  C   UNL     1       6.668 -16.362  25.220  1.00  0.00    -0.000 C 
BRANCH  13  14
ATOM     14  C   UNL     1       7.058 -17.825  24.931  1.00  0.00    -0.000 C 
BRANCH  14  15
ATOM     15  C   UNL     1       7.048 -18.189  23.431  1.00  0.00    -0.000 C 
BRANCH  15  16
ATOM     16  C   UNL     1       6.880 -19.701  23.197  1.00  0.00    -0.000 C 
BRANCH  16  17
ATOM     17  C   UNL     1       7.381 -20.543  24.381  1.00  0.00    -0.000 C 
BRANCH  17  18
ATOM     18  C   UNL     1       8.477 -21.540  23.974  1.00  0.00    -0.000 C 
BRANCH  18  19
ATOM     19  C   UNL     1       8.834 -21.387  22.491  1.00  0.00    -0.003 C 
ATOM     20  C   UNL     1       8.714 -22.718  21.754  1.00  0.00     0.004 C 
ENDBRANCH  18  19
ENDBRANCH  17  18
ENDBRANCH  16  17
ENDBRANCH  15  16
ENDBRANCH  14  15
ENDBRANCH  13  14
ENDBRANCH  12  13
ENDBRANCH   1  12
TORSDOF 16
ENDMDL
