MODEL 1
REMARK VINA RESULT:    -2.866      0.000      0.000
REMARK INTER + INTRA:          -8.081
REMARK INTER:                  -6.218
REMARK INTRA:                  -1.863
REMARK UNBOUND:                -1.863
REMARK SMILES CCCCCCCCCCCCCCCCCCCCCC(=O)[O-]
REMARK SMILES IDX 12 1 11 2 10 3 9 4 8 5 7 6 6 7 5 8 4 9 3 10 2 11 1 12 13 13
REMARK SMILES IDX 14 14 15 15 16 16 17 17 18 18 19 19 20 20 21 21 22 22 23 23
REMARK SMILES IDX 24 24
REMARK H PARENT
REMARK Flexibility Score: inf
ROOT
ATOM      1  C   UNL     1      -9.996   1.911  -7.438  1.00  0.00     0.000 C 
ENDROOT
BRANCH   1   2
ATOM      2  C   UNL     1      -9.818   3.377  -7.009  1.00  0.00     0.000 C 
BRANCH   2   3
ATOM      3  C   UNL     1      -9.458   3.521  -5.523  1.00  0.00     0.000 C 
BRANCH   3   4
ATOM      4  C   UNL     1      -9.695   2.202  -4.772  1.00  0.00    -0.000 C 
BRANCH   4   5
ATOM      5  C   UNL     1      -8.398   1.415  -4.509  1.00  0.00    -0.000 C 
BRANCH   5   6
ATOM      6  C   UNL     1      -7.552   1.925  -3.327  1.00  0.00    -0.000 C 
BRANCH   6   7
ATOM      7  C   UNL     1      -6.067   1.544  -3.445  1.00  0.00    -0.000 C 
BRANCH   7   8
ATOM      8  C   UNL     1      -5.247   1.988  -2.222  1.00  0.00    -0.000 C 
BRANCH   8   9
ATOM      9  C   UNL     1      -6.105   2.696  -1.162  1.00  0.00    -0.000 C 
BRANCH   9  10
ATOM     10  C   UNL     1      -5.245   3.140   0.031  1.00  0.00    -0.000 C 
BRANCH  10  11
ATOM     11  C   UNL     1      -5.216   2.097   1.159  1.00  0.00    -0.003 C 
ATOM     12  C   UNL     1      -5.387   2.719   2.545  1.00  0.00     0.004 C 
ENDBRANCH  10  11
ENDBRANCH   9  10
ENDBRANCH   8   9
ENDBRANCH   7   8
ENDBRANCH   6   7
ENDBRANCH   5   6
ENDBRANCH   4   5
ENDBRANCH   3   4
ENDBRANCH   2   3
ENDBRANCH   1   2
BRANCH   1  13
ATOM     13  C   UNL     1      -8.890   1.438  -8.397  1.00  0.00     0.000 C 
BRANCH  13  14
ATOM     14  C   UNL     1      -8.560   2.482  -9.476  1.00  0.00     0.000 C 
BRANCH  14  15
ATOM     15  C   UNL     1      -7.117   3.005  -9.372  1.00  0.00     0.000 C 
BRANCH  15  16
ATOM     16  C   UNL     1      -6.987   4.480  -9.785  1.00  0.00     0.000 C 
BRANCH  16  17
ATOM     17  C   UNL     1      -8.339   5.156 -10.092  1.00  0.00     0.000 C 
BRANCH  17  18
ATOM     18  C   UNL     1      -8.751   6.155  -8.998  1.00  0.00     0.000 C 
BRANCH  18  19
ATOM     19  C   UNL     1      -7.726   6.246  -7.853  1.00  0.00     0.000 C 
BRANCH  19  20
ATOM     20  C   UNL     1      -8.171   7.100  -6.651  1.00  0.00     0.006 C 
BRANCH  20  21
ATOM     21  C   UNL     1      -9.342   8.032  -6.986  1.00  0.00     0.053 C 
BRANCH  21  22
ATOM     22  C   UNL     1      -8.836   9.345  -7.494  1.00  0.00     0.041 C 
ATOM     23  O   UNL     1      -9.256   9.804  -8.589  1.00  0.00    -0.550 OA
ATOM     24  O   UNL     1      -7.862  10.038  -6.782  1.00  0.00    -0.550 OA
ENDBRANCH  21  22
ENDBRANCH  20  21
ENDBRANCH  19  20
ENDBRANCH  18  19
ENDBRANCH  17  18
ENDBRANCH  16  17
ENDBRANCH  15  16
ENDBRANCH  14  15
ENDBRANCH  13  14
ENDBRANCH   1  13
TORSDOF 20
ENDMDL
MODEL 2
REMARK VINA RESULT:    -2.836      2.665      4.494
REMARK INTER + INTRA:          -8.015
REMARK INTER:                  -6.137
REMARK INTRA:                  -1.878
REMARK UNBOUND:                -1.863
REMARK SMILES CCCCCCCCCCCCCCCCCCCCCC(=O)[O-]
REMARK SMILES IDX 12 1 11 2 10 3 9 4 8 5 7 6 6 7 5 8 4 9 3 10 2 11 1 12 13 13
REMARK SMILES IDX 14 14 15 15 16 16 17 17 18 18 19 19 20 20 21 21 22 22 23 23
REMARK SMILES IDX 24 24
REMARK H PARENT
REMARK Flexibility Score: inf
ROOT
ATOM      1  C   UNL     1     -10.077   6.621  -4.154  1.00  0.00     0.000 C 
ENDROOT
BRANCH   1   2
ATOM      2  C   UNL     1     -10.124   5.140  -4.564  1.00  0.00     0.000 C 
BRANCH   2   3
ATOM      3  C   UNL     1      -9.006   4.760  -5.545  1.00  0.00     0.000 C 
BRANCH   3   4
ATOM      4  C   UNL     1      -8.942   3.238  -5.740  1.00  0.00    -0.000 C 
BRANCH   4   5
ATOM      5  C   UNL     1      -9.199   2.451  -4.442  1.00  0.00    -0.000 C 
BRANCH   5   6
ATOM      6  C   UNL     1      -8.113   2.600  -3.360  1.00  0.00    -0.000 C 
BRANCH   6   7
ATOM      7  C   UNL     1      -7.086   1.455  -3.380  1.00  0.00    -0.000 C 
BRANCH   7   8
ATOM      8  C   UNL     1      -5.713   1.887  -2.838  1.00  0.00    -0.000 C 
BRANCH   8   9
ATOM      9  C   UNL     1      -5.826   2.841  -1.639  1.00  0.00    -0.000 C 
BRANCH   9  10
ATOM     10  C   UNL     1      -5.646   2.082  -0.316  1.00  0.00    -0.000 C 
BRANCH  10  11
ATOM     11  C   UNL     1      -5.753   3.000   0.911  1.00  0.00    -0.003 C 
ATOM     12  C   UNL     1      -4.907   2.516   2.089  1.00  0.00     0.004 C 
ENDBRANCH  10  11
ENDBRANCH   9  10
ENDBRANCH   8   9
ENDBRANCH   7   8
ENDBRANCH   6   7
ENDBRANCH   5   6
ENDBRANCH   4   5
ENDBRANCH   3   4
ENDBRANCH   2   3
ENDBRANCH   1   2
BRANCH   1  13
ATOM     13  C   UNL     1     -10.036   7.567  -5.366  1.00  0.00     0.000 C 
BRANCH  13  14
ATOM     14  C   UNL     1      -9.418   8.933  -5.027  1.00  0.00     0.000 C 
BRANCH  14  15
ATOM     15  C   UNL     1      -8.560   9.496  -6.173  1.00  0.00     0.000 C 
BRANCH  15  16
ATOM     16  C   UNL     1      -8.127   8.417  -7.179  1.00  0.00     0.000 C 
BRANCH  16  17
ATOM     17  C   UNL     1      -8.789   8.565  -8.565  1.00  0.00     0.000 C 
BRANCH  17  18
ATOM     18  C   UNL     1      -8.644   7.292  -9.416  1.00  0.00     0.000 C 
BRANCH  18  19
ATOM     19  C   UNL     1      -9.462   6.109  -8.868  1.00  0.00     0.000 C 
BRANCH  19  20
ATOM     20  C   UNL     1      -9.207   4.763  -9.573  1.00  0.00     0.006 C 
BRANCH  20  21
ATOM     21  C   UNL     1      -7.909   4.088  -9.113  1.00  0.00     0.053 C 
BRANCH  21  22
ATOM     22  C   UNL     1      -7.980   2.611  -9.340  1.00  0.00     0.041 C 
ATOM     23  O   UNL     1      -9.097   2.029  -9.367  1.00  0.00    -0.550 OA
ATOM     24  O   UNL     1      -6.811   1.869  -9.472  1.00  0.00    -0.550 OA
ENDBRANCH  21  22
ENDBRANCH  20  21
ENDBRANCH  19  20
ENDBRANCH  18  19
ENDBRANCH  17  18
ENDBRANCH  16  17
ENDBRANCH  15  16
ENDBRANCH  14  15
ENDBRANCH  13  14
ENDBRANCH   1  13
TORSDOF 20
ENDMDL
MODEL 3
REMARK VINA RESULT:    -2.828      1.410      2.938
REMARK INTER + INTRA:          -7.998
REMARK INTER:                  -5.860
REMARK INTRA:                  -2.138
REMARK UNBOUND:                -1.863
REMARK SMILES CCCCCCCCCCCCCCCCCCCCCC(=O)[O-]
REMARK SMILES IDX 12 1 11 2 10 3 9 4 8 5 7 6 6 7 5 8 4 9 3 10 2 11 1 12 13 13
REMARK SMILES IDX 14 14 15 15 16 16 17 17 18 18 19 19 20 20 21 21 22 22 23 23
REMARK SMILES IDX 24 24
REMARK H PARENT
REMARK Flexibility Score: inf
ROOT
ATOM      1  C   UNL     1      -7.942   3.470  -8.481  1.00  0.00     0.000 C 
ENDROOT
BRANCH   1   2
ATOM      2  C   UNL     1      -9.353   2.866  -8.568  1.00  0.00     0.000 C 
BRANCH   2   3
ATOM      3  C   UNL     1      -9.557   1.691  -7.601  1.00  0.00     0.000 C 
BRANCH   3   4
ATOM      4  C   UNL     1      -9.103   2.064  -6.182  1.00  0.00    -0.000 C 
BRANCH   4   5
ATOM      5  C   UNL     1      -8.793   0.837  -5.304  1.00  0.00    -0.000 C 
BRANCH   5   6
ATOM      6  C   UNL     1      -8.663   1.127  -3.797  1.00  0.00    -0.000 C 
BRANCH   6   7
ATOM      7  C   UNL     1      -7.537   2.124  -3.474  1.00  0.00    -0.000 C 
BRANCH   7   8
ATOM      8  C   UNL     1      -6.156   1.451  -3.410  1.00  0.00    -0.000 C 
BRANCH   8   9
ATOM      9  C   UNL     1      -5.407   1.764  -2.106  1.00  0.00    -0.000 C 
BRANCH   9  10
ATOM     10  C   UNL     1      -6.115   2.878  -1.321  1.00  0.00    -0.000 C 
BRANCH  10  11
ATOM     11  C   UNL     1      -5.370   3.259  -0.033  1.00  0.00    -0.003 C 
ATOM     12  C   UNL     1      -5.426   2.163   1.031  1.00  0.00     0.004 C 
ENDBRANCH  10  11
ENDBRANCH   9  10
ENDBRANCH   8   9
ENDBRANCH   7   8
ENDBRANCH   6   7
ENDBRANCH   5   6
ENDBRANCH   4   5
ENDBRANCH   3   4
ENDBRANCH   2   3
ENDBRANCH   1   2
BRANCH   1  13
ATOM     13  C   UNL     1      -7.900   4.941  -8.928  1.00  0.00     0.000 C 
BRANCH  13  14
ATOM     14  C   UNL     1      -8.828   5.837  -8.092  1.00  0.00     0.000 C 
BRANCH  14  15
ATOM     15  C   UNL     1      -8.413   5.903  -6.612  1.00  0.00     0.000 C 
BRANCH  15  16
ATOM     16  C   UNL     1      -9.573   5.590  -5.653  1.00  0.00     0.000 C 
BRANCH  16  17
ATOM     17  C   UNL     1      -9.945   6.769  -4.729  1.00  0.00     0.000 C 
BRANCH  17  18
ATOM     18  C   UNL     1      -8.869   7.868  -4.731  1.00  0.00     0.000 C 
BRANCH  18  19
ATOM     19  C   UNL     1      -9.418   9.243  -5.154  1.00  0.00     0.000 C 
BRANCH  19  20
ATOM     20  C   UNL     1      -8.533  10.015  -6.150  1.00  0.00     0.006 C 
BRANCH  20  21
ATOM     21  C   UNL     1      -8.655   9.489  -7.586  1.00  0.00     0.053 C 
BRANCH  21  22
ATOM     22  C   UNL     1      -7.299   9.314  -8.194  1.00  0.00     0.041 C 
ATOM     23  O   UNL     1      -7.172   8.706  -9.290  1.00  0.00    -0.550 OA
ATOM     24  O   UNL     1      -6.171   9.779  -7.527  1.00  0.00    -0.550 OA
ENDBRANCH  21  22
ENDBRANCH  20  21
ENDBRANCH  19  20
ENDBRANCH  18  19
ENDBRANCH  17  18
ENDBRANCH  16  17
ENDBRANCH  15  16
ENDBRANCH  14  15
ENDBRANCH  13  14
ENDBRANCH   1  13
TORSDOF 20
ENDMDL
MODEL 4
REMARK VINA RESULT:    -2.722      1.737      2.557
REMARK INTER + INTRA:          -7.768
REMARK INTER:                  -6.161
REMARK INTRA:                  -1.607
REMARK UNBOUND:                -1.863
REMARK SMILES CCCCCCCCCCCCCCCCCCCCCC(=O)[O-]
REMARK SMILES IDX 12 1 11 2 10 3 9 4 8 5 7 6 6 7 5 8 4 9 3 10 2 11 1 12 13 13
REMARK SMILES IDX 14 14 15 15 16 16 17 17 18 18 19 19 20 20 21 21 22 22 23 23
REMARK SMILES IDX 24 24
REMARK H PARENT
REMARK Flexibility Score: inf
ROOT
ATOM      1  C   UNL     1      -8.804   1.388  -8.371  1.00  0.00     0.000 C 
ENDROOT
BRANCH   1   2
ATOM      2  C   UNL     1     -10.124   0.762  -7.891  1.00  0.00     0.000 C 
BRANCH   2   3
ATOM      3  C   UNL     1      -9.925  -0.236  -6.741  1.00  0.00     0.000 C 
BRANCH   3   4
ATOM      4  C   UNL     1      -8.621   0.055  -5.984  1.00  0.00    -0.000 C 
BRANCH   4   5
ATOM      5  C   UNL     1      -8.852   0.751  -4.630  1.00  0.00    -0.000 C 
BRANCH   5   6
ATOM      6  C   UNL     1      -8.290   2.182  -4.526  1.00  0.00    -0.000 C 
BRANCH   6   7
ATOM      7  C   UNL     1      -7.599   2.458  -3.179  1.00  0.00    -0.000 C 
BRANCH   7   8
ATOM      8  C   UNL     1      -6.307   1.642  -3.004  1.00  0.00    -0.000 C 
BRANCH   8   9
ATOM      9  C   UNL     1      -5.363   2.250  -1.955  1.00  0.00    -0.000 C 
BRANCH   9  10
ATOM     10  C   UNL     1      -6.119   2.567  -0.657  1.00  0.00    -0.000 C 
BRANCH  10  11
ATOM     11  C   UNL     1      -5.260   3.345   0.352  1.00  0.00    -0.003 C 
ATOM     12  C   UNL     1      -5.018   2.569   1.647  1.00  0.00     0.004 C 
ENDBRANCH  10  11
ENDBRANCH   9  10
ENDBRANCH   8   9
ENDBRANCH   7   8
ENDBRANCH   6   7
ENDBRANCH   5   6
ENDBRANCH   4   5
ENDBRANCH   3   4
ENDBRANCH   2   3
ENDBRANCH   1   2
BRANCH   1  13
ATOM     13  C   UNL     1      -8.998   2.321  -9.578  1.00  0.00     0.000 C 
BRANCH  13  14
ATOM     14  C   UNL     1      -9.132   3.796  -9.167  1.00  0.00     0.000 C 
BRANCH  14  15
ATOM     15  C   UNL     1      -8.491   4.090  -7.800  1.00  0.00     0.000 C 
BRANCH  15  16
ATOM     16  C   UNL     1      -9.430   4.857  -6.854  1.00  0.00     0.000 C 
BRANCH  16  17
ATOM     17  C   UNL     1      -9.375   6.388  -7.039  1.00  0.00     0.000 C 
BRANCH  17  18
ATOM     18  C   UNL     1      -8.072   6.845  -7.717  1.00  0.00     0.000 C 
BRANCH  18  19
ATOM     19  C   UNL     1      -8.305   7.465  -9.107  1.00  0.00     0.000 C 
BRANCH  19  20
ATOM     20  C   UNL     1      -8.237   9.003  -9.150  1.00  0.00     0.006 C 
BRANCH  20  21
ATOM     21  C   UNL     1      -6.987   9.523  -9.869  1.00  0.00     0.053 C 
BRANCH  21  22
ATOM     22  C   UNL     1      -5.815   9.533  -8.938  1.00  0.00     0.041 C 
ATOM     23  O   UNL     1      -5.997   9.603  -7.694  1.00  0.00    -0.550 OA
ATOM     24  O   UNL     1      -4.521   9.514  -9.448  1.00  0.00    -0.550 OA
ENDBRANCH  21  22
ENDBRANCH  20  21
ENDBRANCH  19  20
ENDBRANCH  18  19
ENDBRANCH  17  18
ENDBRANCH  16  17
ENDBRANCH  15  16
ENDBRANCH  14  15
ENDBRANCH  13  14
ENDBRANCH   1  13
TORSDOF 20
ENDMDL
MODEL 5
REMARK VINA RESULT:    -2.665      1.449      2.337
REMARK INTER + INTRA:          -7.643
REMARK INTER:                  -5.761
REMARK INTRA:                  -1.881
REMARK UNBOUND:                -1.863
REMARK SMILES CCCCCCCCCCCCCCCCCCCCCC(=O)[O-]
REMARK SMILES IDX 12 1 11 2 10 3 9 4 8 5 7 6 6 7 5 8 4 9 3 10 2 11 1 12 13 13
REMARK SMILES IDX 14 14 15 15 16 16 17 17 18 18 19 19 20 20 21 21 22 22 23 23
REMARK SMILES IDX 24 24
REMARK H PARENT
REMARK Flexibility Score: inf
ROOT
ATOM      1  C   UNL     1      -9.332   3.339  -8.674  1.00  0.00     0.000 C 
ENDROOT
BRANCH   1   2
ATOM      2  C   UNL     1      -9.934   2.877  -7.336  1.00  0.00     0.000 C 
BRANCH   2   3
ATOM      3  C   UNL     1      -9.681   3.875  -6.197  1.00  0.00     0.000 C 
BRANCH   3   4
ATOM      4  C   UNL     1      -9.449   3.142  -4.867  1.00  0.00    -0.000 C 
BRANCH   4   5
ATOM      5  C   UNL     1      -9.435   1.609  -5.018  1.00  0.00    -0.000 C 
BRANCH   5   6
ATOM      6  C   UNL     1      -8.183   0.908  -4.458  1.00  0.00    -0.000 C 
BRANCH   6   7
ATOM      7  C   UNL     1      -7.535   1.679  -3.295  1.00  0.00    -0.000 C 
BRANCH   7   8
ATOM      8  C   UNL     1      -5.999   1.663  -3.363  1.00  0.00    -0.000 C 
BRANCH   8   9
ATOM      9  C   UNL     1      -5.345   1.727  -1.974  1.00  0.00    -0.000 C 
BRANCH   9  10
ATOM     10  C   UNL     1      -6.019   2.795  -1.101  1.00  0.00    -0.000 C 
BRANCH  10  11
ATOM     11  C   UNL     1      -5.120   3.270   0.052  1.00  0.00    -0.003 C 
ATOM     12  C   UNL     1      -5.427   2.562   1.372  1.00  0.00     0.004 C 
ENDBRANCH  10  11
ENDBRANCH   9  10
ENDBRANCH   8   9
ENDBRANCH   7   8
ENDBRANCH   6   7
ENDBRANCH   5   6
ENDBRANCH   4   5
ENDBRANCH   3   4
ENDBRANCH   2   3
ENDBRANCH   1   2
BRANCH   1  13
ATOM     13  C   UNL     1      -9.762   4.766  -9.053  1.00  0.00     0.000 C 
BRANCH  13  14
ATOM     14  C   UNL     1      -8.853   5.390 -10.124  1.00  0.00     0.000 C 
BRANCH  14  15
ATOM     15  C   UNL     1      -7.387   5.492  -9.670  1.00  0.00     0.000 C 
BRANCH  15  16
ATOM     16  C   UNL     1      -6.868   6.939  -9.655  1.00  0.00     0.000 C 
BRANCH  16  17
ATOM     17  C   UNL     1      -7.940   7.984 -10.028  1.00  0.00     0.000 C 
BRANCH  17  18
ATOM     18  C   UNL     1      -8.015   9.131  -9.006  1.00  0.00     0.000 C 
BRANCH  18  19
ATOM     19  C   UNL     1      -9.448   9.651  -8.793  1.00  0.00     0.000 C 
BRANCH  19  20
ATOM     20  C   UNL     1     -10.028   9.396  -7.390  1.00  0.00     0.006 C 
BRANCH  20  21
ATOM     21  C   UNL     1     -10.006   7.913  -6.997  1.00  0.00     0.053 C 
BRANCH  21  22
ATOM     22  C   UNL     1      -8.945   7.660  -5.973  1.00  0.00     0.041 C 
ATOM     23  O   UNL     1      -8.941   8.309  -4.893  1.00  0.00    -0.550 OA
ATOM     24  O   UNL     1      -7.932   6.742  -6.232  1.00  0.00    -0.550 OA
ENDBRANCH  21  22
ENDBRANCH  20  21
ENDBRANCH  19  20
ENDBRANCH  18  19
ENDBRANCH  17  18
ENDBRANCH  16  17
ENDBRANCH  15  16
ENDBRANCH  14  15
ENDBRANCH  13  14
ENDBRANCH   1  13
TORSDOF 20
ENDMDL
MODEL 6
REMARK VINA RESULT:    -2.663      1.603      2.182
REMARK INTER + INTRA:          -7.639
REMARK INTER:                  -5.667
REMARK INTRA:                  -1.972
REMARK UNBOUND:                -1.863
REMARK SMILES CCCCCCCCCCCCCCCCCCCCCC(=O)[O-]
REMARK SMILES IDX 12 1 11 2 10 3 9 4 8 5 7 6 6 7 5 8 4 9 3 10 2 11 1 12 13 13
REMARK SMILES IDX 14 14 15 15 16 16 17 17 18 18 19 19 20 20 21 21 22 22 23 23
REMARK SMILES IDX 24 24
REMARK H PARENT
REMARK Flexibility Score: inf
ROOT
ATOM      1  C   UNL     1      -8.708   0.420  -7.079  1.00  0.00     0.000 C 
ENDROOT
BRANCH   1   2
ATOM      2  C   UNL     1      -9.761  -0.238  -6.172  1.00  0.00     0.000 C 
BRANCH   2   3
ATOM      3  C   UNL     1      -9.922   0.486  -4.827  1.00  0.00     0.000 C 
BRANCH   3   4
ATOM      4  C   UNL     1      -9.778   2.005  -5.003  1.00  0.00    -0.000 C 
BRANCH   4   5
ATOM      5  C   UNL     1      -8.470   2.560  -4.410  1.00  0.00    -0.000 C 
BRANCH   5   6
ATOM      6  C   UNL     1      -7.819   1.682  -3.325  1.00  0.00    -0.000 C 
BRANCH   6   7
ATOM      7  C   UNL     1      -6.284   1.646  -3.425  1.00  0.00    -0.000 C 
BRANCH   7   8
ATOM      8  C   UNL     1      -5.607   1.598  -2.045  1.00  0.00    -0.000 C 
BRANCH   8   9
ATOM      9  C   UNL     1      -5.420   2.993  -1.429  1.00  0.00    -0.000 C 
BRANCH   9  10
ATOM     10  C   UNL     1      -6.021   3.054  -0.018  1.00  0.00    -0.000 C 
BRANCH  10  11
ATOM     11  C   UNL     1      -5.338   2.084   0.959  1.00  0.00    -0.003 C 
ATOM     12  C   UNL     1      -4.725   2.794   2.167  1.00  0.00     0.004 C 
ENDBRANCH  10  11
ENDBRANCH   9  10
ENDBRANCH   8   9
ENDBRANCH   7   8
ENDBRANCH   6   7
ENDBRANCH   5   6
ENDBRANCH   4   5
ENDBRANCH   3   4
ENDBRANCH   2   3
ENDBRANCH   1   2
BRANCH   1  13
ATOM     13  C   UNL     1      -9.145   0.465  -8.553  1.00  0.00     0.000 C 
BRANCH  13  14
ATOM     14  C   UNL     1     -10.114   1.621  -8.846  1.00  0.00     0.000 C 
BRANCH  14  15
ATOM     15  C   UNL     1      -9.600   2.561  -9.950  1.00  0.00     0.000 C 
BRANCH  15  16
ATOM     16  C   UNL     1      -9.393   4.002  -9.457  1.00  0.00     0.000 C 
BRANCH  16  17
ATOM     17  C   UNL     1      -9.600   4.170  -7.937  1.00  0.00     0.000 C 
BRANCH  17  18
ATOM     18  C   UNL     1      -8.284   4.482  -7.203  1.00  0.00     0.000 C 
BRANCH  18  19
ATOM     19  C   UNL     1      -7.678   5.837  -7.611  1.00  0.00     0.000 C 
BRANCH  19  20
ATOM     20  C   UNL     1      -8.036   7.012  -6.683  1.00  0.00     0.006 C 
BRANCH  20  21
ATOM     21  C   UNL     1      -8.753   6.562  -5.403  1.00  0.00     0.053 C 
BRANCH  21  22
ATOM     22  C   UNL     1      -9.366   7.737  -4.708  1.00  0.00     0.041 C 
ATOM     23  O   UNL     1      -9.891   7.596  -3.572  1.00  0.00    -0.550 OA
ATOM     24  O   UNL     1      -9.402   8.977  -5.337  1.00  0.00    -0.550 OA
ENDBRANCH  21  22
ENDBRANCH  20  21
ENDBRANCH  19  20
ENDBRANCH  18  19
ENDBRANCH  17  18
ENDBRANCH  16  17
ENDBRANCH  15  16
ENDBRANCH  14  15
ENDBRANCH  13  14
ENDBRANCH   1  13
TORSDOF 20
ENDMDL
MODEL 7
REMARK VINA RESULT:    -2.574      3.821      8.396
REMARK INTER + INTRA:          -7.447
REMARK INTER:                  -5.654
REMARK INTRA:                  -1.793
REMARK UNBOUND:                -1.863
REMARK SMILES CCCCCCCCCCCCCCCCCCCCCC(=O)[O-]
REMARK SMILES IDX 12 1 11 2 10 3 9 4 8 5 7 6 6 7 5 8 4 9 3 10 2 11 1 12 13 13
REMARK SMILES IDX 14 14 15 15 16 16 17 17 18 18 19 19 20 20 21 21 22 22 23 23
REMARK SMILES IDX 24 24
REMARK H PARENT
REMARK Flexibility Score: inf
ROOT
ATOM      1  C   UNL     1      -9.046   4.288  -5.697  1.00  0.00     0.000 C 
ENDROOT
BRANCH   1   2
ATOM      2  C   UNL     1      -9.694   5.644  -5.376  1.00  0.00     0.000 C 
BRANCH   2   3
ATOM      3  C   UNL     1      -8.671   6.786  -5.291  1.00  0.00     0.000 C 
BRANCH   3   4
ATOM      4  C   UNL     1      -9.300   8.040  -4.667  1.00  0.00    -0.000 C 
BRANCH   4   5
ATOM      5  C   UNL     1      -8.984   9.328  -5.450  1.00  0.00    -0.000 C 
BRANCH   5   6
ATOM      6  C   UNL     1      -8.748   9.135  -6.960  1.00  0.00    -0.000 C 
BRANCH   6   7
ATOM      7  C   UNL     1      -7.427   9.758  -7.444  1.00  0.00    -0.000 C 
BRANCH   7   8
ATOM      8  C   UNL     1      -7.046   9.299  -8.862  1.00  0.00    -0.000 C 
BRANCH   8   9
ATOM      9  C   UNL     1      -7.941   8.160  -9.374  1.00  0.00    -0.000 C 
BRANCH   9  10
ATOM     10  C   UNL     1      -7.121   6.884  -9.611  1.00  0.00    -0.000 C 
BRANCH  10  11
ATOM     11  C   UNL     1      -7.709   5.661  -8.889  1.00  0.00    -0.003 C 
ATOM     12  C   UNL     1      -7.064   4.347  -9.330  1.00  0.00     0.004 C 
ENDBRANCH  10  11
ENDBRANCH   9  10
ENDBRANCH   8   9
ENDBRANCH   7   8
ENDBRANCH   6   7
ENDBRANCH   5   6
ENDBRANCH   4   5
ENDBRANCH   3   4
ENDBRANCH   2   3
ENDBRANCH   1   2
BRANCH   1  13
ATOM     13  C   UNL     1      -9.784   3.531  -6.814  1.00  0.00     0.000 C 
BRANCH  13  14
ATOM     14  C   UNL     1      -9.916   2.028  -6.520  1.00  0.00     0.000 C 
BRANCH  14  15
ATOM     15  C   UNL     1     -10.064   1.729  -5.018  1.00  0.00     0.000 C 
BRANCH  15  16
ATOM     16  C   UNL     1      -9.071   0.665  -4.522  1.00  0.00     0.000 C 
BRANCH  16  17
ATOM     17  C   UNL     1      -7.614   1.168  -4.447  1.00  0.00     0.000 C 
BRANCH  17  18
ATOM     18  C   UNL     1      -7.378   2.086  -3.236  1.00  0.00     0.000 C 
BRANCH  18  19
ATOM     19  C   UNL     1      -6.096   1.735  -2.459  1.00  0.00     0.000 C 
BRANCH  19  20
ATOM     20  C   UNL     1      -5.513   2.886  -1.618  1.00  0.00     0.006 C 
BRANCH  20  21
ATOM     21  C   UNL     1      -6.112   2.955  -0.208  1.00  0.00     0.053 C 
BRANCH  21  22
ATOM     22  C   UNL     1      -5.326   2.099   0.735  1.00  0.00     0.041 C 
ATOM     23  O   UNL     1      -5.246   2.410   1.953  1.00  0.00    -0.550 OA
ATOM     24  O   UNL     1      -4.642   0.986   0.259  1.00  0.00    -0.550 OA
ENDBRANCH  21  22
ENDBRANCH  20  21
ENDBRANCH  19  20
ENDBRANCH  18  19
ENDBRANCH  17  18
ENDBRANCH  16  17
ENDBRANCH  15  16
ENDBRANCH  14  15
ENDBRANCH  13  14
ENDBRANCH   1  13
TORSDOF 20
ENDMDL
MODEL 8
REMARK VINA RESULT:    -2.517     14.872     17.688
REMARK INTER + INTRA:          -7.324
REMARK INTER:                  -5.831
REMARK INTRA:                  -1.492
REMARK UNBOUND:                -1.863
REMARK SMILES CCCCCCCCCCCCCCCCCCCCCC(=O)[O-]
REMARK SMILES IDX 12 1 11 2 10 3 9 4 8 5 7 6 6 7 5 8 4 9 3 10 2 11 1 12 13 13
REMARK SMILES IDX 14 14 15 15 16 16 17 17 18 18 19 19 20 20 21 21 22 22 23 23
REMARK SMILES IDX 24 24
REMARK H PARENT
REMARK Flexibility Score: inf
ROOT
ATOM      1  C   UNL     1       8.341   9.069  -0.258  1.00  0.00     0.000 C 
ENDROOT
BRANCH   1   2
ATOM      2  C   UNL     1       9.305   9.810   0.684  1.00  0.00     0.000 C 
BRANCH   2   3
ATOM      3  C   UNL     1       8.678  10.120   2.051  1.00  0.00     0.000 C 
BRANCH   3   4
ATOM      4  C   UNL     1       7.318   9.423   2.200  1.00  0.00    -0.000 C 
BRANCH   4   5
ATOM      5  C   UNL     1       7.078   8.863   3.615  1.00  0.00    -0.000 C 
BRANCH   5   6
ATOM      6  C   UNL     1       8.061   9.362   4.691  1.00  0.00    -0.000 C 
BRANCH   6   7
ATOM      7  C   UNL     1       8.730   8.215   5.469  1.00  0.00    -0.000 C 
BRANCH   7   8
ATOM      8  C   UNL     1       8.196   8.090   6.906  1.00  0.00    -0.000 C 
BRANCH   8   9
ATOM      9  C   UNL     1       8.938   7.020   7.721  1.00  0.00    -0.000 C 
BRANCH   9  10
ATOM     10  C   UNL     1       8.475   5.611   7.324  1.00  0.00    -0.000 C 
BRANCH  10  11
ATOM     11  C   UNL     1       7.354   5.080   8.230  1.00  0.00    -0.003 C 
ATOM     12  C   UNL     1       7.626   5.323   9.715  1.00  0.00     0.004 C 
ENDBRANCH  10  11
ENDBRANCH   9  10
ENDBRANCH   8   9
ENDBRANCH   7   8
ENDBRANCH   6   7
ENDBRANCH   5   6
ENDBRANCH   4   5
ENDBRANCH   3   4
ENDBRANCH   2   3
ENDBRANCH   1   2
BRANCH   1  13
ATOM     13  C   UNL     1       8.260   9.720  -1.650  1.00  0.00     0.000 C 
BRANCH  13  14
ATOM     14  C   UNL     1       9.181   9.037  -2.673  1.00  0.00     0.000 C 
BRANCH  14  15
ATOM     15  C   UNL     1       9.955  10.045  -3.539  1.00  0.00     0.000 C 
BRANCH  15  16
ATOM     16  C   UNL     1       9.891   9.715  -5.040  1.00  0.00     0.000 C 
BRANCH  16  17
ATOM     17  C   UNL     1       9.167   8.388  -5.348  1.00  0.00     0.000 C 
BRANCH  17  18
ATOM     18  C   UNL     1       8.092   8.553  -6.436  1.00  0.00     0.000 C 
BRANCH  18  19
ATOM     19  C   UNL     1       7.022   9.597  -6.067  1.00  0.00     0.000 C 
BRANCH  19  20
ATOM     20  C   UNL     1       5.719   9.013  -5.491  1.00  0.00     0.006 C 
BRANCH  20  21
ATOM     21  C   UNL     1       5.936   8.257  -4.175  1.00  0.00     0.053 C 
BRANCH  21  22
ATOM     22  C   UNL     1       4.624   7.832  -3.594  1.00  0.00     0.041 C 
ATOM     23  O   UNL     1       4.581   6.916  -2.731  1.00  0.00    -0.550 OA
ATOM     24  O   UNL     1       3.443   8.415  -4.043  1.00  0.00    -0.550 OA
ENDBRANCH  21  22
ENDBRANCH  20  21
ENDBRANCH  19  20
ENDBRANCH  18  19
ENDBRANCH  17  18
ENDBRANCH  16  17
ENDBRANCH  15  16
ENDBRANCH  14  15
ENDBRANCH  13  14
ENDBRANCH   1  13
TORSDOF 20
ENDMDL
MODEL 9
REMARK VINA RESULT:    -2.500      1.839      3.821
REMARK INTER + INTRA:          -7.287
REMARK INTER:                  -5.684
REMARK INTRA:                  -1.603
REMARK UNBOUND:                -1.863
REMARK SMILES CCCCCCCCCCCCCCCCCCCCCC(=O)[O-]
REMARK SMILES IDX 12 1 11 2 10 3 9 4 8 5 7 6 6 7 5 8 4 9 3 10 2 11 1 12 13 13
REMARK SMILES IDX 14 14 15 15 16 16 17 17 18 18 19 19 20 20 21 21 22 22 23 23
REMARK SMILES IDX 24 24
REMARK H PARENT
REMARK Flexibility Score: inf
ROOT
ATOM      1  C   UNL     1      -9.278   4.638  -5.696  1.00  0.00     0.000 C 
ENDROOT
BRANCH   1   2
ATOM      2  C   UNL     1      -8.733   3.784  -6.852  1.00  0.00     0.000 C 
BRANCH   2   3
ATOM      3  C   UNL     1      -9.796   2.856  -7.458  1.00  0.00     0.000 C 
BRANCH   3   4
ATOM      4  C   UNL     1      -9.682   1.439  -6.878  1.00  0.00    -0.000 C 
BRANCH   4   5
ATOM      5  C   UNL     1      -9.891   1.392  -5.352  1.00  0.00    -0.000 C 
BRANCH   5   6
ATOM      6  C   UNL     1      -8.872   0.534  -4.579  1.00  0.00    -0.000 C 
BRANCH   6   7
ATOM      7  C   UNL     1      -7.522   1.242  -4.379  1.00  0.00    -0.000 C 
BRANCH   7   8
ATOM      8  C   UNL     1      -7.453   2.011  -3.049  1.00  0.00    -0.000 C 
BRANCH   8   9
ATOM      9  C   UNL     1      -6.017   2.400  -2.665  1.00  0.00    -0.000 C 
BRANCH   9  10
ATOM     10  C   UNL     1      -5.678   1.915  -1.248  1.00  0.00    -0.000 C 
BRANCH  10  11
ATOM     11  C   UNL     1      -5.602   3.064  -0.232  1.00  0.00    -0.003 C 
ATOM     12  C   UNL     1      -5.264   2.585   1.180  1.00  0.00     0.004 C 
ENDBRANCH  10  11
ENDBRANCH   9  10
ENDBRANCH   8   9
ENDBRANCH   7   8
ENDBRANCH   6   7
ENDBRANCH   5   6
ENDBRANCH   4   5
ENDBRANCH   3   4
ENDBRANCH   2   3
ENDBRANCH   1   2
BRANCH   1  13
ATOM     13  C   UNL     1      -9.459   6.114  -6.088  1.00  0.00     0.000 C 
BRANCH  13  14
ATOM     14  C   UNL     1      -8.648   7.065  -5.193  1.00  0.00     0.000 C 
BRANCH  14  15
ATOM     15  C   UNL     1      -9.432   8.331  -4.809  1.00  0.00     0.000 C 
BRANCH  15  16
ATOM     16  C   UNL     1      -8.883   9.600  -5.482  1.00  0.00     0.000 C 
BRANCH  16  17
ATOM     17  C   UNL     1      -9.657  10.009  -6.753  1.00  0.00     0.000 C 
BRANCH  17  18
ATOM     18  C   UNL     1      -8.786   9.922  -8.017  1.00  0.00     0.000 C 
BRANCH  18  19
ATOM     19  C   UNL     1      -7.401   9.306  -7.749  1.00  0.00     0.000 C 
BRANCH  19  20
ATOM     20  C   UNL     1      -6.633   8.865  -9.009  1.00  0.00     0.006 C 
BRANCH  20  21
ATOM     21  C   UNL     1      -7.539   8.207 -10.058  1.00  0.00     0.053 C 
BRANCH  21  22
ATOM     22  C   UNL     1      -7.974   6.853  -9.595  1.00  0.00     0.041 C 
ATOM     23  O   UNL     1      -9.196   6.612  -9.406  1.00  0.00    -0.550 OA
ATOM     24  O   UNL     1      -7.026   5.871  -9.324  1.00  0.00    -0.550 OA
ENDBRANCH  21  22
ENDBRANCH  20  21
ENDBRANCH  19  20
ENDBRANCH  18  19
ENDBRANCH  17  18
ENDBRANCH  16  17
ENDBRANCH  15  16
ENDBRANCH  14  15
ENDBRANCH  13  14
ENDBRANCH   1  13
TORSDOF 20
ENDMDL
