MODEL 1
REMARK VINA RESULT:    -4.662      0.000      0.000
REMARK INTER + INTRA:         -10.193
REMARK INTER:                  -9.023
REMARK INTRA:                  -1.170
REMARK UNBOUND:                -1.170
REMARK SMILES CCCCCCCCCCCCCCCCCC(=O)[O-]
REMARK SMILES IDX 10 1 11 2 12 3 13 4 14 5 15 6 16 7 17 8 18 9 19 10 20 11
REMARK SMILES IDX 9 12 8 13 7 14 6 15 5 16 4 17 3 18 2 19 1 20
REMARK H PARENT
REMARK Flexibility Score: inf
ROOT
ATOM      1  C   UNL     1      -3.139  13.408 -16.707  1.00  0.00     0.000 C 
ENDROOT
BRANCH   1   2
ATOM      2  C   UNL     1      -2.205  13.616 -17.909  1.00  0.00     0.000 C 
BRANCH   2   3
ATOM      3  C   UNL     1      -2.602  12.756 -19.120  1.00  0.00     0.000 C 
BRANCH   3   4
ATOM      4  C   UNL     1      -2.646  11.253 -18.789  1.00  0.00     0.000 C 
BRANCH   4   5
ATOM      5  C   UNL     1      -3.707  10.497 -19.605  1.00  0.00     0.000 C 
BRANCH   5   6
ATOM      6  C   UNL     1      -4.931  11.371 -19.933  1.00  0.00     0.000 C 
BRANCH   6   7
ATOM      7  C   UNL     1      -5.929  10.662 -20.863  1.00  0.00     0.006 C 
BRANCH   7   8
ATOM      8  C   UNL     1      -7.384  10.821 -20.402  1.00  0.00     0.053 C 
BRANCH   8   9
ATOM      9  C   UNL     1      -8.227   9.709 -20.943  1.00  0.00     0.041 C 
ATOM     10  O   UNL     1      -8.681   9.772 -22.115  1.00  0.00    -0.550 OA
ATOM     11  O   UNL     1      -8.552   8.627 -20.135  1.00  0.00    -0.550 OA
ENDBRANCH   8   9
ENDBRANCH   7   8
ENDBRANCH   6   7
ENDBRANCH   5   6
ENDBRANCH   4   5
ENDBRANCH   3   4
ENDBRANCH   2   3
ENDBRANCH   1   2
BRANCH   1  12
ATOM     12  C   UNL     1      -2.337  13.306 -15.401  1.00  0.00     0.000 C 
BRANCH  12  13
ATOM     13  C   UNL     1      -3.112  12.598 -14.275  1.00  0.00    -0.000 C 
BRANCH  13  14
ATOM     14  C   UNL     1      -4.381  11.839 -14.716  1.00  0.00    -0.000 C 
BRANCH  14  15
ATOM     15  C   UNL     1      -4.210  10.318 -14.909  1.00  0.00    -0.000 C 
BRANCH  15  16
ATOM     16  C   UNL     1      -3.737   9.566 -13.646  1.00  0.00    -0.000 C 
BRANCH  16  17
ATOM     17  C   UNL     1      -4.389   8.182 -13.456  1.00  0.00    -0.000 C 
BRANCH  17  18
ATOM     18  C   UNL     1      -5.863   8.116 -13.904  1.00  0.00    -0.000 C 
BRANCH  18  19
ATOM     19  C   UNL     1      -6.580   6.867 -13.370  1.00  0.00    -0.003 C 
ATOM     20  C   UNL     1      -6.792   5.839 -14.479  1.00  0.00     0.004 C 
ENDBRANCH  18  19
ENDBRANCH  17  18
ENDBRANCH  16  17
ENDBRANCH  15  16
ENDBRANCH  14  15
ENDBRANCH  13  14
ENDBRANCH  12  13
ENDBRANCH   1  12
TORSDOF 16
ENDMDL
MODEL 2
REMARK VINA RESULT:    -4.584      2.328      6.278
REMARK INTER + INTRA:         -10.042
REMARK INTER:                  -8.680
REMARK INTRA:                  -1.363
REMARK UNBOUND:                -1.170
REMARK SMILES CCCCCCCCCCCCCCCCCC(=O)[O-]
REMARK SMILES IDX 10 1 11 2 12 3 13 4 14 5 15 6 16 7 17 8 18 9 19 10 20 11
REMARK SMILES IDX 9 12 8 13 7 14 6 15 5 16 4 17 3 18 2 19 1 20
REMARK H PARENT
REMARK Flexibility Score: inf
ROOT
ATOM      1  C   UNL     1      -2.181  13.405 -15.388  1.00  0.00     0.000 C 
ENDROOT
BRANCH   1   2
ATOM      2  C   UNL     1      -2.786  12.269 -14.549  1.00  0.00     0.000 C 
BRANCH   2   3
ATOM      3  C   UNL     1      -4.170  11.834 -15.056  1.00  0.00     0.000 C 
BRANCH   3   4
ATOM      4  C   UNL     1      -4.413  10.323 -14.889  1.00  0.00     0.000 C 
BRANCH   4   5
ATOM      5  C   UNL     1      -4.511   9.898 -13.415  1.00  0.00     0.000 C 
BRANCH   5   6
ATOM      6  C   UNL     1      -3.560   8.738 -13.071  1.00  0.00     0.000 C 
BRANCH   6   7
ATOM      7  C   UNL     1      -4.144   7.366 -13.447  1.00  0.00     0.006 C 
BRANCH   7   8
ATOM      8  C   UNL     1      -5.530   7.125 -12.835  1.00  0.00     0.053 C 
BRANCH   8   9
ATOM      9  C   UNL     1      -6.553   6.956 -13.914  1.00  0.00     0.041 C 
ATOM     10  O   UNL     1      -7.197   7.951 -14.337  1.00  0.00    -0.550 OA
ATOM     11  O   UNL     1      -6.831   5.691 -14.417  1.00  0.00    -0.550 OA
ENDBRANCH   8   9
ENDBRANCH   7   8
ENDBRANCH   6   7
ENDBRANCH   5   6
ENDBRANCH   4   5
ENDBRANCH   3   4
ENDBRANCH   2   3
ENDBRANCH   1   2
BRANCH   1  12
ATOM     12  C   UNL     1      -2.989  13.626 -16.676  1.00  0.00     0.000 C 
BRANCH  12  13
ATOM     13  C   UNL     1      -2.102  13.743 -17.928  1.00  0.00    -0.000 C 
BRANCH  13  14
ATOM     14  C   UNL     1      -2.391  12.717 -19.045  1.00  0.00    -0.000 C 
BRANCH  14  15
ATOM     15  C   UNL     1      -2.912  11.346 -18.567  1.00  0.00    -0.000 C 
BRANCH  15  16
ATOM     16  C   UNL     1      -3.808  10.614 -19.589  1.00  0.00    -0.000 C 
BRANCH  16  17
ATOM     17  C   UNL     1      -5.156  11.311 -19.859  1.00  0.00    -0.000 C 
BRANCH  17  18
ATOM     18  C   UNL     1      -5.991  10.651 -20.974  1.00  0.00    -0.000 C 
BRANCH  18  19
ATOM     19  C   UNL     1      -7.499  10.707 -20.685  1.00  0.00    -0.003 C 
ATOM     20  C   UNL     1      -8.129   9.320 -20.780  1.00  0.00     0.004 C 
ENDBRANCH  18  19
ENDBRANCH  17  18
ENDBRANCH  16  17
ENDBRANCH  15  16
ENDBRANCH  14  15
ENDBRANCH  13  14
ENDBRANCH  12  13
ENDBRANCH   1  12
TORSDOF 16
ENDMDL
MODEL 3
REMARK VINA RESULT:    -4.350      4.027      8.572
REMARK INTER + INTRA:          -9.590
REMARK INTER:                  -8.388
REMARK INTRA:                  -1.202
REMARK UNBOUND:                -1.170
REMARK SMILES CCCCCCCCCCCCCCCCCC(=O)[O-]
REMARK SMILES IDX 10 1 11 2 12 3 13 4 14 5 15 6 16 7 17 8 18 9 19 10 20 11
REMARK SMILES IDX 9 12 8 13 7 14 6 15 5 16 4 17 3 18 2 19 1 20
REMARK H PARENT
REMARK Flexibility Score: inf
ROOT
ATOM      1  C   UNL     1      -3.138  12.564 -19.041  1.00  0.00     0.000 C 
ENDROOT
BRANCH   1   2
ATOM      2  C   UNL     1      -2.845  11.133 -18.566  1.00  0.00     0.000 C 
BRANCH   2   3
ATOM      3  C   UNL     1      -3.516  10.808 -17.222  1.00  0.00     0.000 C 
BRANCH   3   4
ATOM      4  C   UNL     1      -4.223  12.028 -16.604  1.00  0.00     0.000 C 
BRANCH   4   5
ATOM      5  C   UNL     1      -4.183  12.021 -15.067  1.00  0.00     0.000 C 
BRANCH   5   6
ATOM      6  C   UNL     1      -3.317  10.880 -14.505  1.00  0.00     0.000 C 
BRANCH   6   7
ATOM      7  C   UNL     1      -4.100   9.956 -13.559  1.00  0.00     0.006 C 
BRANCH   7   8
ATOM      8  C   UNL     1      -5.086   9.045 -14.302  1.00  0.00     0.053 C 
BRANCH   8   9
ATOM      9  C   UNL     1      -5.191   7.720 -13.615  1.00  0.00     0.041 C 
ATOM     10  O   UNL     1      -4.156   7.141 -13.196  1.00  0.00    -0.550 OA
ATOM     11  O   UNL     1      -6.428   7.102 -13.482  1.00  0.00    -0.550 OA
ENDBRANCH   8   9
ENDBRANCH   7   8
ENDBRANCH   6   7
ENDBRANCH   5   6
ENDBRANCH   4   5
ENDBRANCH   3   4
ENDBRANCH   2   3
ENDBRANCH   1   2
BRANCH   1  12
ATOM     12  C   UNL     1      -1.841  13.377 -19.169  1.00  0.00     0.000 C 
BRANCH  12  13
ATOM     13  C   UNL     1      -1.661  14.404 -18.037  1.00  0.00    -0.000 C 
BRANCH  13  14
ATOM     14  C   UNL     1      -0.977  15.727 -18.442  1.00  0.00    -0.000 C 
BRANCH  14  15
ATOM     15  C   UNL     1       0.565  15.689 -18.484  1.00  0.00    -0.000 C 
BRANCH  15  16
ATOM     16  C   UNL     1       1.226  17.040 -18.831  1.00  0.00    -0.000 C 
BRANCH  16  17
ATOM     17  C   UNL     1       0.503  17.829 -19.940  1.00  0.00    -0.000 C 
BRANCH  17  18
ATOM     18  C   UNL     1       0.095  19.258 -19.529  1.00  0.00    -0.000 C 
BRANCH  18  19
ATOM     19  C   UNL     1      -0.928  19.266 -18.382  1.00  0.00    -0.003 C 
ATOM     20  C   UNL     1      -0.398  20.040 -17.178  1.00  0.00     0.004 C 
ENDBRANCH  18  19
ENDBRANCH  17  18
ENDBRANCH  16  17
ENDBRANCH  15  16
ENDBRANCH  14  15
ENDBRANCH  13  14
ENDBRANCH  12  13
ENDBRANCH   1  12
TORSDOF 16
ENDMDL
MODEL 4
REMARK VINA RESULT:    -4.260      5.873      8.291
REMARK INTER + INTRA:          -9.414
REMARK INTER:                  -8.197
REMARK INTRA:                  -1.217
REMARK UNBOUND:                -1.170
REMARK SMILES CCCCCCCCCCCCCCCCCC(=O)[O-]
REMARK SMILES IDX 10 1 11 2 12 3 13 4 14 5 15 6 16 7 17 8 18 9 19 10 20 11
REMARK SMILES IDX 9 12 8 13 7 14 6 15 5 16 4 17 3 18 2 19 1 20
REMARK H PARENT
REMARK Flexibility Score: inf
ROOT
ATOM      1  C   UNL     1      -0.644  15.534 -18.507  1.00  0.00     0.000 C 
ENDROOT
BRANCH   1   2
ATOM      2  C   UNL     1       0.856  15.838 -18.371  1.00  0.00     0.000 C 
BRANCH   2   3
ATOM      3  C   UNL     1       1.650  15.468 -19.633  1.00  0.00     0.000 C 
BRANCH   3   4
ATOM      4  C   UNL     1       1.800  16.651 -20.606  1.00  0.00     0.000 C 
BRANCH   4   5
ATOM      5  C   UNL     1       1.906  18.003 -19.883  1.00  0.00     0.000 C 
BRANCH   5   6
ATOM      6  C   UNL     1       1.241  19.146 -20.670  1.00  0.00     0.000 C 
BRANCH   6   7
ATOM      7  C   UNL     1       0.393  20.064 -19.773  1.00  0.00     0.006 C 
BRANCH   7   8
ATOM      8  C   UNL     1      -0.694  19.302 -19.004  1.00  0.00     0.053 C 
BRANCH   8   9
ATOM      9  C   UNL     1      -0.807  19.825 -17.607  1.00  0.00     0.041 C 
ATOM     10  O   UNL     1       0.230  20.065 -16.934  1.00  0.00    -0.550 OA
ATOM     11  O   UNL     1      -2.059  20.000 -17.029  1.00  0.00    -0.550 OA
ENDBRANCH   8   9
ENDBRANCH   7   8
ENDBRANCH   6   7
ENDBRANCH   5   6
ENDBRANCH   4   5
ENDBRANCH   3   4
ENDBRANCH   2   3
ENDBRANCH   1   2
BRANCH   1  12
ATOM     12  C   UNL     1      -1.113  14.575 -17.402  1.00  0.00     0.000 C 
BRANCH  12  13
ATOM     13  C   UNL     1      -2.414  13.836 -17.761  1.00  0.00    -0.000 C 
BRANCH  13  14
ATOM     14  C   UNL     1      -3.124  13.132 -16.585  1.00  0.00    -0.000 C 
BRANCH  14  15
ATOM     15  C   UNL     1      -4.022  11.938 -16.973  1.00  0.00    -0.000 C 
BRANCH  15  16
ATOM     16  C   UNL     1      -3.250  10.698 -17.472  1.00  0.00    -0.000 C 
BRANCH  16  17
ATOM     17  C   UNL     1      -3.284  10.508 -19.001  1.00  0.00    -0.000 C 
BRANCH  17  18
ATOM     18  C   UNL     1      -4.286  11.429 -19.725  1.00  0.00    -0.000 C 
BRANCH  18  19
ATOM     19  C   UNL     1      -5.032  10.705 -20.856  1.00  0.00    -0.003 C 
ATOM     20  C   UNL     1      -6.543  10.771 -20.648  1.00  0.00     0.004 C 
ENDBRANCH  18  19
ENDBRANCH  17  18
ENDBRANCH  16  17
ENDBRANCH  15  16
ENDBRANCH  14  15
ENDBRANCH  13  14
ENDBRANCH  12  13
ENDBRANCH   1  12
TORSDOF 16
ENDMDL
MODEL 5
REMARK VINA RESULT:    -4.246      5.282      7.061
REMARK INTER + INTRA:          -9.387
REMARK INTER:                  -8.366
REMARK INTRA:                  -1.021
REMARK UNBOUND:                -1.170
REMARK SMILES CCCCCCCCCCCCCCCCCC(=O)[O-]
REMARK SMILES IDX 10 1 11 2 12 3 13 4 14 5 15 6 16 7 17 8 18 9 19 10 20 11
REMARK SMILES IDX 9 12 8 13 7 14 6 15 5 16 4 17 3 18 2 19 1 20
REMARK H PARENT
REMARK Flexibility Score: inf
ROOT
ATOM      1  C   UNL     1      -3.126  12.606 -19.025  1.00  0.00     0.000 C 
ENDROOT
BRANCH   1   2
ATOM      2  C   UNL     1      -1.853  13.450 -19.191  1.00  0.00     0.000 C 
BRANCH   2   3
ATOM      3  C   UNL     1      -1.654  14.451 -18.042  1.00  0.00     0.000 C 
BRANCH   3   4
ATOM      4  C   UNL     1      -0.933  15.734 -18.493  1.00  0.00     0.000 C 
BRANCH   4   5
ATOM      5  C   UNL     1       0.594  15.567 -18.550  1.00  0.00     0.000 C 
BRANCH   5   6
ATOM      6  C   UNL     1       1.315  16.870 -18.935  1.00  0.00     0.000 C 
BRANCH   6   7
ATOM      7  C   UNL     1       0.494  17.734 -19.906  1.00  0.00     0.006 C 
BRANCH   7   8
ATOM      8  C   UNL     1       0.527  19.225 -19.546  1.00  0.00     0.053 C 
BRANCH   8   9
ATOM      9  C   UNL     1       0.280  19.414 -18.083  1.00  0.00     0.041 C 
ATOM     10  O   UNL     1      -0.880  19.277 -17.615  1.00  0.00    -0.550 OA
ATOM     11  O   UNL     1       1.321  19.791 -17.245  1.00  0.00    -0.550 OA
ENDBRANCH   8   9
ENDBRANCH   7   8
ENDBRANCH   6   7
ENDBRANCH   5   6
ENDBRANCH   4   5
ENDBRANCH   3   4
ENDBRANCH   2   3
ENDBRANCH   1   2
BRANCH   1  12
ATOM     12  C   UNL     1      -2.778  11.140 -18.726  1.00  0.00     0.000 C 
BRANCH  12  13
ATOM     13  C   UNL     1      -3.295  10.669 -17.354  1.00  0.00    -0.000 C 
BRANCH  13  14
ATOM     14  C   UNL     1      -3.680  11.791 -16.367  1.00  0.00    -0.000 C 
BRANCH  14  15
ATOM     15  C   UNL     1      -3.476  11.459 -14.874  1.00  0.00    -0.000 C 
BRANCH  15  16
ATOM     16  C   UNL     1      -4.399  10.343 -14.339  1.00  0.00    -0.000 C 
BRANCH  16  17
ATOM     17  C   UNL     1      -3.676   9.283 -13.486  1.00  0.00    -0.000 C 
BRANCH  17  18
ATOM     18  C   UNL     1      -4.465   7.968 -13.319  1.00  0.00    -0.000 C 
BRANCH  18  19
ATOM     19  C   UNL     1      -5.879   8.056 -13.913  1.00  0.00    -0.003 C 
ATOM     20  C   UNL     1      -6.560   6.690 -13.916  1.00  0.00     0.004 C 
ENDBRANCH  18  19
ENDBRANCH  17  18
ENDBRANCH  16  17
ENDBRANCH  15  16
ENDBRANCH  14  15
ENDBRANCH  13  14
ENDBRANCH  12  13
ENDBRANCH   1  12
TORSDOF 16
ENDMDL
MODEL 6
REMARK VINA RESULT:    -4.206      5.235      7.742
REMARK INTER + INTRA:          -9.310
REMARK INTER:                  -7.796
REMARK INTRA:                  -1.514
REMARK UNBOUND:                -1.170
REMARK SMILES CCCCCCCCCCCCCCCCCC(=O)[O-]
REMARK SMILES IDX 10 1 11 2 12 3 13 4 14 5 15 6 16 7 17 8 18 9 19 10 20 11
REMARK SMILES IDX 9 12 8 13 7 14 6 15 5 16 4 17 3 18 2 19 1 20
REMARK H PARENT
REMARK Flexibility Score: inf
ROOT
ATOM      1  C   UNL     1      -1.974  13.722 -15.818  1.00  0.00     0.000 C 
ENDROOT
BRANCH   1   2
ATOM      2  C   UNL     1      -2.423  14.193 -17.210  1.00  0.00     0.000 C 
BRANCH   2   3
ATOM      3  C   UNL     1      -1.259  14.267 -18.212  1.00  0.00     0.000 C 
BRANCH   3   4
ATOM      4  C   UNL     1      -0.528  15.621 -18.169  1.00  0.00     0.000 C 
BRANCH   4   5
ATOM      5  C   UNL     1       0.898  15.544 -18.739  1.00  0.00     0.000 C 
BRANCH   5   6
ATOM      6  C   UNL     1       1.553  16.929 -18.877  1.00  0.00     0.000 C 
BRANCH   6   7
ATOM      7  C   UNL     1       0.976  17.741 -20.048  1.00  0.00     0.006 C 
BRANCH   7   8
ATOM      8  C   UNL     1       0.832  19.233 -19.721  1.00  0.00     0.053 C 
BRANCH   8   9
ATOM      9  C   UNL     1      -0.003  19.419 -18.493  1.00  0.00     0.041 C 
ATOM     10  O   UNL     1      -1.220  19.101 -18.501  1.00  0.00    -0.550 OA
ATOM     11  O   UNL     1       0.552  19.992 -17.356  1.00  0.00    -0.550 OA
ENDBRANCH   8   9
ENDBRANCH   7   8
ENDBRANCH   6   7
ENDBRANCH   5   6
ENDBRANCH   4   5
ENDBRANCH   3   4
ENDBRANCH   2   3
ENDBRANCH   1   2
BRANCH   1  12
ATOM     12  C   UNL     1      -3.045  12.831 -15.170  1.00  0.00     0.000 C 
BRANCH  12  13
ATOM     13  C   UNL     1      -4.370  12.819 -15.952  1.00  0.00    -0.000 C 
BRANCH  13  14
ATOM     14  C   UNL     1      -4.641  11.545 -16.780  1.00  0.00    -0.000 C 
BRANCH  14  15
ATOM     15  C   UNL     1      -3.420  10.628 -17.004  1.00  0.00    -0.000 C 
BRANCH  15  16
ATOM     16  C   UNL     1      -2.879  10.629 -18.449  1.00  0.00    -0.000 C 
BRANCH  16  17
ATOM     17  C   UNL     1      -3.681  11.516 -19.422  1.00  0.00    -0.000 C 
BRANCH  17  18
ATOM     18  C   UNL     1      -4.674  10.737 -20.308  1.00  0.00    -0.000 C 
BRANCH  18  19
ATOM     19  C   UNL     1      -6.126  11.193 -20.098  1.00  0.00    -0.003 C 
ATOM     20  C   UNL     1      -7.076  10.450 -21.033  1.00  0.00     0.004 C 
ENDBRANCH  18  19
ENDBRANCH  17  18
ENDBRANCH  16  17
ENDBRANCH  15  16
ENDBRANCH  14  15
ENDBRANCH  13  14
ENDBRANCH  12  13
ENDBRANCH   1  12
TORSDOF 16
ENDMDL
MODEL 7
REMARK VINA RESULT:    -4.155      3.759      8.388
REMARK INTER + INTRA:          -9.211
REMARK INTER:                  -7.971
REMARK INTRA:                  -1.239
REMARK UNBOUND:                -1.170
REMARK SMILES CCCCCCCCCCCCCCCCCC(=O)[O-]
REMARK SMILES IDX 10 1 11 2 12 3 13 4 14 5 15 6 16 7 17 8 18 9 19 10 20 11
REMARK SMILES IDX 9 12 8 13 7 14 6 15 5 16 4 17 3 18 2 19 1 20
REMARK H PARENT
REMARK Flexibility Score: inf
ROOT
ATOM      1  C   UNL     1      -3.193  11.539 -17.826  1.00  0.00     0.000 C 
ENDROOT
BRANCH   1   2
ATOM      2  C   UNL     1      -4.529  12.210 -17.472  1.00  0.00     0.000 C 
BRANCH   2   3
ATOM      3  C   UNL     1      -4.673  12.476 -15.965  1.00  0.00     0.000 C 
BRANCH   3   4
ATOM      4  C   UNL     1      -3.346  12.893 -15.307  1.00  0.00     0.000 C 
BRANCH   4   5
ATOM      5  C   UNL     1      -2.879  11.899 -14.231  1.00  0.00     0.000 C 
BRANCH   5   6
ATOM      6  C   UNL     1      -3.231  10.442 -14.582  1.00  0.00     0.000 C 
BRANCH   6   7
ATOM      7  C   UNL     1      -4.034   9.747 -13.471  1.00  0.00     0.006 C 
BRANCH   7   8
ATOM      8  C   UNL     1      -5.260   8.995 -14.008  1.00  0.00     0.053 C 
BRANCH   8   9
ATOM      9  C   UNL     1      -5.201   7.553 -13.614  1.00  0.00     0.041 C 
ATOM     10  O   UNL     1      -6.242   6.846 -13.645  1.00  0.00    -0.550 OA
ATOM     11  O   UNL     1      -4.007   7.003 -13.166  1.00  0.00    -0.550 OA
ENDBRANCH   8   9
ENDBRANCH   7   8
ENDBRANCH   6   7
ENDBRANCH   5   6
ENDBRANCH   4   5
ENDBRANCH   3   4
ENDBRANCH   2   3
ENDBRANCH   1   2
BRANCH   1  12
ATOM     12  C   UNL     1      -2.611  12.126 -19.121  1.00  0.00     0.000 C 
BRANCH  12  13
ATOM     13  C   UNL     1      -2.476  13.658 -19.077  1.00  0.00    -0.000 C 
BRANCH  13  14
ATOM     14  C   UNL     1      -1.478  14.208 -18.035  1.00  0.00    -0.000 C 
BRANCH  14  15
ATOM     15  C   UNL     1      -0.944  15.628 -18.315  1.00  0.00    -0.000 C 
BRANCH  15  16
ATOM     16  C   UNL     1       0.573  15.694 -18.592  1.00  0.00    -0.000 C 
BRANCH  16  17
ATOM     17  C   UNL     1       1.001  16.881 -19.478  1.00  0.00    -0.000 C 
BRANCH  17  18
ATOM     18  C   UNL     1       1.052  18.231 -18.735  1.00  0.00    -0.000 C 
BRANCH  18  19
ATOM     19  C   UNL     1       0.005  19.225 -19.259  1.00  0.00    -0.003 C 
ATOM     20  C   UNL     1      -1.211  19.279 -18.338  1.00  0.00     0.004 C 
ENDBRANCH  18  19
ENDBRANCH  17  18
ENDBRANCH  16  17
ENDBRANCH  15  16
ENDBRANCH  14  15
ENDBRANCH  13  14
ENDBRANCH  12  13
ENDBRANCH   1  12
TORSDOF 16
ENDMDL
MODEL 8
REMARK VINA RESULT:    -3.945      3.845      8.045
REMARK INTER + INTRA:          -8.804
REMARK INTER:                  -7.034
REMARK INTRA:                  -1.771
REMARK UNBOUND:                -1.170
REMARK SMILES CCCCCCCCCCCCCCCCCC(=O)[O-]
REMARK SMILES IDX 10 1 11 2 12 3 13 4 14 5 15 6 16 7 17 8 18 9 19 10 20 11
REMARK SMILES IDX 9 12 8 13 7 14 6 15 5 16 4 17 3 18 2 19 1 20
REMARK H PARENT
REMARK Flexibility Score: inf
ROOT
ATOM      1  C   UNL     1      -2.379  14.515 -17.274  1.00  0.00     0.000 C 
ENDROOT
BRANCH   1   2
ATOM      2  C   UNL     1      -2.116  13.533 -16.122  1.00  0.00     0.000 C 
BRANCH   2   3
ATOM      3  C   UNL     1      -3.412  12.947 -15.539  1.00  0.00     0.000 C 
BRANCH   3   4
ATOM      4  C   UNL     1      -3.403  11.408 -15.509  1.00  0.00     0.000 C 
BRANCH   4   5
ATOM      5  C   UNL     1      -4.027  10.786 -16.768  1.00  0.00     0.000 C 
BRANCH   5   6
ATOM      6  C   UNL     1      -2.971  10.388 -17.814  1.00  0.00     0.000 C 
BRANCH   6   7
ATOM      7  C   UNL     1      -3.060  11.235 -19.094  1.00  0.00     0.006 C 
BRANCH   7   8
ATOM      8  C   UNL     1      -4.470  11.787 -19.342  1.00  0.00     0.053 C 
BRANCH   8   9
ATOM      9  C   UNL     1      -5.144  11.024 -20.438  1.00  0.00     0.041 C 
ATOM     10  O   UNL     1      -4.460  10.358 -21.259  1.00  0.00    -0.550 OA
ATOM     11  O   UNL     1      -6.524  11.088 -20.583  1.00  0.00    -0.550 OA
ENDBRANCH   8   9
ENDBRANCH   7   8
ENDBRANCH   6   7
ENDBRANCH   5   6
ENDBRANCH   4   5
ENDBRANCH   3   4
ENDBRANCH   2   3
ENDBRANCH   1   2
BRANCH   1  12
ATOM     12  C   UNL     1      -1.251  14.454 -18.315  1.00  0.00     0.000 C 
BRANCH  12  13
ATOM     13  C   UNL     1      -0.419  15.748 -18.375  1.00  0.00    -0.000 C 
BRANCH  13  14
ATOM     14  C   UNL     1       1.066  15.567 -18.753  1.00  0.00    -0.000 C 
BRANCH  14  15
ATOM     15  C   UNL     1       1.844  16.871 -19.027  1.00  0.00    -0.000 C 
BRANCH  15  16
ATOM     16  C   UNL     1       1.329  17.676 -20.239  1.00  0.00    -0.000 C 
BRANCH  16  17
ATOM     17  C   UNL     1       0.866  19.106 -19.896  1.00  0.00    -0.000 C 
BRANCH  17  18
ATOM     18  C   UNL     1       1.227  19.555 -18.465  1.00  0.00    -0.000 C 
BRANCH  18  19
ATOM     19  C   UNL     1      -0.016  19.903 -17.632  1.00  0.00    -0.003 C 
ATOM     20  C   UNL     1      -1.277  19.304 -18.250  1.00  0.00     0.004 C 
ENDBRANCH  18  19
ENDBRANCH  17  18
ENDBRANCH  16  17
ENDBRANCH  15  16
ENDBRANCH  14  15
ENDBRANCH  13  14
ENDBRANCH  12  13
ENDBRANCH   1  12
TORSDOF 16
ENDMDL
MODEL 9
REMARK VINA RESULT:    -3.942      4.862      8.863
REMARK INTER + INTRA:          -8.799
REMARK INTER:                  -7.506
REMARK INTRA:                  -1.293
REMARK UNBOUND:                -1.170
REMARK SMILES CCCCCCCCCCCCCCCCCC(=O)[O-]
REMARK SMILES IDX 10 1 11 2 12 3 13 4 14 5 15 6 16 7 17 8 18 9 19 10 20 11
REMARK SMILES IDX 9 12 8 13 7 14 6 15 5 16 4 17 3 18 2 19 1 20
REMARK H PARENT
REMARK Flexibility Score: inf
ROOT
ATOM      1  C   UNL     1      -1.354  15.385 -18.778  1.00  0.00     0.000 C 
ENDROOT
BRANCH   1   2
ATOM      2  C   UNL     1      -2.046  14.126 -18.234  1.00  0.00     0.000 C 
BRANCH   2   3
ATOM      3  C   UNL     1      -2.058  12.973 -19.251  1.00  0.00     0.000 C 
BRANCH   3   4
ATOM      4  C   UNL     1      -3.376  12.179 -19.230  1.00  0.00     0.000 C 
BRANCH   4   5
ATOM      5  C   UNL     1      -3.208  10.766 -18.649  1.00  0.00     0.000 C 
BRANCH   5   6
ATOM      6  C   UNL     1      -3.496  10.712 -17.138  1.00  0.00     0.000 C 
BRANCH   6   7
ATOM      7  C   UNL     1      -4.504  11.784 -16.691  1.00  0.00     0.006 C 
BRANCH   7   8
ATOM      8  C   UNL     1      -4.150  12.399 -15.331  1.00  0.00     0.053 C 
BRANCH   8   9
ATOM      9  C   UNL     1      -3.525  11.372 -14.440  1.00  0.00     0.041 C 
ATOM     10  O   UNL     1      -2.365  11.550 -13.986  1.00  0.00    -0.550 OA
ATOM     11  O   UNL     1      -4.205  10.194 -14.153  1.00  0.00    -0.550 OA
ENDBRANCH   8   9
ENDBRANCH   7   8
ENDBRANCH   6   7
ENDBRANCH   5   6
ENDBRANCH   4   5
ENDBRANCH   3   4
ENDBRANCH   2   3
ENDBRANCH   1   2
BRANCH   1  12
ATOM     12  C   UNL     1      -0.046  15.662 -18.021  1.00  0.00     0.000 C 
BRANCH  12  13
ATOM     13  C   UNL     1       1.195  15.616 -18.931  1.00  0.00    -0.000 C 
BRANCH  13  14
ATOM     14  C   UNL     1       2.124  16.846 -18.850  1.00  0.00    -0.000 C 
BRANCH  14  15
ATOM     15  C   UNL     1       1.813  17.979 -19.850  1.00  0.00    -0.000 C 
BRANCH  15  16
ATOM     16  C   UNL     1       2.047  19.400 -19.295  1.00  0.00    -0.000 C 
BRANCH  16  17
ATOM     17  C   UNL     1       0.808  20.028 -18.628  1.00  0.00    -0.000 C 
BRANCH  17  18
ATOM     18  C   UNL     1      -0.526  19.376 -19.042  1.00  0.00    -0.000 C 
BRANCH  18  19
ATOM     19  C   UNL     1      -1.575  19.429 -17.921  1.00  0.00    -0.003 C 
ATOM     20  C   UNL     1      -0.997  20.062 -16.658  1.00  0.00     0.004 C 
ENDBRANCH  18  19
ENDBRANCH  17  18
ENDBRANCH  16  17
ENDBRANCH  15  16
ENDBRANCH  14  15
ENDBRANCH  13  14
ENDBRANCH  12  13
ENDBRANCH   1  12
TORSDOF 16
ENDMDL
