MODEL 1
REMARK VINA RESULT:    -7.963      0.000      0.000
REMARK INTER + INTRA:          -8.266
REMARK INTER:                  -8.661
REMARK INTRA:                   0.396
REMARK UNBOUND:                 0.396
REMARK SMILES C[C@H]1[C@H](C)CC[C@]2(C(=O)[O-])CC[C@@]3(C)C(=CC[C@@H]4[C@@]5(C)CC[C@@H](O)C(C)(C)[C@H]5CC[C@@]43C)[C@@H]12
REMARK SMILES IDX 7 1 6 2 11 3 33 4 5 5 12 6 15 7 2 8 3 9 13 10 16 11 1 12
REMARK SMILES IDX 4 13 14 14 31 15 17 16 18 17 30 18 32 19 19 20 29 21 28 22
REMARK SMILES IDX 21 23 20 24 25 25 22 26 23 27 26 28 27 29 8 30 9 31 10 32
REMARK SMILES IDX 24 33
REMARK H PARENT 24 34
REMARK Flexibility Score: inf
ROOT
ATOM      1  C   UNL     1      16.087  30.501  25.172  1.00  0.00     0.017 C 
ATOM      2  C   UNL     1      15.123  30.000  26.287  1.00  0.00     0.014 C 
ATOM      3  C   UNL     1      17.079  31.545  25.801  1.00  0.00     0.014 C 
ATOM      4  C   UNL     1      15.202  31.146  24.045  1.00  0.00     0.030 C 
ATOM      5  C   UNL     1      14.060  29.016  25.771  1.00  0.00     0.004 C 
ATOM      6  C   UNL     1      16.986  32.957  25.195  1.00  0.00     0.013 C 
ATOM      7  C   UNL     1      16.026  31.994  23.060  1.00  0.00    -0.063 C 
ATOM      8  C   UNL     1      14.106  30.177  23.470  1.00  0.00    -0.003 C 
ATOM      9  C   UNL     1      13.219  29.594  24.609  1.00  0.00    -0.011 C 
ATOM     10  C   UNL     1      17.051  32.992  23.621  1.00  0.00    -0.006 C 
ATOM     11  C   UNL     1      15.721  32.064  21.749  1.00  0.00    -0.027 C 
ATOM     12  C   UNL     1      14.625  29.030  22.571  1.00  0.00     0.008 C 
ATOM     13  C   UNL     1      12.177  30.610  25.118  1.00  0.00     0.008 C 
ATOM     14  C   UNL     1      18.473  32.470  23.253  1.00  0.00     0.017 C 
ATOM     15  C   UNL     1      16.732  34.484  23.030  1.00  0.00    -0.020 C 
ATOM     16  C   UNL     1      16.359  33.084  20.850  1.00  0.00     0.032 C 
ATOM     17  C   UNL     1      16.271  34.495  21.487  1.00  0.00     0.006 C 
ATOM     18  C   UNL     1      17.942  35.438  23.239  1.00  0.00     0.008 C 
ATOM     19  C   UNL     1      15.544  35.095  23.846  1.00  0.00     0.012 C 
ATOM     20  C   UNL     1      16.801  35.709  20.549  1.00  0.00    -0.025 C 
ATOM     21  C   UNL     1      18.919  35.461  22.059  1.00  0.00     0.005 C 
ATOM     22  C   UNL     1      18.320  36.118  20.798  1.00  0.00     0.003 C 
ATOM     23  C   UNL     1      15.893  36.952  20.778  1.00  0.00     0.010 C 
ATOM     24  C   UNL     1      16.616  35.300  19.050  1.00  0.00     0.012 C 
ATOM     25  C   UNL     1      18.680  37.674  20.674  1.00  0.00    -0.006 C 
ATOM     26  C   UNL     1      16.254  38.197  19.945  1.00  0.00     0.033 C 
ATOM     27  C   UNL     1      17.759  38.354  19.623  1.00  0.00     0.120 C 
ATOM     28  C   UNL     1      20.147  37.811  20.177  1.00  0.00     0.014 C 
ATOM     29  C   UNL     1      18.594  38.471  22.009  1.00  0.00     0.014 C 
ENDROOT
BRANCH   1  30
ATOM     30  C   UNL     1      16.925  29.333  24.661  1.00  0.00     0.048 C 
ATOM     31  O   UNL     1      17.790  29.502  23.765  1.00  0.00    -0.550 OA
ATOM     32  O   UNL     1      16.828  28.084  25.263  1.00  0.00    -0.550 OA
ENDBRANCH   1  30
BRANCH  27  33
ATOM     33  O   UNL     1      18.065  39.724  19.505  1.00  0.00    -0.393 OA
ATOM     34  H   UNL     1      18.629  39.961  20.286  1.00  0.00     0.210 HD
ENDBRANCH  27  33
TORSDOF 2
ENDMDL
MODEL 2
REMARK VINA RESULT:    -7.765      9.185     11.504
REMARK INTER + INTRA:          -8.051
REMARK INTER:                  -8.439
REMARK INTRA:                   0.388
REMARK UNBOUND:                 0.396
REMARK SMILES C[C@H]1[C@H](C)CC[C@]2(C(=O)[O-])CC[C@@]3(C)C(=CC[C@@H]4[C@@]5(C)CC[C@@H](O)C(C)(C)[C@H]5CC[C@@]43C)[C@@H]12
REMARK SMILES IDX 7 1 6 2 11 3 33 4 5 5 12 6 15 7 2 8 3 9 13 10 16 11 1 12
REMARK SMILES IDX 4 13 14 14 31 15 17 16 18 17 30 18 32 19 19 20 29 21 28 22
REMARK SMILES IDX 21 23 20 24 25 25 22 26 23 27 26 28 27 29 8 30 9 31 10 32
REMARK SMILES IDX 24 33
REMARK H PARENT 24 34
REMARK Flexibility Score: inf
ROOT
ATOM      1  C   UNL     1      28.349  30.258  20.504  1.00  0.00     0.017 C 
ATOM      2  C   UNL     1      28.611  28.756  20.187  1.00  0.00     0.014 C 
ATOM      3  C   UNL     1      29.394  30.732  21.577  1.00  0.00     0.014 C 
ATOM      4  C   UNL     1      26.875  30.371  21.037  1.00  0.00     0.030 C 
ATOM      5  C   UNL     1      27.602  28.162  19.190  1.00  0.00     0.004 C 
ATOM      6  C   UNL     1      28.773  31.205  22.904  1.00  0.00     0.013 C 
ATOM      7  C   UNL     1      26.597  31.722  21.721  1.00  0.00    -0.063 C 
ATOM      8  C   UNL     1      25.798  29.792  20.050  1.00  0.00    -0.003 C 
ATOM      9  C   UNL     1      26.135  28.324  19.652  1.00  0.00    -0.011 C 
ATOM     10  C   UNL     1      27.614  32.260  22.738  1.00  0.00    -0.006 C 
ATOM     11  C   UNL     1      25.397  32.331  21.637  1.00  0.00    -0.027 C 
ATOM     12  C   UNL     1      25.529  30.631  18.778  1.00  0.00     0.008 C 
ATOM     13  C   UNL     1      25.779  27.319  20.766  1.00  0.00     0.008 C 
ATOM     14  C   UNL     1      28.287  33.521  22.116  1.00  0.00     0.017 C 
ATOM     15  C   UNL     1      26.855  32.560  24.156  1.00  0.00    -0.020 C 
ATOM     16  C   UNL     1      25.053  33.504  22.509  1.00  0.00     0.032 C 
ATOM     17  C   UNL     1      25.382  33.191  23.991  1.00  0.00     0.006 C 
ATOM     18  C   UNL     1      27.727  33.458  25.078  1.00  0.00     0.008 C 
ATOM     19  C   UNL     1      26.667  31.202  24.913  1.00  0.00     0.012 C 
ATOM     20  C   UNL     1      24.924  34.328  25.055  1.00  0.00    -0.025 C 
ATOM     21  C   UNL     1      27.457  34.957  24.913  1.00  0.00     0.005 C 
ATOM     22  C   UNL     1      26.065  35.375  25.429  1.00  0.00     0.003 C 
ATOM     23  C   UNL     1      24.426  33.629  26.353  1.00  0.00     0.010 C 
ATOM     24  C   UNL     1      23.693  35.095  24.468  1.00  0.00     0.012 C 
ATOM     25  C   UNL     1      26.094  35.903  26.942  1.00  0.00    -0.006 C 
ATOM     26  C   UNL     1      23.938  34.575  27.468  1.00  0.00     0.033 C 
ATOM     27  C   UNL     1      24.652  35.945  27.521  1.00  0.00     0.120 C 
ATOM     28  C   UNL     1      26.651  37.355  26.954  1.00  0.00     0.014 C 
ATOM     29  C   UNL     1      26.999  35.078  27.903  1.00  0.00     0.014 C 
ENDROOT
BRANCH   1  30
ATOM     30  C   UNL     1      28.581  31.091  19.248  1.00  0.00     0.048 C 
ATOM     31  O   UNL     1      28.351  32.327  19.240  1.00  0.00    -0.550 OA
ATOM     32  O   UNL     1      29.166  30.518  18.124  1.00  0.00    -0.550 OA
ENDBRANCH   1  30
BRANCH  27  33
ATOM     33  O   UNL     1      24.664  36.408  28.851  1.00  0.00    -0.393 OA
ATOM     34  H   UNL     1      25.574  36.239  29.207  1.00  0.00     0.210 HD
ENDBRANCH  27  33
TORSDOF 2
ENDMDL
MODEL 3
REMARK VINA RESULT:    -7.491      9.797     12.872
REMARK INTER + INTRA:          -7.752
REMARK INTER:                  -8.138
REMARK INTRA:                   0.386
REMARK UNBOUND:                 0.396
REMARK SMILES C[C@H]1[C@H](C)CC[C@]2(C(=O)[O-])CC[C@@]3(C)C(=CC[C@@H]4[C@@]5(C)CC[C@@H](O)C(C)(C)[C@H]5CC[C@@]43C)[C@@H]12
REMARK SMILES IDX 7 1 6 2 11 3 33 4 5 5 12 6 15 7 2 8 3 9 13 10 16 11 1 12
REMARK SMILES IDX 4 13 14 14 31 15 17 16 18 17 30 18 32 19 19 20 29 21 28 22
REMARK SMILES IDX 21 23 20 24 25 25 22 26 23 27 26 28 27 29 8 30 9 31 10 32
REMARK SMILES IDX 24 33
REMARK H PARENT 24 34
REMARK Flexibility Score: inf
ROOT
ATOM      1  C   UNL     1      28.657  30.895  19.092  1.00  0.00     0.017 C 
ATOM      2  C   UNL     1      29.247  31.331  17.718  1.00  0.00     0.014 C 
ATOM      3  C   UNL     1      27.100  31.099  19.053  1.00  0.00     0.014 C 
ATOM      4  C   UNL     1      29.333  31.788  20.194  1.00  0.00     0.030 C 
ATOM      5  C   UNL     1      30.780  31.236  17.660  1.00  0.00     0.004 C 
ATOM      6  C   UNL     1      26.564  32.107  20.086  1.00  0.00     0.013 C 
ATOM      7  C   UNL     1      28.596  31.719  21.543  1.00  0.00    -0.063 C 
ATOM      8  C   UNL     1      30.903  31.717  20.191  1.00  0.00    -0.003 C 
ATOM      9  C   UNL     1      31.476  32.045  18.780  1.00  0.00    -0.011 C 
ATOM     10  C   UNL     1      27.066  31.856  21.558  1.00  0.00    -0.006 C 
ATOM     11  C   UNL     1      29.252  31.778  22.719  1.00  0.00    -0.027 C 
ATOM     12  C   UNL     1      31.519  30.397  20.711  1.00  0.00     0.008 C 
ATOM     13  C   UNL     1      31.458  33.558  18.478  1.00  0.00     0.008 C 
ATOM     14  C   UNL     1      26.469  30.476  21.971  1.00  0.00     0.017 C 
ATOM     15  C   UNL     1      26.642  33.075  22.563  1.00  0.00    -0.020 C 
ATOM     16  C   UNL     1      28.519  31.970  24.016  1.00  0.00     0.032 C 
ATOM     17  C   UNL     1      27.530  33.159  23.905  1.00  0.00     0.006 C 
ATOM     18  C   UNL     1      25.130  33.006  22.921  1.00  0.00     0.008 C 
ATOM     19  C   UNL     1      26.855  34.432  21.812  1.00  0.00     0.012 C 
ATOM     20  C   UNL     1      26.776  33.561  25.285  1.00  0.00    -0.025 C 
ATOM     21  C   UNL     1      24.833  32.200  24.190  1.00  0.00     0.005 C 
ATOM     22  C   UNL     1      25.342  32.892  25.471  1.00  0.00     0.003 C 
ATOM     23  C   UNL     1      26.630  35.109  25.344  1.00  0.00     0.010 C 
ATOM     24  C   UNL     1      27.692  33.160  26.489  1.00  0.00     0.012 C 
ATOM     25  C   UNL     1      24.218  33.779  26.190  1.00  0.00    -0.006 C 
ATOM     26  C   UNL     1      25.942  35.661  26.609  1.00  0.00     0.033 C 
ATOM     27  C   UNL     1      24.873  34.732  27.229  1.00  0.00     0.120 C 
ATOM     28  C   UNL     1      23.252  32.833  26.959  1.00  0.00     0.014 C 
ATOM     29  C   UNL     1      23.333  34.619  25.224  1.00  0.00     0.014 C 
ENDROOT
BRANCH   1  30
ATOM     30  C   UNL     1      28.913  29.407  19.306  1.00  0.00     0.048 C 
ATOM     31  O   UNL     1      28.642  28.856  20.403  1.00  0.00    -0.550 OA
ATOM     32  O   UNL     1      29.341  28.610  18.250  1.00  0.00    -0.550 OA
ENDBRANCH   1  30
BRANCH  27  33
ATOM     33  O   UNL     1      23.895  35.517  27.869  1.00  0.00    -0.393 OA
ATOM     34  H   UNL     1      24.275  35.797  28.741  1.00  0.00     0.210 HD
ENDBRANCH  27  33
TORSDOF 2
ENDMDL
MODEL 4
REMARK VINA RESULT:    -7.451      8.234     10.658
REMARK INTER + INTRA:          -7.708
REMARK INTER:                  -8.108
REMARK INTRA:                   0.400
REMARK UNBOUND:                 0.396
REMARK SMILES C[C@H]1[C@H](C)CC[C@]2(C(=O)[O-])CC[C@@]3(C)C(=CC[C@@H]4[C@@]5(C)CC[C@@H](O)C(C)(C)[C@H]5CC[C@@]43C)[C@@H]12
REMARK SMILES IDX 7 1 6 2 11 3 33 4 5 5 12 6 15 7 2 8 3 9 13 10 16 11 1 12
REMARK SMILES IDX 4 13 14 14 31 15 17 16 18 17 30 18 32 19 19 20 29 21 28 22
REMARK SMILES IDX 21 23 20 24 25 25 22 26 23 27 26 28 27 29 8 30 9 31 10 32
REMARK SMILES IDX 24 33
REMARK H PARENT 24 34
REMARK Flexibility Score: inf
ROOT
ATOM      1  C   UNL     1      24.043  34.729  26.785  1.00  0.00     0.017 C 
ATOM      2  C   UNL     1      23.799  36.142  27.391  1.00  0.00     0.014 C 
ATOM      3  C   UNL     1      25.514  34.290  27.118  1.00  0.00     0.014 C 
ATOM      4  C   UNL     1      23.806  34.839  25.235  1.00  0.00     0.030 C 
ATOM      5  C   UNL     1      22.405  36.706  27.071  1.00  0.00     0.004 C 
ATOM      6  C   UNL     1      26.404  34.057  25.884  1.00  0.00     0.013 C 
ATOM      7  C   UNL     1      24.353  33.623  24.466  1.00  0.00    -0.063 C 
ATOM      8  C   UNL     1      22.388  35.397  24.850  1.00  0.00    -0.003 C 
ATOM      9  C   UNL     1      22.111  36.759  25.554  1.00  0.00    -0.011 C 
ATOM     10  C   UNL     1      25.765  33.116  24.792  1.00  0.00    -0.006 C 
ATOM     11  C   UNL     1      23.739  33.138  23.369  1.00  0.00    -0.027 C 
ATOM     12  C   UNL     1      21.199  34.435  25.084  1.00  0.00     0.008 C 
ATOM     13  C   UNL     1      22.851  37.930  24.876  1.00  0.00     0.008 C 
ATOM     14  C   UNL     1      25.625  31.723  25.477  1.00  0.00     0.017 C 
ATOM     15  C   UNL     1      26.657  33.081  23.421  1.00  0.00    -0.020 C 
ATOM     16  C   UNL     1      24.408  32.127  22.481  1.00  0.00     0.032 C 
ATOM     17  C   UNL     1      25.842  32.591  22.120  1.00  0.00     0.006 C 
ATOM     18  C   UNL     1      27.939  32.221  23.609  1.00  0.00     0.008 C 
ATOM     19  C   UNL     1      27.144  34.536  23.110  1.00  0.00     0.012 C 
ATOM     20  C   UNL     1      26.622  31.653  21.050  1.00  0.00    -0.025 C 
ATOM     21  C   UNL     1      27.757  30.750  23.223  1.00  0.00     0.005 C 
ATOM     22  C   UNL     1      27.564  30.548  21.706  1.00  0.00     0.003 C 
ATOM     23  C   UNL     1      27.473  32.560  20.114  1.00  0.00     0.010 C 
ATOM     24  C   UNL     1      25.563  30.951  20.136  1.00  0.00     0.012 C 
ATOM     25  C   UNL     1      28.932  30.218  20.941  1.00  0.00    -0.006 C 
ATOM     26  C   UNL     1      28.270  31.821  19.022  1.00  0.00     0.033 C 
ATOM     27  C   UNL     1      28.746  30.401  19.409  1.00  0.00     0.120 C 
ATOM     28  C   UNL     1      29.301  28.729  21.198  1.00  0.00     0.014 C 
ATOM     29  C   UNL     1      30.158  31.060  21.404  1.00  0.00     0.014 C 
ENDROOT
BRANCH   1  30
ATOM     30  C   UNL     1      23.109  33.723  27.449  1.00  0.00     0.048 C 
ATOM     31  O   UNL     1      23.114  32.513  27.107  1.00  0.00    -0.550 OA
ATOM     32  O   UNL     1      22.319  34.104  28.528  1.00  0.00    -0.550 OA
ENDBRANCH   1  30
BRANCH  27  33
ATOM     33  O   UNL     1      29.943  30.113  18.724  1.00  0.00    -0.393 OA
ATOM     34  H   UNL     1      29.687  29.745  17.839  1.00  0.00     0.210 HD
ENDBRANCH  27  33
TORSDOF 2
ENDMDL
MODEL 5
REMARK VINA RESULT:    -7.436      8.799     11.238
REMARK INTER + INTRA:          -7.692
REMARK INTER:                  -8.079
REMARK INTRA:                   0.387
REMARK UNBOUND:                 0.396
REMARK SMILES C[C@H]1[C@H](C)CC[C@]2(C(=O)[O-])CC[C@@]3(C)C(=CC[C@@H]4[C@@]5(C)CC[C@@H](O)C(C)(C)[C@H]5CC[C@@]43C)[C@@H]12
REMARK SMILES IDX 7 1 6 2 11 3 33 4 5 5 12 6 15 7 2 8 3 9 13 10 16 11 1 12
REMARK SMILES IDX 4 13 14 14 31 15 17 16 18 17 30 18 32 19 19 20 29 21 28 22
REMARK SMILES IDX 21 23 20 24 25 25 22 26 23 27 26 28 27 29 8 30 9 31 10 32
REMARK SMILES IDX 24 33
REMARK H PARENT 24 34
REMARK Flexibility Score: inf
ROOT
ATOM      1  C   UNL     1      23.933  34.846  24.149  1.00  0.00     0.017 C 
ATOM      2  C   UNL     1      22.429  35.232  24.271  1.00  0.00     0.014 C 
ATOM      3  C   UNL     1      24.545  35.602  22.915  1.00  0.00     0.014 C 
ATOM      4  C   UNL     1      24.001  33.287  23.969  1.00  0.00     0.030 C 
ATOM      5  C   UNL     1      21.706  34.499  25.412  1.00  0.00     0.004 C 
ATOM      6  C   UNL     1      25.079  34.679  21.805  1.00  0.00     0.013 C 
ATOM      7  C   UNL     1      25.380  32.808  23.482  1.00  0.00    -0.063 C 
ATOM      8  C   UNL     1      23.289  32.485  25.118  1.00  0.00    -0.003 C 
ATOM      9  C   UNL     1      21.817  32.961  25.304  1.00  0.00    -0.011 C 
ATOM     10  C   UNL     1      26.050  33.547  22.314  1.00  0.00    -0.006 C 
ATOM     11  C   UNL     1      25.911  31.635  23.882  1.00  0.00    -0.027 C 
ATOM     12  C   UNL     1      24.014  32.478  26.484  1.00  0.00     0.008 C 
ATOM     13  C   UNL     1      20.879  32.402  24.216  1.00  0.00     0.008 C 
ATOM     14  C   UNL     1      27.298  34.293  22.876  1.00  0.00     0.017 C 
ATOM     15  C   UNL     1      26.410  32.475  21.132  1.00  0.00    -0.020 C 
ATOM     16  C   UNL     1      27.124  31.057  23.213  1.00  0.00     0.032 C 
ATOM     17  C   UNL     1      26.942  31.054  21.673  1.00  0.00     0.006 C 
ATOM     18  C   UNL     1      27.424  33.079  20.118  1.00  0.00     0.008 C 
ATOM     19  C   UNL     1      25.104  32.174  20.323  1.00  0.00     0.012 C 
ATOM     20  C   UNL     1      28.126  30.323  20.839  1.00  0.00    -0.025 C 
ATOM     21  C   UNL     1      28.888  32.795  20.468  1.00  0.00     0.005 C 
ATOM     22  C   UNL     1      29.263  31.307  20.311  1.00  0.00     0.003 C 
ATOM     23  C   UNL     1      27.498  29.572  19.629  1.00  0.00     0.010 C 
ATOM     24  C   UNL     1      28.775  29.227  21.748  1.00  0.00     0.012 C 
ATOM     25  C   UNL     1      29.903  30.972  18.881  1.00  0.00    -0.006 C 
ATOM     26  C   UNL     1      28.495  28.807  18.736  1.00  0.00     0.033 C 
ATOM     27  C   UNL     1      29.905  29.436  18.643  1.00  0.00     0.120 C 
ATOM     28  C   UNL     1      31.381  31.454  18.869  1.00  0.00     0.014 C 
ATOM     29  C   UNL     1      29.205  31.668  17.675  1.00  0.00     0.014 C 
ENDROOT
BRANCH   1  30
ATOM     30  C   UNL     1      24.682  35.324  25.389  1.00  0.00     0.048 C 
ATOM     31  O   UNL     1      25.891  35.027  25.569  1.00  0.00    -0.550 OA
ATOM     32  O   UNL     1      24.074  36.197  26.283  1.00  0.00    -0.550 OA
ENDBRANCH   1  30
BRANCH  27  33
ATOM     33  O   UNL     1      30.465  29.128  17.388  1.00  0.00    -0.393 OA
ATOM     34  H   UNL     1      30.753  28.180  17.426  1.00  0.00     0.210 HD
ENDBRANCH  27  33
TORSDOF 2
ENDMDL
MODEL 6
REMARK VINA RESULT:    -7.327      2.343      3.023
REMARK INTER + INTRA:          -7.574
REMARK INTER:                  -7.962
REMARK INTRA:                   0.388
REMARK UNBOUND:                 0.396
REMARK SMILES C[C@H]1[C@H](C)CC[C@]2(C(=O)[O-])CC[C@@]3(C)C(=CC[C@@H]4[C@@]5(C)CC[C@@H](O)C(C)(C)[C@H]5CC[C@@]43C)[C@@H]12
REMARK SMILES IDX 7 1 6 2 11 3 33 4 5 5 12 6 15 7 2 8 3 9 13 10 16 11 1 12
REMARK SMILES IDX 4 13 14 14 31 15 17 16 18 17 30 18 32 19 19 20 29 21 28 22
REMARK SMILES IDX 21 23 20 24 25 25 22 26 23 27 26 28 27 29 8 30 9 31 10 32
REMARK SMILES IDX 24 33
REMARK H PARENT 24 34
REMARK Flexibility Score: inf
ROOT
ATOM      1  C   UNL     1      16.520  28.959  22.553  1.00  0.00     0.017 C 
ATOM      2  C   UNL     1      15.696  27.710  22.984  1.00  0.00     0.014 C 
ATOM      3  C   UNL     1      17.406  29.416  23.766  1.00  0.00     0.014 C 
ATOM      4  C   UNL     1      15.494  30.072  22.130  1.00  0.00     0.030 C 
ATOM      5  C   UNL     1      14.738  27.210  21.891  1.00  0.00     0.004 C 
ATOM      6  C   UNL     1      17.099  30.834  24.281  1.00  0.00     0.013 C 
ATOM      7  C   UNL     1      16.143  31.463  22.024  1.00  0.00    -0.063 C 
ATOM      8  C   UNL     1      14.498  29.618  21.002  1.00  0.00    -0.003 C 
ATOM      9  C   UNL     1      13.762  28.304  21.400  1.00  0.00    -0.011 C 
ATOM     10  C   UNL     1      17.064  31.938  23.157  1.00  0.00    -0.006 C 
ATOM     11  C   UNL     1      15.753  32.364  21.100  1.00  0.00    -0.027 C 
ATOM     12  C   UNL     1      15.104  29.471  19.586  1.00  0.00     0.008 C 
ATOM     13  C   UNL     1      12.631  28.551  22.418  1.00  0.00     0.008 C 
ATOM     14  C   UNL     1      18.516  32.003  22.594  1.00  0.00     0.017 C 
ATOM     15  C   UNL     1      16.523  33.373  23.728  1.00  0.00    -0.020 C 
ATOM     16  C   UNL     1      16.202  33.796  21.165  1.00  0.00     0.032 C 
ATOM     17  C   UNL     1      15.973  34.369  22.588  1.00  0.00     0.006 C 
ATOM     18  C   UNL     1      17.612  34.081  24.583  1.00  0.00     0.008 C 
ATOM     19  C   UNL     1      15.318  33.100  24.689  1.00  0.00     0.012 C 
ATOM     20  C   UNL     1      16.287  35.952  22.752  1.00  0.00    -0.025 C 
ATOM     21  C   UNL     1      18.506  35.031  23.779  1.00  0.00     0.005 C 
ATOM     22  C   UNL     1      17.754  36.281  23.279  1.00  0.00     0.003 C 
ATOM     23  C   UNL     1      15.243  36.572  23.727  1.00  0.00     0.010 C 
ATOM     24  C   UNL     1      16.067  36.652  21.370  1.00  0.00     0.012 C 
ATOM     25  C   UNL     1      17.905  37.536  24.264  1.00  0.00    -0.006 C 
ATOM     26  C   UNL     1      15.393  38.084  23.982  1.00  0.00     0.033 C 
ATOM     27  C   UNL     1      16.844  38.617  23.919  1.00  0.00     0.120 C 
ATOM     28  C   UNL     1      19.310  38.169  24.057  1.00  0.00     0.014 C 
ATOM     29  C   UNL     1      17.798  37.191  25.779  1.00  0.00     0.014 C 
ENDROOT
BRANCH   1  30
ATOM     30  C   UNL     1      17.467  28.576  21.420  1.00  0.00     0.048 C 
ATOM     31  O   UNL     1      18.149  29.449  20.825  1.00  0.00    -0.550 OA
ATOM     32  O   UNL     1      17.681  27.239  21.106  1.00  0.00    -0.550 OA
ENDBRANCH   1  30
BRANCH  27  33
ATOM     33  O   UNL     1      16.965  39.726  24.779  1.00  0.00    -0.393 OA
ATOM     34  H   UNL     1      17.796  40.202  24.519  1.00  0.00     0.210 HD
ENDBRANCH  27  33
TORSDOF 2
ENDMDL
MODEL 7
REMARK VINA RESULT:    -7.325      8.177     10.588
REMARK INTER + INTRA:          -7.572
REMARK INTER:                  -7.966
REMARK INTRA:                   0.395
REMARK UNBOUND:                 0.396
REMARK SMILES C[C@H]1[C@H](C)CC[C@]2(C(=O)[O-])CC[C@@]3(C)C(=CC[C@@H]4[C@@]5(C)CC[C@@H](O)C(C)(C)[C@H]5CC[C@@]43C)[C@@H]12
REMARK SMILES IDX 7 1 6 2 11 3 33 4 5 5 12 6 15 7 2 8 3 9 13 10 16 11 1 12
REMARK SMILES IDX 4 13 14 14 31 15 17 16 18 17 30 18 32 19 19 20 29 21 28 22
REMARK SMILES IDX 21 23 20 24 25 25 22 26 23 27 26 28 27 29 8 30 9 31 10 32
REMARK SMILES IDX 24 33
REMARK H PARENT 24 34
REMARK Flexibility Score: inf
ROOT
ATOM      1  C   UNL     1      28.156  30.613  21.301  1.00  0.00     0.017 C 
ATOM      2  C   UNL     1      28.734  29.181  21.105  1.00  0.00     0.014 C 
ATOM      3  C   UNL     1      28.750  31.214  22.625  1.00  0.00     0.014 C 
ATOM      4  C   UNL     1      26.593  30.480  21.373  1.00  0.00     0.030 C 
ATOM      5  C   UNL     1      28.171  28.465  19.866  1.00  0.00     0.004 C 
ATOM      6  C   UNL     1      27.699  31.547  23.700  1.00  0.00     0.013 C 
ATOM      7  C   UNL     1      25.915  31.750  21.917  1.00  0.00    -0.063 C 
ATOM      8  C   UNL     1      25.961  29.767  20.122  1.00  0.00    -0.003 C 
ATOM      9  C   UNL     1      26.627  28.382  19.870  1.00  0.00    -0.011 C 
ATOM     10  C   UNL     1      26.489  32.411  23.178  1.00  0.00    -0.006 C 
ATOM     11  C   UNL     1      24.713  32.165  21.470  1.00  0.00    -0.027 C 
ATOM     12  C   UNL     1      25.950  30.589  18.812  1.00  0.00     0.008 C 
ATOM     13  C   UNL     1      26.122  27.302  20.848  1.00  0.00     0.008 C 
ATOM     14  C   UNL     1      27.108  33.780  22.759  1.00  0.00     0.017 C 
ATOM     15  C   UNL     1      25.308  32.548  24.302  1.00  0.00    -0.020 C 
ATOM     16  C   UNL     1      23.946  33.245  22.178  1.00  0.00     0.032 C 
ATOM     17  C   UNL     1      23.869  32.945  23.697  1.00  0.00     0.006 C 
ATOM     18  C   UNL     1      25.716  33.546  25.424  1.00  0.00     0.008 C 
ATOM     19  C   UNL     1      25.122  31.157  24.996  1.00  0.00     0.012 C 
ATOM     20  C   UNL     1      22.944  33.966  24.556  1.00  0.00    -0.025 C 
ATOM     21  C   UNL     1      25.273  34.988  25.156  1.00  0.00     0.005 C 
ATOM     22  C   UNL     1      23.743  35.168  25.230  1.00  0.00     0.003 C 
ATOM     23  C   UNL     1      22.202  33.161  25.662  1.00  0.00     0.010 C 
ATOM     24  C   UNL     1      21.836  34.547  23.616  1.00  0.00     0.012 C 
ATOM     25  C   UNL     1      23.241  35.651  26.673  1.00  0.00    -0.006 C 
ATOM     26  C   UNL     1      21.264  33.987  26.564  1.00  0.00     0.033 C 
ATOM     27  C   UNL     1      21.705  35.450  26.799  1.00  0.00     0.120 C 
ATOM     28  C   UNL     1      23.533  37.171  26.821  1.00  0.00     0.014 C 
ATOM     29  C   UNL     1      23.941  34.951  27.875  1.00  0.00     0.014 C 
ENDROOT
BRANCH   1  30
ATOM     30  C   UNL     1      28.615  31.508  20.154  1.00  0.00     0.048 C 
ATOM     31  O   UNL     1      28.137  32.661  20.003  1.00  0.00    -0.550 OA
ATOM     32  O   UNL     1      29.656  31.108  19.324  1.00  0.00    -0.550 OA
ENDBRANCH   1  30
BRANCH  27  33
ATOM     33  O   UNL     1      21.250  35.871  28.064  1.00  0.00    -0.393 OA
ATOM     34  H   UNL     1      20.412  35.374  28.249  1.00  0.00     0.210 HD
ENDBRANCH  27  33
TORSDOF 2
ENDMDL
MODEL 8
REMARK VINA RESULT:    -7.315      2.383      8.292
REMARK INTER + INTRA:          -7.561
REMARK INTER:                  -7.950
REMARK INTRA:                   0.389
REMARK UNBOUND:                 0.396
REMARK SMILES C[C@H]1[C@H](C)CC[C@]2(C(=O)[O-])CC[C@@]3(C)C(=CC[C@@H]4[C@@]5(C)CC[C@@H](O)C(C)(C)[C@H]5CC[C@@]43C)[C@@H]12
REMARK SMILES IDX 7 1 6 2 11 3 33 4 5 5 12 6 15 7 2 8 3 9 13 10 16 11 1 12
REMARK SMILES IDX 4 13 14 14 31 15 17 16 18 17 30 18 32 19 19 20 29 21 28 22
REMARK SMILES IDX 21 23 20 24 25 25 22 26 23 27 26 28 27 29 8 30 9 31 10 32
REMARK SMILES IDX 24 33
REMARK H PARENT 24 34
REMARK Flexibility Score: inf
ROOT
ATOM      1  C   UNL     1      18.223  34.265  23.537  1.00  0.00     0.017 C 
ATOM      2  C   UNL     1      18.973  35.067  22.433  1.00  0.00     0.014 C 
ATOM      3  C   UNL     1      18.947  32.885  23.732  1.00  0.00     0.014 C 
ATOM      4  C   UNL     1      16.739  34.080  23.053  1.00  0.00     0.030 C 
ATOM      5  C   UNL     1      18.311  36.416  22.110  1.00  0.00     0.004 C 
ATOM      6  C   UNL     1      18.073  31.657  23.419  1.00  0.00     0.013 C 
ATOM      7  C   UNL     1      15.982  33.012  23.863  1.00  0.00    -0.063 C 
ATOM      8  C   UNL     1      16.008  35.431  22.722  1.00  0.00    -0.003 C 
ATOM      9  C   UNL     1      16.827  36.275  21.700  1.00  0.00    -0.011 C 
ATOM     10  C   UNL     1      16.667  31.664  24.131  1.00  0.00    -0.006 C 
ATOM     11  C   UNL     1      14.668  33.126  24.142  1.00  0.00    -0.027 C 
ATOM     12  C   UNL     1      15.628  36.307  23.939  1.00  0.00     0.008 C 
ATOM     13  C   UNL     1      16.686  35.747  20.258  1.00  0.00     0.008 C 
ATOM     14  C   UNL     1      16.975  31.582  25.657  1.00  0.00     0.017 C 
ATOM     15  C   UNL     1      15.706  30.453  23.595  1.00  0.00    -0.020 C 
ATOM     16  C   UNL     1      13.885  31.974  24.701  1.00  0.00     0.032 C 
ATOM     17  C   UNL     1      14.135  30.693  23.863  1.00  0.00     0.006 C 
ATOM     18  C   UNL     1      16.151  29.084  24.182  1.00  0.00     0.008 C 
ATOM     19  C   UNL     1      15.872  30.341  22.042  1.00  0.00     0.012 C 
ATOM     20  C   UNL     1      13.236  29.409  24.280  1.00  0.00    -0.025 C 
ATOM     21  C   UNL     1      15.445  28.717  25.492  1.00  0.00     0.005 C 
ATOM     22  C   UNL     1      13.946  28.411  25.300  1.00  0.00     0.003 C 
ATOM     23  C   UNL     1      12.846  28.630  22.991  1.00  0.00     0.010 C 
ATOM     24  C   UNL     1      11.896  29.919  24.908  1.00  0.00     0.012 C 
ATOM     25  C   UNL     1      13.647  26.848  25.108  1.00  0.00    -0.006 C 
ATOM     26  C   UNL     1      11.971  27.380  23.212  1.00  0.00     0.033 C 
ATOM     27  C   UNL     1      12.212  26.643  24.549  1.00  0.00     0.120 C 
ATOM     28  C   UNL     1      13.719  26.152  26.497  1.00  0.00     0.014 C 
ATOM     29  C   UNL     1      14.657  26.100  24.190  1.00  0.00     0.014 C 
ENDROOT
BRANCH   1  30
ATOM     30  C   UNL     1      18.316  35.015  24.862  1.00  0.00     0.048 C 
ATOM     31  O   UNL     1      17.628  34.663  25.854  1.00  0.00    -0.550 OA
ATOM     32  O   UNL     1      19.252  36.029  25.030  1.00  0.00    -0.550 OA
ENDBRANCH   1  30
BRANCH  27  33
ATOM     33  O   UNL     1      11.937  25.272  24.376  1.00  0.00    -0.393 OA
ATOM     34  H   UNL     1      12.811  24.812  24.290  1.00  0.00     0.210 HD
ENDBRANCH  27  33
TORSDOF 2
ENDMDL
MODEL 9
REMARK VINA RESULT:    -7.276      9.193     11.839
REMARK INTER + INTRA:          -7.518
REMARK INTER:                  -7.912
REMARK INTRA:                   0.394
REMARK UNBOUND:                 0.396
REMARK SMILES C[C@H]1[C@H](C)CC[C@]2(C(=O)[O-])CC[C@@]3(C)C(=CC[C@@H]4[C@@]5(C)CC[C@@H](O)C(C)(C)[C@H]5CC[C@@]43C)[C@@H]12
REMARK SMILES IDX 7 1 6 2 11 3 33 4 5 5 12 6 15 7 2 8 3 9 13 10 16 11 1 12
REMARK SMILES IDX 4 13 14 14 31 15 17 16 18 17 30 18 32 19 19 20 29 21 28 22
REMARK SMILES IDX 21 23 20 24 25 25 22 26 23 27 26 28 27 29 8 30 9 31 10 32
REMARK SMILES IDX 24 33
REMARK H PARENT 24 34
REMARK Flexibility Score: inf
ROOT
ATOM      1  C   UNL     1      24.175  33.891  25.985  1.00  0.00     0.017 C 
ATOM      2  C   UNL     1      24.078  34.243  27.499  1.00  0.00     0.014 C 
ATOM      3  C   UNL     1      24.217  32.328  25.837  1.00  0.00     0.014 C 
ATOM      4  C   UNL     1      25.483  34.563  25.432  1.00  0.00     0.030 C 
ATOM      5  C   UNL     1      24.095  35.756  27.772  1.00  0.00     0.004 C 
ATOM      6  C   UNL     1      25.504  31.784  25.190  1.00  0.00     0.013 C 
ATOM      7  C   UNL     1      25.893  34.012  24.055  1.00  0.00    -0.063 C 
ATOM      8  C   UNL     1      25.546  36.115  25.671  1.00  0.00    -0.003 C 
ATOM      9  C   UNL     1      25.335  36.460  27.175  1.00  0.00    -0.011 C 
ATOM     10  C   UNL     1      25.898  32.492  23.838  1.00  0.00    -0.006 C 
ATOM     11  C   UNL     1      26.467  34.791  23.116  1.00  0.00    -0.027 C 
ATOM     12  C   UNL     1      24.596  36.970  24.799  1.00  0.00     0.008 C 
ATOM     13  C   UNL     1      26.597  36.193  28.020  1.00  0.00     0.008 C 
ATOM     14  C   UNL     1      24.750  32.150  22.841  1.00  0.00     0.017 C 
ATOM     15  C   UNL     1      27.376  32.025  23.315  1.00  0.00    -0.020 C 
ATOM     16  C   UNL     1      27.095  34.201  21.887  1.00  0.00     0.032 C 
ATOM     17  C   UNL     1      28.058  33.048  22.273  1.00  0.00     0.006 C 
ATOM     18  C   UNL     1      27.329  30.592  22.711  1.00  0.00     0.008 C 
ATOM     19  C   UNL     1      28.338  31.952  24.548  1.00  0.00     0.012 C 
ATOM     20  C   UNL     1      28.909  32.419  21.043  1.00  0.00    -0.025 C 
ATOM     21  C   UNL     1      27.071  30.568  21.201  1.00  0.00     0.005 C 
ATOM     22  C   UNL     1      28.252  31.126  20.382  1.00  0.00     0.003 C 
ATOM     23  C   UNL     1      30.336  32.063  21.552  1.00  0.00     0.010 C 
ATOM     24  C   UNL     1      29.095  33.521  19.948  1.00  0.00     0.012 C 
ATOM     25  C   UNL     1      29.255  29.984  19.875  1.00  0.00    -0.006 C 
ATOM     26  C   UNL     1      31.285  31.463  20.495  1.00  0.00     0.033 C 
ATOM     27  C   UNL     1      30.592  30.619  19.400  1.00  0.00     0.120 C 
ATOM     28  C   UNL     1      28.615  29.261  18.656  1.00  0.00     0.014 C 
ATOM     29  C   UNL     1      29.568  28.879  20.926  1.00  0.00     0.014 C 
ENDROOT
BRANCH   1  30
ATOM     30  C   UNL     1      22.919  34.379  25.269  1.00  0.00     0.048 C 
ATOM     31  O   UNL     1      22.822  34.313  24.017  1.00  0.00    -0.550 OA
ATOM     32  O   UNL     1      21.812  34.796  25.999  1.00  0.00    -0.550 OA
ENDBRANCH   1  30
BRANCH  27  33
ATOM     33  O   UNL     1      31.483  29.625  18.952  1.00  0.00    -0.393 OA
ATOM     34  H   UNL     1      30.969  29.027  18.350  1.00  0.00     0.210 HD
ENDBRANCH  27  33
TORSDOF 2
ENDMDL
