MODEL 1
REMARK VINA RESULT:    -3.245      0.000      0.000
REMARK INTER + INTRA:          -8.021
REMARK INTER:                  -5.901
REMARK INTRA:                  -2.120
REMARK UNBOUND:                -2.120
REMARK SMILES CCCCCCCCCCCCCCCC(=O)[O-]
REMARK SMILES IDX 9 1 10 2 11 3 12 4 13 5 14 6 15 7 16 8 17 9 18 10 8 11 7 12
REMARK SMILES IDX 6 13 5 14 4 15 3 16 2 17 1 18
REMARK H PARENT
REMARK Flexibility Score: inf
ROOT
ATOM      1  C   UNL     1      48.505  33.857  87.526  1.00  0.00     0.000 C 
ENDROOT
BRANCH   1   2
ATOM      2  C   UNL     1      48.397  32.584  86.672  1.00  0.00     0.000 C 
BRANCH   2   3
ATOM      3  C   UNL     1      48.912  31.334  87.401  1.00  0.00     0.000 C 
BRANCH   3   4
ATOM      4  C   UNL     1      49.538  31.706  88.751  1.00  0.00     0.000 C 
BRANCH   4   5
ATOM      5  C   UNL     1      48.844  30.968  89.903  1.00  0.00     0.000 C 
BRANCH   5   6
ATOM      6  C   UNL     1      47.380  30.669  89.561  1.00  0.00     0.006 C 
BRANCH   6   7
ATOM      7  C   UNL     1      46.450  31.728  90.161  1.00  0.00     0.053 C 
BRANCH   7   8
ATOM      8  C   UNL     1      45.474  31.096  91.102  1.00  0.00     0.041 C 
ATOM      9  O   UNL     1      44.714  31.815  91.804  1.00  0.00    -0.550 OA
ATOM     10  O   UNL     1      45.436  29.715  91.241  1.00  0.00    -0.550 OA
ENDBRANCH   7   8
ENDBRANCH   6   7
ENDBRANCH   5   6
ENDBRANCH   4   5
ENDBRANCH   3   4
ENDBRANCH   2   3
ENDBRANCH   1   2
BRANCH   1  11
ATOM     11  C   UNL     1      48.964  35.078  86.710  1.00  0.00     0.000 C 
BRANCH  11  12
ATOM     12  C   UNL     1      50.189  35.774  87.325  1.00  0.00    -0.000 C 
BRANCH  12  13
ATOM     13  C   UNL     1      51.365  34.811  87.563  1.00  0.00    -0.000 C 
BRANCH  13  14
ATOM     14  C   UNL     1      52.601  35.181  86.715  1.00  0.00    -0.000 C 
BRANCH  14  15
ATOM     15  C   UNL     1      52.541  34.645  85.275  1.00  0.00    -0.000 C 
BRANCH  15  16
ATOM     16  C   UNL     1      51.921  33.241  85.186  1.00  0.00    -0.000 C 
BRANCH  16  17
ATOM     17  C   UNL     1      50.891  33.122  84.053  1.00  0.00    -0.003 C 
ATOM     18  C   UNL     1      50.556  34.471  83.416  1.00  0.00     0.004 C 
ENDBRANCH  16  17
ENDBRANCH  15  16
ENDBRANCH  14  15
ENDBRANCH  13  14
ENDBRANCH  12  13
ENDBRANCH  11  12
ENDBRANCH   1  11
TORSDOF 14
ENDMDL
MODEL 2
REMARK VINA RESULT:    -3.179      1.585      3.119
REMARK INTER + INTRA:          -7.901
REMARK INTER:                  -5.813
REMARK INTRA:                  -2.087
REMARK UNBOUND:                -2.120
REMARK SMILES CCCCCCCCCCCCCCCC(=O)[O-]
REMARK SMILES IDX 9 1 10 2 11 3 12 4 13 5 14 6 15 7 16 8 17 9 18 10 8 11 7 12
REMARK SMILES IDX 6 13 5 14 4 15 3 16 2 17 1 18
REMARK H PARENT
REMARK Flexibility Score: inf
ROOT
ATOM      1  C   UNL     1      48.640  34.547  86.598  1.00  0.00     0.000 C 
ENDROOT
BRANCH   1   2
ATOM      2  C   UNL     1      48.315  33.497  87.672  1.00  0.00     0.000 C 
BRANCH   2   3
ATOM      3  C   UNL     1      48.118  32.090  87.087  1.00  0.00     0.000 C 
BRANCH   3   4
ATOM      4  C   UNL     1      47.127  31.279  87.931  1.00  0.00     0.000 C 
BRANCH   4   5
ATOM      5  C   UNL     1      46.879  31.950  89.288  1.00  0.00     0.000 C 
BRANCH   5   6
ATOM      6  C   UNL     1      46.411  30.927  90.329  1.00  0.00     0.006 C 
BRANCH   6   7
ATOM      7  C   UNL     1      45.286  31.501  91.195  1.00  0.00     0.053 C 
BRANCH   7   8
ATOM      8  C   UNL     1      44.605  30.411  91.960  1.00  0.00     0.041 C 
ATOM      9  O   UNL     1      43.383  30.510  92.253  1.00  0.00    -0.550 OA
ATOM     10  O   UNL     1      45.329  29.308  92.393  1.00  0.00    -0.550 OA
ENDBRANCH   7   8
ENDBRANCH   6   7
ENDBRANCH   5   6
ENDBRANCH   4   5
ENDBRANCH   3   4
ENDBRANCH   2   3
ENDBRANCH   1   2
BRANCH   1  11
ATOM     11  C   UNL     1      50.119  34.522  86.176  1.00  0.00     0.000 C 
BRANCH  11  12
ATOM     12  C   UNL     1      51.028  35.273  87.163  1.00  0.00    -0.000 C 
BRANCH  12  13
ATOM     13  C   UNL     1      52.012  34.344  87.895  1.00  0.00    -0.000 C 
BRANCH  13  14
ATOM     14  C   UNL     1      52.117  32.960  87.220  1.00  0.00    -0.000 C 
BRANCH  14  15
ATOM     15  C   UNL     1      51.610  31.806  88.101  1.00  0.00    -0.000 C 
BRANCH  15  16
ATOM     16  C   UNL     1      51.358  32.232  89.556  1.00  0.00    -0.000 C 
BRANCH  16  17
ATOM     17  C   UNL     1      50.386  31.293  90.285  1.00  0.00    -0.003 C 
ATOM     18  C   UNL     1      50.229  29.944  89.583  1.00  0.00     0.004 C 
ENDBRANCH  16  17
ENDBRANCH  15  16
ENDBRANCH  14  15
ENDBRANCH  13  14
ENDBRANCH  12  13
ENDBRANCH  11  12
ENDBRANCH   1  11
TORSDOF 14
ENDMDL
MODEL 3
REMARK VINA RESULT:    -3.149      1.611      3.127
REMARK INTER + INTRA:          -7.847
REMARK INTER:                  -5.852
REMARK INTRA:                  -1.995
REMARK UNBOUND:                -2.120
REMARK SMILES CCCCCCCCCCCCCCCC(=O)[O-]
REMARK SMILES IDX 9 1 10 2 11 3 12 4 13 5 14 6 15 7 16 8 17 9 18 10 8 11 7 12
REMARK SMILES IDX 6 13 5 14 4 15 3 16 2 17 1 18
REMARK H PARENT
REMARK Flexibility Score: inf
ROOT
ATOM      1  C   UNL     1      52.020  32.809  87.991  1.00  0.00     0.000 C 
ENDROOT
BRANCH   1   2
ATOM      2  C   UNL     1      51.465  32.497  89.390  1.00  0.00     0.000 C 
BRANCH   2   3
ATOM      3  C   UNL     1      50.569  31.250  89.409  1.00  0.00     0.000 C 
BRANCH   3   4
ATOM      4  C   UNL     1      49.631  31.266  90.622  1.00  0.00     0.000 C 
BRANCH   4   5
ATOM      5  C   UNL     1      48.360  30.453  90.347  1.00  0.00     0.000 C 
BRANCH   5   6
ATOM      6  C   UNL     1      47.104  31.303  90.571  1.00  0.00     0.006 C 
BRANCH   6   7
ATOM      7  C   UNL     1      45.845  30.432  90.577  1.00  0.00     0.053 C 
BRANCH   7   8
ATOM      8  C   UNL     1      44.854  30.950  91.569  1.00  0.00     0.041 C 
ATOM      9  O   UNL     1      43.799  30.303  91.809  1.00  0.00    -0.550 OA
ATOM     10  O   UNL     1      45.069  32.171  92.195  1.00  0.00    -0.550 OA
ENDBRANCH   7   8
ENDBRANCH   6   7
ENDBRANCH   5   6
ENDBRANCH   4   5
ENDBRANCH   3   4
ENDBRANCH   2   3
ENDBRANCH   1   2
BRANCH   1  11
ATOM     11  C   UNL     1      52.435  34.283  87.837  1.00  0.00     0.000 C 
BRANCH  11  12
ATOM     12  C   UNL     1      51.559  35.041  86.827  1.00  0.00    -0.000 C 
BRANCH  12  13
ATOM     13  C   UNL     1      50.346  35.725  87.483  1.00  0.00    -0.000 C 
BRANCH  13  14
ATOM     14  C   UNL     1      49.009  35.234  86.889  1.00  0.00    -0.000 C 
BRANCH  14  15
ATOM     15  C   UNL     1      48.535  33.890  87.468  1.00  0.00    -0.000 C 
BRANCH  15  16
ATOM     16  C   UNL     1      48.571  32.751  86.436  1.00  0.00    -0.000 C 
BRANCH  16  17
ATOM     17  C   UNL     1      47.671  31.571  86.830  1.00  0.00    -0.003 C 
ATOM     18  C   UNL     1      48.366  30.219  86.669  1.00  0.00     0.004 C 
ENDBRANCH  16  17
ENDBRANCH  15  16
ENDBRANCH  14  15
ENDBRANCH  13  14
ENDBRANCH  12  13
ENDBRANCH  11  12
ENDBRANCH   1  11
TORSDOF 14
ENDMDL
MODEL 4
REMARK VINA RESULT:    -3.149      3.908      6.320
REMARK INTER + INTRA:          -7.846
REMARK INTER:                  -5.478
REMARK INTRA:                  -2.368
REMARK UNBOUND:                -2.120
REMARK SMILES CCCCCCCCCCCCCCCC(=O)[O-]
REMARK SMILES IDX 9 1 10 2 11 3 12 4 13 5 14 6 15 7 16 8 17 9 18 10 8 11 7 12
REMARK SMILES IDX 6 13 5 14 4 15 3 16 2 17 1 18
REMARK H PARENT
REMARK Flexibility Score: inf
ROOT
ATOM      1  C   UNL     1      46.684  31.889  89.274  1.00  0.00     0.000 C 
ENDROOT
BRANCH   1   2
ATOM      2  C   UNL     1      47.145  31.210  87.975  1.00  0.00     0.000 C 
BRANCH   2   3
ATOM      3  C   UNL     1      48.015  32.127  87.102  1.00  0.00     0.000 C 
BRANCH   3   4
ATOM      4  C   UNL     1      48.338  33.436  87.833  1.00  0.00     0.000 C 
BRANCH   4   5
ATOM      5  C   UNL     1      48.750  34.533  86.844  1.00  0.00     0.000 C 
BRANCH   5   6
ATOM      6  C   UNL     1      49.126  33.934  85.484  1.00  0.00     0.006 C 
BRANCH   6   7
ATOM      7  C   UNL     1      50.504  34.425  85.031  1.00  0.00     0.053 C 
BRANCH   7   8
ATOM      8  C   UNL     1      50.576  34.480  83.538  1.00  0.00     0.041 C 
ATOM      9  O   UNL     1      51.669  34.266  82.948  1.00  0.00    -0.550 OA
ATOM     10  O   UNL     1      49.449  34.814  82.799  1.00  0.00    -0.550 OA
ENDBRANCH   7   8
ENDBRANCH   6   7
ENDBRANCH   5   6
ENDBRANCH   4   5
ENDBRANCH   3   4
ENDBRANCH   2   3
ENDBRANCH   1   2
BRANCH   1  11
ATOM     11  C   UNL     1      47.256  31.209  90.530  1.00  0.00     0.000 C 
BRANCH  11  12
ATOM     12  C   UNL     1      47.904  29.849  90.222  1.00  0.00    -0.000 C 
BRANCH  12  13
ATOM     13  C   UNL     1      49.413  29.824  90.526  1.00  0.00    -0.000 C 
BRANCH  13  14
ATOM     14  C   UNL     1      49.945  31.212  90.944  1.00  0.00    -0.000 C 
BRANCH  14  15
ATOM     15  C   UNL     1      51.171  31.668  90.136  1.00  0.00    -0.000 C 
BRANCH  15  16
ATOM     16  C   UNL     1      51.185  31.107  88.705  1.00  0.00    -0.000 C 
BRANCH  16  17
ATOM     17  C   UNL     1      51.799  32.086  87.693  1.00  0.00    -0.003 C 
ATOM     18  C   UNL     1      52.070  33.464  88.296  1.00  0.00     0.004 C 
ENDBRANCH  16  17
ENDBRANCH  15  16
ENDBRANCH  14  15
ENDBRANCH  13  14
ENDBRANCH  12  13
ENDBRANCH  11  12
ENDBRANCH   1  11
TORSDOF 14
ENDMDL
MODEL 5
REMARK VINA RESULT:    -3.148     15.946     17.263
REMARK INTER + INTRA:          -7.845
REMARK INTER:                  -5.770
REMARK INTRA:                  -2.075
REMARK UNBOUND:                -2.120
REMARK SMILES CCCCCCCCCCCCCCCC(=O)[O-]
REMARK SMILES IDX 9 1 10 2 11 3 12 4 13 5 14 6 15 7 16 8 17 9 18 10 8 11 7 12
REMARK SMILES IDX 6 13 5 14 4 15 3 16 2 17 1 18
REMARK H PARENT
REMARK Flexibility Score: inf
ROOT
ATOM      1  C   UNL     1      44.274  22.165  77.257  1.00  0.00     0.000 C 
ENDROOT
BRANCH   1   2
ATOM      2  C   UNL     1      43.572  21.357  76.155  1.00  0.00     0.000 C 
BRANCH   2   3
ATOM      3  C   UNL     1      42.200  21.936  75.777  1.00  0.00     0.000 C 
BRANCH   3   4
ATOM      4  C   UNL     1      41.639  22.804  76.909  1.00  0.00     0.000 C 
BRANCH   4   5
ATOM      5  C   UNL     1      40.477  22.101  77.621  1.00  0.00     0.000 C 
BRANCH   5   6
ATOM      6  C   UNL     1      40.946  21.446  78.925  1.00  0.00     0.006 C 
BRANCH   6   7
ATOM      7  C   UNL     1      40.428  20.009  79.034  1.00  0.00     0.053 C 
BRANCH   7   8
ATOM      8  C   UNL     1      39.264  19.941  79.971  1.00  0.00     0.041 C 
ATOM      9  O   UNL     1      38.743  21.000  80.413  1.00  0.00    -0.550 OA
ATOM     10  O   UNL     1      38.784  18.709  80.396  1.00  0.00    -0.550 OA
ENDBRANCH   7   8
ENDBRANCH   6   7
ENDBRANCH   5   6
ENDBRANCH   4   5
ENDBRANCH   3   4
ENDBRANCH   2   3
ENDBRANCH   1   2
BRANCH   1  11
ATOM     11  C   UNL     1      44.623  21.308  78.486  1.00  0.00     0.000 C 
BRANCH  11  12
ATOM     12  C   UNL     1      44.515  19.800  78.204  1.00  0.00    -0.000 C 
BRANCH  12  13
ATOM     13  C   UNL     1      45.880  19.145  77.926  1.00  0.00    -0.000 C 
BRANCH  13  14
ATOM     14  C   UNL     1      45.843  18.227  76.686  1.00  0.00    -0.000 C 
BRANCH  14  15
ATOM     15  C   UNL     1      46.156  18.958  75.369  1.00  0.00    -0.000 C 
BRANCH  15  16
ATOM     16  C   UNL     1      47.078  20.172  75.567  1.00  0.00    -0.000 C 
BRANCH  16  17
ATOM     17  C   UNL     1      47.131  21.080  74.329  1.00  0.00    -0.003 C 
ATOM     18  C   UNL     1      46.975  22.561  74.675  1.00  0.00     0.004 C 
ENDBRANCH  16  17
ENDBRANCH  15  16
ENDBRANCH  14  15
ENDBRANCH  13  14
ENDBRANCH  12  13
ENDBRANCH  11  12
ENDBRANCH   1  11
TORSDOF 14
ENDMDL
MODEL 6
REMARK VINA RESULT:    -3.121      3.647      6.364
REMARK INTER + INTRA:          -7.797
REMARK INTER:                  -5.171
REMARK INTRA:                  -2.625
REMARK UNBOUND:                -2.120
REMARK SMILES CCCCCCCCCCCCCCCC(=O)[O-]
REMARK SMILES IDX 9 1 10 2 11 3 12 4 13 5 14 6 15 7 16 8 17 9 18 10 8 11 7 12
REMARK SMILES IDX 6 13 5 14 4 15 3 16 2 17 1 18
REMARK H PARENT
REMARK Flexibility Score: inf
ROOT
ATOM      1  C   UNL     1      51.478  35.057  87.704  1.00  0.00     0.000 C 
ENDROOT
BRANCH   1   2
ATOM      2  C   UNL     1      52.791  35.350  86.959  1.00  0.00     0.000 C 
BRANCH   2   3
ATOM      3  C   UNL     1      53.446  34.082  86.390  1.00  0.00     0.000 C 
BRANCH   3   4
ATOM      4  C   UNL     1      53.129  33.923  84.898  1.00  0.00     0.000 C 
BRANCH   4   5
ATOM      5  C   UNL     1      52.382  32.611  84.629  1.00  0.00     0.000 C 
BRANCH   5   6
ATOM      6  C   UNL     1      51.034  32.876  83.948  1.00  0.00     0.006 C 
BRANCH   6   7
ATOM      7  C   UNL     1      50.874  34.360  83.608  1.00  0.00     0.053 C 
BRANCH   7   8
ATOM      8  C   UNL     1      49.522  34.621  83.024  1.00  0.00     0.041 C 
ATOM      9  O   UNL     1      48.571  34.988  83.765  1.00  0.00    -0.550 OA
ATOM     10  O   UNL     1      49.297  34.413  81.669  1.00  0.00    -0.550 OA
ENDBRANCH   7   8
ENDBRANCH   6   7
ENDBRANCH   5   6
ENDBRANCH   4   5
ENDBRANCH   3   4
ENDBRANCH   2   3
ENDBRANCH   1   2
BRANCH   1  11
ATOM     11  C   UNL     1      50.239  35.525  86.919  1.00  0.00     0.000 C 
BRANCH  11  12
ATOM     12  C   UNL     1      48.943  34.862  87.413  1.00  0.00    -0.000 C 
BRANCH  12  13
ATOM     13  C   UNL     1      48.720  33.463  86.811  1.00  0.00    -0.000 C 
BRANCH  13  14
ATOM     14  C   UNL     1      48.126  32.475  87.837  1.00  0.00    -0.000 C 
BRANCH  14  15
ATOM     15  C   UNL     1      49.177  31.561  88.489  1.00  0.00    -0.000 C 
BRANCH  15  16
ATOM     16  C   UNL     1      50.440  31.396  87.630  1.00  0.00    -0.000 C 
BRANCH  16  17
ATOM     17  C   UNL     1      51.729  31.430  88.463  1.00  0.00    -0.003 C 
ATOM     18  C   UNL     1      51.538  32.113  89.818  1.00  0.00     0.004 C 
ENDBRANCH  16  17
ENDBRANCH  15  16
ENDBRANCH  14  15
ENDBRANCH  13  14
ENDBRANCH  12  13
ENDBRANCH  11  12
ENDBRANCH   1  11
TORSDOF 14
ENDMDL
MODEL 7
REMARK VINA RESULT:    -3.077      1.363      3.105
REMARK INTER + INTRA:          -7.715
REMARK INTER:                  -6.073
REMARK INTRA:                  -1.642
REMARK UNBOUND:                -2.120
REMARK SMILES CCCCCCCCCCCCCCCC(=O)[O-]
REMARK SMILES IDX 9 1 10 2 11 3 12 4 13 5 14 6 15 7 16 8 17 9 18 10 8 11 7 12
REMARK SMILES IDX 6 13 5 14 4 15 3 16 2 17 1 18
REMARK H PARENT
REMARK Flexibility Score: inf
ROOT
ATOM      1  C   UNL     1      49.975  31.775  89.070  1.00  0.00     0.000 C 
ENDROOT
BRANCH   1   2
ATOM      2  C   UNL     1      49.949  30.591  90.050  1.00  0.00     0.000 C 
BRANCH   2   3
ATOM      3  C   UNL     1      48.526  30.089  90.337  1.00  0.00     0.000 C 
BRANCH   3   4
ATOM      4  C   UNL     1      47.553  31.264  90.504  1.00  0.00     0.000 C 
BRANCH   4   5
ATOM      5  C   UNL     1      46.312  31.081  89.621  1.00  0.00     0.000 C 
BRANCH   5   6
ATOM      6  C   UNL     1      45.076  31.710  90.276  1.00  0.00     0.006 C 
BRANCH   6   7
ATOM      7  C   UNL     1      45.125  31.558  91.799  1.00  0.00     0.053 C 
BRANCH   7   8
ATOM      8  C   UNL     1      44.431  30.304  92.224  1.00  0.00     0.041 C 
ATOM      9  O   UNL     1      45.101  29.298  92.580  1.00  0.00    -0.550 OA
ATOM     10  O   UNL     1      43.045  30.226  92.180  1.00  0.00    -0.550 OA
ENDBRANCH   7   8
ENDBRANCH   6   7
ENDBRANCH   5   6
ENDBRANCH   4   5
ENDBRANCH   3   4
ENDBRANCH   2   3
ENDBRANCH   1   2
BRANCH   1  11
ATOM     11  C   UNL     1      49.917  31.325  87.600  1.00  0.00     0.000 C 
BRANCH  11  12
ATOM     12  C   UNL     1      49.131  32.305  86.713  1.00  0.00    -0.000 C 
BRANCH  12  13
ATOM     13  C   UNL     1      48.349  33.351  87.527  1.00  0.00    -0.000 C 
BRANCH  13  14
ATOM     14  C   UNL     1      48.810  34.792  87.220  1.00  0.00    -0.000 C 
BRANCH  14  15
ATOM     15  C   UNL     1      50.159  34.861  86.485  1.00  0.00    -0.000 C 
BRANCH  15  16
ATOM     16  C   UNL     1      51.307  35.337  87.390  1.00  0.00    -0.000 C 
BRANCH  16  17
ATOM     17  C   UNL     1      52.690  35.002  86.814  1.00  0.00    -0.003 C 
ATOM     18  C   UNL     1      52.641  34.655  85.326  1.00  0.00     0.004 C 
ENDBRANCH  16  17
ENDBRANCH  15  16
ENDBRANCH  14  15
ENDBRANCH  13  14
ENDBRANCH  12  13
ENDBRANCH  11  12
ENDBRANCH   1  11
TORSDOF 14
ENDMDL
MODEL 8
REMARK VINA RESULT:    -3.053      3.589      5.985
REMARK INTER + INTRA:          -7.672
REMARK INTER:                  -4.922
REMARK INTRA:                  -2.750
REMARK UNBOUND:                -2.120
REMARK SMILES CCCCCCCCCCCCCCCC(=O)[O-]
REMARK SMILES IDX 9 1 10 2 11 3 12 4 13 5 14 6 15 7 16 8 17 9 18 10 8 11 7 12
REMARK SMILES IDX 6 13 5 14 4 15 3 16 2 17 1 18
REMARK H PARENT
REMARK Flexibility Score: inf
ROOT
ATOM      1  C   UNL     1      54.615  31.796  87.120  1.00  0.00     0.000 C 
ENDROOT
BRANCH   1   2
ATOM      2  C   UNL     1      53.909  33.075  86.642  1.00  0.00     0.000 C 
BRANCH   2   3
ATOM      3  C   UNL     1      54.340  34.321  87.430  1.00  0.00     0.000 C 
BRANCH   3   4
ATOM      4  C   UNL     1      53.188  35.328  87.537  1.00  0.00     0.000 C 
BRANCH   4   5
ATOM      5  C   UNL     1      52.039  34.954  86.593  1.00  0.00     0.000 C 
BRANCH   5   6
ATOM      6  C   UNL     1      50.679  35.207  87.256  1.00  0.00     0.006 C 
BRANCH   6   7
ATOM      7  C   UNL     1      49.535  34.988  86.261  1.00  0.00     0.053 C 
BRANCH   7   8
ATOM      8  C   UNL     1      48.774  33.747  86.604  1.00  0.00     0.041 C 
ATOM      9  O   UNL     1      48.219  33.634  87.730  1.00  0.00    -0.550 OA
ATOM     10  O   UNL     1      48.717  32.694  85.700  1.00  0.00    -0.550 OA
ENDBRANCH   7   8
ENDBRANCH   6   7
ENDBRANCH   5   6
ENDBRANCH   4   5
ENDBRANCH   3   4
ENDBRANCH   2   3
ENDBRANCH   1   2
BRANCH   1  11
ATOM     11  C   UNL     1      55.606  32.063  88.267  1.00  0.00     0.000 C 
BRANCH  11  12
ATOM     12  C   UNL     1      55.136  31.467  89.604  1.00  0.00    -0.000 C 
BRANCH  12  13
ATOM     13  C   UNL     1      54.956  32.531  90.702  1.00  0.00    -0.000 C 
BRANCH  13  14
ATOM     14  C   UNL     1      53.492  33.007  90.816  1.00  0.00    -0.000 C 
BRANCH  14  15
ATOM     15  C   UNL     1      52.464  31.933  90.424  1.00  0.00    -0.000 C 
BRANCH  15  16
ATOM     16  C   UNL     1      51.437  32.437  89.396  1.00  0.00    -0.000 C 
BRANCH  16  17
ATOM     17  C   UNL     1      51.115  31.389  88.322  1.00  0.00    -0.003 C 
ATOM     18  C   UNL     1      51.713  30.017  88.637  1.00  0.00     0.004 C 
ENDBRANCH  16  17
ENDBRANCH  15  16
ENDBRANCH  14  15
ENDBRANCH  13  14
ENDBRANCH  12  13
ENDBRANCH  11  12
ENDBRANCH   1  11
TORSDOF 14
ENDMDL
MODEL 9
REMARK VINA RESULT:    -3.043      1.848      3.779
REMARK INTER + INTRA:          -7.654
REMARK INTER:                  -5.413
REMARK INTRA:                  -2.241
REMARK UNBOUND:                -2.120
REMARK SMILES CCCCCCCCCCCCCCCC(=O)[O-]
REMARK SMILES IDX 9 1 10 2 11 3 12 4 13 5 14 6 15 7 16 8 17 9 18 10 8 11 7 12
REMARK SMILES IDX 6 13 5 14 4 15 3 16 2 17 1 18
REMARK H PARENT
REMARK Flexibility Score: inf
ROOT
ATOM      1  C   UNL     1      51.874  35.159  87.442  1.00  0.00     0.000 C 
ENDROOT
BRANCH   1   2
ATOM      2  C   UNL     1      50.414  35.638  87.405  1.00  0.00     0.000 C 
BRANCH   2   3
ATOM      3  C   UNL     1      49.521  34.754  86.522  1.00  0.00     0.000 C 
BRANCH   3   4
ATOM      4  C   UNL     1      48.604  33.871  87.378  1.00  0.00     0.000 C 
BRANCH   4   5
ATOM      5  C   UNL     1      48.460  32.471  86.767  1.00  0.00     0.000 C 
BRANCH   5   6
ATOM      6  C   UNL     1      47.889  31.482  87.790  1.00  0.00     0.006 C 
BRANCH   6   7
ATOM      7  C   UNL     1      47.128  32.216  88.898  1.00  0.00     0.053 C 
BRANCH   7   8
ATOM      8  C   UNL     1      47.043  31.368  90.126  1.00  0.00     0.041 C 
ATOM      9  O   UNL     1      45.921  31.080  90.622  1.00  0.00    -0.550 OA
ATOM     10  O   UNL     1      48.204  30.935  90.754  1.00  0.00    -0.550 OA
ENDBRANCH   7   8
ENDBRANCH   6   7
ENDBRANCH   5   6
ENDBRANCH   4   5
ENDBRANCH   3   4
ENDBRANCH   2   3
ENDBRANCH   1   2
BRANCH   1  11
ATOM     11  C   UNL     1      52.475  34.993  86.035  1.00  0.00     0.000 C 
BRANCH  11  12
ATOM     12  C   UNL     1      53.365  33.745  85.917  1.00  0.00    -0.000 C 
BRANCH  12  13
ATOM     13  C   UNL     1      54.052  33.373  87.243  1.00  0.00    -0.000 C 
BRANCH  13  14
ATOM     14  C   UNL     1      53.761  31.916  87.660  1.00  0.00    -0.000 C 
BRANCH  14  15
ATOM     15  C   UNL     1      52.342  31.445  87.300  1.00  0.00    -0.000 C 
BRANCH  15  16
ATOM     16  C   UNL     1      51.520  31.029  88.530  1.00  0.00    -0.000 C 
BRANCH  16  17
ATOM     17  C   UNL     1      51.202  32.213  89.454  1.00  0.00    -0.003 C 
ATOM     18  C   UNL     1      51.746  32.021  90.870  1.00  0.00     0.004 C 
ENDBRANCH  16  17
ENDBRANCH  15  16
ENDBRANCH  14  15
ENDBRANCH  13  14
ENDBRANCH  12  13
ENDBRANCH  11  12
ENDBRANCH   1  11
TORSDOF 14
ENDMDL
