MODEL 1
REMARK VINA RESULT:    -5.018      0.000      0.000
REMARK INTER + INTRA:          -9.034
REMARK INTER:                  -7.364
REMARK INTRA:                  -1.670
REMARK UNBOUND:                -1.670
REMARK SMILES O=c1c(O[C@@H]2O[C@@H](CO)[C@H](O)[C@@H](O)[C@H]2O)c(-c2ccc(O)c(O)c2)oc2cc(O)cc(O)c12
REMARK SMILES IDX 4 1 3 2 16 3 25 4 2 5 26 6 1 7 33 8 27 9 31 10 28 11 30 12
REMARK SMILES IDX 17 13 18 14 19 15 20 16 24 17 22 18 21 19 23 21 32 23 29 25
REMARK SMILES IDX 5 27 14 28 6 29 12 30 7 31 10 32 15 33 13 35 8 37 9 38 11 40
REMARK H PARENT 21 20 23 22 32 24 29 26 15 34 13 36 9 39 11 41
REMARK Flexibility Score: inf
ROOT
ATOM      1  O   UNL     1       4.155 -15.790  17.406  1.00  0.00    -0.454 OA
ENDROOT
BRANCH   1   2
ATOM      2  C   UNL     1       4.076 -14.584  16.690  1.00  0.00     0.214 A 
ATOM      3  C   UNL     1       4.729 -14.453  15.450  1.00  0.00     0.180 A 
ATOM      4  O   UNL     1       4.741 -13.278  14.828  1.00  0.00    -0.452 OA
ATOM      5  C   UNL     1       3.352 -13.488  17.191  1.00  0.00     0.239 A 
ATOM      6  C   UNL     1       4.115 -12.201  15.292  1.00  0.00     0.146 A 
ATOM      7  O   UNL     1       2.676 -13.620  18.248  1.00  0.00    -0.285 OA
ATOM      8  C   UNL     1       3.371 -12.262  16.494  1.00  0.00     0.111 A 
ATOM      9  C   UNL     1       4.189 -11.005  14.568  1.00  0.00     0.094 A 
ATOM     10  C   UNL     1       2.684 -11.106  16.939  1.00  0.00     0.134 A 
ATOM     11  C   UNL     1       3.516  -9.863  15.021  1.00  0.00     0.123 A 
ATOM     12  C   UNL     1       2.765  -9.917  16.198  1.00  0.00     0.093 A 
BRANCH   3  13
ATOM     13  C   UNL     1       5.430 -15.586  14.815  1.00  0.00     0.025 A 
ATOM     14  C   UNL     1       6.797 -15.509  14.508  1.00  0.00     0.016 A 
ATOM     15  C   UNL     1       7.443 -16.588  13.900  1.00  0.00     0.051 A 
ATOM     16  C   UNL     1       6.739 -17.761  13.606  1.00  0.00     0.157 A 
ATOM     17  C   UNL     1       4.729 -16.771  14.543  1.00  0.00     0.062 A 
ATOM     18  C   UNL     1       5.375 -17.855  13.931  1.00  0.00     0.158 A 
BRANCH  16  19
ATOM     19  O   UNL     1       7.411 -18.820  12.997  1.00  0.00    -0.504 OA
ATOM     20  H   UNL     1       7.971 -19.477  13.526  1.00  0.00     0.293 HD
ENDBRANCH  16  19
BRANCH  18  21
ATOM     21  O   UNL     1       4.668 -19.022  13.646  1.00  0.00    -0.504 OA
ATOM     22  H   UNL     1       3.697 -18.996  13.361  1.00  0.00     0.293 HD
ENDBRANCH  18  21
ENDBRANCH   3  13
BRANCH  10  23
ATOM     23  O   UNL     1       1.927 -11.128  18.112  1.00  0.00    -0.507 OA
ATOM     24  H   UNL     1       1.006 -11.549  18.143  1.00  0.00     0.293 HD
ENDBRANCH  10  23
BRANCH  11  25
ATOM     25  O   UNL     1       3.588  -8.667  14.307  1.00  0.00    -0.508 OA
ATOM     26  H   UNL     1       4.473  -8.201  14.142  1.00  0.00     0.293 HD
ENDBRANCH  11  25
ENDBRANCH   1   2
BRANCH   1  27
ATOM     27  C   UNL     1       5.124 -16.018  18.437  1.00  0.00     0.339 C 
ATOM     28  C   UNL     1       4.438 -16.500  19.735  1.00  0.00     0.214 C 
ATOM     29  O   UNL     1       6.131 -16.924  18.004  1.00  0.00    -0.332 OA
ATOM     30  C   UNL     1       3.888 -17.925  19.557  1.00  0.00     0.180 C 
ATOM     31  C   UNL     1       5.601 -18.214  17.729  1.00  0.00     0.179 C 
ATOM     32  C   UNL     1       4.986 -18.847  19.003  1.00  0.00     0.177 C 
BRANCH  28  33
ATOM     33  O   UNL     1       5.362 -16.482  20.795  1.00  0.00    -0.384 OA
ATOM     34  H   UNL     1       6.082 -15.846  20.540  1.00  0.00     0.211 HD
ENDBRANCH  28  33
BRANCH  30  35
ATOM     35  O   UNL     1       3.427 -18.429  20.786  1.00  0.00    -0.387 OA
ATOM     36  H   UNL     1       2.464 -18.645  20.662  1.00  0.00     0.211 HD
ENDBRANCH  30  35
BRANCH  31  37
ATOM     37  C   UNL     1       6.715 -19.088  17.138  1.00  0.00     0.191 C 
BRANCH  37  38
ATOM     38  O   UNL     1       6.178 -20.047  16.268  1.00  0.00    -0.394 OA
ATOM     39  H   UNL     1       5.959 -19.560  15.429  1.00  0.00     0.210 HD
ENDBRANCH  37  38
ENDBRANCH  31  37
BRANCH  32  40
ATOM     40  O   UNL     1       4.465 -20.128  18.741  1.00  0.00    -0.387 OA
ATOM     41  H   UNL     1       3.546 -20.017  18.380  1.00  0.00     0.211 HD
ENDBRANCH  32  40
ENDBRANCH   1  27
TORSDOF 12
ENDMDL
MODEL 2
REMARK VINA RESULT:    -4.975      2.836      8.412
REMARK INTER + INTRA:          -8.972
REMARK INTER:                  -7.891
REMARK INTRA:                  -1.081
REMARK UNBOUND:                -1.670
REMARK SMILES O=c1c(O[C@@H]2O[C@@H](CO)[C@H](O)[C@@H](O)[C@H]2O)c(-c2ccc(O)c(O)c2)oc2cc(O)cc(O)c12
REMARK SMILES IDX 4 1 3 2 16 3 25 4 2 5 26 6 1 7 33 8 27 9 31 10 28 11 30 12
REMARK SMILES IDX 17 13 18 14 19 15 20 16 24 17 22 18 21 19 23 21 32 23 29 25
REMARK SMILES IDX 5 27 14 28 6 29 12 30 7 31 10 32 15 33 13 35 8 37 9 38 11 40
REMARK H PARENT 21 20 23 22 32 24 29 26 15 34 13 36 9 39 11 41
REMARK Flexibility Score: inf
ROOT
ATOM      1  O   UNL     1       3.477 -10.719  14.739  1.00  0.00    -0.454 OA
ENDROOT
BRANCH   1   2
ATOM      2  C   UNL     1       4.288 -11.864  14.724  1.00  0.00     0.214 A 
ATOM      3  C   UNL     1       5.617 -11.785  14.266  1.00  0.00     0.180 A 
ATOM      4  O   UNL     1       6.347 -12.891  14.152  1.00  0.00    -0.452 OA
ATOM      5  C   UNL     1       3.797 -13.108  15.158  1.00  0.00     0.239 A 
ATOM      6  C   UNL     1       5.904 -14.095  14.501  1.00  0.00     0.146 A 
ATOM      7  O   UNL     1       2.645 -13.179  15.667  1.00  0.00    -0.285 OA
ATOM      8  C   UNL     1       4.607 -14.258  15.041  1.00  0.00     0.111 A 
ATOM      9  C   UNL     1       6.744 -15.203  14.340  1.00  0.00     0.094 A 
ATOM     10  C   UNL     1       4.181 -15.549  15.437  1.00  0.00     0.134 A 
ATOM     11  C   UNL     1       6.313 -16.478  14.724  1.00  0.00     0.123 A 
ATOM     12  C   UNL     1       5.039 -16.648  15.274  1.00  0.00     0.093 A 
BRANCH   3  13
ATOM     13  C   UNL     1       6.233 -10.500  13.883  1.00  0.00     0.025 A 
ATOM     14  C   UNL     1       6.600  -9.556  14.855  1.00  0.00     0.016 A 
ATOM     15  C   UNL     1       7.176  -8.342  14.474  1.00  0.00     0.051 A 
ATOM     16  C   UNL     1       7.407  -8.061  13.123  1.00  0.00     0.157 A 
ATOM     17  C   UNL     1       6.487 -10.229  12.530  1.00  0.00     0.062 A 
ATOM     18  C   UNL     1       7.064  -9.010  12.145  1.00  0.00     0.158 A 
BRANCH  16  19
ATOM     19  O   UNL     1       7.981  -6.839  12.773  1.00  0.00    -0.504 OA
ATOM     20  H   UNL     1       8.243  -6.622  11.819  1.00  0.00     0.293 HD
ENDBRANCH  16  19
BRANCH  18  21
ATOM     21  O   UNL     1       7.296  -8.739  10.797  1.00  0.00    -0.504 OA
ATOM     22  H   UNL     1       7.017  -9.388  10.071  1.00  0.00     0.293 HD
ENDBRANCH  18  21
ENDBRANCH   3  13
BRANCH  10  23
ATOM     23  O   UNL     1       2.914 -15.750  15.989  1.00  0.00    -0.507 OA
ATOM     24  H   UNL     1       2.742 -15.643  16.981  1.00  0.00     0.293 HD
ENDBRANCH  10  23
BRANCH  11  25
ATOM     25  O   UNL     1       7.144 -17.588  14.564  1.00  0.00    -0.508 OA
ATOM     26  H   UNL     1       7.600 -17.783  13.680  1.00  0.00     0.293 HD
ENDBRANCH  11  25
ENDBRANCH   1   2
BRANCH   1  27
ATOM     27  C   UNL     1       2.902 -10.191  15.942  1.00  0.00     0.339 C 
ATOM     28  C   UNL     1       3.473  -8.791  16.254  1.00  0.00     0.214 C 
ATOM     29  O   UNL     1       1.481 -10.178  15.869  1.00  0.00    -0.332 OA
ATOM     30  C   UNL     1       2.962  -7.761  15.232  1.00  0.00     0.180 C 
ATOM     31  C   UNL     1       1.011  -9.311  14.845  1.00  0.00     0.179 C 
ATOM     32  C   UNL     1       1.431  -7.845  15.122  1.00  0.00     0.177 C 
BRANCH  28  33
ATOM     33  O   UNL     1       3.090  -8.398  17.549  1.00  0.00    -0.384 OA
ATOM     34  H   UNL     1       2.969  -9.230  18.078  1.00  0.00     0.211 HD
ENDBRANCH  28  33
BRANCH  30  35
ATOM     35  O   UNL     1       3.335  -6.461  15.619  1.00  0.00    -0.387 OA
ATOM     36  H   UNL     1       2.883  -5.837  14.990  1.00  0.00     0.211 HD
ENDBRANCH  30  35
BRANCH  31  37
ATOM     37  C   UNL     1      -0.513  -9.457  14.738  1.00  0.00     0.191 C 
BRANCH  37  38
ATOM     38  O   UNL     1      -0.950  -9.112  13.451  1.00  0.00    -0.394 OA
ATOM     39  H   UNL     1      -0.128  -9.046  12.895  1.00  0.00     0.210 HD
ENDBRANCH  37  38
ENDBRANCH  31  37
BRANCH  32  40
ATOM     40  O   UNL     1       0.964  -6.977  14.117  1.00  0.00    -0.387 OA
ATOM     41  H   UNL     1       1.552  -7.082  13.323  1.00  0.00     0.211 HD
ENDBRANCH  32  40
ENDBRANCH   1  27
TORSDOF 12
ENDMDL
MODEL 3
REMARK VINA RESULT:    -4.921      2.883      6.578
REMARK INTER + INTRA:          -8.892
REMARK INTER:                  -7.344
REMARK INTRA:                  -1.548
REMARK UNBOUND:                -1.670
REMARK SMILES O=c1c(O[C@@H]2O[C@@H](CO)[C@H](O)[C@@H](O)[C@H]2O)c(-c2ccc(O)c(O)c2)oc2cc(O)cc(O)c12
REMARK SMILES IDX 4 1 3 2 16 3 25 4 2 5 26 6 1 7 33 8 27 9 31 10 28 11 30 12
REMARK SMILES IDX 17 13 18 14 19 15 20 16 24 17 22 18 21 19 23 21 32 23 29 25
REMARK SMILES IDX 5 27 14 28 6 29 12 30 7 31 10 32 15 33 13 35 8 37 9 38 11 40
REMARK H PARENT 21 20 23 22 32 24 29 26 15 34 13 36 9 39 11 41
REMARK Flexibility Score: inf
ROOT
ATOM      1  O   UNL     1       5.017 -12.721  15.302  1.00  0.00    -0.454 OA
ENDROOT
BRANCH   1   2
ATOM      2  C   UNL     1       5.529 -11.466  14.938  1.00  0.00     0.214 A 
ATOM      3  C   UNL     1       5.460 -10.384  15.836  1.00  0.00     0.180 A 
ATOM      4  O   UNL     1       5.848  -9.173  15.448  1.00  0.00    -0.452 OA
ATOM      5  C   UNL     1       6.116 -11.259  13.677  1.00  0.00     0.239 A 
ATOM      6  C   UNL     1       6.359  -8.922  14.247  1.00  0.00     0.146 A 
ATOM      7  O   UNL     1       6.281 -12.238  12.900  1.00  0.00    -0.285 OA
ATOM      8  C   UNL     1       6.536  -9.964  13.306  1.00  0.00     0.111 A 
ATOM      9  C   UNL     1       6.736  -7.612  13.927  1.00  0.00     0.094 A 
ATOM     10  C   UNL     1       7.119  -9.668  12.050  1.00  0.00     0.134 A 
ATOM     11  C   UNL     1       7.302  -7.325  12.679  1.00  0.00     0.123 A 
ATOM     12  C   UNL     1       7.496  -8.349  11.749  1.00  0.00     0.093 A 
BRANCH   3  13
ATOM     13  C   UNL     1       4.944 -10.545  17.209  1.00  0.00     0.025 A 
ATOM     14  C   UNL     1       5.715 -11.168  18.202  1.00  0.00     0.016 A 
ATOM     15  C   UNL     1       5.208 -11.318  19.496  1.00  0.00     0.051 A 
ATOM     16  C   UNL     1       3.936 -10.835  19.818  1.00  0.00     0.157 A 
ATOM     17  C   UNL     1       3.677 -10.038  17.538  1.00  0.00     0.062 A 
ATOM     18  C   UNL     1       3.165 -10.189  18.835  1.00  0.00     0.158 A 
BRANCH  16  19
ATOM     19  O   UNL     1       3.455 -11.001  21.117  1.00  0.00    -0.504 OA
ATOM     20  H   UNL     1       3.938 -10.620  21.921  1.00  0.00     0.293 HD
ENDBRANCH  16  19
BRANCH  18  21
ATOM     21  O   UNL     1       1.898  -9.701  19.150  1.00  0.00    -0.504 OA
ATOM     22  H   UNL     1       1.761  -9.025  19.892  1.00  0.00     0.293 HD
ENDBRANCH  18  21
ENDBRANCH   3  13
BRANCH  10  23
ATOM     23  O   UNL     1       7.325 -10.669  11.100  1.00  0.00    -0.507 OA
ATOM     24  H   UNL     1       8.254 -10.932  10.795  1.00  0.00     0.293 HD
ENDBRANCH  10  23
BRANCH  11  25
ATOM     25  O   UNL     1       7.677  -6.022  12.352  1.00  0.00    -0.508 OA
ATOM     26  H   UNL     1       7.010  -5.359  11.972  1.00  0.00     0.293 HD
ENDBRANCH  11  25
ENDBRANCH   1   2
BRANCH   1  27
ATOM     27  C   UNL     1       3.634 -13.069  15.152  1.00  0.00     0.339 C 
ATOM     28  C   UNL     1       3.481 -14.343  14.293  1.00  0.00     0.214 C 
ATOM     29  O   UNL     1       2.999 -13.204  16.417  1.00  0.00    -0.332 OA
ATOM     30  C   UNL     1       3.990 -15.574  15.060  1.00  0.00     0.180 C 
ATOM     31  C   UNL     1       3.549 -14.273  17.175  1.00  0.00     0.179 C 
ATOM     32  C   UNL     1       3.344 -15.630  16.454  1.00  0.00     0.177 C 
BRANCH  28  33
ATOM     33  O   UNL     1       2.129 -14.527  13.953  1.00  0.00    -0.384 OA
ATOM     34  H   UNL     1       2.027 -15.475  13.675  1.00  0.00     0.211 HD
ENDBRANCH  28  33
BRANCH  30  35
ATOM     35  O   UNL     1       3.686 -16.752  14.354  1.00  0.00    -0.387 OA
ATOM     36  H   UNL     1       4.121 -16.670  13.463  1.00  0.00     0.211 HD
ENDBRANCH  30  35
BRANCH  31  37
ATOM     37  C   UNL     1       2.911 -14.266  18.571  1.00  0.00     0.191 C 
BRANCH  37  38
ATOM     38  O   UNL     1       1.787 -13.429  18.592  1.00  0.00    -0.394 OA
ATOM     39  H   UNL     1       0.998 -14.032  18.535  1.00  0.00     0.210 HD
ENDBRANCH  37  38
ENDBRANCH  31  37
BRANCH  32  40
ATOM     40  O   UNL     1       3.879 -16.696  17.201  1.00  0.00    -0.387 OA
ATOM     41  H   UNL     1       3.926 -16.412  18.151  1.00  0.00     0.211 HD
ENDBRANCH  32  40
ENDBRANCH   1  27
TORSDOF 12
ENDMDL
MODEL 4
REMARK VINA RESULT:    -4.891      2.836      4.555
REMARK INTER + INTRA:          -8.849
REMARK INTER:                  -7.115
REMARK INTRA:                  -1.734
REMARK UNBOUND:                -1.670
REMARK SMILES O=c1c(O[C@@H]2O[C@@H](CO)[C@H](O)[C@@H](O)[C@H]2O)c(-c2ccc(O)c(O)c2)oc2cc(O)cc(O)c12
REMARK SMILES IDX 4 1 3 2 16 3 25 4 2 5 26 6 1 7 33 8 27 9 31 10 28 11 30 12
REMARK SMILES IDX 17 13 18 14 19 15 20 16 24 17 22 18 21 19 23 21 32 23 29 25
REMARK SMILES IDX 5 27 14 28 6 29 12 30 7 31 10 32 15 33 13 35 8 37 9 38 11 40
REMARK H PARENT 21 20 23 22 32 24 29 26 15 34 13 36 9 39 11 41
REMARK Flexibility Score: inf
ROOT
ATOM      1  O   UNL     1       4.798 -11.728  16.740  1.00  0.00    -0.454 OA
ENDROOT
BRANCH   1   2
ATOM      2  C   UNL     1       5.322 -11.280  15.517  1.00  0.00     0.214 A 
ATOM      3  C   UNL     1       5.543 -12.190  14.465  1.00  0.00     0.180 A 
ATOM      4  O   UNL     1       6.138 -11.781  13.348  1.00  0.00    -0.452 OA
ATOM      5  C   UNL     1       5.638  -9.926  15.315  1.00  0.00     0.239 A 
ATOM      6  C   UNL     1       6.503 -10.520  13.136  1.00  0.00     0.146 A 
ATOM      7  O   UNL     1       5.352  -9.080  16.206  1.00  0.00    -0.285 OA
ATOM      8  C   UNL     1       6.251  -9.524  14.109  1.00  0.00     0.111 A 
ATOM      9  C   UNL     1       7.128 -10.185  11.930  1.00  0.00     0.094 A 
ATOM     10  C   UNL     1       6.618  -8.183  13.834  1.00  0.00     0.134 A 
ATOM     11  C   UNL     1       7.498  -8.860  11.670  1.00  0.00     0.123 A 
ATOM     12  C   UNL     1       7.239  -7.865  12.616  1.00  0.00     0.093 A 
BRANCH   3  13
ATOM     13  C   UNL     1       5.150 -13.608  14.567  1.00  0.00     0.025 A 
ATOM     14  C   UNL     1       6.118 -14.621  14.653  1.00  0.00     0.016 A 
ATOM     15  C   UNL     1       5.729 -15.960  14.742  1.00  0.00     0.051 A 
ATOM     16  C   UNL     1       4.373 -16.304  14.762  1.00  0.00     0.157 A 
ATOM     17  C   UNL     1       3.790 -13.950  14.611  1.00  0.00     0.062 A 
ATOM     18  C   UNL     1       3.397 -15.294  14.699  1.00  0.00     0.158 A 
BRANCH  16  19
ATOM     19  O   UNL     1       4.015 -17.649  14.849  1.00  0.00    -0.504 OA
ATOM     20  H   UNL     1       3.050 -17.953  14.801  1.00  0.00     0.293 HD
ENDBRANCH  16  19
BRANCH  18  21
ATOM     21  O   UNL     1       2.044 -15.628  14.723  1.00  0.00    -0.504 OA
ATOM     22  H   UNL     1       1.480 -15.490  15.552  1.00  0.00     0.293 HD
ENDBRANCH  18  21
ENDBRANCH   3  13
BRANCH  10  23
ATOM     23  O   UNL     1       6.373  -7.168  14.760  1.00  0.00    -0.507 OA
ATOM     24  H   UNL     1       7.127  -6.692  15.241  1.00  0.00     0.293 HD
ENDBRANCH  10  23
BRANCH  11  25
ATOM     25  O   UNL     1       8.125  -8.520  10.471  1.00  0.00    -0.508 OA
ATOM     26  H   UNL     1       7.654  -7.963   9.767  1.00  0.00     0.293 HD
ENDBRANCH  11  25
ENDBRANCH   1   2
BRANCH   1  27
ATOM     27  C   UNL     1       5.612 -11.950  17.898  1.00  0.00     0.339 C 
ATOM     28  C   UNL     1       4.942 -11.361  19.159  1.00  0.00     0.214 C 
ATOM     29  O   UNL     1       5.914 -13.331  18.056  1.00  0.00    -0.332 OA
ATOM     30  C   UNL     1       3.697 -12.180  19.539  1.00  0.00     0.180 C 
ATOM     31  C   UNL     1       4.746 -14.105  18.295  1.00  0.00     0.179 C 
ATOM     32  C   UNL     1       4.051 -13.674  19.611  1.00  0.00     0.177 C 
BRANCH  28  33
ATOM     33  O   UNL     1       5.854 -11.368  20.229  1.00  0.00    -0.384 OA
ATOM     34  H   UNL     1       5.438 -10.848  20.967  1.00  0.00     0.211 HD
ENDBRANCH  28  33
BRANCH  30  35
ATOM     35  O   UNL     1       3.194 -11.756  20.782  1.00  0.00    -0.387 OA
ATOM     36  H   UNL     1       2.612 -10.969  20.601  1.00  0.00     0.211 HD
ENDBRANCH  30  35
BRANCH  31  37
ATOM     37  C   UNL     1       5.135 -15.590  18.315  1.00  0.00     0.191 C 
BRANCH  37  38
ATOM     38  O   UNL     1       4.000 -16.397  18.158  1.00  0.00    -0.394 OA
ATOM     39  H   UNL     1       4.141 -17.182  18.752  1.00  0.00     0.210 HD
ENDBRANCH  37  38
ENDBRANCH  31  37
BRANCH  32  40
ATOM     40  O   UNL     1       2.897 -14.440  19.859  1.00  0.00    -0.387 OA
ATOM     41  H   UNL     1       2.114 -13.933  19.519  1.00  0.00     0.211 HD
ENDBRANCH  32  40
ENDBRANCH   1  27
TORSDOF 12
ENDMDL
MODEL 5
REMARK VINA RESULT:    -4.868      3.009      5.333
REMARK INTER + INTRA:          -8.814
REMARK INTER:                  -7.497
REMARK INTRA:                  -1.317
REMARK UNBOUND:                -1.670
REMARK SMILES O=c1c(O[C@@H]2O[C@@H](CO)[C@H](O)[C@@H](O)[C@H]2O)c(-c2ccc(O)c(O)c2)oc2cc(O)cc(O)c12
REMARK SMILES IDX 4 1 3 2 16 3 25 4 2 5 26 6 1 7 33 8 27 9 31 10 28 11 30 12
REMARK SMILES IDX 17 13 18 14 19 15 20 16 24 17 22 18 21 19 23 21 32 23 29 25
REMARK SMILES IDX 5 27 14 28 6 29 12 30 7 31 10 32 15 33 13 35 8 37 9 38 11 40
REMARK H PARENT 21 20 23 22 32 24 29 26 15 34 13 36 9 39 11 41
REMARK Flexibility Score: inf
ROOT
ATOM      1  O   UNL     1       5.625 -11.471  16.704  1.00  0.00    -0.454 OA
ENDROOT
BRANCH   1   2
ATOM      2  C   UNL     1       5.944 -11.017  15.415  1.00  0.00     0.214 A 
ATOM      3  C   UNL     1       5.817 -11.879  14.309  1.00  0.00     0.180 A 
ATOM      4  O   UNL     1       6.221 -11.480  13.106  1.00  0.00    -0.452 OA
ATOM      5  C   UNL     1       6.397  -9.704  15.198  1.00  0.00     0.239 A 
ATOM      6  C   UNL     1       6.706 -10.266  12.866  1.00  0.00     0.146 A 
ATOM      7  O   UNL     1       6.419  -8.887  16.159  1.00  0.00    -0.285 OA
ATOM      8  C   UNL     1       6.799  -9.309  13.904  1.00  0.00     0.111 A 
ATOM      9  C   UNL     1       7.111  -9.938  11.567  1.00  0.00     0.094 A 
ATOM     10  C   UNL     1       7.283  -8.011  13.606  1.00  0.00     0.134 A 
ATOM     11  C   UNL     1       7.599  -8.657  11.282  1.00  0.00     0.123 A 
ATOM     12  C   UNL     1       7.679  -7.699  12.296  1.00  0.00     0.093 A 
BRANCH   3  13
ATOM     13  C   UNL     1       5.261 -13.240  14.442  1.00  0.00     0.025 A 
ATOM     14  C   UNL     1       6.069 -14.313  14.849  1.00  0.00     0.016 A 
ATOM     15  C   UNL     1       5.528 -15.596  14.963  1.00  0.00     0.051 A 
ATOM     16  C   UNL     1       4.175 -15.822  14.688  1.00  0.00     0.157 A 
ATOM     17  C   UNL     1       3.899 -13.460  14.189  1.00  0.00     0.062 A 
ATOM     18  C   UNL     1       3.354 -14.748  14.300  1.00  0.00     0.158 A 
BRANCH  16  19
ATOM     19  O   UNL     1       3.664 -17.114  14.807  1.00  0.00    -0.504 OA
ATOM     20  H   UNL     1       4.262 -17.931  14.802  1.00  0.00     0.293 HD
ENDBRANCH  16  19
BRANCH  18  21
ATOM     21  O   UNL     1       2.004 -14.964  14.029  1.00  0.00    -0.504 OA
ATOM     22  H   UNL     1       1.454 -15.621  14.569  1.00  0.00     0.293 HD
ENDBRANCH  18  21
ENDBRANCH   3  13
BRANCH  10  23
ATOM     23  O   UNL     1       7.377  -7.034  14.598  1.00  0.00    -0.507 OA
ATOM     24  H   UNL     1       8.137  -6.364  14.616  1.00  0.00     0.293 HD
ENDBRANCH  10  23
BRANCH  11  25
ATOM     25  O   UNL     1       8.007  -8.324   9.990  1.00  0.00    -0.508 OA
ATOM     26  H   UNL     1       8.666  -7.572   9.820  1.00  0.00     0.293 HD
ENDBRANCH  11  25
ENDBRANCH   1   2
BRANCH   1  27
ATOM     27  C   UNL     1       4.522 -10.953  17.458  1.00  0.00     0.339 C 
ATOM     28  C   UNL     1       3.214 -11.685  17.088  1.00  0.00     0.214 C 
ATOM     29  O   UNL     1       4.783 -11.011  18.855  1.00  0.00    -0.332 OA
ATOM     30  C   UNL     1       3.242 -13.133  17.605  1.00  0.00     0.180 C 
ATOM     31  C   UNL     1       4.923 -12.349  19.314  1.00  0.00     0.179 C 
ATOM     32  C   UNL     1       3.615 -13.152  19.097  1.00  0.00     0.177 C 
BRANCH  28  33
ATOM     33  O   UNL     1       2.115 -11.008  17.646  1.00  0.00    -0.384 OA
ATOM     34  H   UNL     1       2.425 -10.613  18.504  1.00  0.00     0.211 HD
ENDBRANCH  28  33
BRANCH  30  35
ATOM     35  O   UNL     1       1.987 -13.741  17.427  1.00  0.00    -0.387 OA
ATOM     36  H   UNL     1       2.070 -14.341  16.639  1.00  0.00     0.211 HD
ENDBRANCH  30  35
BRANCH  31  37
ATOM     37  C   UNL     1       5.338 -12.323  20.791  1.00  0.00     0.191 C 
BRANCH  37  38
ATOM     38  O   UNL     1       6.039 -13.491  21.125  1.00  0.00    -0.394 OA
ATOM     39  H   UNL     1       5.941 -13.594  22.109  1.00  0.00     0.210 HD
ENDBRANCH  37  38
ENDBRANCH  31  37
BRANCH  32  40
ATOM     40  O   UNL     1       3.742 -14.477  19.554  1.00  0.00    -0.387 OA
ATOM     41  H   UNL     1       2.830 -14.834  19.716  1.00  0.00     0.211 HD
ENDBRANCH  32  40
ENDBRANCH   1  27
TORSDOF 12
ENDMDL
MODEL 6
REMARK VINA RESULT:    -4.793      2.690      5.528
REMARK INTER + INTRA:          -8.704
REMARK INTER:                  -7.403
REMARK INTRA:                  -1.301
REMARK UNBOUND:                -1.670
REMARK SMILES O=c1c(O[C@@H]2O[C@@H](CO)[C@H](O)[C@@H](O)[C@H]2O)c(-c2ccc(O)c(O)c2)oc2cc(O)cc(O)c12
REMARK SMILES IDX 4 1 3 2 16 3 25 4 2 5 26 6 1 7 33 8 27 9 31 10 28 11 30 12
REMARK SMILES IDX 17 13 18 14 19 15 20 16 24 17 22 18 21 19 23 21 32 23 29 25
REMARK SMILES IDX 5 27 14 28 6 29 12 30 7 31 10 32 15 33 13 35 8 37 9 38 11 40
REMARK H PARENT 21 20 23 22 32 24 29 26 15 34 13 36 9 39 11 41
REMARK Flexibility Score: inf
ROOT
ATOM      1  O   UNL     1       4.716 -11.914  16.805  1.00  0.00    -0.454 OA
ENDROOT
BRANCH   1   2
ATOM      2  C   UNL     1       5.232 -11.473  15.577  1.00  0.00     0.214 A 
ATOM      3  C   UNL     1       5.450 -12.388  14.530  1.00  0.00     0.180 A 
ATOM      4  O   UNL     1       6.039 -11.985  13.407  1.00  0.00    -0.452 OA
ATOM      5  C   UNL     1       5.544 -10.118  15.365  1.00  0.00     0.239 A 
ATOM      6  C   UNL     1       6.399 -10.725  13.185  1.00  0.00     0.146 A 
ATOM      7  O   UNL     1       5.260  -9.268  16.252  1.00  0.00    -0.285 OA
ATOM      8  C   UNL     1       6.150  -9.723  14.153  1.00  0.00     0.111 A 
ATOM      9  C   UNL     1       7.017 -10.396  11.974  1.00  0.00     0.094 A 
ATOM     10  C   UNL     1       6.512  -8.383  13.868  1.00  0.00     0.134 A 
ATOM     11  C   UNL     1       7.382  -9.071  11.704  1.00  0.00     0.123 A 
ATOM     12  C   UNL     1       7.126  -8.071  12.645  1.00  0.00     0.093 A 
BRANCH   3  13
ATOM     13  C   UNL     1       5.062 -13.807  14.642  1.00  0.00     0.025 A 
ATOM     14  C   UNL     1       3.746 -14.219  14.380  1.00  0.00     0.016 A 
ATOM     15  C   UNL     1       3.394 -15.565  14.498  1.00  0.00     0.051 A 
ATOM     16  C   UNL     1       4.350 -16.518  14.864  1.00  0.00     0.157 A 
ATOM     17  C   UNL     1       6.027 -14.765  14.986  1.00  0.00     0.062 A 
ATOM     18  C   UNL     1       5.676 -16.118  15.107  1.00  0.00     0.158 A 
BRANCH  16  19
ATOM     19  O   UNL     1       3.968 -17.855  14.976  1.00  0.00    -0.504 OA
ATOM     20  H   UNL     1       3.118 -18.208  14.555  1.00  0.00     0.293 HD
ENDBRANCH  16  19
BRANCH  18  21
ATOM     21  O   UNL     1       6.636 -17.062  15.467  1.00  0.00    -0.504 OA
ATOM     22  H   UNL     1       7.624 -16.842  15.458  1.00  0.00     0.293 HD
ENDBRANCH  18  21
ENDBRANCH   3  13
BRANCH  10  23
ATOM     23  O   UNL     1       6.269  -7.362  14.789  1.00  0.00    -0.507 OA
ATOM     24  H   UNL     1       5.772  -7.533  15.655  1.00  0.00     0.293 HD
ENDBRANCH  10  23
BRANCH  11  25
ATOM     25  O   UNL     1       8.002  -8.736  10.499  1.00  0.00    -0.508 OA
ATOM     26  H   UNL     1       8.568  -7.900  10.410  1.00  0.00     0.293 HD
ENDBRANCH  11  25
ENDBRANCH   1   2
BRANCH   1  27
ATOM     27  C   UNL     1       3.318 -12.149  17.020  1.00  0.00     0.339 C 
ATOM     28  C   UNL     1       3.103 -13.372  17.939  1.00  0.00     0.214 C 
ATOM     29  O   UNL     1       2.674 -10.987  17.527  1.00  0.00    -0.332 OA
ATOM     30  C   UNL     1       3.550 -13.051  19.375  1.00  0.00     0.180 C 
ATOM     31  C   UNL     1       3.170 -10.623  18.809  1.00  0.00     0.179 C 
ATOM     32  C   UNL     1       2.899 -11.740  19.848  1.00  0.00     0.177 C 
BRANCH  28  33
ATOM     33  O   UNL     1       1.745 -13.734  17.939  1.00  0.00    -0.384 OA
ATOM     34  H   UNL     1       1.221 -12.890  17.912  1.00  0.00     0.211 HD
ENDBRANCH  28  33
BRANCH  30  35
ATOM     35  O   UNL     1       3.190 -14.095  20.245  1.00  0.00    -0.387 OA
ATOM     36  H   UNL     1       3.696 -14.899  19.950  1.00  0.00     0.211 HD
ENDBRANCH  30  35
BRANCH  31  37
ATOM     37  C   UNL     1       2.530  -9.291  19.224  1.00  0.00     0.191 C 
BRANCH  37  38
ATOM     38  O   UNL     1       1.439  -9.515  20.076  1.00  0.00    -0.394 OA
ATOM     39  H   UNL     1       1.601 -10.402  20.495  1.00  0.00     0.210 HD
ENDBRANCH  37  38
ENDBRANCH  31  37
BRANCH  32  40
ATOM     40  O   UNL     1       3.380 -11.386  21.122  1.00  0.00    -0.387 OA
ATOM     41  H   UNL     1       2.652 -10.913  21.605  1.00  0.00     0.211 HD
ENDBRANCH  32  40
ENDBRANCH   1  27
TORSDOF 12
ENDMDL
MODEL 7
REMARK VINA RESULT:    -4.694      2.077      6.982
REMARK INTER + INTRA:          -8.559
REMARK INTER:                  -6.943
REMARK INTRA:                  -1.616
REMARK UNBOUND:                -1.670
REMARK SMILES O=c1c(O[C@@H]2O[C@@H](CO)[C@H](O)[C@@H](O)[C@H]2O)c(-c2ccc(O)c(O)c2)oc2cc(O)cc(O)c12
REMARK SMILES IDX 4 1 3 2 16 3 25 4 2 5 26 6 1 7 33 8 27 9 31 10 28 11 30 12
REMARK SMILES IDX 17 13 18 14 19 15 20 16 24 17 22 18 21 19 23 21 32 23 29 25
REMARK SMILES IDX 5 27 14 28 6 29 12 30 7 31 10 32 15 33 13 35 8 37 9 38 11 40
REMARK H PARENT 21 20 23 22 32 24 29 26 15 34 13 36 9 39 11 41
REMARK Flexibility Score: inf
ROOT
ATOM      1  O   UNL     1       4.727 -13.773  16.867  1.00  0.00    -0.454 OA
ENDROOT
BRANCH   1   2
ATOM      2  C   UNL     1       5.329 -14.740  16.046  1.00  0.00     0.214 A 
ATOM      3  C   UNL     1       6.189 -14.347  15.003  1.00  0.00     0.180 A 
ATOM      4  O   UNL     1       6.671 -15.258  14.163  1.00  0.00    -0.452 OA
ATOM      5  C   UNL     1       5.088 -16.111  16.242  1.00  0.00     0.239 A 
ATOM      6  C   UNL     1       6.426 -16.559  14.279  1.00  0.00     0.146 A 
ATOM      7  O   UNL     1       4.404 -16.487  17.234  1.00  0.00    -0.285 OA
ATOM      8  C   UNL     1       5.633 -17.051  15.342  1.00  0.00     0.111 A 
ATOM      9  C   UNL     1       6.974 -17.443  13.342  1.00  0.00     0.094 A 
ATOM     10  C   UNL     1       5.423 -18.447  15.459  1.00  0.00     0.134 A 
ATOM     11  C   UNL     1       6.754 -18.821  13.457  1.00  0.00     0.123 A 
ATOM     12  C   UNL     1       5.986 -19.319  14.513  1.00  0.00     0.093 A 
BRANCH   3  13
ATOM     13  C   UNL     1       6.564 -12.936  14.793  1.00  0.00     0.025 A 
ATOM     14  C   UNL     1       7.583 -12.339  15.551  1.00  0.00     0.016 A 
ATOM     15  C   UNL     1       7.921 -10.999  15.344  1.00  0.00     0.051 A 
ATOM     16  C   UNL     1       7.260 -10.245  14.369  1.00  0.00     0.157 A 
ATOM     17  C   UNL     1       5.918 -12.187  13.798  1.00  0.00     0.062 A 
ATOM     18  C   UNL     1       6.254 -10.841  13.589  1.00  0.00     0.158 A 
BRANCH  16  19
ATOM     19  O   UNL     1       7.618  -8.909  14.186  1.00  0.00    -0.504 OA
ATOM     20  H   UNL     1       7.582  -8.235  14.941  1.00  0.00     0.293 HD
ENDBRANCH  16  19
BRANCH  18  21
ATOM     21  O   UNL     1       5.594 -10.097  12.612  1.00  0.00    -0.504 OA
ATOM     22  H   UNL     1       6.040  -9.312  12.155  1.00  0.00     0.293 HD
ENDBRANCH  18  21
ENDBRANCH   3  13
BRANCH  10  23
ATOM     23  O   UNL     1       4.659 -18.974  16.502  1.00  0.00    -0.507 OA
ATOM     24  H   UNL     1       4.763 -18.649  17.455  1.00  0.00     0.293 HD
ENDBRANCH  10  23
BRANCH  11  25
ATOM     25  O   UNL     1       7.294 -19.707  12.525  1.00  0.00    -0.508 OA
ATOM     26  H   UNL     1       7.600 -19.393  11.611  1.00  0.00     0.293 HD
ENDBRANCH  11  25
ENDBRANCH   1   2
BRANCH   1  27
ATOM     27  C   UNL     1       3.306 -13.597  16.946  1.00  0.00     0.339 C 
ATOM     28  C   UNL     1       2.873 -13.290  18.396  1.00  0.00     0.214 C 
ATOM     29  O   UNL     1       2.862 -12.597  16.038  1.00  0.00    -0.332 OA
ATOM     30  C   UNL     1       3.345 -11.888  18.814  1.00  0.00     0.180 C 
ATOM     31  C   UNL     1       3.392 -11.317  16.358  1.00  0.00     0.179 C 
ATOM     32  C   UNL     1       2.919 -10.853  17.759  1.00  0.00     0.177 C 
BRANCH  28  33
ATOM     33  O   UNL     1       1.472 -13.365  18.499  1.00  0.00    -0.384 OA
ATOM     34  H   UNL     1       1.217 -12.870  19.322  1.00  0.00     0.211 HD
ENDBRANCH  28  33
BRANCH  30  35
ATOM     35  O   UNL     1       2.798 -11.539  20.062  1.00  0.00    -0.387 OA
ATOM     36  H   UNL     1       2.652 -10.555  20.044  1.00  0.00     0.211 HD
ENDBRANCH  30  35
BRANCH  31  37
ATOM     37  C   UNL     1       2.982 -10.326  15.260  1.00  0.00     0.191 C 
BRANCH  37  38
ATOM     38  O   UNL     1       3.880  -9.251  15.209  1.00  0.00    -0.394 OA
ATOM     39  H   UNL     1       4.688  -9.594  14.742  1.00  0.00     0.210 HD
ENDBRANCH  37  38
ENDBRANCH  31  37
BRANCH  32  40
ATOM     40  O   UNL     1       3.433  -9.583  18.083  1.00  0.00    -0.387 OA
ATOM     41  H   UNL     1       4.166  -9.708  18.741  1.00  0.00     0.211 HD
ENDBRANCH  32  40
ENDBRANCH   1  27
TORSDOF 12
ENDMDL
MODEL 8
REMARK VINA RESULT:    -4.657      2.269      8.472
REMARK INTER + INTRA:          -8.505
REMARK INTER:                  -7.353
REMARK INTRA:                  -1.152
REMARK UNBOUND:                -1.670
REMARK SMILES O=c1c(O[C@@H]2O[C@@H](CO)[C@H](O)[C@@H](O)[C@H]2O)c(-c2ccc(O)c(O)c2)oc2cc(O)cc(O)c12
REMARK SMILES IDX 4 1 3 2 16 3 25 4 2 5 26 6 1 7 33 8 27 9 31 10 28 11 30 12
REMARK SMILES IDX 17 13 18 14 19 15 20 16 24 17 22 18 21 19 23 21 32 23 29 25
REMARK SMILES IDX 5 27 14 28 6 29 12 30 7 31 10 32 15 33 13 35 8 37 9 38 11 40
REMARK H PARENT 21 20 23 22 32 24 29 26 15 34 13 36 9 39 11 41
REMARK Flexibility Score: inf
ROOT
ATOM      1  O   UNL     1       5.627 -11.669  15.221  1.00  0.00    -0.454 OA
ENDROOT
BRANCH   1   2
ATOM      2  C   UNL     1       5.286 -12.921  15.756  1.00  0.00     0.214 A 
ATOM      3  C   UNL     1       4.541 -13.003  16.948  1.00  0.00     0.180 A 
ATOM      4  O   UNL     1       4.312 -14.188  17.508  1.00  0.00    -0.452 OA
ATOM      5  C   UNL     1       5.677 -14.114  15.122  1.00  0.00     0.239 A 
ATOM      6  C   UNL     1       4.711 -15.337  16.971  1.00  0.00     0.146 A 
ATOM      7  O   UNL     1       6.254 -14.062  14.002  1.00  0.00    -0.285 OA
ATOM      8  C   UNL     1       5.400 -15.354  15.735  1.00  0.00     0.111 A 
ATOM      9  C   UNL     1       4.427 -16.535  17.636  1.00  0.00     0.094 A 
ATOM     10  C   UNL     1       5.776 -16.598  15.172  1.00  0.00     0.134 A 
ATOM     11  C   UNL     1       4.812 -17.760  17.079  1.00  0.00     0.123 A 
ATOM     12  C   UNL     1       5.478 -17.790  15.851  1.00  0.00     0.093 A 
BRANCH   3  13
ATOM     13  C   UNL     1       4.014 -11.800  17.621  1.00  0.00     0.025 A 
ATOM     14  C   UNL     1       4.861 -10.953  18.353  1.00  0.00     0.016 A 
ATOM     15  C   UNL     1       4.344  -9.822  18.990  1.00  0.00     0.051 A 
ATOM     16  C   UNL     1       2.983  -9.514  18.893  1.00  0.00     0.157 A 
ATOM     17  C   UNL     1       2.654 -11.479  17.503  1.00  0.00     0.062 A 
ATOM     18  C   UNL     1       2.132 -10.345  18.143  1.00  0.00     0.158 A 
BRANCH  16  19
ATOM     19  O   UNL     1       2.496  -8.380  19.542  1.00  0.00    -0.504 OA
ATOM     20  H   UNL     1       3.049  -7.538  19.640  1.00  0.00     0.293 HD
ENDBRANCH  16  19
BRANCH  18  21
ATOM     21  O   UNL     1       0.776 -10.041  18.037  1.00  0.00    -0.504 OA
ATOM     22  H   UNL     1       0.128 -10.244  18.788  1.00  0.00     0.293 HD
ENDBRANCH  18  21
ENDBRANCH   3  13
BRANCH  10  23
ATOM     23  O   UNL     1       6.443 -16.660  13.948  1.00  0.00    -0.507 OA
ATOM     24  H   UNL     1       6.524 -17.526  13.428  1.00  0.00     0.293 HD
ENDBRANCH  10  23
BRANCH  11  25
ATOM     25  O   UNL     1       4.535 -18.958  17.739  1.00  0.00    -0.508 OA
ATOM     26  H   UNL     1       4.431 -19.830  17.232  1.00  0.00     0.293 HD
ENDBRANCH  11  25
ENDBRANCH   1   2
BRANCH   1  27
ATOM     27  C   UNL     1       4.797 -10.974  14.282  1.00  0.00     0.339 C 
ATOM     28  C   UNL     1       4.259  -9.662  14.893  1.00  0.00     0.214 C 
ATOM     29  O   UNL     1       5.486 -10.745  13.059  1.00  0.00    -0.332 OA
ATOM     30  C   UNL     1       5.396  -8.640  15.060  1.00  0.00     0.180 C 
ATOM     31  C   UNL     1       6.608  -9.890  13.235  1.00  0.00     0.179 C 
ATOM     32  C   UNL     1       6.169  -8.491  13.739  1.00  0.00     0.177 C 
BRANCH  28  33
ATOM     33  O   UNL     1       3.262  -9.123  14.060  1.00  0.00    -0.384 OA
ATOM     34  H   UNL     1       3.655  -8.324  13.619  1.00  0.00     0.211 HD
ENDBRANCH  28  33
BRANCH  30  35
ATOM     35  O   UNL     1       4.879  -7.391  15.445  1.00  0.00    -0.387 OA
ATOM     36  H   UNL     1       4.727  -7.436  16.427  1.00  0.00     0.211 HD
ENDBRANCH  30  35
BRANCH  31  37
ATOM     37  C   UNL     1       7.375  -9.803  11.909  1.00  0.00     0.191 C 
BRANCH  37  38
ATOM     38  O   UNL     1       7.153 -10.953  11.138  1.00  0.00    -0.394 OA
ATOM     39  H   UNL     1       7.930 -11.549  11.309  1.00  0.00     0.210 HD
ENDBRANCH  37  38
ENDBRANCH  31  37
BRANCH  32  40
ATOM     40  O   UNL     1       7.272  -7.635  13.911  1.00  0.00    -0.387 OA
ATOM     41  H   UNL     1       7.452  -7.558  14.884  1.00  0.00     0.211 HD
ENDBRANCH  32  40
ENDBRANCH   1  27
TORSDOF 12
ENDMDL
MODEL 9
REMARK VINA RESULT:    -4.606      1.440      1.688
REMARK INTER + INTRA:          -8.430
REMARK INTER:                  -6.654
REMARK INTRA:                  -1.776
REMARK UNBOUND:                -1.670
REMARK SMILES O=c1c(O[C@@H]2O[C@@H](CO)[C@H](O)[C@@H](O)[C@H]2O)c(-c2ccc(O)c(O)c2)oc2cc(O)cc(O)c12
REMARK SMILES IDX 4 1 3 2 16 3 25 4 2 5 26 6 1 7 33 8 27 9 31 10 28 11 30 12
REMARK SMILES IDX 17 13 18 14 19 15 20 16 24 17 22 18 21 19 23 21 32 23 29 25
REMARK SMILES IDX 5 27 14 28 6 29 12 30 7 31 10 32 15 33 13 35 8 37 9 38 11 40
REMARK H PARENT 21 20 23 22 32 24 29 26 15 34 13 36 9 39 11 41
REMARK Flexibility Score: inf
ROOT
ATOM      1  O   UNL     1       4.865 -14.987  16.971  1.00  0.00    -0.454 OA
ENDROOT
BRANCH   1   2
ATOM      2  C   UNL     1       5.142 -13.993  16.019  1.00  0.00     0.214 A 
ATOM      3  C   UNL     1       5.867 -14.310  14.855  1.00  0.00     0.180 A 
ATOM      4  O   UNL     1       6.219 -13.346  14.009  1.00  0.00    -0.452 OA
ATOM      5  C   UNL     1       4.708 -12.669  16.204  1.00  0.00     0.239 A 
ATOM      6  C   UNL     1       5.876 -12.072  14.173  1.00  0.00     0.146 A 
ATOM      7  O   UNL     1       3.969 -12.389  17.187  1.00  0.00    -0.285 OA
ATOM      8  C   UNL     1       5.083 -11.675  15.276  1.00  0.00     0.111 A 
ATOM      9  C   UNL     1       6.297 -11.126  13.232  1.00  0.00     0.094 A 
ATOM     10  C   UNL     1       4.703 -10.316  15.399  1.00  0.00     0.134 A 
ATOM     11  C   UNL     1       5.926  -9.782  13.366  1.00  0.00     0.123 A 
ATOM     12  C   UNL     1       5.130  -9.382  14.442  1.00  0.00     0.093 A 
BRANCH   3  13
ATOM     13  C   UNL     1       6.276 -15.693  14.544  1.00  0.00     0.025 A 
ATOM     14  C   UNL     1       7.630 -16.063  14.543  1.00  0.00     0.016 A 
ATOM     15  C   UNL     1       8.000 -17.376  14.239  1.00  0.00     0.051 A 
ATOM     16  C   UNL     1       7.027 -18.337  13.949  1.00  0.00     0.157 A 
ATOM     17  C   UNL     1       5.298 -16.663  14.277  1.00  0.00     0.062 A 
ATOM     18  C   UNL     1       5.667 -17.981  13.970  1.00  0.00     0.158 A 
BRANCH  16  19
ATOM     19  O   UNL     1       7.427 -19.638  13.647  1.00  0.00    -0.504 OA
ATOM     20  H   UNL     1       6.762 -20.394  13.541  1.00  0.00     0.293 HD
ENDBRANCH  16  19
BRANCH  18  21
ATOM     21  O   UNL     1       4.691 -18.934  13.687  1.00  0.00    -0.504 OA
ATOM     22  H   UNL     1       3.900 -18.721  13.091  1.00  0.00     0.293 HD
ENDBRANCH  18  21
ENDBRANCH   3  13
BRANCH  10  23
ATOM     23  O   UNL     1       3.909  -9.886  16.464  1.00  0.00    -0.507 OA
ATOM     24  H   UNL     1       3.543 -10.534  17.151  1.00  0.00     0.293 HD
ENDBRANCH  10  23
BRANCH  11  25
ATOM     25  O   UNL     1       6.345  -8.833  12.433  1.00  0.00    -0.508 OA
ATOM     26  H   UNL     1       7.320  -8.571  12.345  1.00  0.00     0.293 HD
ENDBRANCH  11  25
ENDBRANCH   1   2
BRANCH   1  27
ATOM     27  C   UNL     1       5.682 -15.201  18.129  1.00  0.00     0.339 C 
ATOM     28  C   UNL     1       4.815 -15.268  19.405  1.00  0.00     0.214 C 
ATOM     29  O   UNL     1       6.492 -16.361  17.979  1.00  0.00    -0.332 OA
ATOM     30  C   UNL     1       3.977 -16.557  19.421  1.00  0.00     0.180 C 
ATOM     31  C   UNL     1       5.710 -17.544  17.878  1.00  0.00     0.179 C 
ATOM     32  C   UNL     1       4.880 -17.775  19.166  1.00  0.00     0.177 C 
BRANCH  28  33
ATOM     33  O   UNL     1       5.641 -15.231  20.543  1.00  0.00    -0.384 OA
ATOM     34  H   UNL     1       6.538 -15.550  20.260  1.00  0.00     0.211 HD
ENDBRANCH  28  33
BRANCH  30  35
ATOM     35  O   UNL     1       3.328 -16.704  20.659  1.00  0.00    -0.387 OA
ATOM     36  H   UNL     1       3.611 -17.584  21.027  1.00  0.00     0.211 HD
ENDBRANCH  30  35
BRANCH  31  37
ATOM     37  C   UNL     1       6.642 -18.727  17.580  1.00  0.00     0.191 C 
BRANCH  37  38
ATOM     38  O   UNL     1       5.929 -19.775  16.982  1.00  0.00    -0.394 OA
ATOM     39  H   UNL     1       5.263 -19.343  16.383  1.00  0.00     0.210 HD
ENDBRANCH  37  38
ENDBRANCH  31  37
BRANCH  32  40
ATOM     40  O   UNL     1       4.107 -18.948  19.078  1.00  0.00    -0.387 OA
ATOM     41  H   UNL     1       4.429 -19.580  19.773  1.00  0.00     0.211 HD
ENDBRANCH  32  40
ENDBRANCH   1  27
TORSDOF 12
ENDMDL
