MODEL 1
REMARK VINA RESULT:    -5.079      0.000      0.000
REMARK INTER + INTRA:         -10.651
REMARK INTER:                  -9.830
REMARK INTRA:                  -0.821
REMARK UNBOUND:                -0.821
REMARK SMILES CCCCCCCCCCCCCCCCCC(=O)[O-]
REMARK SMILES IDX 10 1 11 2 12 3 13 4 14 5 15 6 16 7 17 8 18 9 19 10 20 11
REMARK SMILES IDX 9 12 8 13 7 14 6 15 5 16 4 17 3 18 2 19 1 20
REMARK H PARENT
REMARK Flexibility Score: inf
ROOT
ATOM      1  C   UNL     1      -5.695  -6.283  29.228  1.00  0.00     0.000 C 
ENDROOT
BRANCH   1   2
ATOM      2  C   UNL     1      -5.285  -5.303  28.115  1.00  0.00     0.000 C 
BRANCH   2   3
ATOM      3  C   UNL     1      -5.941  -3.920  28.266  1.00  0.00     0.000 C 
BRANCH   3   4
ATOM      4  C   UNL     1      -5.332  -3.100  29.414  1.00  0.00     0.000 C 
BRANCH   4   5
ATOM      5  C   UNL     1      -5.384  -1.586  29.155  1.00  0.00     0.000 C 
BRANCH   5   6
ATOM      6  C   UNL     1      -4.450  -1.194  28.004  1.00  0.00     0.000 C 
BRANCH   6   7
ATOM      7  C   UNL     1      -3.158  -0.562  28.532  1.00  0.00     0.006 C 
BRANCH   7   8
ATOM      8  C   UNL     1      -1.965  -1.505  28.341  1.00  0.00     0.053 C 
BRANCH   8   9
ATOM      9  C   UNL     1      -0.840  -0.795  27.656  1.00  0.00     0.041 C 
ATOM     10  O   UNL     1      -0.978  -0.382  26.475  1.00  0.00    -0.550 OA
ATOM     11  O   UNL     1       0.378  -0.634  28.305  1.00  0.00    -0.550 OA
ENDBRANCH   8   9
ENDBRANCH   7   8
ENDBRANCH   6   7
ENDBRANCH   5   6
ENDBRANCH   4   5
ENDBRANCH   3   4
ENDBRANCH   2   3
ENDBRANCH   1   2
BRANCH   1  12
ATOM     12  C   UNL     1      -6.037  -7.709  28.750  1.00  0.00     0.000 C 
BRANCH  12  13
ATOM     13  C   UNL     1      -6.270  -8.740  29.873  1.00  0.00    -0.000 C 
BRANCH  13  14
ATOM     14  C   UNL     1      -5.267  -9.908  29.900  1.00  0.00    -0.000 C 
BRANCH  14  15
ATOM     15  C   UNL     1      -4.936 -10.441  28.499  1.00  0.00    -0.000 C 
BRANCH  15  16
ATOM     16  C   UNL     1      -3.727 -11.383  28.541  1.00  0.00    -0.000 C 
BRANCH  16  17
ATOM     17  C   UNL     1      -3.497 -12.047  27.179  1.00  0.00    -0.000 C 
BRANCH  17  18
ATOM     18  C   UNL     1      -4.666 -11.763  26.223  1.00  0.00    -0.000 C 
BRANCH  18  19
ATOM     19  C   UNL     1      -4.195 -11.350  24.821  1.00  0.00    -0.003 C 
ATOM     20  C   UNL     1      -3.247 -12.370  24.191  1.00  0.00     0.004 C 
ENDBRANCH  18  19
ENDBRANCH  17  18
ENDBRANCH  16  17
ENDBRANCH  15  16
ENDBRANCH  14  15
ENDBRANCH  13  14
ENDBRANCH  12  13
ENDBRANCH   1  12
TORSDOF 16
ENDMDL
MODEL 2
REMARK VINA RESULT:    -5.031      4.095      9.471
REMARK INTER + INTRA:         -10.557
REMARK INTER:                  -9.470
REMARK INTRA:                  -1.087
REMARK UNBOUND:                -0.821
REMARK SMILES CCCCCCCCCCCCCCCCCC(=O)[O-]
REMARK SMILES IDX 10 1 11 2 12 3 13 4 14 5 15 6 16 7 17 8 18 9 19 10 20 11
REMARK SMILES IDX 9 12 8 13 7 14 6 15 5 16 4 17 3 18 2 19 1 20
REMARK H PARENT
REMARK Flexibility Score: inf
ROOT
ATOM      1  C   UNL     1      -5.445  -5.877  29.235  1.00  0.00     0.000 C 
ENDROOT
BRANCH   1   2
ATOM      2  C   UNL     1      -6.137  -7.097  28.602  1.00  0.00     0.000 C 
BRANCH   2   3
ATOM      3  C   UNL     1      -6.000  -8.371  29.454  1.00  0.00     0.000 C 
BRANCH   3   4
ATOM      4  C   UNL     1      -5.658  -9.610  28.612  1.00  0.00     0.000 C 
BRANCH   4   5
ATOM      5  C   UNL     1      -4.635 -10.529  29.297  1.00  0.00     0.000 C 
BRANCH   5   6
ATOM      6  C   UNL     1      -4.131 -11.606  28.329  1.00  0.00     0.000 C 
BRANCH   6   7
ATOM      7  C   UNL     1      -4.701 -11.394  26.922  1.00  0.00     0.006 C 
BRANCH   7   8
ATOM      8  C   UNL     1      -4.669 -12.696  26.114  1.00  0.00     0.053 C 
BRANCH   8   9
ATOM      9  C   UNL     1      -3.479 -12.720  25.207  1.00  0.00     0.041 C 
ATOM     10  O   UNL     1      -2.526 -13.512  25.432  1.00  0.00    -0.550 OA
ATOM     11  O   UNL     1      -3.400 -11.833  24.140  1.00  0.00    -0.550 OA
ENDBRANCH   8   9
ENDBRANCH   7   8
ENDBRANCH   6   7
ENDBRANCH   5   6
ENDBRANCH   4   5
ENDBRANCH   3   4
ENDBRANCH   2   3
ENDBRANCH   1   2
BRANCH   1  12
ATOM     12  C   UNL     1      -5.285  -4.659  28.304  1.00  0.00     0.000 C 
BRANCH  12  13
ATOM     13  C   UNL     1      -5.706  -3.306  28.913  1.00  0.00    -0.000 C 
BRANCH  13  14
ATOM     14  C   UNL     1      -5.192  -2.066  28.159  1.00  0.00    -0.000 C 
BRANCH  14  15
ATOM     15  C   UNL     1      -5.106  -0.820  29.052  1.00  0.00    -0.000 C 
BRANCH  15  16
ATOM     16  C   UNL     1      -3.712  -0.185  28.976  1.00  0.00    -0.000 C 
BRANCH  16  17
ATOM     17  C   UNL     1      -2.828  -0.915  27.958  1.00  0.00    -0.000 C 
BRANCH  17  18
ATOM     18  C   UNL     1      -1.370  -0.978  28.438  1.00  0.00    -0.000 C 
BRANCH  18  19
ATOM     19  C   UNL     1      -0.778  -2.392  28.346  1.00  0.00    -0.003 C 
ATOM     20  C   UNL     1      -1.755  -3.473  28.808  1.00  0.00     0.004 C 
ENDBRANCH  18  19
ENDBRANCH  17  18
ENDBRANCH  16  17
ENDBRANCH  15  16
ENDBRANCH  14  15
ENDBRANCH  13  14
ENDBRANCH  12  13
ENDBRANCH   1  12
TORSDOF 16
ENDMDL
MODEL 3
REMARK VINA RESULT:    -5.030      0.948      1.468
REMARK INTER + INTRA:         -10.556
REMARK INTER:                  -9.738
REMARK INTRA:                  -0.818
REMARK UNBOUND:                -0.821
REMARK SMILES CCCCCCCCCCCCCCCCCC(=O)[O-]
REMARK SMILES IDX 10 1 11 2 12 3 13 4 14 5 15 6 16 7 17 8 18 9 19 10 20 11
REMARK SMILES IDX 9 12 8 13 7 14 6 15 5 16 4 17 3 18 2 19 1 20
REMARK H PARENT
REMARK Flexibility Score: inf
ROOT
ATOM      1  C   UNL     1      -5.847  -7.043  29.297  1.00  0.00     0.000 C 
ENDROOT
BRANCH   1   2
ATOM      2  C   UNL     1      -5.758  -6.197  28.015  1.00  0.00     0.000 C 
BRANCH   2   3
ATOM      3  C   UNL     1      -5.760  -4.684  28.296  1.00  0.00     0.000 C 
BRANCH   3   4
ATOM      4  C   UNL     1      -4.423  -4.189  28.871  1.00  0.00     0.000 C 
BRANCH   4   5
ATOM      5  C   UNL     1      -4.574  -2.907  29.704  1.00  0.00     0.000 C 
BRANCH   5   6
ATOM      6  C   UNL     1      -5.293  -1.814  28.905  1.00  0.00     0.000 C 
BRANCH   6   7
ATOM      7  C   UNL     1      -4.320  -1.078  27.977  1.00  0.00     0.006 C 
BRANCH   7   8
ATOM      8  C   UNL     1      -3.042  -0.682  28.723  1.00  0.00     0.053 C 
BRANCH   8   9
ATOM      9  C   UNL     1      -1.833  -1.027  27.910  1.00  0.00     0.041 C 
ATOM     10  O   UNL     1      -1.083  -1.976  28.260  1.00  0.00    -0.550 OA
ATOM     11  O   UNL     1      -1.508  -0.269  26.792  1.00  0.00    -0.550 OA
ENDBRANCH   8   9
ENDBRANCH   7   8
ENDBRANCH   6   7
ENDBRANCH   5   6
ENDBRANCH   4   5
ENDBRANCH   3   4
ENDBRANCH   2   3
ENDBRANCH   1   2
BRANCH   1  12
ATOM     12  C   UNL     1      -6.191  -8.530  29.076  1.00  0.00     0.000 C 
BRANCH  12  13
ATOM     13  C   UNL     1      -5.612  -9.501  30.125  1.00  0.00    -0.000 C 
BRANCH  13  14
ATOM     14  C   UNL     1      -4.771 -10.654  29.547  1.00  0.00    -0.000 C 
BRANCH  14  15
ATOM     15  C   UNL     1      -4.715 -10.639  28.013  1.00  0.00    -0.000 C 
BRANCH  15  16
ATOM     16  C   UNL     1      -4.276 -12.003  27.466  1.00  0.00    -0.000 C 
BRANCH  16  17
ATOM     17  C   UNL     1      -4.634 -12.144  25.983  1.00  0.00    -0.000 C 
BRANCH  17  18
ATOM     18  C   UNL     1      -3.618 -13.035  25.253  1.00  0.00    -0.000 C 
BRANCH  18  19
ATOM     19  C   UNL     1      -2.996 -12.344  24.030  1.00  0.00    -0.003 C 
ATOM     20  C   UNL     1      -3.052 -13.209  22.771  1.00  0.00     0.004 C 
ENDBRANCH  18  19
ENDBRANCH  17  18
ENDBRANCH  16  17
ENDBRANCH  15  16
ENDBRANCH  14  15
ENDBRANCH  13  14
ENDBRANCH  12  13
ENDBRANCH   1  12
TORSDOF 16
ENDMDL
MODEL 4
REMARK VINA RESULT:    -4.970      4.107      9.912
REMARK INTER + INTRA:         -10.439
REMARK INTER:                  -9.456
REMARK INTRA:                  -0.984
REMARK UNBOUND:                -0.821
REMARK SMILES CCCCCCCCCCCCCCCCCC(=O)[O-]
REMARK SMILES IDX 10 1 11 2 12 3 13 4 14 5 15 6 16 7 17 8 18 9 19 10 20 11
REMARK SMILES IDX 9 12 8 13 7 14 6 15 5 16 4 17 3 18 2 19 1 20
REMARK H PARENT
REMARK Flexibility Score: inf
ROOT
ATOM      1  C   UNL     1      -5.358  -5.396  28.765  1.00  0.00     0.000 C 
ENDROOT
BRANCH   1   2
ATOM      2  C   UNL     1      -6.001  -6.692  28.242  1.00  0.00     0.000 C 
BRANCH   2   3
ATOM      3  C   UNL     1      -5.946  -7.840  29.265  1.00  0.00     0.000 C 
BRANCH   3   4
ATOM      4  C   UNL     1      -5.842  -9.221  28.597  1.00  0.00     0.000 C 
BRANCH   4   5
ATOM      5  C   UNL     1      -4.974 -10.203  29.399  1.00  0.00     0.000 C 
BRANCH   5   6
ATOM      6  C   UNL     1      -4.289 -11.214  28.472  1.00  0.00     0.000 C 
BRANCH   6   7
ATOM      7  C   UNL     1      -4.708 -10.996  27.013  1.00  0.00     0.006 C 
BRANCH   7   8
ATOM      8  C   UNL     1      -4.624 -12.303  26.217  1.00  0.00     0.053 C 
BRANCH   8   9
ATOM      9  C   UNL     1      -3.371 -12.338  25.400  1.00  0.00     0.041 C 
ATOM     10  O   UNL     1      -2.247 -12.396  25.965  1.00  0.00    -0.550 OA
ATOM     11  O   UNL     1      -3.442 -12.258  24.014  1.00  0.00    -0.550 OA
ENDBRANCH   8   9
ENDBRANCH   7   8
ENDBRANCH   6   7
ENDBRANCH   5   6
ENDBRANCH   4   5
ENDBRANCH   3   4
ENDBRANCH   2   3
ENDBRANCH   1   2
BRANCH   1  12
ATOM     12  C   UNL     1      -5.968  -4.093  28.210  1.00  0.00     0.000 C 
BRANCH  12  13
ATOM     13  C   UNL     1      -5.717  -2.834  29.065  1.00  0.00    -0.000 C 
BRANCH  13  14
ATOM     14  C   UNL     1      -4.291  -2.706  29.629  1.00  0.00    -0.000 C 
BRANCH  14  15
ATOM     15  C   UNL     1      -3.283  -2.197  28.589  1.00  0.00    -0.000 C 
BRANCH  15  16
ATOM     16  C   UNL     1      -3.524  -0.716  28.270  1.00  0.00    -0.000 C 
BRANCH  16  17
ATOM     17  C   UNL     1      -3.204   0.168  29.480  1.00  0.00    -0.000 C 
BRANCH  17  18
ATOM     18  C   UNL     1      -4.296   1.227  29.693  1.00  0.00    -0.000 C 
BRANCH  18  19
ATOM     19  C   UNL     1      -5.706   0.687  29.413  1.00  0.00    -0.003 C 
ATOM     20  C   UNL     1      -6.773   1.782  29.428  1.00  0.00     0.004 C 
ENDBRANCH  18  19
ENDBRANCH  17  18
ENDBRANCH  16  17
ENDBRANCH  15  16
ENDBRANCH  14  15
ENDBRANCH  13  14
ENDBRANCH  12  13
ENDBRANCH   1  12
TORSDOF 16
ENDMDL
MODEL 5
REMARK VINA RESULT:    -4.964      4.097      7.816
REMARK INTER + INTRA:         -10.428
REMARK INTER:                  -8.835
REMARK INTRA:                  -1.592
REMARK UNBOUND:                -0.821
REMARK SMILES CCCCCCCCCCCCCCCCCC(=O)[O-]
REMARK SMILES IDX 10 1 11 2 12 3 13 4 14 5 15 6 16 7 17 8 18 9 19 10 20 11
REMARK SMILES IDX 9 12 8 13 7 14 6 15 5 16 4 17 3 18 2 19 1 20
REMARK H PARENT
REMARK Flexibility Score: inf
ROOT
ATOM      1  C   UNL     1      -0.182  -2.090  28.289  1.00  0.00     0.000 C 
ENDROOT
BRANCH   1   2
ATOM      2  C   UNL     1       0.773  -1.448  29.310  1.00  0.00     0.000 C 
BRANCH   2   3
ATOM      3  C   UNL     1       1.319  -0.088  28.844  1.00  0.00     0.000 C 
BRANCH   3   4
ATOM      4  C   UNL     1       0.656   1.094  29.568  1.00  0.00     0.000 C 
BRANCH   4   5
ATOM      5  C   UNL     1       0.853   2.428  28.830  1.00  0.00     0.000 C 
BRANCH   5   6
ATOM      6  C   UNL     1      -0.324   2.713  27.889  1.00  0.00     0.000 C 
BRANCH   6   7
ATOM      7  C   UNL     1       0.082   2.517  26.424  1.00  0.00     0.006 C 
BRANCH   7   8
ATOM      8  C   UNL     1       1.269   3.414  26.057  1.00  0.00     0.053 C 
BRANCH   8   9
ATOM      9  C   UNL     1       0.973   4.190  24.812  1.00  0.00     0.041 C 
ATOM     10  O   UNL     1      -0.162   4.707  24.641  1.00  0.00    -0.550 OA
ATOM     11  O   UNL     1       1.937   4.301  23.817  1.00  0.00    -0.550 OA
ENDBRANCH   8   9
ENDBRANCH   7   8
ENDBRANCH   6   7
ENDBRANCH   5   6
ENDBRANCH   4   5
ENDBRANCH   3   4
ENDBRANCH   2   3
ENDBRANCH   1   2
BRANCH   1  12
ATOM     12  C   UNL     1      -0.517  -1.213  27.065  1.00  0.00     0.000 C 
BRANCH  12  13
ATOM     13  C   UNL     1      -1.873  -0.481  27.133  1.00  0.00    -0.000 C 
BRANCH  13  14
ATOM     14  C   UNL     1      -2.773  -0.890  28.313  1.00  0.00    -0.000 C 
BRANCH  14  15
ATOM     15  C   UNL     1      -4.230  -1.133  27.894  1.00  0.00    -0.000 C 
BRANCH  15  16
ATOM     16  C   UNL     1      -5.135  -1.290  29.122  1.00  0.00    -0.000 C 
BRANCH  16  17
ATOM     17  C   UNL     1      -5.244  -2.760  29.543  1.00  0.00    -0.000 C 
BRANCH  17  18
ATOM     18  C   UNL     1      -5.769  -3.627  28.388  1.00  0.00    -0.000 C 
BRANCH  18  19
ATOM     19  C   UNL     1      -4.951  -4.913  28.195  1.00  0.00    -0.003 C 
ATOM     20  C   UNL     1      -5.819  -6.172  28.208  1.00  0.00     0.004 C 
ENDBRANCH  18  19
ENDBRANCH  17  18
ENDBRANCH  16  17
ENDBRANCH  15  16
ENDBRANCH  14  15
ENDBRANCH  13  14
ENDBRANCH  12  13
ENDBRANCH   1  12
TORSDOF 16
ENDMDL
MODEL 6
REMARK VINA RESULT:    -4.872      4.689      6.914
REMARK INTER + INTRA:         -10.250
REMARK INTER:                  -8.272
REMARK INTRA:                  -1.977
REMARK UNBOUND:                -0.821
REMARK SMILES CCCCCCCCCCCCCCCCCC(=O)[O-]
REMARK SMILES IDX 10 1 11 2 12 3 13 4 14 5 15 6 16 7 17 8 18 9 19 10 20 11
REMARK SMILES IDX 9 12 8 13 7 14 6 15 5 16 4 17 3 18 2 19 1 20
REMARK H PARENT
REMARK Flexibility Score: inf
ROOT
ATOM      1  C   UNL     1      -5.057  -1.841  28.051  1.00  0.00     0.000 C 
ENDROOT
BRANCH   1   2
ATOM      2  C   UNL     1      -4.308  -0.553  28.436  1.00  0.00     0.000 C 
BRANCH   2   3
ATOM      3  C   UNL     1      -5.156   0.396  29.300  1.00  0.00     0.000 C 
BRANCH   3   4
ATOM      4  C   UNL     1      -4.312   1.476  29.994  1.00  0.00     0.000 C 
BRANCH   4   5
ATOM      5  C   UNL     1      -2.811   1.341  29.692  1.00  0.00     0.000 C 
BRANCH   5   6
ATOM      6  C   UNL     1      -2.214   2.688  29.269  1.00  0.00     0.000 C 
BRANCH   6   7
ATOM      7  C   UNL     1      -0.821   2.505  28.655  1.00  0.00     0.006 C 
BRANCH   7   8
ATOM      8  C   UNL     1      -0.918   2.018  27.205  1.00  0.00     0.053 C 
BRANCH   8   9
ATOM      9  C   UNL     1       0.165   2.631  26.373  1.00  0.00     0.041 C 
ATOM     10  O   UNL     1       1.370   2.337  26.586  1.00  0.00    -0.550 OA
ATOM     11  O   UNL     1      -0.155   3.565  25.395  1.00  0.00    -0.550 OA
ENDBRANCH   8   9
ENDBRANCH   7   8
ENDBRANCH   6   7
ENDBRANCH   5   6
ENDBRANCH   4   5
ENDBRANCH   3   4
ENDBRANCH   2   3
ENDBRANCH   1   2
BRANCH   1  12
ATOM     12  C   UNL     1      -5.398  -2.776  29.230  1.00  0.00     0.000 C 
BRANCH  12  13
ATOM     13  C   UNL     1      -5.147  -4.275  28.973  1.00  0.00    -0.000 C 
BRANCH  13  14
ATOM     14  C   UNL     1      -3.712  -4.628  28.541  1.00  0.00    -0.000 C 
BRANCH  14  15
ATOM     15  C   UNL     1      -2.644  -3.903  29.374  1.00  0.00    -0.000 C 
BRANCH  15  16
ATOM     16  C   UNL     1      -1.389  -3.627  28.537  1.00  0.00    -0.000 C 
BRANCH  16  17
ATOM     17  C   UNL     1      -1.110  -2.123  28.441  1.00  0.00    -0.000 C 
BRANCH  17  18
ATOM     18  C   UNL     1      -0.053  -1.826  27.367  1.00  0.00    -0.000 C 
BRANCH  18  19
ATOM     19  C   UNL     1       1.099  -0.959  27.894  1.00  0.00    -0.003 C 
ATOM     20  C   UNL     1       0.991  -0.682  29.394  1.00  0.00     0.004 C 
ENDBRANCH  18  19
ENDBRANCH  17  18
ENDBRANCH  16  17
ENDBRANCH  15  16
ENDBRANCH  14  15
ENDBRANCH  13  14
ENDBRANCH  12  13
ENDBRANCH   1  12
TORSDOF 16
ENDMDL
MODEL 7
REMARK VINA RESULT:    -4.853      3.901      7.754
REMARK INTER + INTRA:         -10.214
REMARK INTER:                  -8.451
REMARK INTRA:                  -1.763
REMARK UNBOUND:                -0.821
REMARK SMILES CCCCCCCCCCCCCCCCCC(=O)[O-]
REMARK SMILES IDX 10 1 11 2 12 3 13 4 14 5 15 6 16 7 17 8 18 9 19 10 20 11
REMARK SMILES IDX 9 12 8 13 7 14 6 15 5 16 4 17 3 18 2 19 1 20
REMARK H PARENT
REMARK Flexibility Score: inf
ROOT
ATOM      1  C   UNL     1      -0.075  -1.619  26.606  1.00  0.00     0.000 C 
ENDROOT
BRANCH   1   2
ATOM      2  C   UNL     1       1.076  -1.490  27.619  1.00  0.00     0.000 C 
BRANCH   2   3
ATOM      3  C   UNL     1       1.790  -0.129  27.541  1.00  0.00     0.000 C 
BRANCH   3   4
ATOM      4  C   UNL     1       1.720   0.651  28.863  1.00  0.00     0.000 C 
BRANCH   4   5
ATOM      5  C   UNL     1       1.548   2.163  28.651  1.00  0.00     0.000 C 
BRANCH   5   6
ATOM      6  C   UNL     1       0.735   2.451  27.384  1.00  0.00     0.000 C 
BRANCH   6   7
ATOM      7  C   UNL     1      -0.664   2.971  27.732  1.00  0.00     0.006 C 
BRANCH   7   8
ATOM      8  C   UNL     1      -0.813   3.180  29.242  1.00  0.00     0.053 C 
BRANCH   8   9
ATOM      9  C   UNL     1      -2.254   3.354  29.607  1.00  0.00     0.041 C 
ATOM     10  O   UNL     1      -3.004   2.350  29.725  1.00  0.00    -0.550 OA
ATOM     11  O   UNL     1      -2.781   4.631  29.769  1.00  0.00    -0.550 OA
ENDBRANCH   8   9
ENDBRANCH   7   8
ENDBRANCH   6   7
ENDBRANCH   5   6
ENDBRANCH   4   5
ENDBRANCH   3   4
ENDBRANCH   2   3
ENDBRANCH   1   2
BRANCH   1  12
ATOM     12  C   UNL     1      -1.198  -0.572  26.754  1.00  0.00     0.000 C 
BRANCH  12  13
ATOM     13  C   UNL     1      -1.800  -0.452  28.169  1.00  0.00    -0.000 C 
BRANCH  13  14
ATOM     14  C   UNL     1      -2.894  -1.484  28.499  1.00  0.00    -0.000 C 
BRANCH  14  15
ATOM     15  C   UNL     1      -4.300  -1.009  28.104  1.00  0.00    -0.000 C 
BRANCH  15  16
ATOM     16  C   UNL     1      -5.369  -1.671  28.980  1.00  0.00    -0.000 C 
BRANCH  16  17
ATOM     17  C   UNL     1      -4.792  -2.867  29.745  1.00  0.00    -0.000 C 
BRANCH  17  18
ATOM     18  C   UNL     1      -5.701  -4.099  29.608  1.00  0.00    -0.000 C 
BRANCH  18  19
ATOM     19  C   UNL     1      -5.699  -4.679  28.186  1.00  0.00    -0.003 C 
ATOM     20  C   UNL     1      -5.706  -6.207  28.171  1.00  0.00     0.004 C 
ENDBRANCH  18  19
ENDBRANCH  17  18
ENDBRANCH  16  17
ENDBRANCH  15  16
ENDBRANCH  14  15
ENDBRANCH  13  14
ENDBRANCH  12  13
ENDBRANCH   1  12
TORSDOF 16
ENDMDL
MODEL 8
REMARK VINA RESULT:    -4.819      4.881      9.682
REMARK INTER + INTRA:         -10.147
REMARK INTER:                  -7.870
REMARK INTRA:                  -2.277
REMARK UNBOUND:                -0.821
REMARK SMILES CCCCCCCCCCCCCCCCCC(=O)[O-]
REMARK SMILES IDX 10 1 11 2 12 3 13 4 14 5 15 6 16 7 17 8 18 9 19 10 20 11
REMARK SMILES IDX 9 12 8 13 7 14 6 15 5 16 4 17 3 18 2 19 1 20
REMARK H PARENT
REMARK Flexibility Score: inf
ROOT
ATOM      1  C   UNL     1      -0.051  -1.680  27.013  1.00  0.00     0.000 C 
ENDROOT
BRANCH   1   2
ATOM      2  C   UNL     1      -1.193  -1.721  28.043  1.00  0.00     0.000 C 
BRANCH   2   3
ATOM      3  C   UNL     1      -2.139  -0.513  27.935  1.00  0.00     0.000 C 
BRANCH   3   4
ATOM      4  C   UNL     1      -3.314  -0.592  28.922  1.00  0.00     0.000 C 
BRANCH   4   5
ATOM      5  C   UNL     1      -4.648  -0.914  28.231  1.00  0.00     0.000 C 
BRANCH   5   6
ATOM      6  C   UNL     1      -5.443  -1.953  29.030  1.00  0.00     0.000 C 
BRANCH   6   7
ATOM      7  C   UNL     1      -4.509  -2.969  29.698  1.00  0.00     0.006 C 
BRANCH   7   8
ATOM      8  C   UNL     1      -4.189  -4.129  28.749  1.00  0.00     0.053 C 
BRANCH   8   9
ATOM      9  C   UNL     1      -5.335  -5.089  28.690  1.00  0.00     0.041 C 
ATOM     10  O   UNL     1      -6.045  -5.165  27.654  1.00  0.00    -0.550 OA
ATOM     11  O   UNL     1      -5.649  -5.866  29.799  1.00  0.00    -0.550 OA
ENDBRANCH   8   9
ENDBRANCH   7   8
ENDBRANCH   6   7
ENDBRANCH   5   6
ENDBRANCH   4   5
ENDBRANCH   3   4
ENDBRANCH   2   3
ENDBRANCH   1   2
BRANCH   1  12
ATOM     12  C   UNL     1       1.371  -1.723  27.610  1.00  0.00     0.000 C 
BRANCH  12  13
ATOM     13  C   UNL     1       1.461  -2.262  29.052  1.00  0.00    -0.000 C 
BRANCH  13  14
ATOM     14  C   UNL     1       1.771  -1.200  30.123  1.00  0.00    -0.000 C 
BRANCH  14  15
ATOM     15  C   UNL     1       1.750   0.231  29.566  1.00  0.00    -0.000 C 
BRANCH  15  16
ATOM     16  C   UNL     1       0.542   1.011  30.101  1.00  0.00    -0.000 C 
BRANCH  16  17
ATOM     17  C   UNL     1       0.172   2.166  29.164  1.00  0.00    -0.000 C 
BRANCH  17  18
ATOM     18  C   UNL     1       0.604   1.864  27.721  1.00  0.00    -0.000 C 
BRANCH  18  19
ATOM     19  C   UNL     1      -0.371   2.434  26.680  1.00  0.00    -0.003 C 
ATOM     20  C   UNL     1       0.176   3.674  25.974  1.00  0.00     0.004 C 
ENDBRANCH  18  19
ENDBRANCH  17  18
ENDBRANCH  16  17
ENDBRANCH  15  16
ENDBRANCH  14  15
ENDBRANCH  13  14
ENDBRANCH  12  13
ENDBRANCH   1  12
TORSDOF 16
ENDMDL
MODEL 9
REMARK VINA RESULT:    -4.803      3.996      7.626
REMARK INTER + INTRA:         -10.117
REMARK INTER:                  -8.163
REMARK INTRA:                  -1.954
REMARK UNBOUND:                -0.821
REMARK SMILES CCCCCCCCCCCCCCCCCC(=O)[O-]
REMARK SMILES IDX 10 1 11 2 12 3 13 4 14 5 15 6 16 7 17 8 18 9 19 10 20 11
REMARK SMILES IDX 9 12 8 13 7 14 6 15 5 16 4 17 3 18 2 19 1 20
REMARK H PARENT
REMARK Flexibility Score: inf
ROOT
ATOM      1  C   UNL     1      -0.492  -1.782  27.232  1.00  0.00     0.000 C 
ENDROOT
BRANCH   1   2
ATOM      2  C   UNL     1       1.044  -1.682  27.210  1.00  0.00     0.000 C 
BRANCH   2   3
ATOM      3  C   UNL     1       1.709  -2.450  28.366  1.00  0.00     0.000 C 
BRANCH   3   4
ATOM      4  C   UNL     1       1.540  -1.742  29.719  1.00  0.00     0.000 C 
BRANCH   4   5
ATOM      5  C   UNL     1       2.019  -0.282  29.688  1.00  0.00     0.000 C 
BRANCH   5   6
ATOM      6  C   UNL     1       0.888   0.674  30.085  1.00  0.00     0.000 C 
BRANCH   6   7
ATOM      7  C   UNL     1       1.128   2.079  29.520  1.00  0.00     0.006 C 
BRANCH   7   8
ATOM      8  C   UNL     1       1.394   2.026  28.012  1.00  0.00     0.053 C 
BRANCH   8   9
ATOM      9  C   UNL     1       0.456   2.936  27.283  1.00  0.00     0.041 C 
ATOM     10  O   UNL     1       0.094   2.665  26.108  1.00  0.00    -0.550 OA
ATOM     11  O   UNL     1       0.019   4.111  27.884  1.00  0.00    -0.550 OA
ENDBRANCH   8   9
ENDBRANCH   7   8
ENDBRANCH   6   7
ENDBRANCH   5   6
ENDBRANCH   4   5
ENDBRANCH   3   4
ENDBRANCH   2   3
ENDBRANCH   1   2
BRANCH   1  12
ATOM     12  C   UNL     1      -1.236  -0.502  26.799  1.00  0.00     0.000 C 
BRANCH  12  13
ATOM     13  C   UNL     1      -1.931   0.270  27.938  1.00  0.00    -0.000 C 
BRANCH  13  14
ATOM     14  C   UNL     1      -2.950  -0.550  28.751  1.00  0.00    -0.000 C 
BRANCH  14  15
ATOM     15  C   UNL     1      -4.065  -1.145  27.880  1.00  0.00    -0.000 C 
BRANCH  15  16
ATOM     16  C   UNL     1      -5.290  -1.509  28.729  1.00  0.00    -0.000 C 
BRANCH  16  17
ATOM     17  C   UNL     1      -4.955  -2.616  29.734  1.00  0.00    -0.000 C 
BRANCH  17  18
ATOM     18  C   UNL     1      -4.461  -3.882  29.017  1.00  0.00    -0.000 C 
BRANCH  18  19
ATOM     19  C   UNL     1      -5.368  -5.095  29.268  1.00  0.00    -0.003 C 
ATOM     20  C   UNL     1      -5.739  -5.832  27.980  1.00  0.00     0.004 C 
ENDBRANCH  18  19
ENDBRANCH  17  18
ENDBRANCH  16  17
ENDBRANCH  15  16
ENDBRANCH  14  15
ENDBRANCH  13  14
ENDBRANCH  12  13
ENDBRANCH   1  12
TORSDOF 16
ENDMDL
