MODEL 1
REMARK VINA RESULT:    -4.932      0.000      0.000
REMARK INTER + INTRA:          -8.979
REMARK INTER:                  -7.095
REMARK INTRA:                  -1.885
REMARK UNBOUND:                -1.885
REMARK SMILES O=c1c(O[C@@H]2O[C@@H](CO)[C@H](O)[C@H](O)[C@@H]2O)c(-c2ccc(O)cc2)oc2cc(O)cc(O)c12
REMARK SMILES IDX 4 1 3 2 16 3 24 4 2 5 25 6 1 7 32 8 26 9 30 10 27 11 29 12
REMARK SMILES IDX 17 13 18 14 19 15 20 16 23 17 22 18 21 19 31 21 28 23 5 25
REMARK SMILES IDX 14 26 6 27 12 28 7 29 10 30 15 31 13 33 8 35 9 36 11 38
REMARK H PARENT 21 20 31 22 28 24 15 32 13 34 9 37 11 39
REMARK Flexibility Score: inf
ROOT
ATOM      1  O   UNL     1       4.500 -11.560  16.572  1.00  0.00    -0.454 OA
ENDROOT
BRANCH   1   2
ATOM      2  C   UNL     1       5.187 -11.141  15.410  1.00  0.00     0.214 A 
ATOM      3  C   UNL     1       5.389 -12.081  14.383  1.00  0.00     0.180 A 
ATOM      4  O   UNL     1       5.963 -11.721  13.244  1.00  0.00    -0.452 OA
ATOM      5  C   UNL     1       5.664  -9.825  15.208  1.00  0.00     0.239 A 
ATOM      6  C   UNL     1       6.384 -10.489  12.997  1.00  0.00     0.146 A 
ATOM      7  O   UNL     1       5.628  -8.998  16.154  1.00  0.00    -0.285 OA
ATOM      8  C   UNL     1       6.226  -9.461  13.960  1.00  0.00     0.111 A 
ATOM      9  C   UNL     1       7.004 -10.229  11.773  1.00  0.00     0.094 A 
ATOM     10  C   UNL     1       6.669  -8.145  13.626  1.00  0.00     0.134 A 
ATOM     11  C   UNL     1       7.488  -8.956  11.483  1.00  0.00     0.123 A 
ATOM     12  C   UNL     1       7.324  -7.923  12.409  1.00  0.00     0.093 A 
BRANCH   3  13
ATOM     13  C   UNL     1       4.972 -13.488  14.533  1.00  0.00     0.021 A 
ATOM     14  C   UNL     1       5.922 -14.494  14.768  1.00  0.00     0.016 A 
ATOM     15  C   UNL     1       5.520 -15.828  14.888  1.00  0.00     0.047 A 
ATOM     16  C   UNL     1       4.170 -16.170  14.757  1.00  0.00     0.115 A 
ATOM     17  C   UNL     1       3.622 -13.837  14.378  1.00  0.00     0.016 A 
ATOM     18  C   UNL     1       3.221 -15.172  14.498  1.00  0.00     0.047 A 
BRANCH  16  19
ATOM     19  O   UNL     1       3.783 -17.503  14.883  1.00  0.00    -0.508 OA
ATOM     20  H   UNL     1       4.034 -18.053  15.696  1.00  0.00     0.293 HD
ENDBRANCH  16  19
ENDBRANCH   3  13
BRANCH  10  21
ATOM     21  O   UNL     1       6.459  -7.023  14.434  1.00  0.00    -0.507 OA
ATOM     22  H   UNL     1       7.183  -6.381  14.722  1.00  0.00     0.293 HD
ENDBRANCH  10  21
BRANCH  11  23
ATOM     23  O   UNL     1       8.125  -8.724  10.264  1.00  0.00    -0.508 OA
ATOM     24  H   UNL     1       8.204  -7.791   9.877  1.00  0.00     0.293 HD
ENDBRANCH  11  23
ENDBRANCH   1   2
BRANCH   1  25
ATOM     25  C   UNL     1       5.077 -11.816  17.859  1.00  0.00     0.339 C 
ATOM     26  C   UNL     1       4.336 -11.050  18.977  1.00  0.00     0.214 C 
ATOM     27  O   UNL     1       5.134 -13.206  18.136  1.00  0.00    -0.332 OA
ATOM     28  C   UNL     1       2.967 -11.674  19.319  1.00  0.00     0.180 C 
ATOM     29  C   UNL     1       3.839 -13.781  18.191  1.00  0.00     0.179 C 
ATOM     30  C   UNL     1       3.053 -13.213  19.396  1.00  0.00     0.177 C 
BRANCH  26  31
ATOM     31  O   UNL     1       4.170  -9.700  18.624  1.00  0.00    -0.384 OA
ATOM     32  H   UNL     1       4.428  -9.162  19.416  1.00  0.00     0.211 HD
ENDBRANCH  26  31
BRANCH  28  33
ATOM     33  O   UNL     1       1.961 -11.242  18.436  1.00  0.00    -0.387 OA
ATOM     34  H   UNL     1       2.370 -10.621  17.785  1.00  0.00     0.211 HD
ENDBRANCH  28  33
BRANCH  29  35
ATOM     35  C   UNL     1       3.999 -15.302  18.309  1.00  0.00     0.191 C 
BRANCH  35  36
ATOM     36  O   UNL     1       3.794 -15.694  19.638  1.00  0.00    -0.394 OA
ATOM     37  H   UNL     1       3.453 -14.892  20.113  1.00  0.00     0.210 HD
ENDBRANCH  35  36
ENDBRANCH  29  35
BRANCH  30  38
ATOM     38  O   UNL     1       1.752 -13.747  19.433  1.00  0.00    -0.387 OA
ATOM     39  H   UNL     1       1.206 -13.153  20.012  1.00  0.00     0.211 HD
ENDBRANCH  30  38
ENDBRANCH   1  25
TORSDOF 11
ENDMDL
MODEL 2
REMARK VINA RESULT:    -4.803      2.529      6.492
REMARK INTER + INTRA:          -8.793
REMARK INTER:                  -7.798
REMARK INTRA:                  -0.994
REMARK UNBOUND:                -1.885
REMARK SMILES O=c1c(O[C@@H]2O[C@@H](CO)[C@H](O)[C@H](O)[C@@H]2O)c(-c2ccc(O)cc2)oc2cc(O)cc(O)c12
REMARK SMILES IDX 4 1 3 2 16 3 24 4 2 5 25 6 1 7 32 8 26 9 30 10 27 11 29 12
REMARK SMILES IDX 17 13 18 14 19 15 20 16 23 17 22 18 21 19 31 21 28 23 5 25
REMARK SMILES IDX 14 26 6 27 12 28 7 29 10 30 15 31 13 33 8 35 9 36 11 38
REMARK H PARENT 21 20 31 22 28 24 15 32 13 34 9 37 11 39
REMARK Flexibility Score: inf
ROOT
ATOM      1  O   UNL     1       3.589 -11.009  14.903  1.00  0.00    -0.454 OA
ENDROOT
BRANCH   1   2
ATOM      2  C   UNL     1       4.326 -12.203  14.744  1.00  0.00     0.214 A 
ATOM      3  C   UNL     1       5.698 -12.103  14.448  1.00  0.00     0.180 A 
ATOM      4  O   UNL     1       6.450 -13.191  14.360  1.00  0.00    -0.452 OA
ATOM      5  C   UNL     1       3.772 -13.497  14.887  1.00  0.00     0.239 A 
ATOM      6  C   UNL     1       5.979 -14.418  14.531  1.00  0.00     0.146 A 
ATOM      7  O   UNL     1       2.528 -13.631  15.011  1.00  0.00    -0.285 OA
ATOM      8  C   UNL     1       4.613 -14.636  14.838  1.00  0.00     0.111 A 
ATOM      9  C   UNL     1       6.857 -15.495  14.384  1.00  0.00     0.094 A 
ATOM     10  C   UNL     1       4.170 -15.978  15.044  1.00  0.00     0.134 A 
ATOM     11  C   UNL     1       6.400 -16.803  14.526  1.00  0.00     0.123 A 
ATOM     12  C   UNL     1       5.062 -17.039  14.849  1.00  0.00     0.093 A 
BRANCH   3  13
ATOM     13  C   UNL     1       6.345 -10.796  14.229  1.00  0.00     0.021 A 
ATOM     14  C   UNL     1       7.162 -10.227  15.220  1.00  0.00     0.016 A 
ATOM     15  C   UNL     1       7.756  -8.979  15.011  1.00  0.00     0.047 A 
ATOM     16  C   UNL     1       7.524  -8.279  13.822  1.00  0.00     0.115 A 
ATOM     17  C   UNL     1       6.096 -10.081  13.048  1.00  0.00     0.016 A 
ATOM     18  C   UNL     1       6.689  -8.832  12.842  1.00  0.00     0.047 A 
BRANCH  16  19
ATOM     19  O   UNL     1       8.125  -7.037  13.627  1.00  0.00    -0.508 OA
ATOM     20  H   UNL     1       8.458  -6.748  12.715  1.00  0.00     0.293 HD
ENDBRANCH  16  19
ENDBRANCH   3  13
BRANCH  10  21
ATOM     21  O   UNL     1       2.883 -16.317  15.472  1.00  0.00    -0.507 OA
ATOM     22  H   UNL     1       2.083 -16.412  14.863  1.00  0.00     0.293 HD
ENDBRANCH  10  21
BRANCH  11  23
ATOM     23  O   UNL     1       7.288 -17.863  14.351  1.00  0.00    -0.508 OA
ATOM     24  H   UNL     1       7.607 -18.421  15.135  1.00  0.00     0.293 HD
ENDBRANCH  11  23
ENDBRANCH   1   2
BRANCH   1  25
ATOM     25  C   UNL     1       2.620 -10.734  15.923  1.00  0.00     0.339 C 
ATOM     26  C   UNL     1       3.190  -9.800  17.013  1.00  0.00     0.214 C 
ATOM     27  O   UNL     1       1.420 -10.214  15.374  1.00  0.00    -0.332 OA
ATOM     28  C   UNL     1       3.304  -8.336  16.541  1.00  0.00     0.180 C 
ATOM     29  C   UNL     1       1.638  -8.972  14.727  1.00  0.00     0.179 C 
ATOM     30  C   UNL     1       2.048  -7.896  15.760  1.00  0.00     0.177 C 
BRANCH  26  31
ATOM     31  O   UNL     1       4.444 -10.260  17.450  1.00  0.00    -0.384 OA
ATOM     32  H   UNL     1       5.126  -9.819  16.879  1.00  0.00     0.211 HD
ENDBRANCH  26  31
BRANCH  28  33
ATOM     33  O   UNL     1       4.487  -8.113  15.813  1.00  0.00    -0.387 OA
ATOM     34  H   UNL     1       4.995  -7.397  16.266  1.00  0.00     0.211 HD
ENDBRANCH  28  33
BRANCH  29  35
ATOM     35  C   UNL     1       0.342  -8.575  14.009  1.00  0.00     0.191 C 
BRANCH  35  36
ATOM     36  O   UNL     1      -0.579  -9.628  14.085  1.00  0.00    -0.394 OA
ATOM     37  H   UNL     1      -1.273  -9.437  13.401  1.00  0.00     0.210 HD
ENDBRANCH  35  36
ENDBRANCH  29  35
BRANCH  30  38
ATOM     38  O   UNL     1       2.307  -6.670  15.121  1.00  0.00    -0.387 OA
ATOM     39  H   UNL     1       2.859  -6.125  15.741  1.00  0.00     0.211 HD
ENDBRANCH  30  38
ENDBRANCH   1  25
TORSDOF 11
ENDMDL
MODEL 3
REMARK VINA RESULT:    -4.671      1.156      2.510
REMARK INTER + INTRA:          -8.604
REMARK INTER:                  -7.041
REMARK INTRA:                  -1.563
REMARK UNBOUND:                -1.885
REMARK SMILES O=c1c(O[C@@H]2O[C@@H](CO)[C@H](O)[C@H](O)[C@@H]2O)c(-c2ccc(O)cc2)oc2cc(O)cc(O)c12
REMARK SMILES IDX 4 1 3 2 16 3 24 4 2 5 25 6 1 7 32 8 26 9 30 10 27 11 29 12
REMARK SMILES IDX 17 13 18 14 19 15 20 16 23 17 22 18 21 19 31 21 28 23 5 25
REMARK SMILES IDX 14 26 6 27 12 28 7 29 10 30 15 31 13 33 8 35 9 36 11 38
REMARK H PARENT 21 20 31 22 28 24 15 32 13 34 9 37 11 39
REMARK Flexibility Score: inf
ROOT
ATOM      1  O   UNL     1       4.496 -11.998  16.846  1.00  0.00    -0.454 OA
ENDROOT
BRANCH   1   2
ATOM      2  C   UNL     1       5.129 -11.531  15.673  1.00  0.00     0.214 A 
ATOM      3  C   UNL     1       5.325 -12.440  14.617  1.00  0.00     0.180 A 
ATOM      4  O   UNL     1       5.848 -12.035  13.468  1.00  0.00    -0.452 OA
ATOM      5  C   UNL     1       5.558 -10.195  15.487  1.00  0.00     0.239 A 
ATOM      6  C   UNL     1       6.223 -10.784  13.237  1.00  0.00     0.146 A 
ATOM      7  O   UNL     1       5.530  -9.392  16.453  1.00  0.00    -0.285 OA
ATOM      8  C   UNL     1       6.066  -9.785  14.230  1.00  0.00     0.111 A 
ATOM      9  C   UNL     1       6.791 -10.477  11.999  1.00  0.00     0.094 A 
ATOM     10  C   UNL     1       6.456  -8.448  13.913  1.00  0.00     0.134 A 
ATOM     11  C   UNL     1       7.226  -9.183  11.724  1.00  0.00     0.123 A 
ATOM     12  C   UNL     1       7.062  -8.177  12.680  1.00  0.00     0.093 A 
BRANCH   3  13
ATOM     13  C   UNL     1       4.957 -13.862  14.746  1.00  0.00     0.021 A 
ATOM     14  C   UNL     1       5.908 -14.813  15.149  1.00  0.00     0.016 A 
ATOM     15  C   UNL     1       5.556 -16.162  15.250  1.00  0.00     0.047 A 
ATOM     16  C   UNL     1       4.258 -16.576  14.932  1.00  0.00     0.115 A 
ATOM     17  C   UNL     1       3.664 -14.283  14.405  1.00  0.00     0.016 A 
ATOM     18  C   UNL     1       3.312 -15.633  14.504  1.00  0.00     0.047 A 
BRANCH  16  19
ATOM     19  O   UNL     1       3.919 -17.923  15.039  1.00  0.00    -0.508 OA
ATOM     20  H   UNL     1       2.970 -18.216  15.237  1.00  0.00     0.293 HD
ENDBRANCH  16  19
ENDBRANCH   3  13
BRANCH  10  21
ATOM     21  O   UNL     1       6.240  -7.352  14.754  1.00  0.00    -0.507 OA
ATOM     22  H   UNL     1       6.952  -6.915  15.321  1.00  0.00     0.293 HD
ENDBRANCH  10  21
BRANCH  11  23
ATOM     23  O   UNL     1       7.813  -8.902  10.491  1.00  0.00    -0.508 OA
ATOM     24  H   UNL     1       7.762  -9.556   9.719  1.00  0.00     0.293 HD
ENDBRANCH  11  23
ENDBRANCH   1   2
BRANCH   1  25
ATOM     25  C   UNL     1       3.086 -12.024  17.103  1.00  0.00     0.339 C 
ATOM     26  C   UNL     1       2.720 -13.088  18.161  1.00  0.00     0.214 C 
ATOM     27  O   UNL     1       2.600 -10.743  17.468  1.00  0.00    -0.332 OA
ATOM     28  C   UNL     1       3.106 -12.659  19.592  1.00  0.00     0.180 C 
ATOM     29  C   UNL     1       3.187 -10.287  18.676  1.00  0.00     0.179 C 
ATOM     30  C   UNL     1       2.743 -11.183  19.856  1.00  0.00     0.177 C 
BRANCH  26  31
ATOM     31  O   UNL     1       3.322 -14.318  17.853  1.00  0.00    -0.384 OA
ATOM     32  H   UNL     1       3.337 -14.850  18.691  1.00  0.00     0.211 HD
ENDBRANCH  26  31
BRANCH  28  33
ATOM     33  O   UNL     1       4.458 -12.930  19.871  1.00  0.00    -0.387 OA
ATOM     34  H   UNL     1       4.618 -12.739  20.828  1.00  0.00     0.211 HD
ENDBRANCH  28  33
BRANCH  29  35
ATOM     35  C   UNL     1       2.751  -8.833  18.897  1.00  0.00     0.191 C 
BRANCH  35  36
ATOM     36  O   UNL     1       3.196  -8.041  17.831  1.00  0.00    -0.394 OA
ATOM     37  H   UNL     1       3.708  -7.293  18.238  1.00  0.00     0.210 HD
ENDBRANCH  35  36
ENDBRANCH  29  35
BRANCH  30  38
ATOM     38  O   UNL     1       3.353 -10.763  21.052  1.00  0.00    -0.387 OA
ATOM     39  H   UNL     1       4.270 -11.145  21.065  1.00  0.00     0.211 HD
ENDBRANCH  30  38
ENDBRANCH   1  25
TORSDOF 11
ENDMDL
MODEL 4
REMARK VINA RESULT:    -4.665      2.401      6.661
REMARK INTER + INTRA:          -8.595
REMARK INTER:                  -6.776
REMARK INTRA:                  -1.819
REMARK UNBOUND:                -1.885
REMARK SMILES O=c1c(O[C@@H]2O[C@@H](CO)[C@H](O)[C@H](O)[C@@H]2O)c(-c2ccc(O)cc2)oc2cc(O)cc(O)c12
REMARK SMILES IDX 4 1 3 2 16 3 24 4 2 5 25 6 1 7 32 8 26 9 30 10 27 11 29 12
REMARK SMILES IDX 17 13 18 14 19 15 20 16 23 17 22 18 21 19 31 21 28 23 5 25
REMARK SMILES IDX 14 26 6 27 12 28 7 29 10 30 15 31 13 33 8 35 9 36 11 38
REMARK H PARENT 21 20 31 22 28 24 15 32 13 34 9 37 11 39
REMARK Flexibility Score: inf
ROOT
ATOM      1  O   UNL     1       5.635 -10.717  15.406  1.00  0.00    -0.454 OA
ENDROOT
BRANCH   1   2
ATOM      2  C   UNL     1       5.259 -12.079  15.405  1.00  0.00     0.214 A 
ATOM      3  C   UNL     1       3.959 -12.410  15.827  1.00  0.00     0.180 A 
ATOM      4  O   UNL     1       3.533 -13.664  15.777  1.00  0.00    -0.452 OA
ATOM      5  C   UNL     1       6.108 -13.130  14.982  1.00  0.00     0.239 A 
ATOM      6  C   UNL     1       4.280 -14.671  15.346  1.00  0.00     0.146 A 
ATOM      7  O   UNL     1       7.316 -12.892  14.733  1.00  0.00    -0.285 OA
ATOM      8  C   UNL     1       5.605 -14.451  14.892  1.00  0.00     0.111 A 
ATOM      9  C   UNL     1       3.738 -15.958  15.366  1.00  0.00     0.094 A 
ATOM     10  C   UNL     1       6.350 -15.569  14.408  1.00  0.00     0.134 A 
ATOM     11  C   UNL     1       4.496 -17.050  14.951  1.00  0.00     0.123 A 
ATOM     12  C   UNL     1       5.797 -16.853  14.480  1.00  0.00     0.093 A 
BRANCH   3  13
ATOM     13  C   UNL     1       3.029 -11.384  16.334  1.00  0.00     0.021 A 
ATOM     14  C   UNL     1       2.358 -10.525  15.449  1.00  0.00     0.016 A 
ATOM     15  C   UNL     1       1.494  -9.542  15.939  1.00  0.00     0.047 A 
ATOM     16  C   UNL     1       1.305  -9.396  17.318  1.00  0.00     0.115 A 
ATOM     17  C   UNL     1       2.856 -11.219  17.716  1.00  0.00     0.016 A 
ATOM     18  C   UNL     1       1.991 -10.235  18.206  1.00  0.00     0.047 A 
BRANCH  16  19
ATOM     19  O   UNL     1       0.437  -8.415  17.793  1.00  0.00    -0.508 OA
ATOM     20  H   UNL     1       0.682  -7.829  18.582  1.00  0.00     0.293 HD
ENDBRANCH  16  19
ENDBRANCH   3  13
BRANCH  10  21
ATOM     21  O   UNL     1       7.614 -15.467  13.820  1.00  0.00    -0.507 OA
ATOM     22  H   UNL     1       8.162 -16.251  13.498  1.00  0.00     0.293 HD
ENDBRANCH  10  21
BRANCH  11  23
ATOM     23  O   UNL     1       3.945 -18.329  15.001  1.00  0.00    -0.508 OA
ATOM     24  H   UNL     1       3.960 -18.880  15.852  1.00  0.00     0.293 HD
ENDBRANCH  11  23
ENDBRANCH   1   2
BRANCH   1  25
ATOM     25  C   UNL     1       6.657 -10.114  16.210  1.00  0.00     0.339 C 
ATOM     26  C   UNL     1       7.608  -9.241  15.360  1.00  0.00     0.214 C 
ATOM     27  O   UNL     1       6.104  -9.376  17.288  1.00  0.00    -0.332 OA
ATOM     28  C   UNL     1       6.967  -7.904  14.936  1.00  0.00     0.180 C 
ATOM     29  C   UNL     1       5.310  -8.295  16.827  1.00  0.00     0.179 C 
ATOM     30  C   UNL     1       6.196  -7.253  16.104  1.00  0.00     0.177 C 
BRANCH  26  31
ATOM     31  O   UNL     1       8.039  -9.945  14.224  1.00  0.00    -0.384 OA
ATOM     32  H   UNL     1       8.452 -10.788  14.547  1.00  0.00     0.211 HD
ENDBRANCH  26  31
BRANCH  28  33
ATOM     33  O   UNL     1       6.168  -8.048  13.788  1.00  0.00    -0.387 OA
ATOM     34  H   UNL     1       5.426  -7.397  13.846  1.00  0.00     0.211 HD
ENDBRANCH  28  33
BRANCH  29  35
ATOM     35  C   UNL     1       4.609  -7.670  18.040  1.00  0.00     0.191 C 
BRANCH  35  36
ATOM     36  O   UNL     1       3.581  -6.824  17.604  1.00  0.00    -0.394 OA
ATOM     37  H   UNL     1       3.917  -6.383  16.780  1.00  0.00     0.210 HD
ENDBRANCH  35  36
ENDBRANCH  29  35
BRANCH  30  38
ATOM     38  O   UNL     1       5.410  -6.197  15.607  1.00  0.00    -0.387 OA
ATOM     39  H   UNL     1       5.045  -5.708  16.391  1.00  0.00     0.211 HD
ENDBRANCH  30  38
ENDBRANCH   1  25
TORSDOF 11
ENDMDL
MODEL 5
REMARK VINA RESULT:    -4.634      1.764      4.675
REMARK INTER + INTRA:          -8.551
REMARK INTER:                  -7.382
REMARK INTRA:                  -1.169
REMARK UNBOUND:                -1.885
REMARK SMILES O=c1c(O[C@@H]2O[C@@H](CO)[C@H](O)[C@H](O)[C@@H]2O)c(-c2ccc(O)cc2)oc2cc(O)cc(O)c12
REMARK SMILES IDX 4 1 3 2 16 3 24 4 2 5 25 6 1 7 32 8 26 9 30 10 27 11 29 12
REMARK SMILES IDX 17 13 18 14 19 15 20 16 23 17 22 18 21 19 31 21 28 23 5 25
REMARK SMILES IDX 14 26 6 27 12 28 7 29 10 30 15 31 13 33 8 35 9 36 11 38
REMARK H PARENT 21 20 31 22 28 24 15 32 13 34 9 37 11 39
REMARK Flexibility Score: inf
ROOT
ATOM      1  O   UNL     1       3.994 -12.492  15.264  1.00  0.00    -0.454 OA
ENDROOT
BRANCH   1   2
ATOM      2  C   UNL     1       4.658 -11.307  14.875  1.00  0.00     0.214 A 
ATOM      3  C   UNL     1       4.593 -10.196  15.737  1.00  0.00     0.180 A 
ATOM      4  O   UNL     1       5.258  -9.085  15.454  1.00  0.00    -0.452 OA
ATOM      5  C   UNL     1       5.404 -11.177  13.680  1.00  0.00     0.239 A 
ATOM      6  C   UNL     1       6.004  -8.937  14.368  1.00  0.00     0.146 A 
ATOM      7  O   UNL     1       5.370 -12.095  12.822  1.00  0.00    -0.285 OA
ATOM      8  C   UNL     1       6.144  -9.994  13.434  1.00  0.00     0.111 A 
ATOM      9  C   UNL     1       6.636  -7.710  14.155  1.00  0.00     0.094 A 
ATOM     10  C   UNL     1       6.988  -9.789  12.300  1.00  0.00     0.134 A 
ATOM     11  C   UNL     1       7.405  -7.500  13.014  1.00  0.00     0.123 A 
ATOM     12  C   UNL     1       7.573  -8.535  12.090  1.00  0.00     0.093 A 
BRANCH   3  13
ATOM     13  C   UNL     1       3.794 -10.227  16.975  1.00  0.00     0.021 A 
ATOM     14  C   UNL     1       2.416  -9.959  16.944  1.00  0.00     0.016 A 
ATOM     15  C   UNL     1       1.669  -9.971  18.126  1.00  0.00     0.047 A 
ATOM     16  C   UNL     1       2.294 -10.233  19.350  1.00  0.00     0.115 A 
ATOM     17  C   UNL     1       4.421 -10.465  18.207  1.00  0.00     0.016 A 
ATOM     18  C   UNL     1       3.674 -10.476  19.389  1.00  0.00     0.047 A 
BRANCH  16  19
ATOM     19  O   UNL     1       1.537 -10.245  20.520  1.00  0.00    -0.508 OA
ATOM     20  H   UNL     1       0.994 -11.056  20.791  1.00  0.00     0.293 HD
ENDBRANCH  16  19
ENDBRANCH   3  13
BRANCH  10  21
ATOM     21  O   UNL     1       7.306 -10.788  11.375  1.00  0.00    -0.507 OA
ATOM     22  H   UNL     1       6.783 -11.642  11.249  1.00  0.00     0.293 HD
ENDBRANCH  10  21
BRANCH  11  23
ATOM     23  O   UNL     1       8.007  -6.260  12.809  1.00  0.00    -0.508 OA
ATOM     24  H   UNL     1       7.458  -5.419  12.681  1.00  0.00     0.293 HD
ENDBRANCH  11  23
ENDBRANCH   1   2
BRANCH   1  25
ATOM     25  C   UNL     1       4.398 -13.395  16.301  1.00  0.00     0.339 C 
ATOM     26  C   UNL     1       3.231 -14.304  16.748  1.00  0.00     0.214 C 
ATOM     27  O   UNL     1       5.528 -14.159  15.914  1.00  0.00    -0.332 OA
ATOM     28  C   UNL     1       2.915 -15.413  15.724  1.00  0.00     0.180 C 
ATOM     29  C   UNL     1       5.244 -14.983  14.796  1.00  0.00     0.179 C 
ATOM     30  C   UNL     1       4.204 -16.062  15.179  1.00  0.00     0.177 C 
BRANCH  26  31
ATOM     31  O   UNL     1       2.079 -13.541  16.998  1.00  0.00    -0.384 OA
ATOM     32  H   UNL     1       1.522 -14.061  17.635  1.00  0.00     0.211 HD
ENDBRANCH  26  31
BRANCH  28  33
ATOM     33  O   UNL     1       2.079 -14.947  14.693  1.00  0.00    -0.387 OA
ATOM     34  H   UNL     1       2.478 -14.122  14.323  1.00  0.00     0.211 HD
ENDBRANCH  28  33
BRANCH  29  35
ATOM     35  C   UNL     1       6.557 -15.628  14.335  1.00  0.00     0.191 C 
BRANCH  35  36
ATOM     36  O   UNL     1       7.639 -14.837  14.744  1.00  0.00    -0.394 OA
ATOM     37  H   UNL     1       7.745 -14.996  15.718  1.00  0.00     0.210 HD
ENDBRANCH  35  36
ENDBRANCH  29  35
BRANCH  30  38
ATOM     38  O   UNL     1       3.885 -16.859  14.064  1.00  0.00    -0.387 OA
ATOM     39  H   UNL     1       3.396 -16.282  13.420  1.00  0.00     0.211 HD
ENDBRANCH  30  38
ENDBRANCH   1  25
TORSDOF 11
ENDMDL
MODEL 6
REMARK VINA RESULT:    -4.583      1.181      1.337
REMARK INTER + INTRA:          -8.478
REMARK INTER:                  -6.490
REMARK INTRA:                  -1.987
REMARK UNBOUND:                -1.885
REMARK SMILES O=c1c(O[C@@H]2O[C@@H](CO)[C@H](O)[C@H](O)[C@@H]2O)c(-c2ccc(O)cc2)oc2cc(O)cc(O)c12
REMARK SMILES IDX 4 1 3 2 16 3 24 4 2 5 25 6 1 7 32 8 26 9 30 10 27 11 29 12
REMARK SMILES IDX 17 13 18 14 19 15 20 16 23 17 22 18 21 19 31 21 28 23 5 25
REMARK SMILES IDX 14 26 6 27 12 28 7 29 10 30 15 31 13 33 8 35 9 36 11 38
REMARK H PARENT 21 20 31 22 28 24 15 32 13 34 9 37 11 39
REMARK Flexibility Score: inf
ROOT
ATOM      1  O   UNL     1       5.198 -12.579  17.105  1.00  0.00    -0.454 OA
ENDROOT
BRANCH   1   2
ATOM      2  C   UNL     1       5.628 -11.951  15.915  1.00  0.00     0.214 A 
ATOM      3  C   UNL     1       5.632 -12.708  14.729  1.00  0.00     0.180 A 
ATOM      4  O   UNL     1       5.957 -12.146  13.573  1.00  0.00    -0.452 OA
ATOM      5  C   UNL     1       6.034 -10.598  15.841  1.00  0.00     0.239 A 
ATOM      6  C   UNL     1       6.301 -10.872  13.452  1.00  0.00     0.146 A 
ATOM      7  O   UNL     1       6.178  -9.932  16.897  1.00  0.00    -0.285 OA
ATOM      8  C   UNL     1       6.326 -10.016  14.582  1.00  0.00     0.111 A 
ATOM      9  C   UNL     1       6.655 -10.394  12.188  1.00  0.00     0.094 A 
ATOM     10  C   UNL     1       6.671  -8.644  14.386  1.00  0.00     0.134 A 
ATOM     11  C   UNL     1       7.051  -9.069  12.020  1.00  0.00     0.123 A 
ATOM     12  C   UNL     1       7.063  -8.204  13.117  1.00  0.00     0.093 A 
BRANCH   3  13
ATOM     13  C   UNL     1       5.276 -14.139  14.726  1.00  0.00     0.021 A 
ATOM     14  C   UNL     1       6.275 -15.125  14.710  1.00  0.00     0.016 A 
ATOM     15  C   UNL     1       5.928 -16.479  14.688  1.00  0.00     0.047 A 
ATOM     16  C   UNL     1       4.583 -16.860  14.663  1.00  0.00     0.115 A 
ATOM     17  C   UNL     1       3.928 -14.524  14.677  1.00  0.00     0.016 A 
ATOM     18  C   UNL     1       3.582 -15.879  14.653  1.00  0.00     0.047 A 
BRANCH  16  19
ATOM     19  O   UNL     1       4.251 -18.213  14.644  1.00  0.00    -0.508 OA
ATOM     20  H   UNL     1       4.290 -18.756  13.789  1.00  0.00     0.293 HD
ENDBRANCH  16  19
ENDBRANCH   3  13
BRANCH  10  21
ATOM     21  O   UNL     1       6.613  -7.674  15.392  1.00  0.00    -0.507 OA
ATOM     22  H   UNL     1       7.063  -6.772  15.345  1.00  0.00     0.293 HD
ENDBRANCH  10  21
BRANCH  11  23
ATOM     23  O   UNL     1       7.423  -8.619  10.755  1.00  0.00    -0.508 OA
ATOM     24  H   UNL     1       7.568  -7.634  10.564  1.00  0.00     0.293 HD
ENDBRANCH  11  23
ENDBRANCH   1   2
BRANCH   1  25
ATOM     25  C   UNL     1       6.023 -12.969  18.211  1.00  0.00     0.339 C 
ATOM     26  C   UNL     1       5.476 -12.423  19.549  1.00  0.00     0.214 C 
ATOM     27  O   UNL     1       6.197 -14.376  18.260  1.00  0.00    -0.332 OA
ATOM     28  C   UNL     1       4.230 -13.188  20.038  1.00  0.00     0.180 C 
ATOM     29  C   UNL     1       4.964 -15.047  18.464  1.00  0.00     0.179 C 
ATOM     30  C   UNL     1       4.399 -14.712  19.864  1.00  0.00     0.177 C 
BRANCH  26  31
ATOM     31  O   UNL     1       5.184 -11.054  19.440  1.00  0.00    -0.384 OA
ATOM     32  H   UNL     1       5.564 -10.613  20.244  1.00  0.00     0.211 HD
ENDBRANCH  26  31
BRANCH  28  33
ATOM     33  O   UNL     1       3.053 -12.713  19.431  1.00  0.00    -0.387 OA
ATOM     34  H   UNL     1       2.459 -12.368  20.141  1.00  0.00     0.211 HD
ENDBRANCH  28  33
BRANCH  29  35
ATOM     35  C   UNL     1       5.213 -16.554  18.319  1.00  0.00     0.191 C 
BRANCH  35  36
ATOM     36  O   UNL     1       4.003 -17.207  18.054  1.00  0.00    -0.394 OA
ATOM     37  H   UNL     1       4.225 -18.171  17.960  1.00  0.00     0.210 HD
ENDBRANCH  35  36
ENDBRANCH  29  35
BRANCH  30  38
ATOM     38  O   UNL     1       3.156 -15.341  20.059  1.00  0.00    -0.387 OA
ATOM     39  H   UNL     1       2.776 -14.987  20.905  1.00  0.00     0.211 HD
ENDBRANCH  30  38
ENDBRANCH   1  25
TORSDOF 11
ENDMDL
MODEL 7
REMARK VINA RESULT:    -4.582      1.972      5.934
REMARK INTER + INTRA:          -8.476
REMARK INTER:                  -7.553
REMARK INTRA:                  -0.922
REMARK UNBOUND:                -1.885
REMARK SMILES O=c1c(O[C@@H]2O[C@@H](CO)[C@H](O)[C@H](O)[C@@H]2O)c(-c2ccc(O)cc2)oc2cc(O)cc(O)c12
REMARK SMILES IDX 4 1 3 2 16 3 24 4 2 5 25 6 1 7 32 8 26 9 30 10 27 11 29 12
REMARK SMILES IDX 17 13 18 14 19 15 20 16 23 17 22 18 21 19 31 21 28 23 5 25
REMARK SMILES IDX 14 26 6 27 12 28 7 29 10 30 15 31 13 33 8 35 9 36 11 38
REMARK H PARENT 21 20 31 22 28 24 15 32 13 34 9 37 11 39
REMARK Flexibility Score: inf
ROOT
ATOM      1  O   UNL     1       3.772 -11.641  15.149  1.00  0.00    -0.454 OA
ENDROOT
BRANCH   1   2
ATOM      2  C   UNL     1       4.509 -12.819  14.898  1.00  0.00     0.214 A 
ATOM      3  C   UNL     1       5.815 -12.690  14.390  1.00  0.00     0.180 A 
ATOM      4  O   UNL     1       6.574 -13.761  14.206  1.00  0.00    -0.452 OA
ATOM      5  C   UNL     1       4.020 -14.123  15.150  1.00  0.00     0.239 A 
ATOM      6  C   UNL     1       6.171 -14.996  14.471  1.00  0.00     0.146 A 
ATOM      7  O   UNL     1       2.816 -14.285  15.469  1.00  0.00    -0.285 OA
ATOM      8  C   UNL     1       4.876 -15.241  14.991  1.00  0.00     0.111 A 
ATOM      9  C   UNL     1       7.046 -16.053  14.209  1.00  0.00     0.094 A 
ATOM     10  C   UNL     1       4.509 -16.589  15.289  1.00  0.00     0.134 A 
ATOM     11  C   UNL     1       6.654 -17.368  14.443  1.00  0.00     0.123 A 
ATOM     12  C   UNL     1       5.389 -17.631  14.976  1.00  0.00     0.093 A 
BRANCH   3  13
ATOM     13  C   UNL     1       6.382 -11.373  14.049  1.00  0.00     0.021 A 
ATOM     14  C   UNL     1       6.024 -10.727  12.855  1.00  0.00     0.016 A 
ATOM     15  C   UNL     1       6.582  -9.487  12.530  1.00  0.00     0.047 A 
ATOM     16  C   UNL     1       7.516  -8.891  13.384  1.00  0.00     0.115 A 
ATOM     17  C   UNL     1       7.337 -10.784  14.891  1.00  0.00     0.016 A 
ATOM     18  C   UNL     1       7.896  -9.544  14.564  1.00  0.00     0.047 A 
BRANCH  16  19
ATOM     19  O   UNL     1       8.062  -7.653  13.049  1.00  0.00    -0.508 OA
ATOM     20  H   UNL     1       7.809  -7.178  12.191  1.00  0.00     0.293 HD
ENDBRANCH  16  19
ENDBRANCH   3  13
BRANCH  10  21
ATOM     21  O   UNL     1       3.314 -16.950  15.918  1.00  0.00    -0.507 OA
ATOM     22  H   UNL     1       2.757 -17.755  15.672  1.00  0.00     0.293 HD
ENDBRANCH  10  21
BRANCH  11  23
ATOM     23  O   UNL     1       7.533 -18.410  14.153  1.00  0.00    -0.508 OA
ATOM     24  H   UNL     1       7.234 -19.225  13.630  1.00  0.00     0.293 HD
ENDBRANCH  11  23
ENDBRANCH   1   2
BRANCH   1  25
ATOM     25  C   UNL     1       4.168 -10.547  15.987  1.00  0.00     0.339 C 
ATOM     26  C   UNL     1       3.335  -9.279  15.700  1.00  0.00     0.214 C 
ATOM     27  O   UNL     1       4.117 -10.899  17.360  1.00  0.00    -0.332 OA
ATOM     28  C   UNL     1       1.903  -9.367  16.268  1.00  0.00     0.180 C 
ATOM     29  C   UNL     1       2.797 -11.217  17.768  1.00  0.00     0.179 C 
ATOM     30  C   UNL     1       1.897  -9.961  17.692  1.00  0.00     0.177 C 
BRANCH  26  31
ATOM     31  O   UNL     1       3.286  -9.022  14.320  1.00  0.00    -0.384 OA
ATOM     32  H   UNL     1       3.239  -9.904  13.865  1.00  0.00     0.211 HD
ENDBRANCH  26  31
BRANCH  28  33
ATOM     33  O   UNL     1       1.040 -10.061  15.400  1.00  0.00    -0.387 OA
ATOM     34  H   UNL     1       1.031 -11.011  15.671  1.00  0.00     0.211 HD
ENDBRANCH  28  33
BRANCH  29  35
ATOM     35  C   UNL     1       2.860 -11.760  19.201  1.00  0.00     0.191 C 
BRANCH  35  36
ATOM     36  O   UNL     1       1.722 -12.534  19.462  1.00  0.00    -0.394 OA
ATOM     37  H   UNL     1       1.122 -12.415  18.680  1.00  0.00     0.210 HD
ENDBRANCH  35  36
ENDBRANCH  29  35
BRANCH  30  38
ATOM     38  O   UNL     1       0.575 -10.278  18.055  1.00  0.00    -0.387 OA
ATOM     39  H   UNL     1       0.328 -11.109  17.571  1.00  0.00     0.211 HD
ENDBRANCH  30  38
ENDBRANCH   1  25
TORSDOF 11
ENDMDL
MODEL 8
REMARK VINA RESULT:    -4.525      1.959      6.368
REMARK INTER + INTRA:          -8.394
REMARK INTER:                  -6.467
REMARK INTRA:                  -1.927
REMARK UNBOUND:                -1.885
REMARK SMILES O=c1c(O[C@@H]2O[C@@H](CO)[C@H](O)[C@H](O)[C@@H]2O)c(-c2ccc(O)cc2)oc2cc(O)cc(O)c12
REMARK SMILES IDX 4 1 3 2 16 3 24 4 2 5 25 6 1 7 32 8 26 9 30 10 27 11 29 12
REMARK SMILES IDX 17 13 18 14 19 15 20 16 23 17 22 18 21 19 31 21 28 23 5 25
REMARK SMILES IDX 14 26 6 27 12 28 7 29 10 30 15 31 13 33 8 35 9 36 11 38
REMARK H PARENT 21 20 31 22 28 24 15 32 13 34 9 37 11 39
REMARK Flexibility Score: inf
ROOT
ATOM      1  O   UNL     1       4.482 -12.146  16.286  1.00  0.00    -0.454 OA
ENDROOT
BRANCH   1   2
ATOM      2  C   UNL     1       5.004 -13.295  15.651  1.00  0.00     0.214 A 
ATOM      3  C   UNL     1       6.024 -13.121  14.698  1.00  0.00     0.180 A 
ATOM      4  O   UNL     1       6.598 -14.171  14.127  1.00  0.00    -0.452 OA
ATOM      5  C   UNL     1       4.577 -14.614  15.933  1.00  0.00     0.239 A 
ATOM      6  C   UNL     1       6.258 -15.424  14.395  1.00  0.00     0.146 A 
ATOM      7  O   UNL     1       3.576 -14.800  16.670  1.00  0.00    -0.285 OA
ATOM      8  C   UNL     1       5.245 -15.715  15.343  1.00  0.00     0.111 A 
ATOM      9  C   UNL     1       6.909 -16.452  13.709  1.00  0.00     0.094 A 
ATOM     10  C   UNL     1       4.946 -17.084  15.616  1.00  0.00     0.134 A 
ATOM     11  C   UNL     1       6.564 -17.781  13.938  1.00  0.00     0.123 A 
ATOM     12  C   UNL     1       5.583 -18.092  14.883  1.00  0.00     0.093 A 
BRANCH   3  13
ATOM     13  C   UNL     1       6.492 -11.779  14.305  1.00  0.00     0.021 A 
ATOM     14  C   UNL     1       5.975 -11.148  13.162  1.00  0.00     0.016 A 
ATOM     15  C   UNL     1       6.438  -9.884  12.785  1.00  0.00     0.047 A 
ATOM     16  C   UNL     1       7.432  -9.247  13.535  1.00  0.00     0.115 A 
ATOM     17  C   UNL     1       7.505 -11.148  15.041  1.00  0.00     0.016 A 
ATOM     18  C   UNL     1       7.969  -9.884  14.663  1.00  0.00     0.047 A 
BRANCH  16  19
ATOM     19  O   UNL     1       7.882  -7.985  13.151  1.00  0.00    -0.508 OA
ATOM     20  H   UNL     1       7.537  -7.533  12.313  1.00  0.00     0.293 HD
ENDBRANCH  16  19
ENDBRANCH   3  13
BRANCH  10  21
ATOM     21  O   UNL     1       4.060 -17.504  16.613  1.00  0.00    -0.507 OA
ATOM     22  H   UNL     1       4.233 -18.270  17.248  1.00  0.00     0.293 HD
ENDBRANCH  10  21
BRANCH  11  23
ATOM     23  O   UNL     1       7.209 -18.791  13.225  1.00  0.00    -0.508 OA
ATOM     24  H   UNL     1       6.704 -19.397  12.590  1.00  0.00     0.293 HD
ENDBRANCH  11  23
ENDBRANCH   1   2
BRANCH   1  25
ATOM     25  C   UNL     1       3.223 -11.517  16.013  1.00  0.00     0.339 C 
ATOM     26  C   UNL     1       2.392 -11.326  17.301  1.00  0.00     0.214 C 
ATOM     27  O   UNL     1       3.393 -10.291  15.321  1.00  0.00    -0.332 OA
ATOM     28  C   UNL     1       2.923 -10.179  18.186  1.00  0.00     0.180 C 
ATOM     29  C   UNL     1       4.115  -9.350  16.097  1.00  0.00     0.179 C 
ATOM     30  C   UNL     1       3.293  -8.941  17.342  1.00  0.00     0.177 C 
BRANCH  26  31
ATOM     31  O   UNL     1       2.348 -12.518  18.042  1.00  0.00    -0.384 OA
ATOM     32  H   UNL     1       1.577 -12.443  18.662  1.00  0.00     0.211 HD
ENDBRANCH  26  31
BRANCH  28  33
ATOM     33  O   UNL     1       3.986 -10.600  19.004  1.00  0.00    -0.387 OA
ATOM     34  H   UNL     1       4.081  -9.951  19.743  1.00  0.00     0.211 HD
ENDBRANCH  28  33
BRANCH  29  35
ATOM     35  C   UNL     1       4.411  -8.132  15.212  1.00  0.00     0.191 C 
BRANCH  35  36
ATOM     36  O   UNL     1       3.411  -7.167  15.390  1.00  0.00    -0.394 OA
ATOM     37  H   UNL     1       2.550  -7.627  15.209  1.00  0.00     0.210 HD
ENDBRANCH  35  36
ENDBRANCH  29  35
BRANCH  30  38
ATOM     38  O   UNL     1       4.020  -8.038  18.139  1.00  0.00    -0.387 OA
ATOM     39  H   UNL     1       4.283  -7.278  17.558  1.00  0.00     0.211 HD
ENDBRANCH  30  38
ENDBRANCH   1  25
TORSDOF 11
ENDMDL
MODEL 9
REMARK VINA RESULT:    -4.505      2.334      6.776
REMARK INTER + INTRA:          -8.364
REMARK INTER:                  -6.723
REMARK INTRA:                  -1.642
REMARK UNBOUND:                -1.885
REMARK SMILES O=c1c(O[C@@H]2O[C@@H](CO)[C@H](O)[C@H](O)[C@@H]2O)c(-c2ccc(O)cc2)oc2cc(O)cc(O)c12
REMARK SMILES IDX 4 1 3 2 16 3 24 4 2 5 25 6 1 7 32 8 26 9 30 10 27 11 29 12
REMARK SMILES IDX 17 13 18 14 19 15 20 16 23 17 22 18 21 19 31 21 28 23 5 25
REMARK SMILES IDX 14 26 6 27 12 28 7 29 10 30 15 31 13 33 8 35 9 36 11 38
REMARK H PARENT 21 20 31 22 28 24 15 32 13 34 9 37 11 39
REMARK Flexibility Score: inf
ROOT
ATOM      1  O   UNL     1       5.029 -13.107  15.577  1.00  0.00    -0.454 OA
ENDROOT
BRANCH   1   2
ATOM      2  C   UNL     1       5.417 -14.453  15.756  1.00  0.00     0.214 A 
ATOM      3  C   UNL     1       4.971 -15.125  16.909  1.00  0.00     0.180 A 
ATOM      4  O   UNL     1       5.247 -16.409  17.089  1.00  0.00    -0.452 OA
ATOM      5  C   UNL     1       6.210 -15.174  14.833  1.00  0.00     0.239 A 
ATOM      6  C   UNL     1       5.949 -17.132  16.228  1.00  0.00     0.146 A 
ATOM      7  O   UNL     1       6.742 -14.572  13.866  1.00  0.00    -0.285 OA
ATOM      8  C   UNL     1       6.443 -16.557  15.030  1.00  0.00     0.111 A 
ATOM      9  C   UNL     1       6.205 -18.470  16.536  1.00  0.00     0.094 A 
ATOM     10  C   UNL     1       7.163 -17.394  14.124  1.00  0.00     0.134 A 
ATOM     11  C   UNL     1       6.963 -19.259  15.674  1.00  0.00     0.123 A 
ATOM     12  C   UNL     1       7.443 -18.719  14.478  1.00  0.00     0.093 A 
BRANCH   3  13
ATOM     13  C   UNL     1       4.186 -14.434  17.948  1.00  0.00     0.021 A 
ATOM     14  C   UNL     1       2.830 -14.134  17.740  1.00  0.00     0.016 A 
ATOM     15  C   UNL     1       2.098 -13.461  18.723  1.00  0.00     0.047 A 
ATOM     16  C   UNL     1       2.718 -13.066  19.914  1.00  0.00     0.115 A 
ATOM     17  C   UNL     1       4.810 -14.015  19.133  1.00  0.00     0.016 A 
ATOM     18  C   UNL     1       4.077 -13.340  20.115  1.00  0.00     0.047 A 
BRANCH  16  19
ATOM     19  O   UNL     1       1.976 -12.399  20.886  1.00  0.00    -0.508 OA
ATOM     20  H   UNL     1       1.650 -12.872  21.721  1.00  0.00     0.293 HD
ENDBRANCH  16  19
ENDBRANCH   3  13
BRANCH  10  21
ATOM     21  O   UNL     1       7.594 -16.983  12.859  1.00  0.00    -0.507 OA
ATOM     22  H   UNL     1       7.403 -16.079  12.454  1.00  0.00     0.293 HD
ENDBRANCH  10  21
BRANCH  11  23
ATOM     23  O   UNL     1       7.228 -20.586  16.011  1.00  0.00    -0.508 OA
ATOM     24  H   UNL     1       6.516 -21.183  16.415  1.00  0.00     0.293 HD
ENDBRANCH  11  23
ENDBRANCH   1   2
BRANCH   1  25
ATOM     25  C   UNL     1       5.615 -11.958  16.204  1.00  0.00     0.339 C 
ATOM     26  C   UNL     1       6.335 -11.056  15.178  1.00  0.00     0.214 C 
ATOM     27  O   UNL     1       4.656 -11.228  16.951  1.00  0.00    -0.332 OA
ATOM     28  C   UNL     1       5.353 -10.244  14.308  1.00  0.00     0.180 C 
ATOM     29  C   UNL     1       3.630 -10.711  16.120  1.00  0.00     0.179 C 
ATOM     30  C   UNL     1       4.208  -9.650  15.154  1.00  0.00     0.177 C 
BRANCH  26  31
ATOM     31  O   UNL     1       7.181 -11.820  14.357  1.00  0.00    -0.384 OA
ATOM     32  H   UNL     1       7.122 -11.434  13.444  1.00  0.00     0.211 HD
ENDBRANCH  26  31
BRANCH  28  33
ATOM     33  O   UNL     1       4.874 -10.997  13.221  1.00  0.00    -0.387 OA
ATOM     34  H   UNL     1       5.511 -11.733  13.053  1.00  0.00     0.211 HD
ENDBRANCH  28  33
BRANCH  29  35
ATOM     35  C   UNL     1       2.550 -10.101  17.021  1.00  0.00     0.191 C 
BRANCH  35  36
ATOM     36  O   UNL     1       1.319 -10.106  16.351  1.00  0.00    -0.394 OA
ATOM     37  H   UNL     1       1.330  -9.318  15.748  1.00  0.00     0.210 HD
ENDBRANCH  35  36
ENDBRANCH  29  35
BRANCH  30  38
ATOM     38  O   UNL     1       3.204  -9.162  14.297  1.00  0.00    -0.387 OA
ATOM     39  H   UNL     1       3.435  -8.222  14.078  1.00  0.00     0.211 HD
ENDBRANCH  30  38
ENDBRANCH   1  25
TORSDOF 11
ENDMDL
