MODEL 1
REMARK VINA RESULT:   173.477      0.000      0.000
REMARK INTER + INTRA:         189.260
REMARK INTER:                 188.689
REMARK INTRA:                   0.572
REMARK UNBOUND:                 0.572
REMARK SMILES C[C@H]1[C@H](C)CC[C@@]2(C(=O)[O-])CC[C@@]3(C)C(=CC[C@H]4[C@]5(C)CC[C@H](O)C(C)(C)[C@H]5CC[C@]43C)[C@@H]12
REMARK SMILES IDX 7 1 6 2 11 3 33 4 5 5 12 6 15 7 2 8 3 9 13 10 16 11 1 12
REMARK SMILES IDX 4 13 14 14 31 15 17 16 18 17 30 18 32 19 19 20 29 21 28 22
REMARK SMILES IDX 21 23 20 24 25 25 22 26 23 27 26 28 27 29 8 30 9 31 10 32
REMARK SMILES IDX 24 33
REMARK H PARENT 24 34
REMARK Flexibility Score: inf
ROOT
ATOM      1  C   UNL     1     -14.996  -0.762   7.145  1.00  0.00     0.017 C 
ATOM      2  C   UNL     1     -16.313  -1.261   6.486  1.00  0.00     0.014 C 
ATOM      3  C   UNL     1     -15.104  -0.842   8.681  1.00  0.00     0.014 C 
ATOM      4  C   UNL     1     -13.740  -1.586   6.679  1.00  0.00     0.030 C 
ATOM      5  C   UNL     1     -16.466  -2.780   6.462  1.00  0.00     0.004 C 
ATOM      6  C   UNL     1     -13.902  -0.186   9.370  1.00  0.00     0.013 C 
ATOM      7  C   UNL     1     -12.480  -1.282   7.514  1.00  0.00    -0.063 C 
ATOM      8  C   UNL     1     -13.948  -3.129   6.424  1.00  0.00    -0.003 C 
ATOM      9  C   UNL     1     -15.298  -3.457   5.735  1.00  0.00    -0.011 C 
ATOM     10  C   UNL     1     -12.498  -0.764   8.965  1.00  0.00    -0.006 C 
ATOM     11  C   UNL     1     -11.294  -1.529   6.933  1.00  0.00    -0.027 C 
ATOM     12  C   UNL     1     -13.731  -4.046   7.641  1.00  0.00     0.008 C 
ATOM     13  C   UNL     1     -15.272  -3.126   4.231  1.00  0.00     0.008 C 
ATOM     14  C   UNL     1     -12.234  -2.006   9.878  1.00  0.00     0.017 C 
ATOM     15  C   UNL     1     -11.339   0.341   9.168  1.00  0.00    -0.020 C 
ATOM     16  C   UNL     1      -9.979  -1.004   7.427  1.00  0.00     0.032 C 
ATOM     17  C   UNL     1      -9.920  -0.296   8.829  1.00  0.00     0.006 C 
ATOM     18  C   UNL     1     -11.538   1.572   8.194  1.00  0.00     0.008 C 
ATOM     19  C   UNL     1     -11.410   0.854  10.662  1.00  0.00     0.012 C 
ATOM     20  C   UNL     1      -8.652   0.719   8.964  1.00  0.00    -0.025 C 
ATOM     21  C   UNL     1     -10.258   2.398   7.873  1.00  0.00     0.005 C 
ATOM     22  C   UNL     1      -9.155   2.210   8.936  1.00  0.00     0.003 C 
ATOM     23  C   UNL     1      -7.871   0.482  10.313  1.00  0.00     0.010 C 
ATOM     24  C   UNL     1      -7.603   0.460   7.827  1.00  0.00     0.012 C 
ATOM     25  C   UNL     1      -8.046   3.337   9.045  1.00  0.00    -0.006 C 
ATOM     26  C   UNL     1      -7.327   1.769  10.984  1.00  0.00     0.033 C 
ATOM     27  C   UNL     1      -6.866   2.843   9.976  1.00  0.00     0.120 C 
ATOM     28  C   UNL     1      -7.485   3.755   7.663  1.00  0.00     0.014 C 
ATOM     29  C   UNL     1      -8.692   4.615   9.666  1.00  0.00     0.014 C 
ENDROOT
BRANCH   1  30
ATOM     30  C   UNL     1     -14.882   0.711   6.736  1.00  0.00     0.048 C 
ATOM     31  O   UNL     1     -15.001   1.070   5.534  1.00  0.00    -0.550 OA
ATOM     32  O   UNL     1     -14.757   1.694   7.712  1.00  0.00    -0.550 OA
ENDBRANCH   1  30
BRANCH  27  33
ATOM     33  O   UNL     1      -6.290   3.905  10.698  1.00  0.00    -0.393 OA
ATOM     34  H   UNL     1      -5.324   3.922  10.470  1.00  0.00     0.210 HD
ENDBRANCH  27  33
TORSDOF 2
ENDMDL
MODEL 2
REMARK VINA RESULT:   175.658      9.499     11.987
REMARK INTER + INTRA:         191.633
REMARK INTER:                 191.353
REMARK INTRA:                   0.280
REMARK UNBOUND:                 0.572
REMARK SMILES C[C@H]1[C@H](C)CC[C@@]2(C(=O)[O-])CC[C@@]3(C)C(=CC[C@H]4[C@]5(C)CC[C@H](O)C(C)(C)[C@H]5CC[C@]43C)[C@@H]12
REMARK SMILES IDX 7 1 6 2 11 3 33 4 5 5 12 6 15 7 2 8 3 9 13 10 16 11 1 12
REMARK SMILES IDX 4 13 14 14 31 15 17 16 18 17 30 18 32 19 19 20 29 21 28 22
REMARK SMILES IDX 21 23 20 24 25 25 22 26 23 27 26 28 27 29 8 30 9 31 10 32
REMARK SMILES IDX 24 33
REMARK H PARENT 24 34
REMARK Flexibility Score: inf
ROOT
ATOM      1  C   UNL     1      -3.741  -1.220   0.702  1.00  0.00     0.017 C 
ATOM      2  C   UNL     1      -3.229  -2.687   0.766  1.00  0.00     0.014 C 
ATOM      3  C   UNL     1      -2.728  -0.272   1.376  1.00  0.00     0.014 C 
ATOM      4  C   UNL     1      -3.992  -0.733  -0.772  1.00  0.00     0.030 C 
ATOM      5  C   UNL     1      -2.142  -3.016  -0.254  1.00  0.00     0.004 C 
ATOM      6  C   UNL     1      -3.280   1.153   1.501  1.00  0.00     0.013 C 
ATOM      7  C   UNL     1      -4.241   0.785  -0.868  1.00  0.00    -0.063 C 
ATOM      8  C   UNL     1      -3.001  -1.262  -1.881  1.00  0.00    -0.003 C 
ATOM      9  C   UNL     1      -2.611  -2.750  -1.690  1.00  0.00    -0.011 C 
ATOM     10  C   UNL     1      -3.725   1.822   0.150  1.00  0.00    -0.006 C 
ATOM     11  C   UNL     1      -4.924   1.221  -1.940  1.00  0.00    -0.027 C 
ATOM     12  C   UNL     1      -1.746  -0.405  -2.124  1.00  0.00     0.008 C 
ATOM     13  C   UNL     1      -3.740  -3.702  -2.125  1.00  0.00     0.008 C 
ATOM     14  C   UNL     1      -2.449   2.463  -0.486  1.00  0.00     0.017 C 
ATOM     15  C   UNL     1      -4.853   2.946   0.408  1.00  0.00    -0.020 C 
ATOM     16  C   UNL     1      -5.550   2.579  -2.056  1.00  0.00     0.032 C 
ATOM     17  C   UNL     1      -5.226   3.662  -0.964  1.00  0.00     0.006 C 
ATOM     18  C   UNL     1      -6.186   2.309   0.973  1.00  0.00     0.008 C 
ATOM     19  C   UNL     1      -4.286   3.972   1.469  1.00  0.00     0.012 C 
ATOM     20  C   UNL     1      -6.379   4.809  -0.860  1.00  0.00    -0.025 C 
ATOM     21  C   UNL     1      -7.487   3.131   0.736  1.00  0.00     0.005 C 
ATOM     22  C   UNL     1      -7.198   4.624   0.472  1.00  0.00     0.003 C 
ATOM     23  C   UNL     1      -5.751   6.255  -0.861  1.00  0.00     0.010 C 
ATOM     24  C   UNL     1      -7.326   4.768  -2.110  1.00  0.00     0.012 C 
ATOM     25  C   UNL     1      -8.376   5.652   0.731  1.00  0.00    -0.006 C 
ATOM     26  C   UNL     1      -6.462   7.274   0.064  1.00  0.00     0.033 C 
ATOM     27  C   UNL     1      -7.990   7.071   0.147  1.00  0.00     0.120 C 
ATOM     28  C   UNL     1      -9.721   5.182   0.123  1.00  0.00     0.014 C 
ATOM     29  C   UNL     1      -8.603   5.774   2.270  1.00  0.00     0.014 C 
ENDROOT
BRANCH   1  30
ATOM     30  C   UNL     1      -5.037  -1.217   1.521  1.00  0.00     0.048 C 
ATOM     31  O   UNL     1      -5.122  -0.595   2.614  1.00  0.00    -0.550 OA
ATOM     32  O   UNL     1      -6.184  -1.815   1.007  1.00  0.00    -0.550 OA
ENDBRANCH   1  30
BRANCH  27  33
ATOM     33  O   UNL     1      -8.532   8.118   0.916  1.00  0.00    -0.393 OA
ATOM     34  H   UNL     1      -9.142   8.630   0.323  1.00  0.00     0.210 HD
ENDBRANCH  27  33
TORSDOF 2
ENDMDL
