MODEL 1
REMARK VINA RESULT:    22.162      0.000      0.000
REMARK INTER + INTRA:          23.878
REMARK INTER:                  24.106
REMARK INTRA:                  -0.228
REMARK UNBOUND:                -0.228
REMARK SMILES C[C@H]1[C@@H](C)CC[C@@]2(C(=O)[O-])CC[C@]3(C)C(=CC[C@H]4[C@@]5(C)CC[C@@H](O)C(C)(C)[C@H]5CC[C@@]43C)[C@@H]12
REMARK SMILES IDX 7 1 6 2 11 3 33 4 5 5 12 6 15 7 2 8 3 9 13 10 16 11 1 12
REMARK SMILES IDX 4 13 14 14 31 15 17 16 18 17 30 18 32 19 19 20 29 21 28 22
REMARK SMILES IDX 21 23 20 24 25 25 22 26 23 27 26 28 27 29 8 30 9 31 10 32
REMARK SMILES IDX 24 33
REMARK H PARENT 24 34
REMARK Flexibility Score: inf
ROOT
ATOM      1  C   UNL     1     155.600 156.976 156.098  1.00  0.00     0.017 C 
ATOM      2  C   UNL     1     155.681 158.083 157.202  1.00  0.00     0.014 C 
ATOM      3  C   UNL     1     156.699 157.313 155.031  1.00  0.00     0.014 C 
ATOM      4  C   UNL     1     155.703 155.506 156.763  1.00  0.00     0.030 C 
ATOM      5  C   UNL     1     154.578 157.969 158.272  1.00  0.00     0.004 C 
ATOM      6  C   UNL     1     157.968 156.457 155.072  1.00  0.00     0.013 C 
ATOM      7  C   UNL     1     156.966 154.675 156.411  1.00  0.00    -0.063 C 
ATOM      8  C   UNL     1     155.365 155.539 158.309  1.00  0.00    -0.003 C 
ATOM      9  C   UNL     1     154.187 156.509 158.577  1.00  0.00    -0.011 C 
ATOM     10  C   UNL     1     157.703 154.922 155.084  1.00  0.00    -0.006 C 
ATOM     11  C   UNL     1     157.344 153.663 157.230  1.00  0.00    -0.027 C 
ATOM     12  C   UNL     1     156.592 155.837 159.224  1.00  0.00     0.008 C 
ATOM     13  C   UNL     1     153.610 156.365 159.999  1.00  0.00     0.008 C 
ATOM     14  C   UNL     1     156.722 154.574 153.916  1.00  0.00     0.017 C 
ATOM     15  C   UNL     1     159.079 154.049 154.942  1.00  0.00    -0.020 C 
ATOM     16  C   UNL     1     158.712 153.049 157.229  1.00  0.00     0.032 C 
ATOM     17  C   UNL     1     159.710 153.837 156.350  1.00  0.00     0.006 C 
ATOM     18  C   UNL     1     160.140 154.800 154.089  1.00  0.00     0.008 C 
ATOM     19  C   UNL     1     158.786 152.659 154.279  1.00  0.00     0.012 C 
ATOM     20  C   UNL     1     161.238 153.320 156.471  1.00  0.00    -0.025 C 
ATOM     21  C   UNL     1     161.408 153.993 153.884  1.00  0.00     0.005 C 
ATOM     22  C   UNL     1     162.163 153.672 155.207  1.00  0.00     0.003 C 
ATOM     23  C   UNL     1     161.325 151.790 156.765  1.00  0.00     0.010 C 
ATOM     24  C   UNL     1     161.794 154.063 157.735  1.00  0.00     0.012 C 
ATOM     25  C   UNL     1     163.399 152.682 154.937  1.00  0.00    -0.006 C 
ATOM     26  C   UNL     1     162.748 151.240 156.984  1.00  0.00     0.033 C 
ATOM     27  C   UNL     1     163.874 152.000 156.253  1.00  0.00     0.120 C 
ATOM     28  C   UNL     1     163.092 151.578 153.878  1.00  0.00     0.014 C 
ATOM     29  C   UNL     1     164.589 153.514 154.386  1.00  0.00     0.014 C 
ENDROOT
BRANCH   1  30
ATOM     30  C   UNL     1     154.250 157.168 155.389  1.00  0.00     0.048 C 
ATOM     31  O   UNL     1     153.560 156.186 155.005  1.00  0.00    -0.550 OA
ATOM     32  O   UNL     1     153.817 158.451 155.058  1.00  0.00    -0.550 OA
ENDBRANCH   1  30
BRANCH  27  33
ATOM     33  O   UNL     1     164.946 151.119 156.007  1.00  0.00    -0.393 OA
ATOM     34  H   UNL     1     165.508 151.106 156.826  1.00  0.00     0.210 HD
ENDBRANCH  27  33
TORSDOF 2
ENDMDL
MODEL 2
REMARK VINA RESULT:    22.866      1.843      3.600
REMARK INTER + INTRA:          24.644
REMARK INTER:                  24.548
REMARK INTRA:                   0.095
REMARK UNBOUND:                -0.228
REMARK SMILES C[C@H]1[C@@H](C)CC[C@@]2(C(=O)[O-])CC[C@]3(C)C(=CC[C@H]4[C@@]5(C)CC[C@@H](O)C(C)(C)[C@H]5CC[C@@]43C)[C@@H]12
REMARK SMILES IDX 7 1 6 2 11 3 33 4 5 5 12 6 15 7 2 8 3 9 13 10 16 11 1 12
REMARK SMILES IDX 4 13 14 14 31 15 17 16 18 17 30 18 32 19 19 20 29 21 28 22
REMARK SMILES IDX 21 23 20 24 25 25 22 26 23 27 26 28 27 29 8 30 9 31 10 32
REMARK SMILES IDX 24 33
REMARK H PARENT 24 34
REMARK Flexibility Score: inf
ROOT
ATOM      1  C   UNL     1     153.846 157.178 155.257  1.00  0.00     0.017 C 
ATOM      2  C   UNL     1     153.567 157.858 153.875  1.00  0.00     0.014 C 
ATOM      3  C   UNL     1     154.077 155.653 154.979  1.00  0.00     0.014 C 
ATOM      4  C   UNL     1     155.048 157.936 156.028  1.00  0.00     0.030 C 
ATOM      5  C   UNL     1     153.195 159.350 153.984  1.00  0.00     0.004 C 
ATOM      6  C   UNL     1     155.529 155.168 155.026  1.00  0.00     0.013 C 
ATOM      7  C   UNL     1     156.354 157.124 156.238  1.00  0.00    -0.063 C 
ATOM      8  C   UNL     1     155.283 159.393 155.456  1.00  0.00    -0.003 C 
ATOM      9  C   UNL     1     153.924 160.067 155.139  1.00  0.00    -0.011 C 
ATOM     10  C   UNL     1     156.300 155.588 156.313  1.00  0.00    -0.006 C 
ATOM     11  C   UNL     1     157.517 157.782 156.463  1.00  0.00    -0.027 C 
ATOM     12  C   UNL     1     156.266 159.454 154.248  1.00  0.00     0.008 C 
ATOM     13  C   UNL     1     154.059 161.578 154.870  1.00  0.00     0.008 C 
ATOM     14  C   UNL     1     155.443 155.196 157.561  1.00  0.00     0.017 C 
ATOM     15  C   UNL     1     157.781 154.898 156.407  1.00  0.00    -0.020 C 
ATOM     16  C   UNL     1     158.875 157.168 156.300  1.00  0.00     0.032 C 
ATOM     17  C   UNL     1     158.815 155.773 155.638  1.00  0.00     0.006 C 
ATOM     18  C   UNL     1     157.796 153.497 155.733  1.00  0.00     0.008 C 
ATOM     19  C   UNL     1     158.225 154.746 157.903  1.00  0.00     0.012 C 
ATOM     20  C   UNL     1     160.265 155.158 155.272  1.00  0.00    -0.025 C 
ATOM     21  C   UNL     1     159.137 152.800 155.856  1.00  0.00     0.005 C 
ATOM     22  C   UNL     1     160.300 153.558 155.152  1.00  0.00     0.003 C 
ATOM     23  C   UNL     1     161.375 155.626 156.265  1.00  0.00     0.010 C 
ATOM     24  C   UNL     1     160.604 155.784 153.875  1.00  0.00     0.012 C 
ATOM     25  C   UNL     1     161.712 152.856 155.458  1.00  0.00    -0.006 C 
ATOM     26  C   UNL     1     162.804 155.154 155.927  1.00  0.00     0.033 C 
ATOM     27  C   UNL     1     162.898 153.819 155.161  1.00  0.00     0.120 C 
ATOM     28  C   UNL     1     161.841 152.332 156.922  1.00  0.00     0.014 C 
ATOM     29  C   UNL     1     161.865 151.624 154.525  1.00  0.00     0.014 C 
ENDROOT
BRANCH   1  30
ATOM     30  C   UNL     1     152.535 157.268 156.056  1.00  0.00     0.048 C 
ATOM     31  O   UNL     1     152.499 157.028 157.293  1.00  0.00    -0.550 OA
ATOM     32  O   UNL     1     151.334 157.510 155.393  1.00  0.00    -0.550 OA
ENDBRANCH   1  30
BRANCH  27  33
ATOM     33  O   UNL     1     164.132 153.204 155.449  1.00  0.00    -0.393 OA
ATOM     34  H   UNL     1     164.754 153.432 154.708  1.00  0.00     0.210 HD
ENDBRANCH  27  33
TORSDOF 2
ENDMDL
MODEL 3
REMARK VINA RESULT:    23.068      1.855      8.428
REMARK INTER + INTRA:          24.863
REMARK INTER:                  25.044
REMARK INTRA:                  -0.181
REMARK UNBOUND:                -0.228
REMARK SMILES C[C@H]1[C@@H](C)CC[C@@]2(C(=O)[O-])CC[C@]3(C)C(=CC[C@H]4[C@@]5(C)CC[C@@H](O)C(C)(C)[C@H]5CC[C@@]43C)[C@@H]12
REMARK SMILES IDX 7 1 6 2 11 3 33 4 5 5 12 6 15 7 2 8 3 9 13 10 16 11 1 12
REMARK SMILES IDX 4 13 14 14 31 15 17 16 18 17 30 18 32 19 19 20 29 21 28 22
REMARK SMILES IDX 21 23 20 24 25 25 22 26 23 27 26 28 27 29 8 30 9 31 10 32
REMARK SMILES IDX 24 33
REMARK H PARENT 24 34
REMARK Flexibility Score: inf
ROOT
ATOM      1  C   UNL     1     161.173 153.998 156.281  1.00  0.00     0.017 C 
ATOM      2  C   UNL     1     162.106 154.854 157.201  1.00  0.00     0.014 C 
ATOM      3  C   UNL     1     159.939 153.572 157.149  1.00  0.00     0.014 C 
ATOM      4  C   UNL     1     160.824 154.802 154.923  1.00  0.00     0.030 C 
ATOM      5  C   UNL     1     163.436 155.253 156.531  1.00  0.00     0.004 C 
ATOM      6  C   UNL     1     158.635 154.333 156.893  1.00  0.00     0.013 C 
ATOM      7  C   UNL     1     159.342 155.218 154.728  1.00  0.00    -0.063 C 
ATOM      8  C   UNL     1     161.860 155.969 154.652  1.00  0.00    -0.003 C 
ATOM      9  C   UNL     1     163.293 155.505 155.017  1.00  0.00    -0.011 C 
ATOM     10  C   UNL     1     158.221 154.403 155.394  1.00  0.00    -0.006 C 
ATOM     11  C   UNL     1     159.042 156.235 153.882  1.00  0.00    -0.027 C 
ATOM     12  C   UNL     1     161.489 157.322 155.331  1.00  0.00     0.008 C 
ATOM     13  C   UNL     1     164.378 156.468 154.500  1.00  0.00     0.008 C 
ATOM     14  C   UNL     1     158.257 152.957 154.797  1.00  0.00     0.017 C 
ATOM     15  C   UNL     1     156.737 155.060 155.185  1.00  0.00    -0.020 C 
ATOM     16  C   UNL     1     157.740 156.978 153.890  1.00  0.00     0.032 C 
ATOM     17  C   UNL     1     156.860 156.611 155.106  1.00  0.00     0.006 C 
ATOM     18  C   UNL     1     155.806 154.750 156.391  1.00  0.00     0.008 C 
ATOM     19  C   UNL     1     156.070 154.515 153.876  1.00  0.00     0.012 C 
ATOM     20  C   UNL     1     155.535 157.526 155.255  1.00  0.00    -0.025 C 
ATOM     21  C   UNL     1     154.402 155.292 156.204  1.00  0.00     0.005 C 
ATOM     22  C   UNL     1     154.344 156.843 156.087  1.00  0.00     0.003 C 
ATOM     23  C   UNL     1     154.991 158.010 153.875  1.00  0.00     0.010 C 
ATOM     24  C   UNL     1     156.033 158.798 156.025  1.00  0.00     0.012 C 
ATOM     25  C   UNL     1     152.857 157.336 155.729  1.00  0.00    -0.006 C 
ATOM     26  C   UNL     1     153.780 158.963 153.941  1.00  0.00     0.033 C 
ATOM     27  C   UNL     1     152.863 158.789 155.169  1.00  0.00     0.120 C 
ATOM     28  C   UNL     1     152.122 156.407 154.713  1.00  0.00     0.014 C 
ATOM     29  C   UNL     1     152.009 157.340 157.029  1.00  0.00     0.014 C 
ENDROOT
BRANCH   1  30
ATOM     30  C   UNL     1     161.940 152.701 155.972  1.00  0.00     0.048 C 
ATOM     31  O   UNL     1     162.374 151.956 156.892  1.00  0.00    -0.550 OA
ATOM     32  O   UNL     1     162.266 152.385 154.655  1.00  0.00    -0.550 OA
ENDBRANCH   1  30
BRANCH  27  33
ATOM     33  O   UNL     1     151.560 159.208 154.839  1.00  0.00    -0.393 OA
ATOM     34  H   UNL     1     150.929 158.582 155.283  1.00  0.00     0.210 HD
ENDBRANCH  27  33
TORSDOF 2
ENDMDL
MODEL 4
REMARK VINA RESULT:    23.582      2.392      4.065
REMARK INTER + INTRA:          25.422
REMARK INTER:                  24.387
REMARK INTRA:                   1.036
REMARK UNBOUND:                -0.228
REMARK SMILES C[C@H]1[C@@H](C)CC[C@@]2(C(=O)[O-])CC[C@]3(C)C(=CC[C@H]4[C@@]5(C)CC[C@@H](O)C(C)(C)[C@H]5CC[C@@]43C)[C@@H]12
REMARK SMILES IDX 7 1 6 2 11 3 33 4 5 5 12 6 15 7 2 8 3 9 13 10 16 11 1 12
REMARK SMILES IDX 4 13 14 14 31 15 17 16 18 17 30 18 32 19 19 20 29 21 28 22
REMARK SMILES IDX 21 23 20 24 25 25 22 26 23 27 26 28 27 29 8 30 9 31 10 32
REMARK SMILES IDX 24 33
REMARK H PARENT 24 34
REMARK Flexibility Score: inf
ROOT
ATOM      1  C   UNL     1     154.340 156.303 160.399  1.00  0.00     0.017 C 
ATOM      2  C   UNL     1     154.257 155.273 161.575  1.00  0.00     0.014 C 
ATOM      3  C   UNL     1     155.684 157.090 160.575  1.00  0.00     0.014 C 
ATOM      4  C   UNL     1     154.151 155.556 158.978  1.00  0.00     0.030 C 
ATOM      5  C   UNL     1     152.927 154.495 161.621  1.00  0.00     0.004 C 
ATOM      6  C   UNL     1     156.827 156.700 159.632  1.00  0.00     0.013 C 
ATOM      7  C   UNL     1     155.382 155.549 158.032  1.00  0.00    -0.063 C 
ATOM      8  C   UNL     1     153.464 154.141 159.148  1.00  0.00    -0.003 C 
ATOM      9  C   UNL     1     152.346 154.216 160.220  1.00  0.00    -0.011 C 
ATOM     10  C   UNL     1     156.430 156.670 158.127  1.00  0.00    -0.006 C 
ATOM     11  C   UNL     1     155.466 154.611 157.057  1.00  0.00    -0.027 C 
ATOM     12  C   UNL     1     154.462 152.974 159.420  1.00  0.00     0.008 C 
ATOM     13  C   UNL     1     151.441 152.969 160.222  1.00  0.00     0.008 C 
ATOM     14  C   UNL     1     155.725 158.020 157.768  1.00  0.00     0.017 C 
ATOM     15  C   UNL     1     157.718 156.430 157.146  1.00  0.00    -0.020 C 
ATOM     16  C   UNL     1     156.735 154.250 156.345  1.00  0.00     0.032 C 
ATOM     17  C   UNL     1     157.978 154.902 156.990  1.00  0.00     0.006 C 
ATOM     18  C   UNL     1     159.012 157.041 157.752  1.00  0.00     0.008 C 
ATOM     19  C   UNL     1     157.466 157.069 155.737  1.00  0.00     0.012 C 
ATOM     20  C   UNL     1     159.382 154.390 156.372  1.00  0.00    -0.025 C 
ATOM     21  C   UNL     1     160.215 156.892 156.841  1.00  0.00     0.005 C 
ATOM     22  C   UNL     1     160.606 155.411 156.562  1.00  0.00     0.003 C 
ATOM     23  C   UNL     1     159.260 154.003 154.865  1.00  0.00     0.010 C 
ATOM     24  C   UNL     1     159.689 153.071 157.162  1.00  0.00     0.012 C 
ATOM     25  C   UNL     1     161.777 155.323 155.466  1.00  0.00    -0.006 C 
ATOM     26  C   UNL     1     160.537 153.419 154.229  1.00  0.00     0.033 C 
ATOM     27  C   UNL     1     161.866 153.897 154.848  1.00  0.00     0.120 C 
ATOM     28  C   UNL     1     161.631 156.365 154.314  1.00  0.00     0.014 C 
ATOM     29  C   UNL     1     163.133 155.614 156.166  1.00  0.00     0.014 C 
ENDROOT
BRANCH   1  30
ATOM     30  C   UNL     1     153.218 157.326 160.639  1.00  0.00     0.048 C 
ATOM     31  O   UNL     1     153.448 158.564 160.667  1.00  0.00    -0.550 OA
ATOM     32  O   UNL     1     151.931 156.884 160.941  1.00  0.00    -0.550 OA
ENDBRANCH   1  30
BRANCH  27  33
ATOM     33  O   UNL     1     162.883 153.831 153.875  1.00  0.00    -0.393 OA
ATOM     34  H   UNL     1     162.519 153.317 153.106  1.00  0.00     0.210 HD
ENDBRANCH  27  33
TORSDOF 2
ENDMDL
