MODEL 1
REMARK VINA RESULT:    -2.585      0.000      0.000
REMARK INTER + INTRA:          -7.723
REMARK INTER:                  -6.817
REMARK INTRA:                  -0.906
REMARK UNBOUND:                -0.906
REMARK SMILES CCCCCCCCCCCCCCCCCCCCCCCCCCCCCC(=O)[O-]
REMARK SMILES IDX 16 1 17 2 18 3 19 4 20 5 21 6 22 7 23 8 24 9 25 10 26 11
REMARK SMILES IDX 27 12 28 13 29 14 30 15 31 16 32 17 15 18 14 19 13 20 12 21
REMARK SMILES IDX 11 22 10 23 9 24 8 25 7 26 6 27 5 28 4 29 3 30 2 31 1 32
REMARK H PARENT
REMARK Flexibility Score: inf
ROOT
ATOM      1  C   UNL     1      43.735  27.203   2.227  1.00  0.00     0.000 C 
ENDROOT
BRANCH   1   2
ATOM      2  C   UNL     1      44.678  26.178   2.887  1.00  0.00     0.000 C 
BRANCH   2   3
ATOM      3  C   UNL     1      44.790  26.284   4.422  1.00  0.00     0.000 C 
BRANCH   3   4
ATOM      4  C   UNL     1      46.229  26.261   4.976  1.00  0.00     0.000 C 
BRANCH   4   5
ATOM      5  C   UNL     1      46.808  27.637   5.350  1.00  0.00     0.000 C 
BRANCH   5   6
ATOM      6  C   UNL     1      45.748  28.752   5.341  1.00  0.00     0.000 C 
BRANCH   6   7
ATOM      7  C   UNL     1      46.315  30.119   5.765  1.00  0.00     0.000 C 
BRANCH   7   8
ATOM      8  C   UNL     1      47.125  30.125   7.080  1.00  0.00     0.000 C 
BRANCH   8   9
ATOM      9  C   UNL     1      46.901  28.911   8.000  1.00  0.00     0.000 C 
BRANCH   9  10
ATOM     10  C   UNL     1      45.497  28.892   8.627  1.00  0.00     0.000 C 
BRANCH  10  11
ATOM     11  C   UNL     1      45.297  29.997   9.681  1.00  0.00     0.000 C 
BRANCH  11  12
ATOM     12  C   UNL     1      46.221  29.907  10.911  1.00  0.00     0.000 C 
BRANCH  12  13
ATOM     13  C   UNL     1      46.010  28.618  11.725  1.00  0.00     0.006 C 
BRANCH  13  14
ATOM     14  C   UNL     1      47.091  27.566  11.441  1.00  0.00     0.053 C 
BRANCH  14  15
ATOM     15  C   UNL     1      46.508  26.299  10.895  1.00  0.00     0.041 C 
ATOM     16  O   UNL     1      45.741  26.333   9.898  1.00  0.00    -0.550 OA
ATOM     17  O   UNL     1      46.779  25.085  11.513  1.00  0.00    -0.550 OA
ENDBRANCH  14  15
ENDBRANCH  13  14
ENDBRANCH  12  13
ENDBRANCH  11  12
ENDBRANCH  10  11
ENDBRANCH   9  10
ENDBRANCH   8   9
ENDBRANCH   7   8
ENDBRANCH   6   7
ENDBRANCH   5   6
ENDBRANCH   4   5
ENDBRANCH   3   4
ENDBRANCH   2   3
ENDBRANCH   1   2
BRANCH   1  18
ATOM     18  C   UNL     1      43.162  28.279   3.175  1.00  0.00     0.000 C 
BRANCH  18  19
ATOM     19  C   UNL     1      43.808  29.671   3.046  1.00  0.00     0.000 C 
BRANCH  19  20
ATOM     20  C   UNL     1      44.784  29.819   1.863  1.00  0.00     0.000 C 
BRANCH  20  21
ATOM     21  C   UNL     1      46.182  29.223   2.142  1.00  0.00     0.000 C 
BRANCH  21  22
ATOM     22  C   UNL     1      46.986  28.912   0.856  1.00  0.00     0.000 C 
BRANCH  22  23
ATOM     23  C   UNL     1      47.094  30.124  -0.085  1.00  0.00     0.000 C 
BRANCH  23  24
ATOM     24  C   UNL     1      46.019  30.099  -1.185  1.00  0.00    -0.000 C 
BRANCH  24  25
ATOM     25  C   UNL     1      46.583  29.513  -2.486  1.00  0.00    -0.000 C 
BRANCH  25  26
ATOM     26  C   UNL     1      46.315  28.006  -2.630  1.00  0.00    -0.000 C 
BRANCH  26  27
ATOM     27  C   UNL     1      45.006  27.524  -1.977  1.00  0.00    -0.000 C 
BRANCH  27  28
ATOM     28  C   UNL     1      44.214  26.525  -2.847  1.00  0.00    -0.000 C 
BRANCH  28  29
ATOM     29  C   UNL     1      43.244  27.228  -3.807  1.00  0.00    -0.000 C 
BRANCH  29  30
ATOM     30  C   UNL     1      44.007  27.953  -4.923  1.00  0.00    -0.000 C 
BRANCH  30  31
ATOM     31  C   UNL     1      43.120  28.142  -6.159  1.00  0.00    -0.003 C 
ATOM     32  C   UNL     1      42.367  29.468  -6.101  1.00  0.00     0.004 C 
ENDBRANCH  30  31
ENDBRANCH  29  30
ENDBRANCH  28  29
ENDBRANCH  27  28
ENDBRANCH  26  27
ENDBRANCH  25  26
ENDBRANCH  24  25
ENDBRANCH  23  24
ENDBRANCH  22  23
ENDBRANCH  21  22
ENDBRANCH  20  21
ENDBRANCH  19  20
ENDBRANCH  18  19
ENDBRANCH   1  18
TORSDOF 28
ENDMDL
MODEL 2
REMARK VINA RESULT:    -2.124      1.634      3.937
REMARK INTER + INTRA:          -6.506
REMARK INTER:                  -5.897
REMARK INTRA:                  -0.609
REMARK UNBOUND:                -0.906
REMARK SMILES CCCCCCCCCCCCCCCCCCCCCCCCCCCCCC(=O)[O-]
REMARK SMILES IDX 16 1 17 2 18 3 19 4 20 5 21 6 22 7 23 8 24 9 25 10 26 11
REMARK SMILES IDX 27 12 28 13 29 14 30 15 31 16 32 17 15 18 14 19 13 20 12 21
REMARK SMILES IDX 11 22 10 23 9 24 8 25 7 26 6 27 5 28 4 29 3 30 2 31 1 32
REMARK H PARENT
REMARK Flexibility Score: inf
ROOT
ATOM      1  C   UNL     1      45.401  28.220   0.018  1.00  0.00     0.000 C 
ENDROOT
BRANCH   1   2
ATOM      2  C   UNL     1      46.701  28.714   0.684  1.00  0.00     0.000 C 
BRANCH   2   3
ATOM      3  C   UNL     1      46.605  30.096   1.362  1.00  0.00     0.000 C 
BRANCH   3   4
ATOM      4  C   UNL     1      46.171  30.071   2.840  1.00  0.00     0.000 C 
BRANCH   4   5
ATOM      5  C   UNL     1      46.198  28.684   3.507  1.00  0.00     0.000 C 
BRANCH   5   6
ATOM      6  C   UNL     1      46.684  28.734   4.966  1.00  0.00     0.000 C 
BRANCH   6   7
ATOM      7  C   UNL     1      46.348  30.065   5.663  1.00  0.00     0.000 C 
BRANCH   7   8
ATOM      8  C   UNL     1      45.481  29.948   6.936  1.00  0.00     0.000 C 
BRANCH   8   9
ATOM      9  C   UNL     1      46.136  29.208   8.117  1.00  0.00     0.000 C 
BRANCH   9  10
ATOM     10  C   UNL     1      46.386  30.123   9.326  1.00  0.00     0.000 C 
BRANCH  10  11
ATOM     11  C   UNL     1      45.420  29.851  10.494  1.00  0.00     0.000 C 
BRANCH  11  12
ATOM     12  C   UNL     1      45.674  28.539  11.263  1.00  0.00     0.000 C 
BRANCH  12  13
ATOM     13  C   UNL     1      47.104  28.004  11.077  1.00  0.00     0.006 C 
BRANCH  13  14
ATOM     14  C   UNL     1      47.122  26.531  10.641  1.00  0.00     0.053 C 
BRANCH  14  15
ATOM     15  C   UNL     1      46.331  26.311   9.387  1.00  0.00     0.041 C 
ATOM     16  O   UNL     1      46.920  26.048   8.306  1.00  0.00    -0.550 OA
ATOM     17  O   UNL     1      44.949  26.436   9.404  1.00  0.00    -0.550 OA
ENDBRANCH  14  15
ENDBRANCH  13  14
ENDBRANCH  12  13
ENDBRANCH  11  12
ENDBRANCH  10  11
ENDBRANCH   9  10
ENDBRANCH   8   9
ENDBRANCH   7   8
ENDBRANCH   6   7
ENDBRANCH   5   6
ENDBRANCH   4   5
ENDBRANCH   3   4
ENDBRANCH   2   3
ENDBRANCH   1   2
BRANCH   1  18
ATOM     18  C   UNL     1      45.486  27.998  -1.508  1.00  0.00     0.000 C 
BRANCH  18  19
ATOM     19  C   UNL     1      46.853  28.321  -2.138  1.00  0.00     0.000 C 
BRANCH  19  20
ATOM     20  C   UNL     1      46.891  29.627  -2.955  1.00  0.00     0.000 C 
BRANCH  20  21
ATOM     21  C   UNL     1      47.051  29.397  -4.474  1.00  0.00     0.000 C 
BRANCH  21  22
ATOM     22  C   UNL     1      46.601  27.989  -4.934  1.00  0.00     0.000 C 
BRANCH  22  23
ATOM     23  C   UNL     1      46.273  27.931  -6.436  1.00  0.00     0.000 C 
BRANCH  23  24
ATOM     24  C   UNL     1      46.094  29.333  -7.043  1.00  0.00    -0.000 C 
BRANCH  24  25
ATOM     25  C   UNL     1      44.974  30.100  -6.327  1.00  0.00    -0.000 C 
BRANCH  25  26
ATOM     26  C   UNL     1      43.660  30.124  -7.125  1.00  0.00    -0.000 C 
BRANCH  26  27
ATOM     27  C   UNL     1      42.452  29.517  -6.387  1.00  0.00    -0.000 C 
BRANCH  27  28
ATOM     28  C   UNL     1      42.625  29.468  -4.854  1.00  0.00    -0.000 C 
BRANCH  28  29
ATOM     29  C   UNL     1      42.134  28.144  -4.253  1.00  0.00    -0.000 C 
BRANCH  29  30
ATOM     30  C   UNL     1      43.072  26.990  -4.628  1.00  0.00    -0.000 C 
BRANCH  30  31
ATOM     31  C   UNL     1      43.914  26.554  -3.423  1.00  0.00    -0.003 C 
ATOM     32  C   UNL     1      43.177  25.517  -2.581  1.00  0.00     0.004 C 
ENDBRANCH  30  31
ENDBRANCH  29  30
ENDBRANCH  28  29
ENDBRANCH  27  28
ENDBRANCH  26  27
ENDBRANCH  25  26
ENDBRANCH  24  25
ENDBRANCH  23  24
ENDBRANCH  22  23
ENDBRANCH  21  22
ENDBRANCH  20  21
ENDBRANCH  19  20
ENDBRANCH  18  19
ENDBRANCH   1  18
TORSDOF 28
ENDMDL
MODEL 3
REMARK VINA RESULT:    -2.021      1.552      2.642
REMARK INTER + INTRA:          -6.236
REMARK INTER:                  -6.064
REMARK INTRA:                  -0.171
REMARK UNBOUND:                -0.906
REMARK SMILES CCCCCCCCCCCCCCCCCCCCCCCCCCCCCC(=O)[O-]
REMARK SMILES IDX 16 1 17 2 18 3 19 4 20 5 21 6 22 7 23 8 24 9 25 10 26 11
REMARK SMILES IDX 27 12 28 13 29 14 30 15 31 16 32 17 15 18 14 19 13 20 12 21
REMARK SMILES IDX 11 22 10 23 9 24 8 25 7 26 6 27 5 28 4 29 3 30 2 31 1 32
REMARK H PARENT
REMARK Flexibility Score: inf
ROOT
ATOM      1  C   UNL     1      43.906  27.938   2.608  1.00  0.00     0.000 C 
ENDROOT
BRANCH   1   2
ATOM      2  C   UNL     1      44.956  27.857   3.733  1.00  0.00     0.000 C 
BRANCH   2   3
ATOM      3  C   UNL     1      46.416  28.064   3.282  1.00  0.00     0.000 C 
BRANCH   3   4
ATOM      4  C   UNL     1      47.071  26.843   2.607  1.00  0.00     0.000 C 
BRANCH   4   5
ATOM      5  C   UNL     1      47.125  25.569   3.470  1.00  0.00     0.000 C 
BRANCH   5   6
ATOM      6  C   UNL     1      46.237  25.661   4.723  1.00  0.00     0.000 C 
BRANCH   6   7
ATOM      7  C   UNL     1      46.963  25.215   6.005  1.00  0.00     0.000 C 
BRANCH   7   8
ATOM      8  C   UNL     1      46.990  26.252   7.149  1.00  0.00     0.000 C 
BRANCH   8   9
ATOM      9  C   UNL     1      45.933  27.368   7.055  1.00  0.00     0.000 C 
BRANCH   9  10
ATOM     10  C   UNL     1      46.545  28.775   7.155  1.00  0.00     0.000 C 
BRANCH  10  11
ATOM     11  C   UNL     1      45.869  29.648   8.229  1.00  0.00     0.000 C 
BRANCH  11  12
ATOM     12  C   UNL     1      46.796  30.125   9.365  1.00  0.00     0.000 C 
BRANCH  12  13
ATOM     13  C   UNL     1      46.638  29.298  10.653  1.00  0.00     0.006 C 
BRANCH  13  14
ATOM     14  C   UNL     1      47.114  27.848  10.475  1.00  0.00     0.053 C 
BRANCH  14  15
ATOM     15  C   UNL     1      45.966  26.885  10.429  1.00  0.00     0.041 C 
ATOM     16  O   UNL     1      44.801  27.301  10.200  1.00  0.00    -0.550 OA
ATOM     17  O   UNL     1      46.179  25.537  10.680  1.00  0.00    -0.550 OA
ENDBRANCH  14  15
ENDBRANCH  13  14
ENDBRANCH  12  13
ENDBRANCH  11  12
ENDBRANCH  10  11
ENDBRANCH   9  10
ENDBRANCH   8   9
ENDBRANCH   7   8
ENDBRANCH   6   7
ENDBRANCH   5   6
ENDBRANCH   4   5
ENDBRANCH   3   4
ENDBRANCH   2   3
ENDBRANCH   1   2
BRANCH   1  18
ATOM     18  C   UNL     1      44.392  28.593   1.297  1.00  0.00     0.000 C 
BRANCH  18  19
ATOM     19  C   UNL     1      45.105  29.946   1.471  1.00  0.00     0.000 C 
BRANCH  19  20
ATOM     20  C   UNL     1      46.484  30.039   0.791  1.00  0.00     0.000 C 
BRANCH  20  21
ATOM     21  C   UNL     1      46.407  30.083  -0.751  1.00  0.00     0.000 C 
BRANCH  21  22
ATOM     22  C   UNL     1      45.566  28.934  -1.359  1.00  0.00     0.000 C 
BRANCH  22  23
ATOM     23  C   UNL     1      46.420  27.921  -2.139  1.00  0.00     0.000 C 
BRANCH  23  24
ATOM     24  C   UNL     1      46.091  27.921  -3.641  1.00  0.00    -0.000 C 
BRANCH  24  25
ATOM     25  C   UNL     1      46.887  29.010  -4.374  1.00  0.00    -0.000 C 
BRANCH  25  26
ATOM     26  C   UNL     1      46.280  29.378  -5.739  1.00  0.00    -0.000 C 
BRANCH  26  27
ATOM     27  C   UNL     1      46.302  28.240  -6.776  1.00  0.00    -0.000 C 
BRANCH  27  28
ATOM     28  C   UNL     1      44.915  27.617  -7.039  1.00  0.00    -0.000 C 
BRANCH  28  29
ATOM     29  C   UNL     1      43.819  28.241  -6.163  1.00  0.00    -0.000 C 
BRANCH  29  30
ATOM     30  C   UNL     1      43.362  27.261  -5.075  1.00  0.00    -0.000 C 
BRANCH  30  31
ATOM     31  C   UNL     1      42.323  27.911  -4.154  1.00  0.00    -0.003 C 
ATOM     32  C   UNL     1      42.720  29.340  -3.795  1.00  0.00     0.004 C 
ENDBRANCH  30  31
ENDBRANCH  29  30
ENDBRANCH  28  29
ENDBRANCH  27  28
ENDBRANCH  26  27
ENDBRANCH  25  26
ENDBRANCH  24  25
ENDBRANCH  23  24
ENDBRANCH  22  23
ENDBRANCH  21  22
ENDBRANCH  20  21
ENDBRANCH  19  20
ENDBRANCH  18  19
ENDBRANCH   1  18
TORSDOF 28
ENDMDL
MODEL 4
REMARK VINA RESULT:    -1.479      2.063      3.398
REMARK INTER + INTRA:          -4.805
REMARK INTER:                  -4.425
REMARK INTRA:                  -0.381
REMARK UNBOUND:                -0.906
REMARK SMILES CCCCCCCCCCCCCCCCCCCCCCCCCCCCCC(=O)[O-]
REMARK SMILES IDX 16 1 17 2 18 3 19 4 20 5 21 6 22 7 23 8 24 9 25 10 26 11
REMARK SMILES IDX 27 12 28 13 29 14 30 15 31 16 32 17 15 18 14 19 13 20 12 21
REMARK SMILES IDX 11 22 10 23 9 24 8 25 7 26 6 27 5 28 4 29 3 30 2 31 1 32
REMARK H PARENT
REMARK Flexibility Score: inf
ROOT
ATOM      1  C   UNL     1      43.079  27.888   3.005  1.00  0.00     0.000 C 
ENDROOT
BRANCH   1   2
ATOM      2  C   UNL     1      43.155  29.424   3.116  1.00  0.00     0.000 C 
BRANCH   2   3
ATOM      3  C   UNL     1      44.516  30.042   2.737  1.00  0.00     0.000 C 
BRANCH   3   4
ATOM      4  C   UNL     1      45.577  30.023   3.855  1.00  0.00     0.000 C 
BRANCH   4   5
ATOM      5  C   UNL     1      45.021  30.124   5.286  1.00  0.00     0.000 C 
BRANCH   5   6
ATOM      6  C   UNL     1      45.716  29.160   6.264  1.00  0.00     0.000 C 
BRANCH   6   7
ATOM      7  C   UNL     1      46.817  29.843   7.096  1.00  0.00     0.000 C 
BRANCH   7   8
ATOM      8  C   UNL     1      46.779  29.556   8.613  1.00  0.00     0.000 C 
BRANCH   8   9
ATOM      9  C   UNL     1      45.395  29.680   9.275  1.00  0.00     0.000 C 
BRANCH   9  10
ATOM     10  C   UNL     1      44.834  28.325   9.735  1.00  0.00     0.000 C 
BRANCH  10  11
ATOM     11  C   UNL     1      45.076  27.197   8.714  1.00  0.00     0.000 C 
BRANCH  11  12
ATOM     12  C   UNL     1      46.443  26.495   8.825  1.00  0.00     0.000 C 
BRANCH  12  13
ATOM     13  C   UNL     1      47.124  26.292   7.460  1.00  0.00     0.006 C 
BRANCH  13  14
ATOM     14  C   UNL     1      46.165  25.710   6.412  1.00  0.00     0.053 C 
BRANCH  14  15
ATOM     15  C   UNL     1      46.723  25.813   5.025  1.00  0.00     0.041 C 
ATOM     16  O   UNL     1      47.124  26.922   4.586  1.00  0.00    -0.550 OA
ATOM     17  O   UNL     1      46.760  24.694   4.204  1.00  0.00    -0.550 OA
ENDBRANCH  14  15
ENDBRANCH  13  14
ENDBRANCH  12  13
ENDBRANCH  11  12
ENDBRANCH  10  11
ENDBRANCH   9  10
ENDBRANCH   8   9
ENDBRANCH   7   8
ENDBRANCH   6   7
ENDBRANCH   5   6
ENDBRANCH   4   5
ENDBRANCH   3   4
ENDBRANCH   2   3
ENDBRANCH   1   2
BRANCH   1  18
ATOM     18  C   UNL     1      44.431  27.151   3.118  1.00  0.00     0.000 C 
BRANCH  18  19
ATOM     19  C   UNL     1      45.024  26.671   1.781  1.00  0.00     0.000 C 
BRANCH  19  20
ATOM     20  C   UNL     1      46.255  27.463   1.301  1.00  0.00     0.000 C 
BRANCH  20  21
ATOM     21  C   UNL     1      45.902  28.843   0.703  1.00  0.00     0.000 C 
BRANCH  21  22
ATOM     22  C   UNL     1      47.124  29.588   0.112  1.00  0.00     0.000 C 
BRANCH  22  23
ATOM     23  C   UNL     1      46.903  30.030  -1.345  1.00  0.00     0.000 C 
BRANCH  23  24
ATOM     24  C   UNL     1      46.196  28.947  -2.177  1.00  0.00    -0.000 C 
BRANCH  24  25
ATOM     25  C   UNL     1      46.845  28.812  -3.561  1.00  0.00    -0.000 C 
BRANCH  25  26
ATOM     26  C   UNL     1      46.621  30.046  -4.451  1.00  0.00    -0.000 C 
BRANCH  26  27
ATOM     27  C   UNL     1      45.282  30.051  -5.212  1.00  0.00    -0.000 C 
BRANCH  27  28
ATOM     28  C   UNL     1      44.051  29.880  -4.297  1.00  0.00    -0.000 C 
BRANCH  28  29
ATOM     29  C   UNL     1      42.800  29.450  -5.076  1.00  0.00    -0.000 C 
BRANCH  29  30
ATOM     30  C   UNL     1      42.111  28.262  -4.393  1.00  0.00    -0.000 C 
BRANCH  30  31
ATOM     31  C   UNL     1      42.917  26.973  -4.591  1.00  0.00    -0.003 C 
ATOM     32  C   UNL     1      43.605  26.548  -3.297  1.00  0.00     0.004 C 
ENDBRANCH  30  31
ENDBRANCH  29  30
ENDBRANCH  28  29
ENDBRANCH  27  28
ENDBRANCH  26  27
ENDBRANCH  25  26
ENDBRANCH  24  25
ENDBRANCH  23  24
ENDBRANCH  22  23
ENDBRANCH  21  22
ENDBRANCH  20  21
ENDBRANCH  19  20
ENDBRANCH  18  19
ENDBRANCH   1  18
TORSDOF 28
ENDMDL
MODEL 5
REMARK VINA RESULT:     0.188      3.801     11.893
REMARK INTER + INTRA:          -0.412
REMARK INTER:                  -0.983
REMARK INTRA:                   0.571
REMARK UNBOUND:                -0.906
REMARK SMILES CCCCCCCCCCCCCCCCCCCCCCCCCCCCCC(=O)[O-]
REMARK SMILES IDX 16 1 17 2 18 3 19 4 20 5 21 6 22 7 23 8 24 9 25 10 26 11
REMARK SMILES IDX 27 12 28 13 29 14 30 15 31 16 32 17 15 18 14 19 13 20 12 21
REMARK SMILES IDX 11 22 10 23 9 24 8 25 7 26 6 27 5 28 4 29 3 30 2 31 1 32
REMARK H PARENT
REMARK Flexibility Score: inf
ROOT
ATOM      1  C   UNL     1      44.735  26.399  -0.200  1.00  0.00     0.000 C 
ENDROOT
BRANCH   1   2
ATOM      2  C   UNL     1      44.092  26.911  -1.504  1.00  0.00     0.000 C 
BRANCH   2   3
ATOM      3  C   UNL     1      43.167  25.905  -2.218  1.00  0.00     0.000 C 
BRANCH   3   4
ATOM      4  C   UNL     1      43.117  26.038  -3.753  1.00  0.00     0.000 C 
BRANCH   4   5
ATOM      5  C   UNL     1      43.513  27.421  -4.303  1.00  0.00     0.000 C 
BRANCH   5   6
ATOM      6  C   UNL     1      42.389  28.461  -4.161  1.00  0.00     0.000 C 
BRANCH   6   7
ATOM      7  C   UNL     1      41.647  28.725  -5.484  1.00  0.00     0.000 C 
BRANCH   7   8
ATOM      8  C   UNL     1      42.165  29.924  -6.309  1.00  0.00     0.000 C 
BRANCH   8   9
ATOM      9  C   UNL     1      43.444  29.662  -7.124  1.00  0.00     0.000 C 
BRANCH   9  10
ATOM     10  C   UNL     1      44.208  28.417  -6.647  1.00  0.00     0.000 C 
BRANCH  10  11
ATOM     11  C   UNL     1      45.690  28.424  -7.067  1.00  0.00     0.000 C 
BRANCH  11  12
ATOM     12  C   UNL     1      46.366  29.809  -7.063  1.00  0.00     0.000 C 
BRANCH  12  13
ATOM     13  C   UNL     1      47.125  30.101  -5.756  1.00  0.00     0.006 C 
BRANCH  13  14
ATOM     14  C   UNL     1      46.847  29.047  -4.675  1.00  0.00     0.053 C 
BRANCH  14  15
ATOM     15  C   UNL     1      46.306  29.662  -3.420  1.00  0.00     0.041 C 
ATOM     16  O   UNL     1      47.079  29.931  -2.464  1.00  0.00    -0.550 OA
ATOM     17  O   UNL     1      44.944  29.900  -3.292  1.00  0.00    -0.550 OA
ENDBRANCH  14  15
ENDBRANCH  13  14
ENDBRANCH  12  13
ENDBRANCH  11  12
ENDBRANCH  10  11
ENDBRANCH   9  10
ENDBRANCH   8   9
ENDBRANCH   7   8
ENDBRANCH   6   7
ENDBRANCH   5   6
ENDBRANCH   4   5
ENDBRANCH   3   4
ENDBRANCH   2   3
ENDBRANCH   1   2
BRANCH   1  18
ATOM     18  C   UNL     1      45.926  27.232   0.321  1.00  0.00     0.000 C 
BRANCH  18  19
ATOM     19  C   UNL     1      45.650  28.739   0.470  1.00  0.00     0.000 C 
BRANCH  19  20
ATOM     20  C   UNL     1      46.799  29.542   1.110  1.00  0.00     0.000 C 
BRANCH  20  21
ATOM     21  C   UNL     1      46.444  30.125   2.495  1.00  0.00     0.000 C 
BRANCH  21  22
ATOM     22  C   UNL     1      47.016  29.301   3.675  1.00  0.00     0.000 C 
BRANCH  22  23
ATOM     23  C   UNL     1      46.857  27.785   3.472  1.00  0.00     0.000 C 
BRANCH  23  24
ATOM     24  C   UNL     1      45.816  27.179   4.428  1.00  0.00    -0.000 C 
BRANCH  24  25
ATOM     25  C   UNL     1      46.378  27.072   5.852  1.00  0.00    -0.000 C 
BRANCH  25  26
ATOM     26  C   UNL     1      46.738  28.439   6.458  1.00  0.00    -0.000 C 
BRANCH  26  27
ATOM     27  C   UNL     1      45.529  29.275   6.915  1.00  0.00    -0.000 C 
BRANCH  27  28
ATOM     28  C   UNL     1      45.220  29.141   8.421  1.00  0.00    -0.000 C 
BRANCH  28  29
ATOM     29  C   UNL     1      45.496  27.727   8.951  1.00  0.00    -0.000 C 
BRANCH  29  30
ATOM     30  C   UNL     1      45.555  27.717  10.483  1.00  0.00    -0.000 C 
BRANCH  30  31
ATOM     31  C   UNL     1      46.477  28.826  11.003  1.00  0.00    -0.003 C 
ATOM     32  C   UNL     1      45.701  29.848  11.828  1.00  0.00     0.004 C 
ENDBRANCH  30  31
ENDBRANCH  29  30
ENDBRANCH  28  29
ENDBRANCH  27  28
ENDBRANCH  26  27
ENDBRANCH  25  26
ENDBRANCH  24  25
ENDBRANCH  23  24
ENDBRANCH  22  23
ENDBRANCH  21  22
ENDBRANCH  20  21
ENDBRANCH  19  20
ENDBRANCH  18  19
ENDBRANCH   1  18
TORSDOF 28
ENDMDL
MODEL 6
REMARK VINA RESULT:     0.332      1.512      2.878
REMARK INTER + INTRA:          -0.031
REMARK INTER:                   1.244
REMARK INTRA:                  -1.275
REMARK UNBOUND:                -0.906
REMARK SMILES CCCCCCCCCCCCCCCCCCCCCCCCCCCCCC(=O)[O-]
REMARK SMILES IDX 16 1 17 2 18 3 19 4 20 5 21 6 22 7 23 8 24 9 25 10 26 11
REMARK SMILES IDX 27 12 28 13 29 14 30 15 31 16 32 17 15 18 14 19 13 20 12 21
REMARK SMILES IDX 11 22 10 23 9 24 8 25 7 26 6 27 5 28 4 29 3 30 2 31 1 32
REMARK H PARENT
REMARK Flexibility Score: inf
ROOT
ATOM      1  C   UNL     1      45.065  26.906   2.651  1.00  0.00     0.000 C 
ENDROOT
BRANCH   1   2
ATOM      2  C   UNL     1      45.034  28.427   2.401  1.00  0.00     0.000 C 
BRANCH   2   3
ATOM      3  C   UNL     1      44.185  29.238   3.401  1.00  0.00     0.000 C 
BRANCH   3   4
ATOM      4  C   UNL     1      44.988  30.004   4.470  1.00  0.00     0.000 C 
BRANCH   4   5
ATOM      5  C   UNL     1      46.444  29.540   4.652  1.00  0.00     0.000 C 
BRANCH   5   6
ATOM      6  C   UNL     1      46.562  28.275   5.519  1.00  0.00     0.000 C 
BRANCH   6   7
ATOM      7  C   UNL     1      47.124  28.562   6.923  1.00  0.00     0.000 C 
BRANCH   7   8
ATOM      8  C   UNL     1      46.837  29.974   7.479  1.00  0.00     0.000 C 
BRANCH   8   9
ATOM      9  C   UNL     1      45.542  30.111   8.299  1.00  0.00     0.000 C 
BRANCH   9  10
ATOM     10  C   UNL     1      45.665  29.513   9.709  1.00  0.00     0.000 C 
BRANCH  10  11
ATOM     11  C   UNL     1      44.346  28.903  10.220  1.00  0.00     0.000 C 
BRANCH  11  12
ATOM     12  C   UNL     1      44.287  27.363  10.206  1.00  0.00     0.000 C 
BRANCH  12  13
ATOM     13  C   UNL     1      45.304  26.733   9.238  1.00  0.00     0.006 C 
BRANCH  13  14
ATOM     14  C   UNL     1      46.700  26.603   9.864  1.00  0.00     0.053 C 
BRANCH  14  15
ATOM     15  C   UNL     1      46.629  26.364  11.342  1.00  0.00     0.041 C 
ATOM     16  O   UNL     1      47.125  27.200  12.142  1.00  0.00    -0.550 OA
ATOM     17  O   UNL     1      46.054  25.199  11.832  1.00  0.00    -0.550 OA
ENDBRANCH  14  15
ENDBRANCH  13  14
ENDBRANCH  12  13
ENDBRANCH  11  12
ENDBRANCH  10  11
ENDBRANCH   9  10
ENDBRANCH   8   9
ENDBRANCH   7   8
ENDBRANCH   6   7
ENDBRANCH   5   6
ENDBRANCH   4   5
ENDBRANCH   3   4
ENDBRANCH   2   3
ENDBRANCH   1   2
BRANCH   1  18
ATOM     18  C   UNL     1      45.299  26.036   1.397  1.00  0.00     0.000 C 
BRANCH  18  19
ATOM     19  C   UNL     1      45.142  26.773   0.055  1.00  0.00     0.000 C 
BRANCH  19  20
ATOM     20  C   UNL     1      46.365  27.611  -0.365  1.00  0.00     0.000 C 
BRANCH  20  21
ATOM     21  C   UNL     1      46.158  29.131  -0.189  1.00  0.00     0.000 C 
BRANCH  21  22
ATOM     22  C   UNL     1      46.600  29.960  -1.420  1.00  0.00     0.000 C 
BRANCH  22  23
ATOM     23  C   UNL     1      46.500  29.169  -2.736  1.00  0.00     0.000 C 
BRANCH  23  24
ATOM     24  C   UNL     1      46.115  30.067  -3.923  1.00  0.00    -0.000 C 
BRANCH  24  25
ATOM     25  C   UNL     1      46.222  29.297  -5.247  1.00  0.00    -0.000 C 
BRANCH  25  26
ATOM     26  C   UNL     1      45.761  30.124  -6.459  1.00  0.00    -0.000 C 
BRANCH  26  27
ATOM     27  C   UNL     1      44.325  29.826  -6.928  1.00  0.00    -0.000 C 
BRANCH  27  28
ATOM     28  C   UNL     1      43.772  28.482  -6.409  1.00  0.00    -0.000 C 
BRANCH  28  29
ATOM     29  C   UNL     1      42.429  28.645  -5.683  1.00  0.00    -0.000 C 
BRANCH  29  30
ATOM     30  C   UNL     1      42.564  28.294  -4.196  1.00  0.00    -0.000 C 
BRANCH  30  31
ATOM     31  C   UNL     1      42.857  26.801  -4.010  1.00  0.00    -0.003 C 
ATOM     32  C   UNL     1      44.126  26.585  -3.191  1.00  0.00     0.004 C 
ENDBRANCH  30  31
ENDBRANCH  29  30
ENDBRANCH  28  29
ENDBRANCH  27  28
ENDBRANCH  26  27
ENDBRANCH  25  26
ENDBRANCH  24  25
ENDBRANCH  23  24
ENDBRANCH  22  23
ENDBRANCH  21  22
ENDBRANCH  20  21
ENDBRANCH  19  20
ENDBRANCH  18  19
ENDBRANCH   1  18
TORSDOF 28
ENDMDL
