MODEL 1
REMARK VINA RESULT:     9.645      0.000      0.000
REMARK INTER + INTRA:          23.032
REMARK INTER:                  24.306
REMARK INTRA:                  -1.273
REMARK UNBOUND:                -1.273
REMARK SMILES CCCCCCCCCCCCCCCCCCCCCCCCCCCC(=O)[O-]
REMARK SMILES IDX 15 1 16 2 17 3 18 4 19 5 20 6 21 7 22 8 23 9 24 10 25 11
REMARK SMILES IDX 26 12 27 13 28 14 29 15 30 16 14 17 13 18 12 19 11 20 10 21
REMARK SMILES IDX 9 22 8 23 7 24 6 25 5 26 4 27 3 28 2 29 1 30
REMARK H PARENT
REMARK Flexibility Score: inf
ROOT
ATOM      1  C   UNL     1     -26.125  -3.367 -26.507  1.00  0.00     0.000 C 
ENDROOT
BRANCH   1   2
ATOM      2  C   UNL     1     -26.596  -3.212 -27.963  1.00  0.00     0.000 C 
BRANCH   2   3
ATOM      3  C   UNL     1     -27.769  -2.237 -28.181  1.00  0.00     0.000 C 
BRANCH   3   4
ATOM      4  C   UNL     1     -28.942  -2.829 -28.990  1.00  0.00     0.000 C 
BRANCH   4   5
ATOM      5  C   UNL     1     -30.134  -3.219 -28.101  1.00  0.00     0.000 C 
BRANCH   5   6
ATOM      6  C   UNL     1     -31.373  -2.380 -28.443  1.00  0.00     0.000 C 
BRANCH   6   7
ATOM      7  C   UNL     1     -32.120  -1.961 -27.168  1.00  0.00     0.000 C 
BRANCH   7   8
ATOM      8  C   UNL     1     -31.345  -0.922 -26.340  1.00  0.00     0.000 C 
BRANCH   8   9
ATOM      9  C   UNL     1     -31.981   0.476 -26.402  1.00  0.00     0.000 C 
BRANCH   9  10
ATOM     10  C   UNL     1     -31.057   1.527 -25.770  1.00  0.00     0.000 C 
BRANCH  10  11
ATOM     11  C   UNL     1     -31.808   2.490 -24.835  1.00  0.00     0.000 C 
BRANCH  11  12
ATOM     12  C   UNL     1     -31.877   3.922 -25.395  1.00  0.00     0.006 C 
BRANCH  12  13
ATOM     13  C   UNL     1     -32.122   3.943 -26.909  1.00  0.00     0.053 C 
BRANCH  13  14
ATOM     14  C   UNL     1     -30.984   4.574 -27.652  1.00  0.00     0.041 C 
ATOM     15  O   UNL     1     -31.155   5.011 -28.820  1.00  0.00    -0.550 OA
ATOM     16  O   UNL     1     -29.730   4.657 -27.061  1.00  0.00    -0.550 OA
ENDBRANCH  13  14
ENDBRANCH  12  13
ENDBRANCH  11  12
ENDBRANCH  10  11
ENDBRANCH   9  10
ENDBRANCH   8   9
ENDBRANCH   7   8
ENDBRANCH   6   7
ENDBRANCH   5   6
ENDBRANCH   4   5
ENDBRANCH   3   4
ENDBRANCH   2   3
ENDBRANCH   1   2
BRANCH   1  17
ATOM     17  C   UNL     1     -24.709  -3.953 -26.392  1.00  0.00     0.000 C 
BRANCH  17  18
ATOM     18  C   UNL     1     -23.611  -2.899 -26.615  1.00  0.00     0.000 C 
BRANCH  18  19
ATOM     19  C   UNL     1     -23.998  -1.487 -26.126  1.00  0.00     0.000 C 
BRANCH  19  20
ATOM     20  C   UNL     1     -24.004  -0.447 -27.261  1.00  0.00     0.000 C 
BRANCH  20  21
ATOM     21  C   UNL     1     -22.757  -0.529 -28.164  1.00  0.00     0.000 C 
BRANCH  21  22
ATOM     22  C   UNL     1     -22.232   0.821 -28.688  1.00  0.00    -0.000 C 
BRANCH  22  23
ATOM     23  C   UNL     1     -22.837   2.032 -27.957  1.00  0.00    -0.000 C 
BRANCH  23  24
ATOM     24  C   UNL     1     -22.161   3.362 -28.343  1.00  0.00    -0.000 C 
BRANCH  24  25
ATOM     25  C   UNL     1     -21.217   3.954 -27.280  1.00  0.00    -0.000 C 
BRANCH  25  26
ATOM     26  C   UNL     1     -21.471   3.387 -25.873  1.00  0.00    -0.000 C 
BRANCH  26  27
ATOM     27  C   UNL     1     -21.016   1.924 -25.732  1.00  0.00    -0.000 C 
BRANCH  27  28
ATOM     28  C   UNL     1     -21.917   1.038 -24.849  1.00  0.00    -0.000 C 
BRANCH  28  29
ATOM     29  C   UNL     1     -21.209   0.478 -23.598  1.00  0.00    -0.003 C 
ATOM     30  C   UNL     1     -22.180  -0.179 -22.618  1.00  0.00     0.004 C 
ENDBRANCH  28  29
ENDBRANCH  27  28
ENDBRANCH  26  27
ENDBRANCH  25  26
ENDBRANCH  24  25
ENDBRANCH  23  24
ENDBRANCH  22  23
ENDBRANCH  21  22
ENDBRANCH  20  21
ENDBRANCH  19  20
ENDBRANCH  18  19
ENDBRANCH  17  18
ENDBRANCH   1  17
TORSDOF 26
ENDMDL
MODEL 2
REMARK VINA RESULT:    10.523      2.550      9.448
REMARK INTER + INTRA:          25.243
REMARK INTER:                  24.126
REMARK INTRA:                   1.118
REMARK UNBOUND:                -1.273
REMARK SMILES CCCCCCCCCCCCCCCCCCCCCCCCCCCC(=O)[O-]
REMARK SMILES IDX 15 1 16 2 17 3 18 4 19 5 20 6 21 7 22 8 23 9 24 10 25 11
REMARK SMILES IDX 26 12 27 13 28 14 29 15 30 16 14 17 13 18 12 19 11 20 10 21
REMARK SMILES IDX 9 22 8 23 7 24 6 25 5 26 4 27 3 28 2 29 1 30
REMARK H PARENT
REMARK Flexibility Score: inf
ROOT
ATOM      1  C   UNL     1     -24.159  -2.457 -26.597  1.00  0.00     0.000 C 
ENDROOT
BRANCH   1   2
ATOM      2  C   UNL     1     -24.097  -1.294 -27.602  1.00  0.00     0.000 C 
BRANCH   2   3
ATOM      3  C   UNL     1     -22.726  -0.605 -27.736  1.00  0.00     0.000 C 
BRANCH   3   4
ATOM      4  C   UNL     1     -22.753   0.707 -28.549  1.00  0.00     0.000 C 
BRANCH   4   5
ATOM      5  C   UNL     1     -22.543   1.950 -27.669  1.00  0.00     0.000 C 
BRANCH   5   6
ATOM      6  C   UNL     1     -22.564   3.231 -28.513  1.00  0.00     0.000 C 
BRANCH   6   7
ATOM      7  C   UNL     1     -22.787   4.467 -27.627  1.00  0.00     0.000 C 
BRANCH   7   8
ATOM      8  C   UNL     1     -21.470   5.124 -27.181  1.00  0.00     0.000 C 
BRANCH   8   9
ATOM      9  C   UNL     1     -20.247   4.556 -27.917  1.00  0.00     0.000 C 
BRANCH   9  10
ATOM     10  C   UNL     1     -19.995   3.095 -27.514  1.00  0.00     0.000 C 
BRANCH  10  11
ATOM     11  C   UNL     1     -20.080   2.877 -25.995  1.00  0.00     0.000 C 
BRANCH  11  12
ATOM     12  C   UNL     1     -20.872   1.610 -25.623  1.00  0.00     0.006 C 
BRANCH  12  13
ATOM     13  C   UNL     1     -21.372   1.642 -24.174  1.00  0.00     0.053 C 
BRANCH  13  14
ATOM     14  C   UNL     1     -22.224   0.453 -23.849  1.00  0.00     0.041 C 
ATOM     15  O   UNL     1     -23.333   0.293 -24.423  1.00  0.00    -0.550 OA
ATOM     16  O   UNL     1     -21.802  -0.466 -22.897  1.00  0.00    -0.550 OA
ENDBRANCH  13  14
ENDBRANCH  12  13
ENDBRANCH  11  12
ENDBRANCH  10  11
ENDBRANCH   9  10
ENDBRANCH   8   9
ENDBRANCH   7   8
ENDBRANCH   6   7
ENDBRANCH   5   6
ENDBRANCH   4   5
ENDBRANCH   3   4
ENDBRANCH   2   3
ENDBRANCH   1   2
BRANCH   1  17
ATOM     17  C   UNL     1     -25.301  -3.444 -26.889  1.00  0.00     0.000 C 
BRANCH  17  18
ATOM     18  C   UNL     1     -26.306  -2.899 -27.918  1.00  0.00     0.000 C 
BRANCH  18  19
ATOM     19  C   UNL     1     -27.766  -2.894 -27.416  1.00  0.00     0.000 C 
BRANCH  19  20
ATOM     20  C   UNL     1     -28.693  -2.035 -28.296  1.00  0.00     0.000 C 
BRANCH  20  21
ATOM     21  C   UNL     1     -29.692  -2.871 -29.121  1.00  0.00     0.000 C 
BRANCH  21  22
ATOM     22  C   UNL     1     -31.161  -2.780 -28.667  1.00  0.00    -0.000 C 
BRANCH  22  23
ATOM     23  C   UNL     1     -31.320  -2.275 -27.223  1.00  0.00    -0.000 C 
BRANCH  23  24
ATOM     24  C   UNL     1     -32.041  -0.916 -27.139  1.00  0.00    -0.000 C 
BRANCH  24  25
ATOM     25  C   UNL     1     -31.410   0.106 -26.175  1.00  0.00    -0.000 C 
BRANCH  25  26
ATOM     26  C   UNL     1     -32.125   1.467 -26.197  1.00  0.00    -0.000 C 
BRANCH  26  27
ATOM     27  C   UNL     1     -31.457   2.503 -25.276  1.00  0.00    -0.000 C 
BRANCH  27  28
ATOM     28  C   UNL     1     -31.932   3.956 -25.467  1.00  0.00    -0.000 C 
BRANCH  28  29
ATOM     29  C   UNL     1     -32.118   4.363 -26.944  1.00  0.00    -0.003 C 
ATOM     30  C   UNL     1     -30.797   4.408 -27.712  1.00  0.00     0.004 C 
ENDBRANCH  28  29
ENDBRANCH  27  28
ENDBRANCH  26  27
ENDBRANCH  25  26
ENDBRANCH  24  25
ENDBRANCH  23  24
ENDBRANCH  22  23
ENDBRANCH  21  22
ENDBRANCH  20  21
ENDBRANCH  19  20
ENDBRANCH  18  19
ENDBRANCH  17  18
ENDBRANCH   1  17
TORSDOF 26
ENDMDL
MODEL 3
REMARK VINA RESULT:    10.956      2.158      2.530
REMARK INTER + INTRA:          26.335
REMARK INTER:                  27.783
REMARK INTRA:                  -1.448
REMARK UNBOUND:                -1.273
REMARK SMILES CCCCCCCCCCCCCCCCCCCCCCCCCCCC(=O)[O-]
REMARK SMILES IDX 15 1 16 2 17 3 18 4 19 5 20 6 21 7 22 8 23 9 24 10 25 11
REMARK SMILES IDX 26 12 27 13 28 14 29 15 30 16 14 17 13 18 12 19 11 20 10 21
REMARK SMILES IDX 9 22 8 23 7 24 6 25 5 26 4 27 3 28 2 29 1 30
REMARK H PARENT
REMARK Flexibility Score: inf
ROOT
ATOM      1  C   UNL     1     -25.656  -3.364 -26.380  1.00  0.00     0.000 C 
ENDROOT
BRANCH   1   2
ATOM      2  C   UNL     1     -26.370  -3.466 -27.738  1.00  0.00     0.000 C 
BRANCH   2   3
ATOM      3  C   UNL     1     -27.302  -2.290 -28.090  1.00  0.00     0.000 C 
BRANCH   3   4
ATOM      4  C   UNL     1     -28.638  -2.712 -28.738  1.00  0.00     0.000 C 
BRANCH   4   5
ATOM      5  C   UNL     1     -29.782  -2.813 -27.717  1.00  0.00     0.000 C 
BRANCH   5   6
ATOM      6  C   UNL     1     -31.146  -2.660 -28.402  1.00  0.00     0.000 C 
BRANCH   6   7
ATOM      7  C   UNL     1     -32.123  -1.880 -27.508  1.00  0.00     0.000 C 
BRANCH   7   8
ATOM      8  C   UNL     1     -31.453  -0.700 -26.784  1.00  0.00     0.000 C 
BRANCH   8   9
ATOM      9  C   UNL     1     -31.992   0.662 -27.249  1.00  0.00     0.000 C 
BRANCH   9  10
ATOM     10  C   UNL     1     -31.189   1.811 -26.622  1.00  0.00     0.000 C 
BRANCH  10  11
ATOM     11  C   UNL     1     -32.044   2.697 -25.700  1.00  0.00     0.000 C 
BRANCH  11  12
ATOM     12  C   UNL     1     -32.125   2.148 -24.264  1.00  0.00     0.006 C 
BRANCH  12  13
ATOM     13  C   UNL     1     -30.850   1.399 -23.855  1.00  0.00     0.053 C 
BRANCH  13  14
ATOM     14  C   UNL     1     -31.137   0.295 -22.885  1.00  0.00     0.041 C 
ATOM     15  O   UNL     1     -31.816   0.521 -21.849  1.00  0.00    -0.550 OA
ATOM     16  O   UNL     1     -30.635  -0.980 -23.114  1.00  0.00    -0.550 OA
ENDBRANCH  13  14
ENDBRANCH  12  13
ENDBRANCH  11  12
ENDBRANCH  10  11
ENDBRANCH   9  10
ENDBRANCH   8   9
ENDBRANCH   7   8
ENDBRANCH   6   7
ENDBRANCH   5   6
ENDBRANCH   4   5
ENDBRANCH   3   4
ENDBRANCH   2   3
ENDBRANCH   1   2
BRANCH   1  17
ATOM     17  C   UNL     1     -24.197  -3.844 -26.429  1.00  0.00     0.000 C 
BRANCH  17  18
ATOM     18  C   UNL     1     -23.199  -2.688 -26.615  1.00  0.00     0.000 C 
BRANCH  18  19
ATOM     19  C   UNL     1     -23.788  -1.300 -26.282  1.00  0.00     0.000 C 
BRANCH  19  20
ATOM     20  C   UNL     1     -23.960  -0.414 -27.529  1.00  0.00     0.000 C 
BRANCH  20  21
ATOM     21  C   UNL     1     -22.642  -0.190 -28.299  1.00  0.00     0.000 C 
BRANCH  21  22
ATOM     22  C   UNL     1     -22.240   1.283 -28.501  1.00  0.00    -0.000 C 
BRANCH  22  23
ATOM     23  C   UNL     1     -22.989   2.251 -27.569  1.00  0.00    -0.000 C 
BRANCH  23  24
ATOM     24  C   UNL     1     -22.498   3.706 -27.699  1.00  0.00    -0.000 C 
BRANCH  24  25
ATOM     25  C   UNL     1     -20.968   3.887 -27.700  1.00  0.00    -0.000 C 
BRANCH  25  26
ATOM     26  C   UNL     1     -20.252   2.922 -26.741  1.00  0.00    -0.000 C 
BRANCH  26  27
ATOM     27  C   UNL     1     -21.067   2.637 -25.467  1.00  0.00    -0.000 C 
BRANCH  27  28
ATOM     28  C   UNL     1     -21.052   1.171 -24.992  1.00  0.00    -0.000 C 
BRANCH  28  29
ATOM     29  C   UNL     1     -22.142   0.841 -23.952  1.00  0.00    -0.003 C 
ATOM     30  C   UNL     1     -21.695  -0.223 -22.949  1.00  0.00     0.004 C 
ENDBRANCH  28  29
ENDBRANCH  27  28
ENDBRANCH  26  27
ENDBRANCH  25  26
ENDBRANCH  24  25
ENDBRANCH  23  24
ENDBRANCH  22  23
ENDBRANCH  21  22
ENDBRANCH  20  21
ENDBRANCH  19  20
ENDBRANCH  18  19
ENDBRANCH  17  18
ENDBRANCH   1  17
TORSDOF 26
ENDMDL
MODEL 4
REMARK VINA RESULT:    11.453      3.600      9.415
REMARK INTER + INTRA:          27.588
REMARK INTER:                  27.192
REMARK INTRA:                   0.396
REMARK UNBOUND:                -1.273
REMARK SMILES CCCCCCCCCCCCCCCCCCCCCCCCCCCC(=O)[O-]
REMARK SMILES IDX 15 1 16 2 17 3 18 4 19 5 20 6 21 7 22 8 23 9 24 10 25 11
REMARK SMILES IDX 26 12 27 13 28 14 29 15 30 16 14 17 13 18 12 19 11 20 10 21
REMARK SMILES IDX 9 22 8 23 7 24 6 25 5 26 4 27 3 28 2 29 1 30
REMARK H PARENT
REMARK Flexibility Score: inf
ROOT
ATOM      1  C   UNL     1     -26.931  -2.888 -26.652  1.00  0.00     0.000 C 
ENDROOT
BRANCH   1   2
ATOM      2  C   UNL     1     -25.865  -3.900 -26.199  1.00  0.00     0.000 C 
BRANCH   2   3
ATOM      3  C   UNL     1     -24.421  -3.365 -26.147  1.00  0.00     0.000 C 
BRANCH   3   4
ATOM      4  C   UNL     1     -24.307  -1.834 -26.298  1.00  0.00     0.000 C 
BRANCH   4   5
ATOM      5  C   UNL     1     -23.775  -1.415 -27.679  1.00  0.00     0.000 C 
BRANCH   5   6
ATOM      6  C   UNL     1     -23.775   0.111 -27.829  1.00  0.00     0.000 C 
BRANCH   6   7
ATOM      7  C   UNL     1     -22.525   0.587 -28.584  1.00  0.00     0.000 C 
BRANCH   7   8
ATOM      8  C   UNL     1     -22.027   1.960 -28.103  1.00  0.00     0.000 C 
BRANCH   8   9
ATOM      9  C   UNL     1     -22.897   2.543 -26.978  1.00  0.00     0.000 C 
BRANCH   9  10
ATOM     10  C   UNL     1     -22.108   3.571 -26.153  1.00  0.00     0.000 C 
BRANCH  10  11
ATOM     11  C   UNL     1     -20.685   3.796 -26.690  1.00  0.00     0.000 C 
BRANCH  11  12
ATOM     12  C   UNL     1     -20.568   5.079 -27.532  1.00  0.00     0.006 C 
BRANCH  12  13
ATOM     13  C   UNL     1     -19.451   4.988 -28.579  1.00  0.00     0.053 C 
BRANCH  13  14
ATOM     14  C   UNL     1     -18.093   4.942 -27.946  1.00  0.00     0.041 C 
ATOM     15  O   UNL     1     -17.073   4.721 -28.649  1.00  0.00    -0.550 OA
ATOM     16  O   UNL     1     -17.959   5.123 -26.575  1.00  0.00    -0.550 OA
ENDBRANCH  13  14
ENDBRANCH  12  13
ENDBRANCH  11  12
ENDBRANCH  10  11
ENDBRANCH   9  10
ENDBRANCH   8   9
ENDBRANCH   7   8
ENDBRANCH   6   7
ENDBRANCH   5   6
ENDBRANCH   4   5
ENDBRANCH   3   4
ENDBRANCH   2   3
ENDBRANCH   1   2
BRANCH   1  17
ATOM     17  C   UNL     1     -28.117  -3.547 -27.374  1.00  0.00     0.000 C 
BRANCH  17  18
ATOM     18  C   UNL     1     -28.500  -2.816 -28.672  1.00  0.00     0.000 C 
BRANCH  18  19
ATOM     19  C   UNL     1     -29.957  -3.067 -29.119  1.00  0.00     0.000 C 
BRANCH  19  20
ATOM     20  C   UNL     1     -30.986  -2.609 -28.069  1.00  0.00     0.000 C 
BRANCH  20  21
ATOM     21  C   UNL     1     -32.112  -1.740 -28.664  1.00  0.00     0.000 C 
BRANCH  21  22
ATOM     22  C   UNL     1     -32.118  -0.268 -28.211  1.00  0.00    -0.000 C 
BRANCH  22  23
ATOM     23  C   UNL     1     -31.232  -0.008 -26.980  1.00  0.00    -0.000 C 
BRANCH  23  24
ATOM     24  C   UNL     1     -31.904  -0.431 -25.660  1.00  0.00    -0.000 C 
BRANCH  24  25
ATOM     25  C   UNL     1     -30.940  -0.708 -24.490  1.00  0.00    -0.000 C 
BRANCH  25  26
ATOM     26  C   UNL     1     -30.974   0.392 -23.416  1.00  0.00    -0.000 C 
BRANCH  26  27
ATOM     27  C   UNL     1     -31.642   1.686 -23.912  1.00  0.00    -0.000 C 
BRANCH  27  28
ATOM     28  C   UNL     1     -31.192   2.165 -25.306  1.00  0.00    -0.000 C 
BRANCH  28  29
ATOM     29  C   UNL     1     -31.240   3.697 -25.485  1.00  0.00    -0.003 C 
ATOM     30  C   UNL     1     -31.769   4.111 -26.859  1.00  0.00     0.004 C 
ENDBRANCH  28  29
ENDBRANCH  27  28
ENDBRANCH  26  27
ENDBRANCH  25  26
ENDBRANCH  24  25
ENDBRANCH  23  24
ENDBRANCH  22  23
ENDBRANCH  21  22
ENDBRANCH  20  21
ENDBRANCH  19  20
ENDBRANCH  18  19
ENDBRANCH  17  18
ENDBRANCH   1  17
TORSDOF 26
ENDMDL
MODEL 5
REMARK VINA RESULT:    11.755      1.524      2.680
REMARK INTER + INTRA:          28.350
REMARK INTER:                  29.565
REMARK INTRA:                  -1.215
REMARK UNBOUND:                -1.273
REMARK SMILES CCCCCCCCCCCCCCCCCCCCCCCCCCCC(=O)[O-]
REMARK SMILES IDX 15 1 16 2 17 3 18 4 19 5 20 6 21 7 22 8 23 9 24 10 25 11
REMARK SMILES IDX 26 12 27 13 28 14 29 15 30 16 14 17 13 18 12 19 11 20 10 21
REMARK SMILES IDX 9 22 8 23 7 24 6 25 5 26 4 27 3 28 2 29 1 30
REMARK H PARENT
REMARK Flexibility Score: inf
ROOT
ATOM      1  C   UNL     1     -26.226  -3.302 -26.618  1.00  0.00     0.000 C 
ENDROOT
BRANCH   1   2
ATOM      2  C   UNL     1     -26.977  -3.225 -27.959  1.00  0.00     0.000 C 
BRANCH   2   3
ATOM      3  C   UNL     1     -28.141  -2.217 -28.011  1.00  0.00     0.000 C 
BRANCH   3   4
ATOM      4  C   UNL     1     -29.238  -2.569 -29.039  1.00  0.00     0.000 C 
BRANCH   4   5
ATOM      5  C   UNL     1     -30.513  -3.114 -28.377  1.00  0.00     0.000 C 
BRANCH   5   6
ATOM      6  C   UNL     1     -31.639  -2.073 -28.411  1.00  0.00     0.000 C 
BRANCH   6   7
ATOM      7  C   UNL     1     -31.900  -1.501 -27.009  1.00  0.00     0.000 C 
BRANCH   7   8
ATOM      8  C   UNL     1     -30.735  -0.641 -26.492  1.00  0.00     0.000 C 
BRANCH   8   9
ATOM      9  C   UNL     1     -31.115   0.184 -25.253  1.00  0.00     0.000 C 
BRANCH   9  10
ATOM     10  C   UNL     1     -32.053   1.341 -25.631  1.00  0.00     0.000 C 
BRANCH  10  11
ATOM     11  C   UNL     1     -32.123   2.426 -24.543  1.00  0.00     0.000 C 
BRANCH  11  12
ATOM     12  C   UNL     1     -31.904   3.842 -25.107  1.00  0.00     0.006 C 
BRANCH  12  13
ATOM     13  C   UNL     1     -31.952   3.871 -26.639  1.00  0.00     0.053 C 
BRANCH  13  14
ATOM     14  C   UNL     1     -30.584   3.988 -27.240  1.00  0.00     0.041 C 
ATOM     15  O   UNL     1     -29.570   4.058 -26.497  1.00  0.00    -0.550 OA
ATOM     16  O   UNL     1     -30.432   4.042 -28.619  1.00  0.00    -0.550 OA
ENDBRANCH  13  14
ENDBRANCH  12  13
ENDBRANCH  11  12
ENDBRANCH  10  11
ENDBRANCH   9  10
ENDBRANCH   8   9
ENDBRANCH   7   8
ENDBRANCH   6   7
ENDBRANCH   5   6
ENDBRANCH   4   5
ENDBRANCH   3   4
ENDBRANCH   2   3
ENDBRANCH   1   2
BRANCH   1  17
ATOM     17  C   UNL     1     -24.897  -4.067 -26.716  1.00  0.00     0.000 C 
BRANCH  17  18
ATOM     18  C   UNL     1     -23.697  -3.139 -26.978  1.00  0.00     0.000 C 
BRANCH  18  19
ATOM     19  C   UNL     1     -23.195  -2.403 -25.717  1.00  0.00     0.000 C 
BRANCH  19  20
ATOM     20  C   UNL     1     -22.878  -0.920 -25.983  1.00  0.00     0.000 C 
BRANCH  20  21
ATOM     21  C   UNL     1     -22.285  -0.669 -27.383  1.00  0.00     0.000 C 
BRANCH  21  22
ATOM     22  C   UNL     1     -21.353   0.552 -27.496  1.00  0.00    -0.000 C 
BRANCH  22  23
ATOM     23  C   UNL     1     -21.879   1.788 -26.746  1.00  0.00    -0.000 C 
BRANCH  23  24
ATOM     24  C   UNL     1     -22.378   2.895 -27.694  1.00  0.00    -0.000 C 
BRANCH  24  25
ATOM     25  C   UNL     1     -21.282   3.810 -28.272  1.00  0.00    -0.000 C 
BRANCH  25  26
ATOM     26  C   UNL     1     -20.546   4.619 -27.191  1.00  0.00    -0.000 C 
BRANCH  26  27
ATOM     27  C   UNL     1     -19.440   3.807 -26.493  1.00  0.00    -0.000 C 
BRANCH  27  28
ATOM     28  C   UNL     1     -18.136   3.648 -27.298  1.00  0.00    -0.000 C 
BRANCH  28  29
ATOM     29  C   UNL     1     -17.460   4.985 -27.664  1.00  0.00    -0.003 C 
ATOM     30  C   UNL     1     -17.010   5.036 -29.125  1.00  0.00     0.004 C 
ENDBRANCH  28  29
ENDBRANCH  27  28
ENDBRANCH  26  27
ENDBRANCH  25  26
ENDBRANCH  24  25
ENDBRANCH  23  24
ENDBRANCH  22  23
ENDBRANCH  21  22
ENDBRANCH  20  21
ENDBRANCH  19  20
ENDBRANCH  18  19
ENDBRANCH  17  18
ENDBRANCH   1  17
TORSDOF 26
ENDMDL
MODEL 6
REMARK VINA RESULT:    12.108      2.769      9.268
REMARK INTER + INTRA:          29.238
REMARK INTER:                  27.334
REMARK INTRA:                   1.904
REMARK UNBOUND:                -1.273
REMARK SMILES CCCCCCCCCCCCCCCCCCCCCCCCCCCC(=O)[O-]
REMARK SMILES IDX 15 1 16 2 17 3 18 4 19 5 20 6 21 7 22 8 23 9 24 10 25 11
REMARK SMILES IDX 26 12 27 13 28 14 29 15 30 16 14 17 13 18 12 19 11 20 10 21
REMARK SMILES IDX 9 22 8 23 7 24 6 25 5 26 4 27 3 28 2 29 1 30
REMARK H PARENT
REMARK Flexibility Score: inf
ROOT
ATOM      1  C   UNL     1     -24.317  -2.519 -26.596  1.00  0.00     0.000 C 
ENDROOT
BRANCH   1   2
ATOM      2  C   UNL     1     -24.321  -1.267 -27.490  1.00  0.00     0.000 C 
BRANCH   2   3
ATOM      3  C   UNL     1     -23.003  -0.469 -27.522  1.00  0.00     0.000 C 
BRANCH   3   4
ATOM      4  C   UNL     1     -22.888   0.518 -28.703  1.00  0.00     0.000 C 
BRANCH   4   5
ATOM      5  C   UNL     1     -23.144   1.974 -28.281  1.00  0.00     0.000 C 
BRANCH   5   6
ATOM      6  C   UNL     1     -21.913   2.849 -28.549  1.00  0.00     0.000 C 
BRANCH   6   7
ATOM      7  C   UNL     1     -22.228   4.330 -28.289  1.00  0.00     0.000 C 
BRANCH   7   8
ATOM      8  C   UNL     1     -21.385   4.926 -27.149  1.00  0.00     0.000 C 
BRANCH   8   9
ATOM      9  C   UNL     1     -19.913   5.125 -27.544  1.00  0.00     0.000 C 
BRANCH   9  10
ATOM     10  C   UNL     1     -19.192   3.775 -27.670  1.00  0.00     0.000 C 
BRANCH  10  11
ATOM     11  C   UNL     1     -19.243   2.952 -26.372  1.00  0.00     0.000 C 
BRANCH  11  12
ATOM     12  C   UNL     1     -20.474   2.031 -26.305  1.00  0.00     0.006 C 
BRANCH  12  13
ATOM     13  C   UNL     1     -21.420   2.408 -25.158  1.00  0.00     0.053 C 
BRANCH  13  14
ATOM     14  C   UNL     1     -22.087   1.205 -24.563  1.00  0.00     0.041 C 
ATOM     15  O   UNL     1     -23.119   0.723 -25.098  1.00  0.00    -0.550 OA
ATOM     16  O   UNL     1     -21.579   0.631 -23.405  1.00  0.00    -0.550 OA
ENDBRANCH  13  14
ENDBRANCH  12  13
ENDBRANCH  11  12
ENDBRANCH  10  11
ENDBRANCH   9  10
ENDBRANCH   8   9
ENDBRANCH   7   8
ENDBRANCH   6   7
ENDBRANCH   5   6
ENDBRANCH   4   5
ENDBRANCH   3   4
ENDBRANCH   2   3
ENDBRANCH   1   2
BRANCH   1  17
ATOM     17  C   UNL     1     -25.602  -3.352 -26.723  1.00  0.00     0.000 C 
BRANCH  17  18
ATOM     18  C   UNL     1     -26.463  -2.934 -27.927  1.00  0.00     0.000 C 
BRANCH  18  19
ATOM     19  C   UNL     1     -27.940  -2.661 -27.569  1.00  0.00     0.000 C 
BRANCH  19  20
ATOM     20  C   UNL     1     -28.853  -2.621 -28.808  1.00  0.00     0.000 C 
BRANCH  20  21
ATOM     21  C   UNL     1     -30.306  -3.037 -28.503  1.00  0.00     0.000 C 
BRANCH  21  22
ATOM     22  C   UNL     1     -30.916  -2.418 -27.231  1.00  0.00    -0.000 C 
BRANCH  22  23
ATOM     23  C   UNL     1     -30.714  -0.896 -27.140  1.00  0.00    -0.000 C 
BRANCH  23  24
ATOM     24  C   UNL     1     -31.697  -0.220 -26.164  1.00  0.00    -0.000 C 
BRANCH  24  25
ATOM     25  C   UNL     1     -31.792   1.313 -26.282  1.00  0.00    -0.000 C 
BRANCH  25  26
ATOM     26  C   UNL     1     -31.374   2.038 -24.992  1.00  0.00    -0.000 C 
BRANCH  26  27
ATOM     27  C   UNL     1     -31.616   1.192 -23.730  1.00  0.00    -0.000 C 
BRANCH  27  28
ATOM     28  C   UNL     1     -30.704  -0.040 -23.580  1.00  0.00    -0.000 C 
BRANCH  28  29
ATOM     29  C   UNL     1     -31.064  -0.942 -22.381  1.00  0.00    -0.003 C 
ATOM     30  C   UNL     1     -31.457  -0.140 -21.140  1.00  0.00     0.004 C 
ENDBRANCH  28  29
ENDBRANCH  27  28
ENDBRANCH  26  27
ENDBRANCH  25  26
ENDBRANCH  24  25
ENDBRANCH  23  24
ENDBRANCH  22  23
ENDBRANCH  21  22
ENDBRANCH  20  21
ENDBRANCH  19  20
ENDBRANCH  18  19
ENDBRANCH  17  18
ENDBRANCH   1  17
TORSDOF 26
ENDMDL
MODEL 7
REMARK VINA RESULT:    12.472      3.609      9.236
REMARK INTER + INTRA:          30.155
REMARK INTER:                  27.386
REMARK INTRA:                   2.769
REMARK UNBOUND:                -1.273
REMARK SMILES CCCCCCCCCCCCCCCCCCCCCCCCCCCC(=O)[O-]
REMARK SMILES IDX 15 1 16 2 17 3 18 4 19 5 20 6 21 7 22 8 23 9 24 10 25 11
REMARK SMILES IDX 26 12 27 13 28 14 29 15 30 16 14 17 13 18 12 19 11 20 10 21
REMARK SMILES IDX 9 22 8 23 7 24 6 25 5 26 4 27 3 28 2 29 1 30
REMARK H PARENT
REMARK Flexibility Score: inf
ROOT
ATOM      1  C   UNL     1     -24.191  -2.713 -26.319  1.00  0.00     0.000 C 
ENDROOT
BRANCH   1   2
ATOM      2  C   UNL     1     -24.287  -1.408 -27.128  1.00  0.00     0.000 C 
BRANCH   2   3
ATOM      3  C   UNL     1     -22.945  -0.716 -27.436  1.00  0.00     0.000 C 
BRANCH   3   4
ATOM      4  C   UNL     1     -23.057   0.481 -28.404  1.00  0.00     0.000 C 
BRANCH   4   5
ATOM      5  C   UNL     1     -21.959   1.531 -28.172  1.00  0.00     0.000 C 
BRANCH   5   6
ATOM      6  C   UNL     1     -22.505   2.951 -28.364  1.00  0.00     0.000 C 
BRANCH   6   7
ATOM      7  C   UNL     1     -21.423   4.000 -28.068  1.00  0.00     0.000 C 
BRANCH   7   8
ATOM      8  C   UNL     1     -20.196   3.404 -27.357  1.00  0.00     0.000 C 
BRANCH   8   9
ATOM      9  C   UNL     1     -20.579   2.540 -26.145  1.00  0.00     0.000 C 
BRANCH   9  10
ATOM     10  C   UNL     1     -22.101   2.520 -25.944  1.00  0.00     0.000 C 
BRANCH  10  11
ATOM     11  C   UNL     1     -22.511   1.960 -24.572  1.00  0.00     0.000 C 
BRANCH  11  12
ATOM     12  C   UNL     1     -21.663   0.744 -24.154  1.00  0.00     0.006 C 
BRANCH  12  13
ATOM     13  C   UNL     1     -21.841   0.393 -22.672  1.00  0.00     0.053 C 
BRANCH  13  14
ATOM     14  C   UNL     1     -21.172  -0.899 -22.318  1.00  0.00     0.041 C 
ATOM     15  O   UNL     1     -20.048  -0.896 -21.751  1.00  0.00    -0.550 OA
ATOM     16  O   UNL     1     -21.779  -2.107 -22.635  1.00  0.00    -0.550 OA
ENDBRANCH  13  14
ENDBRANCH  12  13
ENDBRANCH  11  12
ENDBRANCH  10  11
ENDBRANCH   9  10
ENDBRANCH   8   9
ENDBRANCH   7   8
ENDBRANCH   6   7
ENDBRANCH   5   6
ENDBRANCH   4   5
ENDBRANCH   3   4
ENDBRANCH   2   3
ENDBRANCH   1   2
BRANCH   1  17
ATOM     17  C   UNL     1     -25.276  -3.734 -26.694  1.00  0.00     0.000 C 
BRANCH  17  18
ATOM     18  C   UNL     1     -26.312  -3.164 -27.679  1.00  0.00     0.000 C 
BRANCH  18  19
ATOM     19  C   UNL     1     -27.741  -3.088 -27.100  1.00  0.00     0.000 C 
BRANCH  19  20
ATOM     20  C   UNL     1     -28.726  -2.377 -28.046  1.00  0.00     0.000 C 
BRANCH  20  21
ATOM     21  C   UNL     1     -30.158  -2.944 -27.966  1.00  0.00     0.000 C 
BRANCH  21  22
ATOM     22  C   UNL     1     -31.276  -1.895 -27.822  1.00  0.00    -0.000 C 
BRANCH  22  23
ATOM     23  C   UNL     1     -31.426  -1.361 -26.387  1.00  0.00    -0.000 C 
BRANCH  23  24
ATOM     24  C   UNL     1     -32.041   0.051 -26.336  1.00  0.00    -0.000 C 
BRANCH  24  25
ATOM     25  C   UNL     1     -31.181   1.118 -25.633  1.00  0.00    -0.000 C 
BRANCH  25  26
ATOM     26  C   UNL     1     -31.048   0.876 -24.120  1.00  0.00    -0.000 C 
BRANCH  26  27
ATOM     27  C   UNL     1     -30.778  -0.599 -23.777  1.00  0.00    -0.000 C 
BRANCH  27  28
ATOM     28  C   UNL     1     -30.654  -0.912 -22.273  1.00  0.00    -0.000 C 
BRANCH  28  29
ATOM     29  C   UNL     1     -29.307  -1.550 -21.876  1.00  0.00    -0.003 C 
ATOM     30  C   UNL     1     -29.158  -1.716 -20.363  1.00  0.00     0.004 C 
ENDBRANCH  28  29
ENDBRANCH  27  28
ENDBRANCH  26  27
ENDBRANCH  25  26
ENDBRANCH  24  25
ENDBRANCH  23  24
ENDBRANCH  22  23
ENDBRANCH  21  22
ENDBRANCH  20  21
ENDBRANCH  19  20
ENDBRANCH  18  19
ENDBRANCH  17  18
ENDBRANCH   1  17
TORSDOF 26
ENDMDL
