MODEL 1
REMARK VINA RESULT:    -3.257      0.000      0.000
REMARK INTER + INTRA:          -3.600
REMARK INTER:                  -3.542
REMARK INTRA:                  -0.058
REMARK UNBOUND:                -0.058
REMARK SMILES COc1cc2ccc(=O)oc2cc1O
REMARK SMILES IDX 3 1 13 2 12 3 11 4 5 5 4 6 6 7 7 8 8 9 9 10 10 11 2 12 1 13
REMARK SMILES IDX 14 14
REMARK H PARENT 14 15
REMARK Flexibility Score: inf
ROOT
ATOM      1  C   UNL     1     -10.069   6.170  -1.754  1.00  0.00     0.161 A 
ATOM      2  C   UNL     1     -10.085   5.240  -0.704  1.00  0.00     0.161 A 
ATOM      3  C   UNL     1     -10.100   5.675   0.628  1.00  0.00     0.098 A 
ATOM      4  C   UNL     1     -10.098   7.040   0.924  1.00  0.00     0.142 A 
ATOM      5  C   UNL     1     -10.082   7.984  -0.126  1.00  0.00     0.022 A 
ATOM      6  C   UNL     1     -10.067   7.549  -1.459  1.00  0.00     0.062 A 
ATOM      7  C   UNL     1     -10.080   9.343   0.201  1.00  0.00     0.019 A 
ATOM      8  C   UNL     1     -10.095   9.726   1.542  1.00  0.00     0.094 A 
ATOM      9  C   UNL     1     -10.111   8.734   2.529  1.00  0.00     0.336 A 
ATOM     10  O   UNL     1     -10.125   9.059   3.745  1.00  0.00    -0.246 OA
ATOM     11  O   UNL     1     -10.112   7.447   2.191  1.00  0.00    -0.423 OA
ENDROOT
BRANCH   1  12
ATOM     12  O   UNL     1     -10.054   5.690  -3.073  1.00  0.00    -0.493 OA
ATOM     13  C   UNL     1      -9.060   6.014  -4.039  1.00  0.00     0.278 C 
ENDBRANCH   1  12
BRANCH   2  14
ATOM     14  O   UNL     1     -10.087   3.876  -0.995  1.00  0.00    -0.504 OA
ATOM     15  H   UNL     1      -9.231   3.333  -1.001  1.00  0.00     0.293 HD
ENDBRANCH   2  14
TORSDOF 2
ENDMDL
MODEL 2
REMARK VINA RESULT:    -3.225     12.492     15.201
REMARK INTER + INTRA:          -3.566
REMARK INTER:                  -3.521
REMARK INTRA:                  -0.045
REMARK UNBOUND:                -0.058
REMARK SMILES COc1cc2ccc(=O)oc2cc1O
REMARK SMILES IDX 3 1 13 2 12 3 11 4 5 5 4 6 6 7 7 8 8 9 9 10 10 11 2 12 1 13
REMARK SMILES IDX 14 14
REMARK H PARENT 14 15
REMARK Flexibility Score: inf
ROOT
ATOM      1  C   UNL     1      -9.968  -6.171   2.019  1.00  0.00     0.161 A 
ATOM      2  C   UNL     1      -9.950  -7.520   2.405  1.00  0.00     0.161 A 
ATOM      3  C   UNL     1      -9.979  -8.534   1.438  1.00  0.00     0.098 A 
ATOM      4  C   UNL     1     -10.027  -8.211   0.080  1.00  0.00     0.142 A 
ATOM      5  C   UNL     1     -10.046  -6.857  -0.318  1.00  0.00     0.022 A 
ATOM      6  C   UNL     1     -10.016  -5.842   0.649  1.00  0.00     0.062 A 
ATOM      7  C   UNL     1     -10.094  -6.565  -1.684  1.00  0.00     0.019 A 
ATOM      8  C   UNL     1     -10.121  -7.610  -2.608  1.00  0.00     0.094 A 
ATOM      9  C   UNL     1     -10.100  -8.928  -2.140  1.00  0.00     0.336 A 
ATOM     10  O   UNL     1     -10.124  -9.885  -2.957  1.00  0.00    -0.246 OA
ATOM     11  O   UNL     1     -10.054  -9.178  -0.834  1.00  0.00    -0.423 OA
ENDROOT
BRANCH   1  12
ATOM     12  O   UNL     1      -9.938  -5.188   3.022  1.00  0.00    -0.493 OA
ATOM     13  C   UNL     1      -9.800  -3.792   2.780  1.00  0.00     0.278 C 
ENDBRANCH   1  12
BRANCH   2  14
ATOM     14  O   UNL     1      -9.902  -7.846   3.760  1.00  0.00    -0.504 OA
ATOM     15  H   UNL     1     -10.740  -7.877   4.329  1.00  0.00     0.293 HD
ENDBRANCH   2  14
TORSDOF 2
ENDMDL
MODEL 3
REMARK VINA RESULT:    -3.173     14.140     15.860
REMARK INTER + INTRA:          -3.510
REMARK INTER:                  -3.450
REMARK INTRA:                  -0.060
REMARK UNBOUND:                -0.058
REMARK SMILES COc1cc2ccc(=O)oc2cc1O
REMARK SMILES IDX 3 1 13 2 12 3 11 4 5 5 4 6 6 7 7 8 8 9 9 10 10 11 2 12 1 13
REMARK SMILES IDX 14 14
REMARK H PARENT 14 15
REMARK Flexibility Score: inf
ROOT
ATOM      1  C   UNL     1       3.792   7.843   9.549  1.00  0.00     0.161 A 
ATOM      2  C   UNL     1       2.972   8.666   8.762  1.00  0.00     0.161 A 
ATOM      3  C   UNL     1       1.669   8.264   8.436  1.00  0.00     0.098 A 
ATOM      4  C   UNL     1       1.174   7.041   8.892  1.00  0.00     0.142 A 
ATOM      5  C   UNL     1       1.992   6.206   9.684  1.00  0.00     0.022 A 
ATOM      6  C   UNL     1       3.295   6.606  10.010  1.00  0.00     0.062 A 
ATOM      7  C   UNL     1       1.469   4.986  10.125  1.00  0.00     0.019 A 
ATOM      8  C   UNL     1       0.166   4.632   9.774  1.00  0.00     0.094 A 
ATOM      9  C   UNL     1      -0.585   5.510   8.985  1.00  0.00     0.336 A 
ATOM     10  O   UNL     1      -1.762   5.209   8.658  1.00  0.00    -0.246 OA
ATOM     11  O   UNL     1      -0.064   6.665   8.579  1.00  0.00    -0.423 OA
ENDROOT
BRANCH   1  12
ATOM     12  O   UNL     1       5.090   8.285   9.851  1.00  0.00    -0.493 OA
ATOM     13  C   UNL     1       6.282   7.600   9.480  1.00  0.00     0.278 C 
ENDBRANCH   1  12
BRANCH   2  14
ATOM     14  O   UNL     1       3.463   9.889   8.306  1.00  0.00    -0.504 OA
ATOM     15  H   UNL     1       3.538  10.693   8.919  1.00  0.00     0.293 HD
ENDBRANCH   2  14
TORSDOF 2
ENDMDL
MODEL 4
REMARK VINA RESULT:    -3.162      1.699      2.782
REMARK INTER + INTRA:          -3.497
REMARK INTER:                  -3.444
REMARK INTRA:                  -0.053
REMARK UNBOUND:                -0.058
REMARK SMILES COc1cc2ccc(=O)oc2cc1O
REMARK SMILES IDX 3 1 13 2 12 3 11 4 5 5 4 6 6 7 7 8 8 9 9 10 10 11 2 12 1 13
REMARK SMILES IDX 14 14
REMARK H PARENT 14 15
REMARK Flexibility Score: inf
ROOT
ATOM      1  C   UNL     1      -9.597   5.672  -2.984  1.00  0.00     0.161 A 
ATOM      2  C   UNL     1      -9.947   6.926  -3.507  1.00  0.00     0.161 A 
ATOM      3  C   UNL     1     -10.119   8.025  -2.654  1.00  0.00     0.098 A 
ATOM      4  C   UNL     1      -9.943   7.883  -1.276  1.00  0.00     0.142 A 
ATOM      5  C   UNL     1      -9.590   6.625  -0.742  1.00  0.00     0.022 A 
ATOM      6  C   UNL     1      -9.419   5.525  -1.593  1.00  0.00     0.062 A 
ATOM      7  C   UNL     1      -9.421   6.513   0.642  1.00  0.00     0.019 A 
ATOM      8  C   UNL     1      -9.604   7.637   1.448  1.00  0.00     0.094 A 
ATOM      9  C   UNL     1      -9.953   8.851   0.847  1.00  0.00     0.336 A 
ATOM     10  O   UNL     1     -10.122   9.877   1.557  1.00  0.00    -0.246 OA
ATOM     11  O   UNL     1     -10.107   8.931  -0.472  1.00  0.00    -0.423 OA
ENDROOT
BRANCH   1  12
ATOM     12  O   UNL     1      -9.436   4.598  -3.875  1.00  0.00    -0.493 OA
ATOM     13  C   UNL     1      -9.983   3.299  -3.679  1.00  0.00     0.278 C 
ENDBRANCH   1  12
BRANCH   2  14
ATOM     14  O   UNL     1     -10.124   7.072  -4.882  1.00  0.00    -0.504 OA
ATOM     15  H   UNL     1      -9.525   7.677  -5.433  1.00  0.00     0.293 HD
ENDBRANCH   2  14
TORSDOF 2
ENDMDL
MODEL 5
REMARK VINA RESULT:    -3.137      7.119      8.830
REMARK INTER + INTRA:          -3.470
REMARK INTER:                  -3.405
REMARK INTRA:                  -0.065
REMARK UNBOUND:                -0.058
REMARK SMILES COc1cc2ccc(=O)oc2cc1O
REMARK SMILES IDX 3 1 13 2 12 3 11 4 5 5 4 6 6 7 7 8 8 9 9 10 10 11 2 12 1 13
REMARK SMILES IDX 14 14
REMARK H PARENT 14 15
REMARK Flexibility Score: inf
ROOT
ATOM      1  C   UNL     1      -9.908   4.495  -6.885  1.00  0.00     0.161 A 
ATOM      2  C   UNL     1      -9.609   3.699  -8.001  1.00  0.00     0.161 A 
ATOM      3  C   UNL     1      -9.478   2.310  -7.865  1.00  0.00     0.098 A 
ATOM      4  C   UNL     1      -9.644   1.705  -6.618  1.00  0.00     0.142 A 
ATOM      5  C   UNL     1      -9.944   2.498  -5.489  1.00  0.00     0.022 A 
ATOM      6  C   UNL     1     -10.075   3.887  -5.624  1.00  0.00     0.062 A 
ATOM      7  C   UNL     1     -10.104   1.863  -4.253  1.00  0.00     0.019 A 
ATOM      8  C   UNL     1      -9.963   0.478  -4.171  1.00  0.00     0.094 A 
ATOM      9  C   UNL     1      -9.665  -0.243  -5.332  1.00  0.00     0.336 A 
ATOM     10  O   UNL     1      -9.534  -1.493  -5.278  1.00  0.00    -0.246 OA
ATOM     11  O   UNL     1      -9.518   0.386  -6.496  1.00  0.00    -0.423 OA
ENDROOT
BRANCH   1  12
ATOM     12  O   UNL     1     -10.030   5.882  -7.066  1.00  0.00    -0.493 OA
ATOM     13  C   UNL     1      -9.051   6.837  -6.669  1.00  0.00     0.278 C 
ENDBRANCH   1  12
BRANCH   2  14
ATOM     14  O   UNL     1      -9.444   4.300  -9.249  1.00  0.00    -0.504 OA
ATOM     15  H   UNL     1      -8.536   4.618  -9.569  1.00  0.00     0.293 HD
ENDBRANCH   2  14
TORSDOF 2
ENDMDL
MODEL 6
REMARK VINA RESULT:    -3.124     17.897     19.653
REMARK INTER + INTRA:          -3.456
REMARK INTER:                  -3.411
REMARK INTRA:                  -0.045
REMARK UNBOUND:                -0.058
REMARK SMILES COc1cc2ccc(=O)oc2cc1O
REMARK SMILES IDX 3 1 13 2 12 3 11 4 5 5 4 6 6 7 7 8 8 9 9 10 10 11 2 12 1 13
REMARK SMILES IDX 14 14
REMARK H PARENT 14 15
REMARK Flexibility Score: inf
ROOT
ATOM      1  C   UNL     1      -2.291  -5.822   8.603  1.00  0.00     0.161 A 
ATOM      2  C   UNL     1      -1.055  -5.213   8.869  1.00  0.00     0.161 A 
ATOM      3  C   UNL     1       0.103  -5.991   9.003  1.00  0.00     0.098 A 
ATOM      4  C   UNL     1       0.038  -7.380   8.874  1.00  0.00     0.142 A 
ATOM      5  C   UNL     1      -1.201  -8.001   8.607  1.00  0.00     0.022 A 
ATOM      6  C   UNL     1      -2.360  -7.224   8.473  1.00  0.00     0.062 A 
ATOM      7  C   UNL     1      -1.235  -9.393   8.484  1.00  0.00     0.019 A 
ATOM      8  C   UNL     1      -0.054 -10.123   8.626  1.00  0.00     0.094 A 
ATOM      9  C   UNL     1       1.137  -9.438   8.890  1.00  0.00     0.336 A 
ATOM     10  O   UNL     1       2.213 -10.079   9.021  1.00  0.00    -0.246 OA
ATOM     11  O   UNL     1       1.142  -8.113   9.002  1.00  0.00    -0.423 OA
ENDROOT
BRANCH   1  12
ATOM     12  O   UNL     1      -3.426  -5.004   8.477  1.00  0.00    -0.493 OA
ATOM     13  C   UNL     1      -4.767  -5.482   8.458  1.00  0.00     0.278 C 
ENDBRANCH   1  12
BRANCH   2  14
ATOM     14  O   UNL     1      -0.986  -3.826   8.998  1.00  0.00    -0.504 OA
ATOM     15  H   UNL     1      -0.590  -3.244   8.268  1.00  0.00     0.293 HD
ENDBRANCH   2  14
TORSDOF 2
ENDMDL
MODEL 7
REMARK VINA RESULT:    -3.123      6.276      7.955
REMARK INTER + INTRA:          -3.455
REMARK INTER:                  -3.392
REMARK INTRA:                  -0.064
REMARK UNBOUND:                -0.058
REMARK SMILES COc1cc2ccc(=O)oc2cc1O
REMARK SMILES IDX 3 1 13 2 12 3 11 4 5 5 4 6 6 7 7 8 8 9 9 10 10 11 2 12 1 13
REMARK SMILES IDX 14 14
REMARK H PARENT 14 15
REMARK Flexibility Score: inf
ROOT
ATOM      1  C   UNL     1      -9.934   2.508  -4.696  1.00  0.00     0.161 A 
ATOM      2  C   UNL     1     -10.052   1.875  -5.943  1.00  0.00     0.161 A 
ATOM      3  C   UNL     1     -10.112   2.634  -7.120  1.00  0.00     0.098 A 
ATOM      4  C   UNL     1     -10.055   4.028  -7.064  1.00  0.00     0.142 A 
ATOM      5  C   UNL     1      -9.937   4.674  -5.814  1.00  0.00     0.022 A 
ATOM      6  C   UNL     1      -9.877   3.916  -4.636  1.00  0.00     0.062 A 
ATOM      7  C   UNL     1      -9.882   6.071  -5.789  1.00  0.00     0.019 A 
ATOM      8  C   UNL     1      -9.946   6.780  -6.989  1.00  0.00     0.094 A 
ATOM      9  C   UNL     1     -10.063   6.072  -8.189  1.00  0.00     0.336 A 
ATOM     10  O   UNL     1     -10.121   6.694  -9.282  1.00  0.00    -0.246 OA
ATOM     11  O   UNL     1     -10.112   4.743  -8.185  1.00  0.00    -0.423 OA
ENDROOT
BRANCH   1  12
ATOM     12  O   UNL     1      -9.878   1.709  -3.543  1.00  0.00    -0.493 OA
ATOM     13  C   UNL     1      -8.678   1.359  -2.862  1.00  0.00     0.278 C 
ENDBRANCH   1  12
BRANCH   2  14
ATOM     14  O   UNL     1     -10.109   0.483  -6.003  1.00  0.00    -0.504 OA
ATOM     15  H   UNL     1     -10.419  -0.000  -6.839  1.00  0.00     0.293 HD
ENDBRANCH   2  14
TORSDOF 2
ENDMDL
MODEL 8
REMARK VINA RESULT:    -0.454      1.478      5.355
REMARK INTER + INTRA:          -0.552
REMARK INTER:                  -0.488
REMARK INTRA:                  -0.065
REMARK UNBOUND:                -0.058
REMARK SMILES COc1cc2ccc(=O)oc2cc1O
REMARK SMILES IDX 3 1 13 2 12 3 11 4 5 5 4 6 6 7 7 8 8 9 9 10 10 11 2 12 1 13
REMARK SMILES IDX 14 14
REMARK H PARENT 14 15
REMARK Flexibility Score: inf
ROOT
ATOM      1  C   UNL     1      -9.801   7.548   1.381  1.00  0.00     0.161 A 
ATOM      2  C   UNL     1      -9.756   8.686   0.561  1.00  0.00     0.161 A 
ATOM      3  C   UNL     1      -9.815   8.557  -0.834  1.00  0.00     0.098 A 
ATOM      4  C   UNL     1      -9.919   7.294  -1.421  1.00  0.00     0.142 A 
ATOM      5  C   UNL     1      -9.965   6.144  -0.604  1.00  0.00     0.022 A 
ATOM      6  C   UNL     1      -9.907   6.271   0.790  1.00  0.00     0.062 A 
ATOM      7  C   UNL     1     -10.070   4.893  -1.221  1.00  0.00     0.019 A 
ATOM      8  C   UNL     1     -10.125   4.818  -2.613  1.00  0.00     0.094 A 
ATOM      9  C   UNL     1     -10.074   6.001  -3.358  1.00  0.00     0.336 A 
ATOM     10  O   UNL     1     -10.123   5.955  -4.614  1.00  0.00    -0.246 OA
ATOM     11  O   UNL     1      -9.975   7.178  -2.746  1.00  0.00    -0.423 OA
ENDROOT
BRANCH   1  12
ATOM     12  O   UNL     1      -9.739   7.723   2.772  1.00  0.00    -0.493 OA
ATOM     13  C   UNL     1      -8.565   7.542   3.557  1.00  0.00     0.278 C 
ENDBRANCH   1  12
BRANCH   2  14
ATOM     14  O   UNL     1      -9.652   9.948   1.144  1.00  0.00    -0.504 OA
ATOM     15  H   UNL     1      -8.793  10.262   1.581  1.00  0.00     0.293 HD
ENDBRANCH   2  14
TORSDOF 2
ENDMDL
