MODEL 1
REMARK VINA RESULT:    -4.743      0.000      0.000
REMARK INTER + INTRA:          -8.171
REMARK INTER:                  -7.516
REMARK INTRA:                  -0.655
REMARK UNBOUND:                -0.655
REMARK SMILES CCCCCCCCCCCC(=O)[O-]
REMARK SMILES IDX 7 1 8 2 9 3 10 4 11 5 12 6 13 7 14 8 6 9 5 10 4 11 3 12 2 13
REMARK SMILES IDX 1 14
REMARK H PARENT
REMARK Flexibility Score: inf
ROOT
ATOM      1  C   UNL     1      10.244   2.236  -0.275  1.00  0.00     0.000 C 
ENDROOT
BRANCH   1   2
ATOM      2  C   UNL     1      10.022   3.144   0.944  1.00  0.00     0.000 C 
BRANCH   2   3
ATOM      3  C   UNL     1       8.614   3.759   0.918  1.00  0.00     0.000 C 
BRANCH   3   4
ATOM      4  C   UNL     1       8.635   5.294   0.987  1.00  0.00     0.006 C 
BRANCH   4   5
ATOM      5  C   UNL     1       9.988   5.846   1.452  1.00  0.00     0.053 C 
BRANCH   5   6
ATOM      6  C   UNL     1       9.900   6.319   2.869  1.00  0.00     0.041 C 
ATOM      7  O   UNL     1       8.820   6.788   3.314  1.00  0.00    -0.550 OA
ATOM      8  O   UNL     1      11.025   6.289   3.683  1.00  0.00    -0.550 OA
ENDBRANCH   5   6
ENDBRANCH   4   5
ENDBRANCH   3   4
ENDBRANCH   2   3
ENDBRANCH   1   2
BRANCH   1   9
ATOM      9  C   UNL     1      11.595   1.503  -0.231  1.00  0.00     0.000 C 
BRANCH   9  10
ATOM     10  C   UNL     1      12.324   1.524  -1.586  1.00  0.00    -0.000 C 
BRANCH  10  11
ATOM     11  C   UNL     1      12.001   2.779  -2.418  1.00  0.00    -0.000 C 
BRANCH  11  12
ATOM     12  C   UNL     1      11.406   2.507  -3.814  1.00  0.00    -0.000 C 
BRANCH  12  13
ATOM     13  C   UNL     1      11.124   1.026  -4.124  1.00  0.00    -0.003 C 
ATOM     14  C   UNL     1      11.763   0.560  -5.431  1.00  0.00     0.004 C 
ENDBRANCH  12  13
ENDBRANCH  11  12
ENDBRANCH  10  11
ENDBRANCH   9  10
ENDBRANCH   1   9
TORSDOF 10
ENDMDL
MODEL 2
REMARK VINA RESULT:    -4.687      3.811      6.009
REMARK INTER + INTRA:          -8.082
REMARK INTER:                  -6.883
REMARK INTRA:                  -1.199
REMARK UNBOUND:                -0.655
REMARK SMILES CCCCCCCCCCCC(=O)[O-]
REMARK SMILES IDX 7 1 8 2 9 3 10 4 11 5 12 6 13 7 14 8 6 9 5 10 4 11 3 12 2 13
REMARK SMILES IDX 1 14
REMARK H PARENT
REMARK Flexibility Score: inf
ROOT
ATOM      1  C   UNL     1       9.987   3.163   0.878  1.00  0.00     0.000 C 
ENDROOT
BRANCH   1   2
ATOM      2  C   UNL     1      10.301   2.449  -0.446  1.00  0.00     0.000 C 
BRANCH   2   3
ATOM      3  C   UNL     1      11.538   1.549  -0.302  1.00  0.00     0.000 C 
BRANCH   3   4
ATOM      4  C   UNL     1      12.310   1.386  -1.621  1.00  0.00     0.006 C 
BRANCH   4   5
ATOM      5  C   UNL     1      12.111   2.572  -2.572  1.00  0.00     0.053 C 
BRANCH   5   6
ATOM      6  C   UNL     1      11.638   2.096  -3.909  1.00  0.00     0.041 C 
ATOM      7  O   UNL     1      11.245   2.922  -4.774  1.00  0.00    -0.550 OA
ATOM      8  O   UNL     1      11.583   0.735  -4.184  1.00  0.00    -0.550 OA
ENDBRANCH   5   6
ENDBRANCH   4   5
ENDBRANCH   3   4
ENDBRANCH   2   3
ENDBRANCH   1   2
BRANCH   1   9
ATOM      9  C   UNL     1       8.551   3.711   0.932  1.00  0.00     0.000 C 
BRANCH   9  10
ATOM     10  C   UNL     1       8.503   5.247   0.873  1.00  0.00    -0.000 C 
BRANCH  10  11
ATOM     11  C   UNL     1       9.902   5.888   0.833  1.00  0.00    -0.000 C 
BRANCH  11  12
ATOM     12  C   UNL     1      10.200   6.740  -0.418  1.00  0.00    -0.000 C 
BRANCH  12  13
ATOM     13  C   UNL     1      10.879   5.985  -1.573  1.00  0.00    -0.003 C 
ATOM     14  C   UNL     1       9.896   5.552  -2.660  1.00  0.00     0.004 C 
ENDBRANCH  12  13
ENDBRANCH  11  12
ENDBRANCH  10  11
ENDBRANCH   9  10
ENDBRANCH   1   9
TORSDOF 10
ENDMDL
MODEL 3
REMARK VINA RESULT:    -4.612      2.804      3.209
REMARK INTER + INTRA:          -7.963
REMARK INTER:                  -6.956
REMARK INTRA:                  -1.007
REMARK UNBOUND:                -0.655
REMARK SMILES CCCCCCCCCCCC(=O)[O-]
REMARK SMILES IDX 7 1 8 2 9 3 10 4 11 5 12 6 13 7 14 8 6 9 5 10 4 11 3 12 2 13
REMARK SMILES IDX 1 14
REMARK H PARENT
REMARK Flexibility Score: inf
ROOT
ATOM      1  C   UNL     1      10.334   1.921  -0.574  1.00  0.00     0.000 C 
ENDROOT
BRANCH   1   2
ATOM      2  C   UNL     1      10.171   2.993   0.514  1.00  0.00     0.000 C 
BRANCH   2   3
ATOM      3  C   UNL     1       8.954   3.885   0.224  1.00  0.00     0.000 C 
BRANCH   3   4
ATOM      4  C   UNL     1       8.708   4.082  -1.281  1.00  0.00     0.006 C 
BRANCH   4   5
ATOM      5  C   UNL     1       8.857   5.544  -1.718  1.00  0.00     0.053 C 
BRANCH   5   6
ATOM      6  C   UNL     1      10.179   5.759  -2.384  1.00  0.00     0.041 C 
ATOM      7  O   UNL     1      11.242   5.722  -1.709  1.00  0.00    -0.550 OA
ATOM      8  O   UNL     1      10.235   6.050  -3.741  1.00  0.00    -0.550 OA
ENDBRANCH   5   6
ENDBRANCH   4   5
ENDBRANCH   3   4
ENDBRANCH   2   3
ENDBRANCH   1   2
BRANCH   1   9
ATOM      9  C   UNL     1      11.807   1.643  -0.917  1.00  0.00     0.000 C 
BRANCH   9  10
ATOM     10  C   UNL     1      12.299   2.467  -2.120  1.00  0.00    -0.000 C 
BRANCH  10  11
ATOM     11  C   UNL     1      11.366   2.358  -3.340  1.00  0.00    -0.000 C 
BRANCH  11  12
ATOM     12  C   UNL     1      11.343   0.979  -4.030  1.00  0.00    -0.000 C 
BRANCH  12  13
ATOM     13  C   UNL     1      11.543   1.011  -5.555  1.00  0.00    -0.003 C 
ATOM     14  C   UNL     1      11.988  -0.336  -6.124  1.00  0.00     0.004 C 
ENDBRANCH  12  13
ENDBRANCH  11  12
ENDBRANCH  10  11
ENDBRANCH   9  10
ENDBRANCH   1   9
TORSDOF 10
ENDMDL
MODEL 4
REMARK VINA RESULT:    -4.600      3.322      6.159
REMARK INTER + INTRA:          -7.945
REMARK INTER:                  -6.748
REMARK INTRA:                  -1.197
REMARK UNBOUND:                -0.655
REMARK SMILES CCCCCCCCCCCC(=O)[O-]
REMARK SMILES IDX 7 1 8 2 9 3 10 4 11 5 12 6 13 7 14 8 6 9 5 10 4 11 3 12 2 13
REMARK SMILES IDX 1 14
REMARK H PARENT
REMARK Flexibility Score: inf
ROOT
ATOM      1  C   UNL     1       9.858   4.225  -2.620  1.00  0.00     0.000 C 
ENDROOT
BRANCH   1   2
ATOM      2  C   UNL     1      11.251   3.627  -2.374  1.00  0.00     0.000 C 
BRANCH   2   3
ATOM      3  C   UNL     1      11.168   2.102  -2.204  1.00  0.00     0.000 C 
BRANCH   3   4
ATOM      4  C   UNL     1      12.334   1.533  -1.378  1.00  0.00     0.006 C 
BRANCH   4   5
ATOM      5  C   UNL     1      11.890   1.027  -0.000  1.00  0.00     0.053 C 
BRANCH   5   6
ATOM      6  C   UNL     1      12.890   0.056   0.546  1.00  0.00     0.041 C 
ATOM      7  O   UNL     1      13.933  -0.213  -0.106  1.00  0.00    -0.550 OA
ATOM      8  O   UNL     1      12.645  -0.590   1.751  1.00  0.00    -0.550 OA
ENDBRANCH   5   6
ENDBRANCH   4   5
ENDBRANCH   3   4
ENDBRANCH   2   3
ENDBRANCH   1   2
BRANCH   1   9
ATOM      9  C   UNL     1       8.731   3.383  -1.999  1.00  0.00     0.000 C 
BRANCH   9  10
ATOM     10  C   UNL     1       8.282   3.916  -0.628  1.00  0.00    -0.000 C 
BRANCH  10  11
ATOM     11  C   UNL     1       8.904   3.142   0.548  1.00  0.00    -0.000 C 
BRANCH  11  12
ATOM     12  C   UNL     1       9.980   3.907   1.344  1.00  0.00    -0.000 C 
BRANCH  12  13
ATOM     13  C   UNL     1       9.910   5.439   1.227  1.00  0.00    -0.003 C 
ATOM     14  C   UNL     1      10.286   6.152   2.525  1.00  0.00     0.004 C 
ENDBRANCH  12  13
ENDBRANCH  11  12
ENDBRANCH  10  11
ENDBRANCH   9  10
ENDBRANCH   1   9
TORSDOF 10
ENDMDL
MODEL 5
REMARK VINA RESULT:    -4.566      1.488      2.995
REMARK INTER + INTRA:          -7.890
REMARK INTER:                  -7.099
REMARK INTRA:                  -0.792
REMARK UNBOUND:                -0.655
REMARK SMILES CCCCCCCCCCCC(=O)[O-]
REMARK SMILES IDX 7 1 8 2 9 3 10 4 11 5 12 6 13 7 14 8 6 9 5 10 4 11 3 12 2 13
REMARK SMILES IDX 1 14
REMARK H PARENT
REMARK Flexibility Score: inf
ROOT
ATOM      1  C   UNL     1      10.549   4.115  -2.027  1.00  0.00     0.000 C 
ENDROOT
BRANCH   1   2
ATOM      2  C   UNL     1       9.142   4.014  -1.416  1.00  0.00     0.000 C 
BRANCH   2   3
ATOM      3  C   UNL     1       9.174   3.226  -0.097  1.00  0.00     0.000 C 
BRANCH   3   4
ATOM      4  C   UNL     1       9.752   4.043   1.069  1.00  0.00     0.006 C 
BRANCH   4   5
ATOM      5  C   UNL     1       9.112   5.432   1.192  1.00  0.00     0.053 C 
BRANCH   5   6
ATOM      6  C   UNL     1       9.713   6.184   2.337  1.00  0.00     0.041 C 
ATOM      7  O   UNL     1       9.163   7.232   2.765  1.00  0.00    -0.550 OA
ATOM      8  O   UNL     1      10.910   5.756   2.899  1.00  0.00    -0.550 OA
ENDBRANCH   5   6
ENDBRANCH   4   5
ENDBRANCH   3   4
ENDBRANCH   2   3
ENDBRANCH   1   2
BRANCH   1   9
ATOM      9  C   UNL     1      10.767   3.123  -3.181  1.00  0.00     0.000 C 
BRANCH   9  10
ATOM     10  C   UNL     1      11.329   1.773  -2.701  1.00  0.00    -0.000 C 
BRANCH  10  11
ATOM     11  C   UNL     1      12.340   1.921  -1.550  1.00  0.00    -0.000 C 
BRANCH  11  12
ATOM     12  C   UNL     1      12.037   1.078  -0.295  1.00  0.00    -0.000 C 
BRANCH  12  13
ATOM     13  C   UNL     1      13.126   0.060   0.084  1.00  0.00    -0.003 C 
ATOM     14  C   UNL     1      13.027  -0.402   1.537  1.00  0.00     0.004 C 
ENDBRANCH  12  13
ENDBRANCH  11  12
ENDBRANCH  10  11
ENDBRANCH   9  10
ENDBRANCH   1   9
TORSDOF 10
ENDMDL
MODEL 6
REMARK VINA RESULT:    -4.497      1.749      3.092
REMARK INTER + INTRA:          -7.782
REMARK INTER:                  -6.337
REMARK INTRA:                  -1.445
REMARK UNBOUND:                -0.655
REMARK SMILES CCCCCCCCCCCC(=O)[O-]
REMARK SMILES IDX 7 1 8 2 9 3 10 4 11 5 12 6 13 7 14 8 6 9 5 10 4 11 3 12 2 13
REMARK SMILES IDX 1 14
REMARK H PARENT
REMARK Flexibility Score: inf
ROOT
ATOM      1  C   UNL     1      12.061   1.597  -1.697  1.00  0.00     0.000 C 
ENDROOT
BRANCH   1   2
ATOM      2  C   UNL     1      11.507   1.565  -0.264  1.00  0.00     0.000 C 
BRANCH   2   3
ATOM      3  C   UNL     1      10.126   2.236  -0.197  1.00  0.00     0.000 C 
BRANCH   3   4
ATOM      4  C   UNL     1      10.016   3.254   0.950  1.00  0.00     0.006 C 
BRANCH   4   5
ATOM      5  C   UNL     1       8.789   4.163   0.818  1.00  0.00     0.053 C 
BRANCH   5   6
ATOM      6  C   UNL     1       9.108   5.544   1.296  1.00  0.00     0.041 C 
ATOM      7  O   UNL     1       8.547   6.542   0.771  1.00  0.00    -0.550 OA
ATOM      8  O   UNL     1      10.064   5.734   2.286  1.00  0.00    -0.550 OA
ENDBRANCH   5   6
ENDBRANCH   4   5
ENDBRANCH   3   4
ENDBRANCH   2   3
ENDBRANCH   1   2
BRANCH   1   9
ATOM      9  C   UNL     1      10.959   1.752  -2.757  1.00  0.00     0.000 C 
BRANCH   9  10
ATOM     10  C   UNL     1      11.457   2.463  -4.027  1.00  0.00    -0.000 C 
BRANCH  10  11
ATOM     11  C   UNL     1      10.715   3.784  -4.303  1.00  0.00    -0.000 C 
BRANCH  11  12
ATOM     12  C   UNL     1       9.720   4.221  -3.209  1.00  0.00    -0.000 C 
BRANCH  12  13
ATOM     13  C   UNL     1       9.964   5.626  -2.632  1.00  0.00    -0.003 C 
ATOM     14  C   UNL     1      11.204   5.697  -1.742  1.00  0.00     0.004 C 
ENDBRANCH  12  13
ENDBRANCH  11  12
ENDBRANCH  10  11
ENDBRANCH   9  10
ENDBRANCH   1   9
TORSDOF 10
ENDMDL
MODEL 7
REMARK VINA RESULT:    -4.494      3.303      5.783
REMARK INTER + INTRA:          -7.777
REMARK INTER:                  -6.617
REMARK INTRA:                  -1.159
REMARK UNBOUND:                -0.655
REMARK SMILES CCCCCCCCCCCC(=O)[O-]
REMARK SMILES IDX 7 1 8 2 9 3 10 4 11 5 12 6 13 7 14 8 6 9 5 10 4 11 3 12 2 13
REMARK SMILES IDX 1 14
REMARK H PARENT
REMARK Flexibility Score: inf
ROOT
ATOM      1  C   UNL     1      11.384   2.683  -3.665  1.00  0.00     0.000 C 
ENDROOT
BRANCH   1   2
ATOM      2  C   UNL     1      12.193   2.479  -2.376  1.00  0.00     0.000 C 
BRANCH   2   3
ATOM      3  C   UNL     1      11.715   1.228  -1.623  1.00  0.00     0.000 C 
BRANCH   3   4
ATOM      4  C   UNL     1      12.175   1.207  -0.156  1.00  0.00     0.006 C 
BRANCH   4   5
ATOM      5  C   UNL     1      13.265   0.160   0.107  1.00  0.00     0.053 C 
BRANCH   5   6
ATOM      6  C   UNL     1      13.004  -0.553   1.395  1.00  0.00     0.041 C 
ATOM      7  O   UNL     1      12.143  -1.471   1.449  1.00  0.00    -0.550 OA
ATOM      8  O   UNL     1      13.675  -0.172   2.551  1.00  0.00    -0.550 OA
ENDBRANCH   5   6
ENDBRANCH   4   5
ENDBRANCH   3   4
ENDBRANCH   2   3
ENDBRANCH   1   2
BRANCH   1   9
ATOM      9  C   UNL     1      10.517   3.953  -3.628  1.00  0.00     0.000 C 
BRANCH   9  10
ATOM     10  C   UNL     1      10.732   4.778  -2.348  1.00  0.00    -0.000 C 
BRANCH  10  11
ATOM     11  C   UNL     1       9.455   4.907  -1.498  1.00  0.00    -0.000 C 
BRANCH  11  12
ATOM     12  C   UNL     1       8.805   3.573  -1.080  1.00  0.00    -0.000 C 
BRANCH  12  13
ATOM     13  C   UNL     1       9.061   3.151   0.377  1.00  0.00    -0.003 C 
ATOM     14  C   UNL     1       9.835   4.202   1.173  1.00  0.00     0.004 C 
ENDBRANCH  12  13
ENDBRANCH  11  12
ENDBRANCH  10  11
ENDBRANCH   9  10
ENDBRANCH   1   9
TORSDOF 10
ENDMDL
MODEL 8
REMARK VINA RESULT:    -4.346      1.122      1.455
REMARK INTER + INTRA:          -7.542
REMARK INTER:                  -6.957
REMARK INTRA:                  -0.585
REMARK UNBOUND:                -0.655
REMARK SMILES CCCCCCCCCCCC(=O)[O-]
REMARK SMILES IDX 7 1 8 2 9 3 10 4 11 5 12 6 13 7 14 8 6 9 5 10 4 11 3 12 2 13
REMARK SMILES IDX 1 14
REMARK H PARENT
REMARK Flexibility Score: inf
ROOT
ATOM      1  C   UNL     1      10.249   1.818  -0.841  1.00  0.00     0.000 C 
ENDROOT
BRANCH   1   2
ATOM      2  C   UNL     1       9.710   2.749   0.256  1.00  0.00     0.000 C 
BRANCH   2   3
ATOM      3  C   UNL     1       8.929   3.922  -0.357  1.00  0.00     0.000 C 
BRANCH   3   4
ATOM      4  C   UNL     1       8.898   5.157   0.558  1.00  0.00     0.006 C 
BRANCH   4   5
ATOM      5  C   UNL     1      10.002   5.132   1.622  1.00  0.00     0.053 C 
BRANCH   5   6
ATOM      6  C   UNL     1      10.101   6.460   2.303  1.00  0.00     0.041 C 
ATOM      7  O   UNL     1      10.293   6.522   3.546  1.00  0.00    -0.550 OA
ATOM      8  O   UNL     1       9.930   7.630   1.574  1.00  0.00    -0.550 OA
ENDBRANCH   5   6
ENDBRANCH   4   5
ENDBRANCH   3   4
ENDBRANCH   2   3
ENDBRANCH   1   2
BRANCH   1   9
ATOM      9  C   UNL     1      11.785   1.811  -0.914  1.00  0.00     0.000 C 
BRANCH   9  10
ATOM     10  C   UNL     1      12.311   2.132  -2.323  1.00  0.00    -0.000 C 
BRANCH  10  11
ATOM     11  C   UNL     1      11.221   2.033  -3.406  1.00  0.00    -0.000 C 
BRANCH  11  12
ATOM     12  C   UNL     1      11.396   0.879  -4.413  1.00  0.00    -0.000 C 
BRANCH  12  13
ATOM     13  C   UNL     1      11.527   1.313  -5.883  1.00  0.00    -0.003 C 
ATOM     14  C   UNL     1      11.205   2.791  -6.098  1.00  0.00     0.004 C 
ENDBRANCH  12  13
ENDBRANCH  11  12
ENDBRANCH  10  11
ENDBRANCH   9  10
ENDBRANCH   1   9
TORSDOF 10
ENDMDL
MODEL 9
REMARK VINA RESULT:    -4.297      4.037      5.973
REMARK INTER + INTRA:          -7.464
REMARK INTER:                  -6.490
REMARK INTRA:                  -0.974
REMARK UNBOUND:                -0.655
REMARK SMILES CCCCCCCCCCCC(=O)[O-]
REMARK SMILES IDX 7 1 8 2 9 3 10 4 11 5 12 6 13 7 14 8 6 9 5 10 4 11 3 12 2 13
REMARK SMILES IDX 1 14
REMARK H PARENT
REMARK Flexibility Score: inf
ROOT
ATOM      1  C   UNL     1      10.000   3.196   0.990  1.00  0.00     0.000 C 
ENDROOT
BRANCH   1   2
ATOM      2  C   UNL     1      10.111   2.584  -0.415  1.00  0.00     0.000 C 
BRANCH   2   3
ATOM      3  C   UNL     1      11.284   1.594  -0.489  1.00  0.00     0.000 C 
BRANCH   3   4
ATOM      4  C   UNL     1      12.292   1.950  -1.594  1.00  0.00     0.006 C 
BRANCH   4   5
ATOM      5  C   UNL     1      11.690   2.856  -2.674  1.00  0.00     0.053 C 
BRANCH   5   6
ATOM      6  C   UNL     1      11.559   2.114  -3.966  1.00  0.00     0.041 C 
ATOM      7  O   UNL     1      11.805   0.880  -4.015  1.00  0.00    -0.550 OA
ATOM      8  O   UNL     1      11.215   2.794  -5.128  1.00  0.00    -0.550 OA
ENDBRANCH   5   6
ENDBRANCH   4   5
ENDBRANCH   3   4
ENDBRANCH   2   3
ENDBRANCH   1   2
BRANCH   1   9
ATOM      9  C   UNL     1       9.411   4.616   0.976  1.00  0.00     0.000 C 
BRANCH   9  10
ATOM     10  C   UNL     1       9.913   5.451  -0.214  1.00  0.00    -0.000 C 
BRANCH  10  11
ATOM     11  C   UNL     1       8.767   6.033  -1.062  1.00  0.00    -0.000 C 
BRANCH  11  12
ATOM     12  C   UNL     1       8.144   5.059  -2.083  1.00  0.00    -0.000 C 
BRANCH  12  13
ATOM     13  C   UNL     1       6.827   4.402  -1.635  1.00  0.00    -0.003 C 
ATOM     14  C   UNL     1       6.140   3.624  -2.757  1.00  0.00     0.004 C 
ENDBRANCH  12  13
ENDBRANCH  11  12
ENDBRANCH  10  11
ENDBRANCH   9  10
ENDBRANCH   1   9
TORSDOF 10
ENDMDL
