MODEL 1
REMARK VINA RESULT:    -4.763      0.000      0.000
REMARK INTER + INTRA:         -10.767
REMARK INTER:                  -8.660
REMARK INTRA:                  -2.107
REMARK UNBOUND:                -2.107
REMARK SMILES CCCCCCCCCCCCCCCC(=O)[O-]
REMARK SMILES IDX 9 1 10 2 11 3 12 4 13 5 14 6 15 7 16 8 17 9 18 10 8 11 7 12
REMARK SMILES IDX 6 13 5 14 4 15 3 16 2 17 1 18
REMARK H PARENT
REMARK Flexibility Score: inf
ROOT
ATOM      1  C   UNL     1     -23.223  60.167  27.990  1.00  0.00     0.000 C 
ENDROOT
BRANCH   1   2
ATOM      2  C   UNL     1     -24.354  59.366  28.653  1.00  0.00     0.000 C 
BRANCH   2   3
ATOM      3  C   UNL     1     -23.790  58.271  29.566  1.00  0.00     0.000 C 
BRANCH   3   4
ATOM      4  C   UNL     1     -24.366  58.388  30.985  1.00  0.00     0.000 C 
BRANCH   4   5
ATOM      5  C   UNL     1     -25.740  59.077  31.012  1.00  0.00     0.000 C 
BRANCH   5   6
ATOM      6  C   UNL     1     -26.160  59.505  32.426  1.00  0.00     0.006 C 
BRANCH   6   7
ATOM      7  C   UNL     1     -27.349  60.469  32.376  1.00  0.00     0.053 C 
BRANCH   7   8
ATOM      8  C   UNL     1     -27.579  61.089  33.717  1.00  0.00     0.041 C 
ATOM      9  O   UNL     1     -27.801  60.362  34.722  1.00  0.00    -0.550 OA
ATOM     10  O   UNL     1     -27.499  62.468  33.870  1.00  0.00    -0.550 OA
ENDBRANCH   7   8
ENDBRANCH   6   7
ENDBRANCH   5   6
ENDBRANCH   4   5
ENDBRANCH   3   4
ENDBRANCH   2   3
ENDBRANCH   1   2
BRANCH   1  11
ATOM     11  C   UNL     1     -23.424  61.685  28.107  1.00  0.00     0.000 C 
BRANCH  11  12
ATOM     12  C   UNL     1     -24.464  62.065  29.172  1.00  0.00    -0.000 C 
BRANCH  12  13
ATOM     13  C   UNL     1     -23.797  62.769  30.363  1.00  0.00    -0.000 C 
BRANCH  13  14
ATOM     14  C   UNL     1     -23.490  61.813  31.528  1.00  0.00    -0.000 C 
BRANCH  14  15
ATOM     15  C   UNL     1     -21.999  61.695  31.905  1.00  0.00    -0.000 C 
BRANCH  15  16
ATOM     16  C   UNL     1     -21.036  62.494  31.009  1.00  0.00    -0.000 C 
BRANCH  16  17
ATOM     17  C   UNL     1     -19.996  61.606  30.311  1.00  0.00    -0.003 C 
ATOM     18  C   UNL     1     -20.067  61.763  28.796  1.00  0.00     0.004 C 
ENDBRANCH  16  17
ENDBRANCH  15  16
ENDBRANCH  14  15
ENDBRANCH  13  14
ENDBRANCH  12  13
ENDBRANCH  11  12
ENDBRANCH   1  11
TORSDOF 14
ENDMDL
MODEL 2
REMARK VINA RESULT:    -4.665      1.233      2.507
REMARK INTER + INTRA:         -10.590
REMARK INTER:                  -8.686
REMARK INTRA:                  -1.905
REMARK UNBOUND:                -2.107
REMARK SMILES CCCCCCCCCCCCCCCC(=O)[O-]
REMARK SMILES IDX 9 1 10 2 11 3 12 4 13 5 14 6 15 7 16 8 17 9 18 10 8 11 7 12
REMARK SMILES IDX 6 13 5 14 4 15 3 16 2 17 1 18
REMARK H PARENT
REMARK Flexibility Score: inf
ROOT
ATOM      1  C   UNL     1     -23.385  58.126  29.317  1.00  0.00     0.000 C 
ENDROOT
BRANCH   1   2
ATOM      2  C   UNL     1     -24.041  58.389  30.681  1.00  0.00     0.000 C 
BRANCH   2   3
ATOM      3  C   UNL     1     -25.407  59.066  30.513  1.00  0.00     0.000 C 
BRANCH   3   4
ATOM      4  C   UNL     1     -26.051  59.351  31.878  1.00  0.00     0.000 C 
BRANCH   4   5
ATOM      5  C   UNL     1     -26.280  60.852  32.122  1.00  0.00     0.000 C 
BRANCH   5   6
ATOM      6  C   UNL     1     -27.737  61.178  32.481  1.00  0.00     0.006 C 
BRANCH   6   7
ATOM      7  C   UNL     1     -27.806  62.235  33.587  1.00  0.00     0.053 C 
BRANCH   7   8
ATOM      8  C   UNL     1     -27.840  61.584  34.933  1.00  0.00     0.041 C 
ATOM      9  O   UNL     1     -28.125  60.361  35.039  1.00  0.00    -0.550 OA
ATOM     10  O   UNL     1     -27.509  62.313  36.068  1.00  0.00    -0.550 OA
ENDBRANCH   7   8
ENDBRANCH   6   7
ENDBRANCH   5   6
ENDBRANCH   4   5
ENDBRANCH   3   4
ENDBRANCH   2   3
ENDBRANCH   1   2
BRANCH   1  11
ATOM     11  C   UNL     1     -23.826  59.133  28.243  1.00  0.00     0.000 C 
BRANCH  11  12
ATOM     12  C   UNL     1     -22.638  59.784  27.519  1.00  0.00    -0.000 C 
BRANCH  12  13
ATOM     13  C   UNL     1     -22.485  61.255  27.932  1.00  0.00    -0.000 C 
BRANCH  13  14
ATOM     14  C   UNL     1     -23.732  61.811  28.641  1.00  0.00    -0.000 C 
BRANCH  14  15
ATOM     15  C   UNL     1     -23.529  62.191  30.122  1.00  0.00    -0.000 C 
BRANCH  15  16
ATOM     16  C   UNL     1     -22.192  61.735  30.734  1.00  0.00    -0.000 C 
BRANCH  16  17
ATOM     17  C   UNL     1     -22.290  61.456  32.241  1.00  0.00    -0.003 C 
ATOM     18  C   UNL     1     -21.082  62.016  32.984  1.00  0.00     0.004 C 
ENDBRANCH  16  17
ENDBRANCH  15  16
ENDBRANCH  14  15
ENDBRANCH  13  14
ENDBRANCH  12  13
ENDBRANCH  11  12
ENDBRANCH   1  11
TORSDOF 14
ENDMDL
MODEL 3
REMARK VINA RESULT:    -4.624      3.404      6.376
REMARK INTER + INTRA:         -10.515
REMARK INTER:                  -8.215
REMARK INTRA:                  -2.300
REMARK UNBOUND:                -2.107
REMARK SMILES CCCCCCCCCCCCCCCC(=O)[O-]
REMARK SMILES IDX 9 1 10 2 11 3 12 4 13 5 14 6 15 7 16 8 17 9 18 10 8 11 7 12
REMARK SMILES IDX 6 13 5 14 4 15 3 16 2 17 1 18
REMARK H PARENT
REMARK Flexibility Score: inf
ROOT
ATOM      1  C   UNL     1     -23.276  59.308  33.215  1.00  0.00     0.000 C 
ENDROOT
BRANCH   1   2
ATOM      2  C   UNL     1     -23.450  60.820  33.006  1.00  0.00     0.000 C 
BRANCH   2   3
ATOM      3  C   UNL     1     -22.107  61.489  32.689  1.00  0.00     0.000 C 
BRANCH   3   4
ATOM      4  C   UNL     1     -22.181  62.274  31.370  1.00  0.00     0.000 C 
BRANCH   4   5
ATOM      5  C   UNL     1     -23.598  62.298  30.774  1.00  0.00     0.000 C 
BRANCH   5   6
ATOM      6  C   UNL     1     -23.618  61.946  29.279  1.00  0.00     0.006 C 
BRANCH   6   7
ATOM      7  C   UNL     1     -22.491  60.970  28.931  1.00  0.00     0.053 C 
BRANCH   7   8
ATOM      8  C   UNL     1     -21.500  61.616  28.016  1.00  0.00     0.041 C 
ATOM      9  O   UNL     1     -21.866  62.053  26.892  1.00  0.00    -0.550 OA
ATOM     10  O   UNL     1     -20.182  61.782  28.422  1.00  0.00    -0.550 OA
ENDBRANCH   7   8
ENDBRANCH   6   7
ENDBRANCH   5   6
ENDBRANCH   4   5
ENDBRANCH   3   4
ENDBRANCH   2   3
ENDBRANCH   1   2
BRANCH   1  11
ATOM     11  C   UNL     1     -24.453  58.493  32.657  1.00  0.00     0.000 C 
BRANCH  11  12
ATOM     12  C   UNL     1     -24.555  58.572  31.126  1.00  0.00    -0.000 C 
BRANCH  12  13
ATOM     13  C   UNL     1     -25.850  59.279  30.699  1.00  0.00    -0.000 C 
BRANCH  13  14
ATOM     14  C   UNL     1     -26.713  59.720  31.894  1.00  0.00    -0.000 C 
BRANCH  14  15
ATOM     15  C   UNL     1     -27.159  61.196  31.870  1.00  0.00    -0.000 C 
BRANCH  15  16
ATOM     16  C   UNL     1     -26.948  61.962  33.189  1.00  0.00    -0.000 C 
BRANCH  16  17
ATOM     17  C   UNL     1     -26.892  61.036  34.413  1.00  0.00    -0.003 C 
ATOM     18  C   UNL     1     -27.497  61.711  35.640  1.00  0.00     0.004 C 
ENDBRANCH  16  17
ENDBRANCH  15  16
ENDBRANCH  14  15
ENDBRANCH  13  14
ENDBRANCH  12  13
ENDBRANCH  11  12
ENDBRANCH   1  11
TORSDOF 14
ENDMDL
MODEL 4
REMARK VINA RESULT:    -4.619      2.917      5.227
REMARK INTER + INTRA:         -10.506
REMARK INTER:                  -8.408
REMARK INTRA:                  -2.098
REMARK UNBOUND:                -2.107
REMARK SMILES CCCCCCCCCCCCCCCC(=O)[O-]
REMARK SMILES IDX 9 1 10 2 11 3 12 4 13 5 14 6 15 7 16 8 17 9 18 10 8 11 7 12
REMARK SMILES IDX 6 13 5 14 4 15 3 16 2 17 1 18
REMARK H PARENT
REMARK Flexibility Score: inf
ROOT
ATOM      1  C   UNL     1     -22.845  61.637  27.748  1.00  0.00     0.000 C 
ENDROOT
BRANCH   1   2
ATOM      2  C   UNL     1     -21.344  61.636  28.072  1.00  0.00     0.000 C 
BRANCH   2   3
ATOM      3  C   UNL     1     -21.070  60.934  29.407  1.00  0.00     0.000 C 
BRANCH   3   4
ATOM      4  C   UNL     1     -20.452  61.906  30.423  1.00  0.00     0.000 C 
BRANCH   4   5
ATOM      5  C   UNL     1     -21.471  62.407  31.460  1.00  0.00     0.000 C 
BRANCH   5   6
ATOM      6  C   UNL     1     -22.223  61.261  32.153  1.00  0.00     0.006 C 
BRANCH   6   7
ATOM      7  C   UNL     1     -22.216  61.442  33.673  1.00  0.00     0.053 C 
BRANCH   7   8
ATOM      8  C   UNL     1     -20.821  61.360  34.205  1.00  0.00     0.041 C 
ATOM      9  O   UNL     1     -20.116  60.339  33.982  1.00  0.00    -0.550 OA
ATOM     10  O   UNL     1     -20.278  62.430  34.906  1.00  0.00    -0.550 OA
ENDBRANCH   7   8
ENDBRANCH   6   7
ENDBRANCH   5   6
ENDBRANCH   4   5
ENDBRANCH   3   4
ENDBRANCH   2   3
ENDBRANCH   1   2
BRANCH   1  11
ATOM     11  C   UNL     1     -23.618  60.553  28.516  1.00  0.00     0.000 C 
BRANCH  11  12
ATOM     12  C   UNL     1     -24.913  61.084  29.147  1.00  0.00    -0.000 C 
BRANCH  12  13
ATOM     13  C   UNL     1     -24.717  62.511  29.683  1.00  0.00    -0.000 C 
BRANCH  13  14
ATOM     14  C   UNL     1     -25.395  62.737  31.045  1.00  0.00    -0.000 C 
BRANCH  14  15
ATOM     15  C   UNL     1     -25.900  61.459  31.746  1.00  0.00    -0.000 C 
BRANCH  15  16
ATOM     16  C   UNL     1     -27.229  61.615  32.505  1.00  0.00    -0.000 C 
BRANCH  16  17
ATOM     17  C   UNL     1     -27.036  61.778  34.020  1.00  0.00    -0.003 C 
ATOM     18  C   UNL     1     -25.900  60.895  34.527  1.00  0.00     0.004 C 
ENDBRANCH  16  17
ENDBRANCH  15  16
ENDBRANCH  14  15
ENDBRANCH  13  14
ENDBRANCH  12  13
ENDBRANCH  11  12
ENDBRANCH   1  11
TORSDOF 14
ENDMDL
MODEL 5
REMARK VINA RESULT:    -4.607      1.799      3.320
REMARK INTER + INTRA:         -10.485
REMARK INTER:                  -8.301
REMARK INTRA:                  -2.184
REMARK UNBOUND:                -2.107
REMARK SMILES CCCCCCCCCCCCCCCC(=O)[O-]
REMARK SMILES IDX 9 1 10 2 11 3 12 4 13 5 14 6 15 7 16 8 17 9 18 10 8 11 7 12
REMARK SMILES IDX 6 13 5 14 4 15 3 16 2 17 1 18
REMARK H PARENT
REMARK Flexibility Score: inf
ROOT
ATOM      1  C   UNL     1     -22.457  61.644  27.658  1.00  0.00     0.000 C 
ENDROOT
BRANCH   1   2
ATOM      2  C   UNL     1     -23.388  60.456  27.943  1.00  0.00     0.000 C 
BRANCH   2   3
ATOM      3  C   UNL     1     -24.541  60.870  28.865  1.00  0.00     0.000 C 
BRANCH   3   4
ATOM      4  C   UNL     1     -24.400  62.337  29.297  1.00  0.00     0.000 C 
BRANCH   4   5
ATOM      5  C   UNL     1     -24.714  62.549  30.787  1.00  0.00     0.000 C 
BRANCH   5   6
ATOM      6  C   UNL     1     -24.472  61.287  31.629  1.00  0.00     0.006 C 
BRANCH   6   7
ATOM      7  C   UNL     1     -25.553  61.130  32.702  1.00  0.00     0.053 C 
BRANCH   7   8
ATOM      8  C   UNL     1     -26.634  60.212  32.227  1.00  0.00     0.041 C 
ATOM      9  O   UNL     1     -26.344  59.182  31.562  1.00  0.00    -0.550 OA
ATOM     10  O   UNL     1     -27.959  60.466  32.559  1.00  0.00    -0.550 OA
ENDBRANCH   7   8
ENDBRANCH   6   7
ENDBRANCH   5   6
ENDBRANCH   4   5
ENDBRANCH   3   4
ENDBRANCH   2   3
ENDBRANCH   1   2
BRANCH   1  11
ATOM     11  C   UNL     1     -21.055  61.456  28.258  1.00  0.00     0.000 C 
BRANCH  11  12
ATOM     12  C   UNL     1     -20.957  60.216  29.158  1.00  0.00    -0.000 C 
BRANCH  12  13
ATOM     13  C   UNL     1     -20.915  60.616  30.640  1.00  0.00    -0.000 C 
BRANCH  13  14
ATOM     14  C   UNL     1     -20.662  62.120  30.847  1.00  0.00    -0.000 C 
BRANCH  14  15
ATOM     15  C   UNL     1     -21.223  62.705  32.158  1.00  0.00    -0.000 C 
BRANCH  15  16
ATOM     16  C   UNL     1     -20.753  61.997  33.441  1.00  0.00    -0.000 C 
BRANCH  16  17
ATOM     17  C   UNL     1     -21.898  61.300  34.191  1.00  0.00    -0.003 C 
ATOM     18  C   UNL     1     -22.124  61.933  35.560  1.00  0.00     0.004 C 
ENDBRANCH  16  17
ENDBRANCH  15  16
ENDBRANCH  14  15
ENDBRANCH  13  14
ENDBRANCH  12  13
ENDBRANCH  11  12
ENDBRANCH   1  11
TORSDOF 14
ENDMDL
MODEL 6
REMARK VINA RESULT:    -4.602      1.565      2.638
REMARK INTER + INTRA:         -10.475
REMARK INTER:                  -8.239
REMARK INTRA:                  -2.237
REMARK UNBOUND:                -2.107
REMARK SMILES CCCCCCCCCCCCCCCC(=O)[O-]
REMARK SMILES IDX 9 1 10 2 11 3 12 4 13 5 14 6 15 7 16 8 17 9 18 10 8 11 7 12
REMARK SMILES IDX 6 13 5 14 4 15 3 16 2 17 1 18
REMARK H PARENT
REMARK Flexibility Score: inf
ROOT
ATOM      1  C   UNL     1     -25.133  60.052  29.281  1.00  0.00     0.000 C 
ENDROOT
BRANCH   1   2
ATOM      2  C   UNL     1     -25.537  59.015  30.340  1.00  0.00     0.000 C 
BRANCH   2   3
ATOM      3  C   UNL     1     -24.322  58.569  31.163  1.00  0.00     0.000 C 
BRANCH   3   4
ATOM      4  C   UNL     1     -24.611  58.671  32.669  1.00  0.00     0.000 C 
BRANCH   4   5
ATOM      5  C   UNL     1     -25.888  59.470  32.975  1.00  0.00     0.000 C 
BRANCH   5   6
ATOM      6  C   UNL     1     -25.591  60.899  33.453  1.00  0.00     0.006 C 
BRANCH   6   7
ATOM      7  C   UNL     1     -26.035  61.093  34.906  1.00  0.00     0.053 C 
BRANCH   7   8
ATOM      8  C   UNL     1     -27.365  61.773  34.962  1.00  0.00     0.041 C 
ATOM      9  O   UNL     1     -28.051  61.739  36.018  1.00  0.00    -0.550 OA
ATOM     10  O   UNL     1     -27.829  62.488  33.865  1.00  0.00    -0.550 OA
ENDBRANCH   7   8
ENDBRANCH   6   7
ENDBRANCH   5   6
ENDBRANCH   4   5
ENDBRANCH   3   4
ENDBRANCH   2   3
ENDBRANCH   1   2
BRANCH   1  11
ATOM     11  C   UNL     1     -25.353  61.498  29.752  1.00  0.00     0.000 C 
BRANCH  11  12
ATOM     12  C   UNL     1     -24.114  62.382  29.549  1.00  0.00    -0.000 C 
BRANCH  12  13
ATOM     13  C   UNL     1     -22.859  61.525  29.328  1.00  0.00    -0.000 C 
BRANCH  13  14
ATOM     14  C   UNL     1     -21.838  61.653  30.472  1.00  0.00    -0.000 C 
BRANCH  14  15
ATOM     15  C   UNL     1     -22.442  61.668  31.891  1.00  0.00    -0.000 C 
BRANCH  15  16
ATOM     16  C   UNL     1     -21.415  61.611  33.036  1.00  0.00    -0.000 C 
BRANCH  16  17
ATOM     17  C   UNL     1     -21.951  60.893  34.283  1.00  0.00    -0.003 C 
ATOM     18  C   UNL     1     -22.241  61.882  35.406  1.00  0.00     0.004 C 
ENDBRANCH  16  17
ENDBRANCH  15  16
ENDBRANCH  14  15
ENDBRANCH  13  14
ENDBRANCH  12  13
ENDBRANCH  11  12
ENDBRANCH   1  11
TORSDOF 14
ENDMDL
MODEL 7
REMARK VINA RESULT:    -4.555      2.360      4.993
REMARK INTER + INTRA:         -10.391
REMARK INTER:                  -8.004
REMARK INTRA:                  -2.386
REMARK UNBOUND:                -2.107
REMARK SMILES CCCCCCCCCCCCCCCC(=O)[O-]
REMARK SMILES IDX 9 1 10 2 11 3 12 4 13 5 14 6 15 7 16 8 17 9 18 10 8 11 7 12
REMARK SMILES IDX 6 13 5 14 4 15 3 16 2 17 1 18
REMARK H PARENT
REMARK Flexibility Score: inf
ROOT
ATOM      1  C   UNL     1     -23.031  60.203  28.127  1.00  0.00     0.000 C 
ENDROOT
BRANCH   1   2
ATOM      2  C   UNL     1     -23.592  61.629  28.017  1.00  0.00     0.000 C 
BRANCH   2   3
ATOM      3  C   UNL     1     -24.002  62.166  29.394  1.00  0.00     0.000 C 
BRANCH   3   4
ATOM      4  C   UNL     1     -22.857  62.015  30.407  1.00  0.00     0.000 C 
BRANCH   4   5
ATOM      5  C   UNL     1     -23.361  61.771  31.839  1.00  0.00     0.000 C 
BRANCH   5   6
ATOM      6  C   UNL     1     -22.366  60.966  32.688  1.00  0.00     0.006 C 
BRANCH   6   7
ATOM      7  C   UNL     1     -22.877  60.803  34.122  1.00  0.00     0.053 C 
BRANCH   7   8
ATOM      8  C   UNL     1     -22.049  61.613  35.069  1.00  0.00     0.041 C 
ATOM      9  O   UNL     1     -22.146  61.430  36.312  1.00  0.00    -0.550 OA
ATOM     10  O   UNL     1     -21.134  62.536  34.579  1.00  0.00    -0.550 OA
ENDBRANCH   7   8
ENDBRANCH   6   7
ENDBRANCH   5   6
ENDBRANCH   4   5
ENDBRANCH   3   4
ENDBRANCH   2   3
ENDBRANCH   1   2
BRANCH   1  11
ATOM     11  C   UNL     1     -24.104  59.173  28.512  1.00  0.00     0.000 C 
BRANCH  11  12
ATOM     12  C   UNL     1     -23.612  58.169  29.565  1.00  0.00    -0.000 C 
BRANCH  12  13
ATOM     13  C   UNL     1     -24.395  58.324  30.878  1.00  0.00    -0.000 C 
BRANCH  13  14
ATOM     14  C   UNL     1     -25.721  59.083  30.697  1.00  0.00    -0.000 C 
BRANCH  14  15
ATOM     15  C   UNL     1     -26.338  59.641  31.996  1.00  0.00    -0.000 C 
BRANCH  15  16
ATOM     16  C   UNL     1     -26.905  61.067  31.887  1.00  0.00    -0.000 C 
BRANCH  16  17
ATOM     17  C   UNL     1     -27.056  61.755  33.251  1.00  0.00    -0.003 C 
ATOM     18  C   UNL     1     -26.525  60.870  34.374  1.00  0.00     0.004 C 
ENDBRANCH  16  17
ENDBRANCH  15  16
ENDBRANCH  14  15
ENDBRANCH  13  14
ENDBRANCH  12  13
ENDBRANCH  11  12
ENDBRANCH   1  11
TORSDOF 14
ENDMDL
MODEL 8
REMARK VINA RESULT:    -4.548      3.418      6.035
REMARK INTER + INTRA:         -10.378
REMARK INTER:                  -8.037
REMARK INTRA:                  -2.341
REMARK UNBOUND:                -2.107
REMARK SMILES CCCCCCCCCCCCCCCC(=O)[O-]
REMARK SMILES IDX 9 1 10 2 11 3 12 4 13 5 14 6 15 7 16 8 17 9 18 10 8 11 7 12
REMARK SMILES IDX 6 13 5 14 4 15 3 16 2 17 1 18
REMARK H PARENT
REMARK Flexibility Score: inf
ROOT
ATOM      1  C   UNL     1     -23.077  62.174  31.090  1.00  0.00     0.000 C 
ENDROOT
BRANCH   1   2
ATOM      2  C   UNL     1     -24.612  62.232  31.098  1.00  0.00     0.000 C 
BRANCH   2   3
ATOM      3  C   UNL     1     -25.190  61.641  29.807  1.00  0.00     0.000 C 
BRANCH   3   4
ATOM      4  C   UNL     1     -25.351  60.118  29.923  1.00  0.00     0.000 C 
BRANCH   4   5
ATOM      5  C   UNL     1     -24.383  59.348  29.009  1.00  0.00     0.000 C 
BRANCH   5   6
ATOM      6  C   UNL     1     -23.600  60.272  28.064  1.00  0.00     0.006 C 
BRANCH   6   7
ATOM      7  C   UNL     1     -22.091  60.107  28.262  1.00  0.00     0.053 C 
BRANCH   7   8
ATOM      8  C   UNL     1     -21.373  61.367  27.898  1.00  0.00     0.041 C 
ATOM      9  O   UNL     1     -21.799  62.092  26.960  1.00  0.00    -0.550 OA
ATOM     10  O   UNL     1     -20.261  61.771  28.627  1.00  0.00    -0.550 OA
ENDBRANCH   7   8
ENDBRANCH   6   7
ENDBRANCH   5   6
ENDBRANCH   4   5
ENDBRANCH   3   4
ENDBRANCH   2   3
ENDBRANCH   1   2
BRANCH   1  11
ATOM     11  C   UNL     1     -22.500  61.580  32.384  1.00  0.00     0.000 C 
BRANCH  11  12
ATOM     12  C   UNL     1     -22.527  60.044  32.395  1.00  0.00    -0.000 C 
BRANCH  12  13
ATOM     13  C   UNL     1     -23.654  59.522  33.297  1.00  0.00    -0.000 C 
BRANCH  13  14
ATOM     14  C   UNL     1     -23.950  60.454  34.485  1.00  0.00    -0.000 C 
BRANCH  14  15
ATOM     15  C   UNL     1     -25.437  60.810  34.685  1.00  0.00    -0.000 C 
BRANCH  15  16
ATOM     16  C   UNL     1     -26.406  60.138  33.696  1.00  0.00    -0.000 C 
BRANCH  16  17
ATOM     17  C   UNL     1     -27.813  60.752  33.730  1.00  0.00    -0.003 C 
ATOM     18  C   UNL     1     -27.949  61.873  32.705  1.00  0.00     0.004 C 
ENDBRANCH  16  17
ENDBRANCH  15  16
ENDBRANCH  14  15
ENDBRANCH  13  14
ENDBRANCH  12  13
ENDBRANCH  11  12
ENDBRANCH   1  11
TORSDOF 14
ENDMDL
MODEL 9
REMARK VINA RESULT:    -4.482      1.751      4.188
REMARK INTER + INTRA:         -10.257
REMARK INTER:                  -8.208
REMARK INTRA:                  -2.049
REMARK UNBOUND:                -2.107
REMARK SMILES CCCCCCCCCCCCCCCC(=O)[O-]
REMARK SMILES IDX 9 1 10 2 11 3 12 4 13 5 14 6 15 7 16 8 17 9 18 10 8 11 7 12
REMARK SMILES IDX 6 13 5 14 4 15 3 16 2 17 1 18
REMARK H PARENT
REMARK Flexibility Score: inf
ROOT
ATOM      1  C   UNL     1     -21.640  61.083  32.098  1.00  0.00     0.000 C 
ENDROOT
BRANCH   1   2
ATOM      2  C   UNL     1     -21.014  62.035  33.128  1.00  0.00     0.000 C 
BRANCH   2   3
ATOM      3  C   UNL     1     -21.753  61.956  34.469  1.00  0.00     0.000 C 
BRANCH   3   4
ATOM      4  C   UNL     1     -22.299  60.541  34.714  1.00  0.00     0.000 C 
BRANCH   4   5
ATOM      5  C   UNL     1     -23.701  60.547  35.344  1.00  0.00     0.000 C 
BRANCH   5   6
ATOM      6  C   UNL     1     -24.807  60.854  34.324  1.00  0.00     0.006 C 
BRANCH   6   7
ATOM      7  C   UNL     1     -26.092  61.299  35.028  1.00  0.00     0.053 C 
BRANCH   7   8
ATOM      8  C   UNL     1     -27.191  61.503  34.034  1.00  0.00     0.041 C 
ATOM      9  O   UNL     1     -27.916  62.532  34.091  1.00  0.00    -0.550 OA
ATOM     10  O   UNL     1     -27.386  60.581  33.012  1.00  0.00    -0.550 OA
ENDBRANCH   7   8
ENDBRANCH   6   7
ENDBRANCH   5   6
ENDBRANCH   4   5
ENDBRANCH   3   4
ENDBRANCH   2   3
ENDBRANCH   1   2
BRANCH   1  11
ATOM     11  C   UNL     1     -22.182  61.819  30.863  1.00  0.00     0.000 C 
BRANCH  11  12
ATOM     12  C   UNL     1     -23.583  62.406  31.091  1.00  0.00    -0.000 C 
BRANCH  12  13
ATOM     13  C   UNL     1     -24.369  62.476  29.773  1.00  0.00    -0.000 C 
BRANCH  13  14
ATOM     14  C   UNL     1     -23.838  61.502  28.708  1.00  0.00    -0.000 C 
BRANCH  14  15
ATOM     15  C   UNL     1     -24.733  60.275  28.438  1.00  0.00    -0.000 C 
BRANCH  15  16
ATOM     16  C   UNL     1     -24.393  59.025  29.270  1.00  0.00    -0.000 C 
BRANCH  16  17
ATOM     17  C   UNL     1     -25.116  58.996  30.624  1.00  0.00    -0.003 C 
ATOM     18  C   UNL     1     -24.244  58.355  31.699  1.00  0.00     0.004 C 
ENDBRANCH  16  17
ENDBRANCH  15  16
ENDBRANCH  14  15
ENDBRANCH  13  14
ENDBRANCH  12  13
ENDBRANCH  11  12
ENDBRANCH   1  11
TORSDOF 14
ENDMDL
