MODEL 1
REMARK VINA RESULT:    -2.486      0.000      0.000
REMARK INTER + INTRA:          -8.325
REMARK INTER:                  -5.683
REMARK INTRA:                  -2.642
REMARK UNBOUND:                -2.642
REMARK SMILES CCCCCCCCCCCCCCCCCCCCCCCC(=O)[O-]
REMARK SMILES IDX 13 1 14 2 15 3 16 4 17 5 18 6 19 7 20 8 21 9 22 10 23 11
REMARK SMILES IDX 24 12 25 13 26 14 12 15 11 16 10 17 9 18 8 19 7 20 6 21 5 22
REMARK SMILES IDX 4 23 3 24 2 25 1 26
REMARK H PARENT
REMARK Flexibility Score: inf
ROOT
ATOM      1  C   UNL     1      24.497  33.639  34.964  1.00  0.00     0.000 C 
ENDROOT
BRANCH   1   2
ATOM      2  C   UNL     1      24.590  33.589  36.499  1.00  0.00     0.000 C 
BRANCH   2   3
ATOM      3  C   UNL     1      25.653  32.594  36.988  1.00  0.00     0.000 C 
BRANCH   3   4
ATOM      4  C   UNL     1      27.023  33.277  37.118  1.00  0.00     0.000 C 
BRANCH   4   5
ATOM      5  C   UNL     1      28.162  32.448  36.498  1.00  0.00     0.000 C 
BRANCH   5   6
ATOM      6  C   UNL     1      29.566  33.070  36.630  1.00  0.00     0.000 C 
BRANCH   6   7
ATOM      7  C   UNL     1      30.467  32.934  35.384  1.00  0.00     0.000 C 
BRANCH   7   8
ATOM      8  C   UNL     1      30.045  31.835  34.391  1.00  0.00     0.000 C 
BRANCH   8   9
ATOM      9  C   UNL     1      30.659  30.465  34.724  1.00  0.00     0.000 C 
BRANCH   9  10
ATOM     10  C   UNL     1      29.694  29.300  34.444  1.00  0.00     0.006 C 
BRANCH  10  11
ATOM     11  C   UNL     1      30.420  27.966  34.223  1.00  0.00     0.053 C 
BRANCH  11  12
ATOM     12  C   UNL     1      30.215  27.057  35.395  1.00  0.00     0.041 C 
ATOM     13  O   UNL     1      30.297  25.809  35.252  1.00  0.00    -0.550 OA
ATOM     14  O   UNL     1      29.957  27.591  36.653  1.00  0.00    -0.550 OA
ENDBRANCH  11  12
ENDBRANCH  10  11
ENDBRANCH   9  10
ENDBRANCH   8   9
ENDBRANCH   7   8
ENDBRANCH   6   7
ENDBRANCH   5   6
ENDBRANCH   4   5
ENDBRANCH   3   4
ENDBRANCH   2   3
ENDBRANCH   1   2
BRANCH   1  15
ATOM     15  C   UNL     1      25.217  32.455  34.297  1.00  0.00     0.000 C 
BRANCH  15  16
ATOM     16  C   UNL     1      24.851  32.312  32.809  1.00  0.00     0.000 C 
BRANCH  16  17
ATOM     17  C   UNL     1      25.111  33.606  32.016  1.00  0.00     0.000 C 
BRANCH  17  18
ATOM     18  C   UNL     1      25.723  33.337  30.625  1.00  0.00    -0.000 C 
BRANCH  18  19
ATOM     19  C   UNL     1      27.058  34.064  30.378  1.00  0.00    -0.000 C 
BRANCH  19  20
ATOM     20  C   UNL     1      28.106  33.911  31.496  1.00  0.00    -0.000 C 
BRANCH  20  21
ATOM     21  C   UNL     1      28.311  35.158  32.378  1.00  0.00    -0.000 C 
BRANCH  21  22
ATOM     22  C   UNL     1      27.577  35.065  33.728  1.00  0.00    -0.000 C 
BRANCH  22  23
ATOM     23  C   UNL     1      26.582  36.217  33.936  1.00  0.00    -0.000 C 
BRANCH  23  24
ATOM     24  C   UNL     1      26.956  37.475  33.137  1.00  0.00    -0.000 C 
BRANCH  24  25
ATOM     25  C   UNL     1      27.026  38.704  34.051  1.00  0.00    -0.003 C 
ATOM     26  C   UNL     1      26.991  39.997  33.241  1.00  0.00     0.004 C 
ENDBRANCH  24  25
ENDBRANCH  23  24
ENDBRANCH  22  23
ENDBRANCH  21  22
ENDBRANCH  20  21
ENDBRANCH  19  20
ENDBRANCH  18  19
ENDBRANCH  17  18
ENDBRANCH  16  17
ENDBRANCH  15  16
ENDBRANCH   1  15
TORSDOF 22
ENDMDL
MODEL 2
REMARK VINA RESULT:    -2.237      5.398      9.035
REMARK INTER + INTRA:          -7.756
REMARK INTER:                  -6.170
REMARK INTRA:                  -1.586
REMARK UNBOUND:                -2.642
REMARK SMILES CCCCCCCCCCCCCCCCCCCCCCCC(=O)[O-]
REMARK SMILES IDX 13 1 14 2 15 3 16 4 17 5 18 6 19 7 20 8 21 9 22 10 23 11
REMARK SMILES IDX 24 12 25 13 26 14 12 15 11 16 10 17 9 18 8 19 7 20 6 21 5 22
REMARK SMILES IDX 4 23 3 24 2 25 1 26
REMARK H PARENT
REMARK Flexibility Score: inf
ROOT
ATOM      1  C   UNL     1      30.092  29.588  34.980  1.00  0.00     0.000 C 
ENDROOT
BRANCH   1   2
ATOM      2  C   UNL     1      28.619  29.786  35.374  1.00  0.00     0.000 C 
BRANCH   2   3
ATOM      3  C   UNL     1      28.465  30.381  36.782  1.00  0.00     0.000 C 
BRANCH   3   4
ATOM      4  C   UNL     1      27.895  31.805  36.714  1.00  0.00     0.000 C 
BRANCH   4   5
ATOM      5  C   UNL     1      26.384  31.829  36.421  1.00  0.00     0.000 C 
BRANCH   5   6
ATOM      6  C   UNL     1      25.679  33.162  36.737  1.00  0.00     0.000 C 
BRANCH   6   7
ATOM      7  C   UNL     1      26.241  34.395  35.999  1.00  0.00     0.000 C 
BRANCH   7   8
ATOM      8  C   UNL     1      26.290  34.271  34.465  1.00  0.00     0.000 C 
BRANCH   8   9
ATOM      9  C   UNL     1      27.726  34.171  33.922  1.00  0.00     0.000 C 
BRANCH   9  10
ATOM     10  C   UNL     1      27.778  34.153  32.386  1.00  0.00     0.006 C 
BRANCH  10  11
ATOM     11  C   UNL     1      26.543  34.796  31.741  1.00  0.00     0.053 C 
BRANCH  11  12
ATOM     12  C   UNL     1      26.308  34.228  30.375  1.00  0.00     0.041 C 
ATOM     13  O   UNL     1      27.007  33.267  29.960  1.00  0.00    -0.550 OA
ATOM     14  O   UNL     1      25.301  34.746  29.569  1.00  0.00    -0.550 OA
ENDBRANCH  11  12
ENDBRANCH  10  11
ENDBRANCH   9  10
ENDBRANCH   8   9
ENDBRANCH   7   8
ENDBRANCH   6   7
ENDBRANCH   5   6
ENDBRANCH   4   5
ENDBRANCH   3   4
ENDBRANCH   2   3
ENDBRANCH   1   2
BRANCH   1  15
ATOM     15  C   UNL     1      30.624  30.740  34.110  1.00  0.00     0.000 C 
BRANCH  15  16
ATOM     16  C   UNL     1      30.601  30.399  32.611  1.00  0.00     0.000 C 
BRANCH  16  17
ATOM     17  C   UNL     1      30.999  28.938  32.337  1.00  0.00     0.000 C 
BRANCH  17  18
ATOM     18  C   UNL     1      30.225  28.324  31.151  1.00  0.00    -0.000 C 
BRANCH  18  19
ATOM     19  C   UNL     1      31.125  27.855  29.992  1.00  0.00    -0.000 C 
BRANCH  19  20
ATOM     20  C   UNL     1      30.856  28.534  28.636  1.00  0.00    -0.000 C 
BRANCH  20  21
ATOM     21  C   UNL     1      30.733  27.576  27.435  1.00  0.00    -0.000 C 
BRANCH  21  22
ATOM     22  C   UNL     1      29.662  26.490  27.641  1.00  0.00    -0.000 C 
BRANCH  22  23
ATOM     23  C   UNL     1      29.669  25.438  26.521  1.00  0.00    -0.000 C 
BRANCH  23  24
ATOM     24  C   UNL     1      31.044  25.295  25.851  1.00  0.00    -0.000 C 
BRANCH  24  25
ATOM     25  C   UNL     1      31.093  24.047  24.963  1.00  0.00    -0.003 C 
ATOM     26  C   UNL     1      29.931  24.026  23.974  1.00  0.00     0.004 C 
ENDBRANCH  24  25
ENDBRANCH  23  24
ENDBRANCH  22  23
ENDBRANCH  21  22
ENDBRANCH  20  21
ENDBRANCH  19  20
ENDBRANCH  18  19
ENDBRANCH  17  18
ENDBRANCH  16  17
ENDBRANCH  15  16
ENDBRANCH   1  15
TORSDOF 22
ENDMDL
MODEL 3
REMARK VINA RESULT:    -2.143      1.578      2.416
REMARK INTER + INTRA:          -7.541
REMARK INTER:                  -5.290
REMARK INTRA:                  -2.250
REMARK UNBOUND:                -2.642
REMARK SMILES CCCCCCCCCCCCCCCCCCCCCCCC(=O)[O-]
REMARK SMILES IDX 13 1 14 2 15 3 16 4 17 5 18 6 19 7 20 8 21 9 22 10 23 11
REMARK SMILES IDX 24 12 25 13 26 14 12 15 11 16 10 17 9 18 8 19 7 20 6 21 5 22
REMARK SMILES IDX 4 23 3 24 2 25 1 26
REMARK H PARENT
REMARK Flexibility Score: inf
ROOT
ATOM      1  C   UNL     1      24.707  32.965  34.207  1.00  0.00     0.000 C 
ENDROOT
BRANCH   1   2
ATOM      2  C   UNL     1      25.327  33.796  35.343  1.00  0.00     0.000 C 
BRANCH   2   3
ATOM      3  C   UNL     1      25.595  32.957  36.602  1.00  0.00     0.000 C 
BRANCH   3   4
ATOM      4  C   UNL     1      26.984  32.305  36.539  1.00  0.00     0.000 C 
BRANCH   4   5
ATOM      5  C   UNL     1      28.039  33.213  35.882  1.00  0.00     0.000 C 
BRANCH   5   6
ATOM      6  C   UNL     1      29.386  33.290  36.626  1.00  0.00     0.000 C 
BRANCH   6   7
ATOM      7  C   UNL     1      30.630  32.969  35.771  1.00  0.00     0.000 C 
BRANCH   7   8
ATOM      8  C   UNL     1      30.532  31.680  34.934  1.00  0.00     0.000 C 
BRANCH   8   9
ATOM      9  C   UNL     1      30.493  30.410  35.801  1.00  0.00     0.000 C 
BRANCH   9  10
ATOM     10  C   UNL     1      30.260  29.135  34.973  1.00  0.00     0.006 C 
BRANCH  10  11
ATOM     11  C   UNL     1      29.965  29.431  33.495  1.00  0.00     0.053 C 
BRANCH  11  12
ATOM     12  C   UNL     1      30.380  28.277  32.637  1.00  0.00     0.041 C 
ATOM     13  O   UNL     1      30.721  27.185  33.164  1.00  0.00    -0.550 OA
ATOM     14  O   UNL     1      30.368  28.400  31.252  1.00  0.00    -0.550 OA
ENDBRANCH  11  12
ENDBRANCH  10  11
ENDBRANCH   9  10
ENDBRANCH   8   9
ENDBRANCH   7   8
ENDBRANCH   6   7
ENDBRANCH   5   6
ENDBRANCH   4   5
ENDBRANCH   3   4
ENDBRANCH   2   3
ENDBRANCH   1   2
BRANCH   1  15
ATOM     15  C   UNL     1      25.711  32.676  33.079  1.00  0.00     0.000 C 
BRANCH  15  16
ATOM     16  C   UNL     1      25.248  33.242  31.725  1.00  0.00     0.000 C 
BRANCH  16  17
ATOM     17  C   UNL     1      26.382  33.962  30.973  1.00  0.00     0.000 C 
BRANCH  17  18
ATOM     18  C   UNL     1      27.685  34.039  31.796  1.00  0.00    -0.000 C 
BRANCH  18  19
ATOM     19  C   UNL     1      27.945  35.420  32.427  1.00  0.00    -0.000 C 
BRANCH  19  20
ATOM     20  C   UNL     1      26.695  36.297  32.626  1.00  0.00    -0.000 C 
BRANCH  20  21
ATOM     21  C   UNL     1      26.848  37.436  33.653  1.00  0.00    -0.000 C 
BRANCH  21  22
ATOM     22  C   UNL     1      27.063  38.810  32.996  1.00  0.00    -0.000 C 
BRANCH  22  23
ATOM     23  C   UNL     1      26.892  39.970  33.990  1.00  0.00    -0.000 C 
BRANCH  23  24
ATOM     24  C   UNL     1      25.585  39.874  34.792  1.00  0.00    -0.000 C 
BRANCH  24  25
ATOM     25  C   UNL     1      24.725  41.126  34.590  1.00  0.00    -0.003 C 
ATOM     26  C   UNL     1      25.123  41.871  33.318  1.00  0.00     0.004 C 
ENDBRANCH  24  25
ENDBRANCH  23  24
ENDBRANCH  22  23
ENDBRANCH  21  22
ENDBRANCH  20  21
ENDBRANCH  19  20
ENDBRANCH  18  19
ENDBRANCH  17  18
ENDBRANCH  16  17
ENDBRANCH  15  16
ENDBRANCH   1  15
TORSDOF 22
ENDMDL
MODEL 4
REMARK VINA RESULT:    -2.017      4.183      8.487
REMARK INTER + INTRA:          -7.252
REMARK INTER:                  -5.470
REMARK INTRA:                  -1.782
REMARK UNBOUND:                -2.642
REMARK SMILES CCCCCCCCCCCCCCCCCCCCCCCC(=O)[O-]
REMARK SMILES IDX 13 1 14 2 15 3 16 4 17 5 18 6 19 7 20 8 21 9 22 10 23 11
REMARK SMILES IDX 24 12 25 13 26 14 12 15 11 16 10 17 9 18 8 19 7 20 6 21 5 22
REMARK SMILES IDX 4 23 3 24 2 25 1 26
REMARK H PARENT
REMARK Flexibility Score: inf
ROOT
ATOM      1  C   UNL     1      24.549  32.572  34.482  1.00  0.00     0.000 C 
ENDROOT
BRANCH   1   2
ATOM      2  C   UNL     1      25.290  33.448  33.459  1.00  0.00     0.000 C 
BRANCH   2   3
ATOM      3  C   UNL     1      25.427  32.761  32.091  1.00  0.00     0.000 C 
BRANCH   3   4
ATOM      4  C   UNL     1      25.198  33.763  30.950  1.00  0.00     0.000 C 
BRANCH   4   5
ATOM      5  C   UNL     1      26.487  34.495  30.534  1.00  0.00     0.000 C 
BRANCH   5   6
ATOM      6  C   UNL     1      27.738  34.132  31.358  1.00  0.00     0.000 C 
BRANCH   6   7
ATOM      7  C   UNL     1      28.243  35.235  32.311  1.00  0.00     0.000 C 
BRANCH   7   8
ATOM      8  C   UNL     1      27.141  35.986  33.081  1.00  0.00     0.000 C 
BRANCH   8   9
ATOM      9  C   UNL     1      27.007  37.456  32.645  1.00  0.00     0.000 C 
BRANCH   9  10
ATOM     10  C   UNL     1      26.500  38.365  33.777  1.00  0.00     0.006 C 
BRANCH  10  11
ATOM     11  C   UNL     1      26.788  39.851  33.522  1.00  0.00     0.053 C 
BRANCH  11  12
ATOM     12  C   UNL     1      25.635  40.693  33.973  1.00  0.00     0.041 C 
ATOM     13  O   UNL     1      25.188  41.605  33.229  1.00  0.00    -0.550 OA
ATOM     14  O   UNL     1      25.039  40.455  35.206  1.00  0.00    -0.550 OA
ENDBRANCH  11  12
ENDBRANCH  10  11
ENDBRANCH   9  10
ENDBRANCH   8   9
ENDBRANCH   7   8
ENDBRANCH   6   7
ENDBRANCH   5   6
ENDBRANCH   4   5
ENDBRANCH   3   4
ENDBRANCH   2   3
ENDBRANCH   1   2
BRANCH   1  15
ATOM     15  C   UNL     1      24.404  33.265  35.849  1.00  0.00     0.000 C 
BRANCH  15  16
ATOM     16  C   UNL     1      25.623  34.138  36.193  1.00  0.00     0.000 C 
BRANCH  16  17
ATOM     17  C   UNL     1      26.869  33.298  36.529  1.00  0.00     0.000 C 
BRANCH  17  18
ATOM     18  C   UNL     1      28.038  33.554  35.555  1.00  0.00    -0.000 C 
BRANCH  18  19
ATOM     19  C   UNL     1      28.762  32.274  35.096  1.00  0.00    -0.000 C 
BRANCH  19  20
ATOM     20  C   UNL     1      30.246  32.180  35.496  1.00  0.00    -0.000 C 
BRANCH  20  21
ATOM     21  C   UNL     1      31.089  31.193  34.666  1.00  0.00    -0.000 C 
BRANCH  21  22
ATOM     22  C   UNL     1      30.406  30.780  33.351  1.00  0.00    -0.000 C 
BRANCH  22  23
ATOM     23  C   UNL     1      30.121  29.271  33.285  1.00  0.00    -0.000 C 
BRANCH  23  24
ATOM     24  C   UNL     1      30.036  28.623  34.676  1.00  0.00    -0.000 C 
BRANCH  24  25
ATOM     25  C   UNL     1      30.961  27.405  34.770  1.00  0.00    -0.003 C 
ATOM     26  C   UNL     1      30.205  26.112  34.475  1.00  0.00     0.004 C 
ENDBRANCH  24  25
ENDBRANCH  23  24
ENDBRANCH  22  23
ENDBRANCH  21  22
ENDBRANCH  20  21
ENDBRANCH  19  20
ENDBRANCH  18  19
ENDBRANCH  17  18
ENDBRANCH  16  17
ENDBRANCH  15  16
ENDBRANCH   1  15
TORSDOF 22
ENDMDL
MODEL 5
REMARK VINA RESULT:    -1.996      1.419      2.941
REMARK INTER + INTRA:          -7.205
REMARK INTER:                  -4.641
REMARK INTRA:                  -2.564
REMARK UNBOUND:                -2.642
REMARK SMILES CCCCCCCCCCCCCCCCCCCCCCCC(=O)[O-]
REMARK SMILES IDX 13 1 14 2 15 3 16 4 17 5 18 6 19 7 20 8 21 9 22 10 23 11
REMARK SMILES IDX 24 12 25 13 26 14 12 15 11 16 10 17 9 18 8 19 7 20 6 21 5 22
REMARK SMILES IDX 4 23 3 24 2 25 1 26
REMARK H PARENT
REMARK Flexibility Score: inf
ROOT
ATOM      1  C   UNL     1      24.779  32.436  32.205  1.00  0.00     0.000 C 
ENDROOT
BRANCH   1   2
ATOM      2  C   UNL     1      25.193  33.464  33.271  1.00  0.00     0.000 C 
BRANCH   2   3
ATOM      3  C   UNL     1      25.129  32.887  34.694  1.00  0.00     0.000 C 
BRANCH   3   4
ATOM      4  C   UNL     1      25.137  34.011  35.741  1.00  0.00     0.000 C 
BRANCH   4   5
ATOM      5  C   UNL     1      25.771  33.578  37.075  1.00  0.00     0.000 C 
BRANCH   5   6
ATOM      6  C   UNL     1      26.678  32.335  36.992  1.00  0.00     0.000 C 
BRANCH   6   7
ATOM      7  C   UNL     1      28.192  32.618  37.078  1.00  0.00     0.000 C 
BRANCH   7   8
ATOM      8  C   UNL     1      28.799  33.304  35.841  1.00  0.00     0.000 C 
BRANCH   8   9
ATOM      9  C   UNL     1      30.338  33.306  35.856  1.00  0.00     0.000 C 
BRANCH   9  10
ATOM     10  C   UNL     1      30.936  31.972  35.380  1.00  0.00     0.006 C 
BRANCH  10  11
ATOM     11  C   UNL     1      30.300  31.466  34.078  1.00  0.00     0.053 C 
BRANCH  11  12
ATOM     12  C   UNL     1      29.796  30.066  34.251  1.00  0.00     0.041 C 
ATOM     13  O   UNL     1      28.930  29.808  35.127  1.00  0.00    -0.550 OA
ATOM     14  O   UNL     1      30.266  29.050  33.426  1.00  0.00    -0.550 OA
ENDBRANCH  11  12
ENDBRANCH  10  11
ENDBRANCH   9  10
ENDBRANCH   8   9
ENDBRANCH   7   8
ENDBRANCH   6   7
ENDBRANCH   5   6
ENDBRANCH   4   5
ENDBRANCH   3   4
ENDBRANCH   2   3
ENDBRANCH   1   2
BRANCH   1  15
ATOM     15  C   UNL     1      25.200  32.862  30.788  1.00  0.00     0.000 C 
BRANCH  15  16
ATOM     16  C   UNL     1      25.766  34.292  30.752  1.00  0.00     0.000 C 
BRANCH  16  17
ATOM     17  C   UNL     1      27.260  34.322  30.382  1.00  0.00     0.000 C 
BRANCH  17  18
ATOM     18  C   UNL     1      28.137  33.557  31.395  1.00  0.00    -0.000 C 
BRANCH  18  19
ATOM     19  C   UNL     1      28.511  34.378  32.644  1.00  0.00    -0.000 C 
BRANCH  19  20
ATOM     20  C   UNL     1      28.192  35.882  32.561  1.00  0.00    -0.000 C 
BRANCH  20  21
ATOM     21  C   UNL     1      26.990  36.346  33.406  1.00  0.00    -0.000 C 
BRANCH  21  22
ATOM     22  C   UNL     1      26.518  37.766  33.047  1.00  0.00    -0.000 C 
BRANCH  22  23
ATOM     23  C   UNL     1      27.256  38.851  33.848  1.00  0.00    -0.000 C 
BRANCH  23  24
ATOM     24  C   UNL     1      26.834  40.272  33.446  1.00  0.00    -0.000 C 
BRANCH  24  25
ATOM     25  C   UNL     1      25.541  40.682  34.161  1.00  0.00    -0.003 C 
ATOM     26  C   UNL     1      24.872  41.861  33.460  1.00  0.00     0.004 C 
ENDBRANCH  24  25
ENDBRANCH  23  24
ENDBRANCH  22  23
ENDBRANCH  21  22
ENDBRANCH  20  21
ENDBRANCH  19  20
ENDBRANCH  18  19
ENDBRANCH  17  18
ENDBRANCH  16  17
ENDBRANCH  15  16
ENDBRANCH   1  15
TORSDOF 22
ENDMDL
MODEL 6
REMARK VINA RESULT:    -1.853      3.030      4.281
REMARK INTER + INTRA:          -6.879
REMARK INTER:                  -5.201
REMARK INTRA:                  -1.678
REMARK UNBOUND:                -2.642
REMARK SMILES CCCCCCCCCCCCCCCCCCCCCCCC(=O)[O-]
REMARK SMILES IDX 13 1 14 2 15 3 16 4 17 5 18 6 19 7 20 8 21 9 22 10 23 11
REMARK SMILES IDX 24 12 25 13 26 14 12 15 11 16 10 17 9 18 8 19 7 20 6 21 5 22
REMARK SMILES IDX 4 23 3 24 2 25 1 26
REMARK H PARENT
REMARK Flexibility Score: inf
ROOT
ATOM      1  C   UNL     1      26.502  34.426  34.489  1.00  0.00     0.000 C 
ENDROOT
BRANCH   1   2
ATOM      2  C   UNL     1      25.233  34.283  35.346  1.00  0.00     0.000 C 
BRANCH   2   3
ATOM      3  C   UNL     1      25.123  32.896  35.999  1.00  0.00     0.000 C 
BRANCH   3   4
ATOM      4  C   UNL     1      26.159  32.736  37.121  1.00  0.00     0.000 C 
BRANCH   4   5
ATOM      5  C   UNL     1      26.887  31.381  37.070  1.00  0.00     0.000 C 
BRANCH   5   6
ATOM      6  C   UNL     1      28.425  31.465  37.103  1.00  0.00     0.000 C 
BRANCH   6   7
ATOM      7  C   UNL     1      29.041  32.594  36.249  1.00  0.00     0.000 C 
BRANCH   7   8
ATOM      8  C   UNL     1      29.519  32.166  34.850  1.00  0.00     0.000 C 
BRANCH   8   9
ATOM      9  C   UNL     1      30.866  31.424  34.882  1.00  0.00     0.000 C 
BRANCH   9  10
ATOM     10  C   UNL     1      30.767  29.993  34.328  1.00  0.00     0.006 C 
BRANCH  10  11
ATOM     11  C   UNL     1      30.490  29.956  32.819  1.00  0.00     0.053 C 
BRANCH  11  12
ATOM     12  C   UNL     1      30.484  28.544  32.321  1.00  0.00     0.041 C 
ATOM     13  O   UNL     1      30.269  28.302  31.104  1.00  0.00    -0.550 OA
ATOM     14  O   UNL     1      30.741  27.496  33.197  1.00  0.00    -0.550 OA
ENDBRANCH  11  12
ENDBRANCH  10  11
ENDBRANCH   9  10
ENDBRANCH   8   9
ENDBRANCH   7   8
ENDBRANCH   6   7
ENDBRANCH   5   6
ENDBRANCH   4   5
ENDBRANCH   3   4
ENDBRANCH   2   3
ENDBRANCH   1   2
BRANCH   1  15
ATOM     15  C   UNL     1      26.663  35.844  33.914  1.00  0.00     0.000 C 
BRANCH  15  16
ATOM     16  C   UNL     1      27.440  35.852  32.587  1.00  0.00     0.000 C 
BRANCH  16  17
ATOM     17  C   UNL     1      28.111  34.498  32.293  1.00  0.00     0.000 C 
BRANCH  17  18
ATOM     18  C   UNL     1      27.815  33.985  30.868  1.00  0.00    -0.000 C 
BRANCH  18  19
ATOM     19  C   UNL     1      26.352  33.556  30.648  1.00  0.00    -0.000 C 
BRANCH  19  20
ATOM     20  C   UNL     1      25.345  34.711  30.501  1.00  0.00    -0.000 C 
BRANCH  20  21
ATOM     21  C   UNL     1      24.264  34.506  29.421  1.00  0.00    -0.000 C 
BRANCH  21  22
ATOM     22  C   UNL     1      24.404  35.482  28.240  1.00  0.00    -0.000 C 
BRANCH  22  23
ATOM     23  C   UNL     1      23.256  35.347  27.227  1.00  0.00    -0.000 C 
BRANCH  23  24
ATOM     24  C   UNL     1      23.199  36.521  26.237  1.00  0.00    -0.000 C 
BRANCH  24  25
ATOM     25  C   UNL     1      22.535  37.745  26.878  1.00  0.00    -0.003 C 
ATOM     26  C   UNL     1      21.733  38.539  25.850  1.00  0.00     0.004 C 
ENDBRANCH  24  25
ENDBRANCH  23  24
ENDBRANCH  22  23
ENDBRANCH  21  22
ENDBRANCH  20  21
ENDBRANCH  19  20
ENDBRANCH  18  19
ENDBRANCH  17  18
ENDBRANCH  16  17
ENDBRANCH  15  16
ENDBRANCH   1  15
TORSDOF 22
ENDMDL
MODEL 7
REMARK VINA RESULT:    -1.687      3.115      7.053
REMARK INTER + INTRA:          -6.499
REMARK INTER:                  -5.561
REMARK INTRA:                  -0.939
REMARK UNBOUND:                -2.642
REMARK SMILES CCCCCCCCCCCCCCCCCCCCCCCC(=O)[O-]
REMARK SMILES IDX 13 1 14 2 15 3 16 4 17 5 18 6 19 7 20 8 21 9 22 10 23 11
REMARK SMILES IDX 24 12 25 13 26 14 12 15 11 16 10 17 9 18 8 19 7 20 6 21 5 22
REMARK SMILES IDX 4 23 3 24 2 25 1 26
REMARK H PARENT
REMARK Flexibility Score: inf
ROOT
ATOM      1  C   UNL     1      25.525  33.913  34.339  1.00  0.00     0.000 C 
ENDROOT
BRANCH   1   2
ATOM      2  C   UNL     1      26.949  34.456  34.543  1.00  0.00     0.000 C 
BRANCH   2   3
ATOM      3  C   UNL     1      27.740  34.530  33.228  1.00  0.00     0.000 C 
BRANCH   3   4
ATOM      4  C   UNL     1      27.070  35.498  32.241  1.00  0.00     0.000 C 
BRANCH   4   5
ATOM      5  C   UNL     1      26.053  34.800  31.321  1.00  0.00     0.000 C 
BRANCH   5   6
ATOM      6  C   UNL     1      26.598  33.580  30.554  1.00  0.00     0.000 C 
BRANCH   6   7
ATOM      7  C   UNL     1      27.888  33.833  29.745  1.00  0.00     0.000 C 
BRANCH   7   8
ATOM      8  C   UNL     1      29.085  32.946  30.133  1.00  0.00     0.000 C 
BRANCH   8   9
ATOM      9  C   UNL     1      29.970  32.582  28.928  1.00  0.00     0.000 C 
BRANCH   9  10
ATOM     10  C   UNL     1      30.706  31.245  29.117  1.00  0.00     0.006 C 
BRANCH  10  11
ATOM     11  C   UNL     1      30.994  30.531  27.789  1.00  0.00     0.053 C 
BRANCH  11  12
ATOM     12  C   UNL     1      31.080  29.051  27.997  1.00  0.00     0.041 C 
ATOM     13  O   UNL     1      31.124  28.576  29.162  1.00  0.00    -0.550 OA
ATOM     14  O   UNL     1      31.086  28.193  26.903  1.00  0.00    -0.550 OA
ENDBRANCH  11  12
ENDBRANCH  10  11
ENDBRANCH   9  10
ENDBRANCH   8   9
ENDBRANCH   7   8
ENDBRANCH   6   7
ENDBRANCH   5   6
ENDBRANCH   4   5
ENDBRANCH   3   4
ENDBRANCH   2   3
ENDBRANCH   1   2
BRANCH   1  15
ATOM     15  C   UNL     1      24.887  33.436  35.655  1.00  0.00     0.000 C 
BRANCH  15  16
ATOM     16  C   UNL     1      25.913  32.790  36.602  1.00  0.00     0.000 C 
BRANCH  16  17
ATOM     17  C   UNL     1      26.898  31.871  35.857  1.00  0.00     0.000 C 
BRANCH  17  18
ATOM     18  C   UNL     1      28.165  31.565  36.684  1.00  0.00    -0.000 C 
BRANCH  18  19
ATOM     19  C   UNL     1      29.226  32.681  36.639  1.00  0.00    -0.000 C 
BRANCH  19  20
ATOM     20  C   UNL     1      30.685  32.197  36.551  1.00  0.00    -0.000 C 
BRANCH  20  21
ATOM     21  C   UNL     1      31.056  31.466  35.246  1.00  0.00    -0.000 C 
BRANCH  21  22
ATOM     22  C   UNL     1      30.879  29.941  35.342  1.00  0.00    -0.000 C 
BRANCH  22  23
ATOM     23  C   UNL     1      29.986  29.381  34.223  1.00  0.00    -0.000 C 
BRANCH  23  24
ATOM     24  C   UNL     1      30.487  28.032  33.685  1.00  0.00    -0.000 C 
BRANCH  24  25
ATOM     25  C   UNL     1      30.760  27.053  34.833  1.00  0.00    -0.003 C 
ATOM     26  C   UNL     1      30.487  25.613  34.407  1.00  0.00     0.004 C 
ENDBRANCH  24  25
ENDBRANCH  23  24
ENDBRANCH  22  23
ENDBRANCH  21  22
ENDBRANCH  20  21
ENDBRANCH  19  20
ENDBRANCH  18  19
ENDBRANCH  17  18
ENDBRANCH  16  17
ENDBRANCH  15  16
ENDBRANCH   1  15
TORSDOF 22
ENDMDL
MODEL 8
REMARK VINA RESULT:    -1.598      5.163      9.147
REMARK INTER + INTRA:          -6.296
REMARK INTER:                  -4.406
REMARK INTRA:                  -1.889
REMARK UNBOUND:                -2.642
REMARK SMILES CCCCCCCCCCCCCCCCCCCCCCCC(=O)[O-]
REMARK SMILES IDX 13 1 14 2 15 3 16 4 17 5 18 6 19 7 20 8 21 9 22 10 23 11
REMARK SMILES IDX 24 12 25 13 26 14 12 15 11 16 10 17 9 18 8 19 7 20 6 21 5 22
REMARK SMILES IDX 4 23 3 24 2 25 1 26
REMARK H PARENT
REMARK Flexibility Score: inf
ROOT
ATOM      1  C   UNL     1      25.657  33.492  34.631  1.00  0.00     0.000 C 
ENDROOT
BRANCH   1   2
ATOM      2  C   UNL     1      25.877  35.008  34.495  1.00  0.00     0.000 C 
BRANCH   2   3
ATOM      3  C   UNL     1      27.159  35.344  33.717  1.00  0.00     0.000 C 
BRANCH   3   4
ATOM      4  C   UNL     1      27.796  34.074  33.136  1.00  0.00     0.000 C 
BRANCH   4   5
ATOM      5  C   UNL     1      28.154  34.216  31.645  1.00  0.00     0.000 C 
BRANCH   5   6
ATOM      6  C   UNL     1      27.113  33.637  30.667  1.00  0.00     0.000 C 
BRANCH   6   7
ATOM      7  C   UNL     1      25.770  34.395  30.608  1.00  0.00     0.000 C 
BRANCH   7   8
ATOM      8  C   UNL     1      25.046  34.335  29.251  1.00  0.00     0.000 C 
BRANCH   8   9
ATOM      9  C   UNL     1      24.131  35.549  29.011  1.00  0.00     0.000 C 
BRANCH   9  10
ATOM     10  C   UNL     1      23.717  35.695  27.537  1.00  0.00     0.006 C 
BRANCH  10  11
ATOM     11  C   UNL     1      23.206  37.103  27.200  1.00  0.00     0.053 C 
BRANCH  11  12
ATOM     12  C   UNL     1      22.301  37.060  26.008  1.00  0.00     0.041 C 
ATOM     13  O   UNL     1      22.059  35.966  25.435  1.00  0.00    -0.550 OA
ATOM     14  O   UNL     1      21.704  38.227  25.545  1.00  0.00    -0.550 OA
ENDBRANCH  11  12
ENDBRANCH  10  11
ENDBRANCH   9  10
ENDBRANCH   8   9
ENDBRANCH   7   8
ENDBRANCH   6   7
ENDBRANCH   5   6
ENDBRANCH   4   5
ENDBRANCH   3   4
ENDBRANCH   2   3
ENDBRANCH   1   2
BRANCH   1  15
ATOM     15  C   UNL     1      24.752  33.138  35.824  1.00  0.00     0.000 C 
BRANCH  15  16
ATOM     16  C   UNL     1      25.559  32.830  37.097  1.00  0.00     0.000 C 
BRANCH  16  17
ATOM     17  C   UNL     1      26.933  32.212  36.785  1.00  0.00     0.000 C 
BRANCH  17  18
ATOM     18  C   UNL     1      28.101  33.173  37.093  1.00  0.00    -0.000 C 
BRANCH  18  19
ATOM     19  C   UNL     1      29.343  32.952  36.210  1.00  0.00    -0.000 C 
BRANCH  19  20
ATOM     20  C   UNL     1      29.474  31.543  35.601  1.00  0.00    -0.000 C 
BRANCH  20  21
ATOM     21  C   UNL     1      30.743  31.307  34.759  1.00  0.00    -0.000 C 
BRANCH  21  22
ATOM     22  C   UNL     1      30.434  30.816  33.334  1.00  0.00    -0.000 C 
BRANCH  22  23
ATOM     23  C   UNL     1      30.002  29.341  33.301  1.00  0.00    -0.000 C 
BRANCH  23  24
ATOM     24  C   UNL     1      30.480  28.557  34.533  1.00  0.00    -0.000 C 
BRANCH  24  25
ATOM     25  C   UNL     1      30.785  27.099  34.170  1.00  0.00    -0.003 C 
ATOM     26  C   UNL     1      30.021  26.134  35.071  1.00  0.00     0.004 C 
ENDBRANCH  24  25
ENDBRANCH  23  24
ENDBRANCH  22  23
ENDBRANCH  21  22
ENDBRANCH  20  21
ENDBRANCH  19  20
ENDBRANCH  18  19
ENDBRANCH  17  18
ENDBRANCH  16  17
ENDBRANCH  15  16
ENDBRANCH   1  15
TORSDOF 22
ENDMDL
MODEL 9
REMARK VINA RESULT:    -1.592      2.477      4.488
REMARK INTER + INTRA:          -6.281
REMARK INTER:                  -5.982
REMARK INTRA:                  -0.299
REMARK UNBOUND:                -2.642
REMARK SMILES CCCCCCCCCCCCCCCCCCCCCCCC(=O)[O-]
REMARK SMILES IDX 13 1 14 2 15 3 16 4 17 5 18 6 19 7 20 8 21 9 22 10 23 11
REMARK SMILES IDX 24 12 25 13 26 14 12 15 11 16 10 17 9 18 8 19 7 20 6 21 5 22
REMARK SMILES IDX 4 23 3 24 2 25 1 26
REMARK H PARENT
REMARK Flexibility Score: inf
ROOT
ATOM      1  C   UNL     1      25.382  33.558  34.634  1.00  0.00     0.000 C 
ENDROOT
BRANCH   1   2
ATOM      2  C   UNL     1      24.760  33.389  36.030  1.00  0.00     0.000 C 
BRANCH   2   3
ATOM      3  C   UNL     1      25.808  33.041  37.099  1.00  0.00     0.000 C 
BRANCH   3   4
ATOM      4  C   UNL     1      26.516  31.721  36.761  1.00  0.00     0.000 C 
BRANCH   4   5
ATOM      5  C   UNL     1      28.015  31.744  37.107  1.00  0.00     0.000 C 
BRANCH   5   6
ATOM      6  C   UNL     1      28.799  32.937  36.526  1.00  0.00     0.000 C 
BRANCH   6   7
ATOM      7  C   UNL     1      30.147  32.580  35.864  1.00  0.00     0.000 C 
BRANCH   7   8
ATOM      8  C   UNL     1      30.037  31.821  34.529  1.00  0.00     0.000 C 
BRANCH   8   9
ATOM      9  C   UNL     1      30.779  30.474  34.547  1.00  0.00     0.000 C 
BRANCH   9  10
ATOM     10  C   UNL     1      29.823  29.272  34.614  1.00  0.00     0.006 C 
BRANCH  10  11
ATOM     11  C   UNL     1      30.517  27.941  34.289  1.00  0.00     0.053 C 
BRANCH  11  12
ATOM     12  C   UNL     1      30.224  26.925  35.349  1.00  0.00     0.041 C 
ATOM     13  O   UNL     1      29.602  25.869  35.059  1.00  0.00    -0.550 OA
ATOM     14  O   UNL     1      30.659  27.133  36.652  1.00  0.00    -0.550 OA
ENDBRANCH  11  12
ENDBRANCH  10  11
ENDBRANCH   9  10
ENDBRANCH   8   9
ENDBRANCH   7   8
ENDBRANCH   6   7
ENDBRANCH   5   6
ENDBRANCH   4   5
ENDBRANCH   3   4
ENDBRANCH   2   3
ENDBRANCH   1   2
BRANCH   1  15
ATOM     15  C   UNL     1      26.577  34.528  34.640  1.00  0.00     0.000 C 
BRANCH  15  16
ATOM     16  C   UNL     1      26.691  35.322  33.327  1.00  0.00     0.000 C 
BRANCH  16  17
ATOM     17  C   UNL     1      28.080  35.182  32.679  1.00  0.00     0.000 C 
BRANCH  17  18
ATOM     18  C   UNL     1      28.358  33.751  32.172  1.00  0.00    -0.000 C 
BRANCH  18  19
ATOM     19  C   UNL     1      28.413  33.630  30.637  1.00  0.00    -0.000 C 
BRANCH  19  20
ATOM     20  C   UNL     1      29.495  32.680  30.092  1.00  0.00    -0.000 C 
BRANCH  20  21
ATOM     21  C   UNL     1      30.399  32.032  31.160  1.00  0.00    -0.000 C 
BRANCH  21  22
ATOM     22  C   UNL     1      30.776  30.579  30.824  1.00  0.00    -0.000 C 
BRANCH  22  23
ATOM     23  C   UNL     1      31.118  30.389  29.338  1.00  0.00    -0.000 C 
BRANCH  23  24
ATOM     24  C   UNL     1      30.803  31.633  28.494  1.00  0.00    -0.000 C 
BRANCH  24  25
ATOM     25  C   UNL     1      30.044  31.251  27.218  1.00  0.00    -0.003 C 
ATOM     26  C   UNL     1      30.871  30.313  26.343  1.00  0.00     0.004 C 
ENDBRANCH  24  25
ENDBRANCH  23  24
ENDBRANCH  22  23
ENDBRANCH  21  22
ENDBRANCH  20  21
ENDBRANCH  19  20
ENDBRANCH  18  19
ENDBRANCH  17  18
ENDBRANCH  16  17
ENDBRANCH  15  16
ENDBRANCH   1  15
TORSDOF 22
ENDMDL
