MODEL 1
REMARK VINA RESULT:    -4.293      0.000      0.000
REMARK INTER + INTRA:          -4.907
REMARK INTER:                  -4.670
REMARK INTRA:                  -0.237
REMARK UNBOUND:                -0.237
REMARK SMILES CC1(C)CC[C@@]2(C(=O)[O-])CC[C@@]3(C)C(=CC[C@H]4[C@@]5(C)CC[C@@H](O)C(C)(C)[C@@H]5CC[C@]43C)[C@H]2C1
REMARK SMILES IDX 6 1 5 2 10 3 32 4 4 5 11 6 14 7 33 8 2 9 12 10 15 11 1 12
REMARK SMILES IDX 3 13 13 14 30 15 16 16 17 17 29 18 31 19 18 20 28 21 27 22
REMARK SMILES IDX 20 23 19 24 24 25 21 26 22 27 25 28 26 29 7 30 8 31 9 32
REMARK SMILES IDX 23 33
REMARK H PARENT 23 34
REMARK Flexibility Score: inf
ROOT
ATOM      1  C   UNL     1      54.278   8.128  91.277  1.00  0.00     0.017 C 
ATOM      2  C   UNL     1      54.579   7.136  92.424  1.00  0.00     0.014 C 
ATOM      3  C   UNL     1      53.504   7.412  90.146  1.00  0.00     0.014 C 
ATOM      4  C   UNL     1      53.436   9.338  91.817  1.00  0.00     0.028 C 
ATOM      5  C   UNL     1      53.324   6.562  93.104  1.00  0.00     0.007 C 
ATOM      6  C   UNL     1      53.254   8.348  88.965  1.00  0.00     0.013 C 
ATOM      7  C   UNL     1      52.548  10.043  90.766  1.00  0.00    -0.064 C 
ATOM      8  C   UNL     1      52.685   9.064  93.175  1.00  0.00     0.015 C 
ATOM      9  C   UNL     1      52.208   7.605  93.439  1.00  0.00    -0.035 C 
ATOM     10  C   UNL     1      52.346   9.581  89.311  1.00  0.00    -0.006 C 
ATOM     11  C   UNL     1      52.069  11.249  91.102  1.00  0.00    -0.027 C 
ATOM     12  C   UNL     1      51.857   7.490  94.943  1.00  0.00     0.011 C 
ATOM     13  C   UNL     1      50.895   7.328  92.644  1.00  0.00     0.011 C 
ATOM     14  C   UNL     1      50.875   9.092  89.166  1.00  0.00     0.017 C 
ATOM     15  C   UNL     1      52.638  10.835  88.331  1.00  0.00    -0.020 C 
ATOM     16  C   UNL     1      51.301  12.147  90.172  1.00  0.00     0.032 C 
ATOM     17  C   UNL     1      51.590  11.997  88.630  1.00  0.00     0.006 C 
ATOM     18  C   UNL     1      54.101  11.377  88.550  1.00  0.00     0.008 C 
ATOM     19  C   UNL     1      52.520  10.366  86.844  1.00  0.00     0.012 C 
ATOM     20  C   UNL     1      51.897  13.407  87.940  1.00  0.00    -0.025 C 
ATOM     21  C   UNL     1      54.397  12.725  87.882  1.00  0.00     0.005 C 
ATOM     22  C   UNL     1      53.377  13.807  88.318  1.00  0.00     0.003 C 
ATOM     23  C   UNL     1      50.875  14.506  88.451  1.00  0.00     0.010 C 
ATOM     24  C   UNL     1      51.693  13.330  86.391  1.00  0.00     0.012 C 
ATOM     25  C   UNL     1      53.803  15.305  87.969  1.00  0.00    -0.006 C 
ATOM     26  C   UNL     1      51.533  15.687  89.172  1.00  0.00     0.033 C 
ATOM     27  C   UNL     1      52.626  16.313  88.306  1.00  0.00     0.120 C 
ATOM     28  C   UNL     1      55.073  15.664  88.811  1.00  0.00     0.014 C 
ATOM     29  C   UNL     1      54.203  15.489  86.479  1.00  0.00     0.014 C 
ENDROOT
BRANCH   1  30
ATOM     30  C   UNL     1      55.643   8.573  90.735  1.00  0.00     0.048 C 
ATOM     31  O   UNL     1      56.104   9.697  91.061  1.00  0.00    -0.550 OA
ATOM     32  O   UNL     1      56.392   7.782  89.874  1.00  0.00    -0.550 OA
ENDBRANCH   1  30
BRANCH  27  33
ATOM     33  O   UNL     1      53.101  17.465  88.972  1.00  0.00    -0.393 OA
ATOM     34  H   UNL     1      52.728  17.458  89.896  1.00  0.00     0.210 HD
ENDBRANCH  27  33
TORSDOF 2
ENDMDL
MODEL 2
REMARK VINA RESULT:    -3.964      2.288      3.763
REMARK INTER + INTRA:          -4.549
REMARK INTER:                  -4.632
REMARK INTRA:                   0.083
REMARK UNBOUND:                -0.237
REMARK SMILES CC1(C)CC[C@@]2(C(=O)[O-])CC[C@@]3(C)C(=CC[C@H]4[C@@]5(C)CC[C@@H](O)C(C)(C)[C@@H]5CC[C@]43C)[C@H]2C1
REMARK SMILES IDX 6 1 5 2 10 3 32 4 4 5 11 6 14 7 33 8 2 9 12 10 15 11 1 12
REMARK SMILES IDX 3 13 13 14 30 15 16 16 17 17 29 18 31 19 18 20 28 21 27 22
REMARK SMILES IDX 20 23 19 24 24 25 21 26 22 27 25 28 26 29 7 30 8 31 9 32
REMARK SMILES IDX 23 33
REMARK H PARENT 23 34
REMARK Flexibility Score: inf
ROOT
ATOM      1  C   UNL     1      51.783   9.792  92.545  1.00  0.00     0.017 C 
ATOM      2  C   UNL     1      51.055   8.568  93.147  1.00  0.00     0.014 C 
ATOM      3  C   UNL     1      53.291   9.730  92.880  1.00  0.00     0.014 C 
ATOM      4  C   UNL     1      51.582   9.829  90.989  1.00  0.00     0.028 C 
ATOM      5  C   UNL     1      51.529   7.217  92.585  1.00  0.00     0.007 C 
ATOM      6  C   UNL     1      54.027  10.964  92.361  1.00  0.00     0.013 C 
ATOM      7  C   UNL     1      52.695  10.553  90.199  1.00  0.00    -0.064 C 
ATOM      8  C   UNL     1      51.163   8.452  90.347  1.00  0.00     0.015 C 
ATOM      9  C   UNL     1      51.697   7.159  91.031  1.00  0.00    -0.035 C 
ATOM     10  C   UNL     1      54.000  11.110  90.799  1.00  0.00    -0.006 C 
ATOM     11  C   UNL     1      52.412  10.878  88.930  1.00  0.00    -0.027 C 
ATOM     12  C   UNL     1      50.875   5.965  90.487  1.00  0.00     0.011 C 
ATOM     13  C   UNL     1      53.181   6.917  90.615  1.00  0.00     0.011 C 
ATOM     14  C   UNL     1      55.178  10.247  90.260  1.00  0.00     0.017 C 
ATOM     15  C   UNL     1      54.156  12.653  90.338  1.00  0.00    -0.020 C 
ATOM     16  C   UNL     1      53.307  11.698  88.043  1.00  0.00     0.032 C 
ATOM     17  C   UNL     1      54.272  12.724  88.750  1.00  0.00     0.006 C 
ATOM     18  C   UNL     1      52.914  13.498  90.812  1.00  0.00     0.008 C 
ATOM     19  C   UNL     1      55.432  13.264  91.004  1.00  0.00     0.012 C 
ATOM     20  C   UNL     1      54.166  14.185  88.108  1.00  0.00    -0.025 C 
ATOM     21  C   UNL     1      52.817  14.901  90.202  1.00  0.00     0.005 C 
ATOM     22  C   UNL     1      52.840  14.846  88.653  1.00  0.00     0.003 C 
ATOM     23  C   UNL     1      54.132  14.091  86.526  1.00  0.00     0.010 C 
ATOM     24  C   UNL     1      55.429  15.042  88.452  1.00  0.00     0.012 C 
ATOM     25  C   UNL     1      52.389  16.196  87.931  1.00  0.00    -0.006 C 
ATOM     26  C   UNL     1      52.858  14.657  85.892  1.00  0.00     0.033 C 
ATOM     27  C   UNL     1      52.603  16.089  86.363  1.00  0.00     0.120 C 
ATOM     28  C   UNL     1      50.875  16.442  88.248  1.00  0.00     0.014 C 
ATOM     29  C   UNL     1      53.150  17.446  88.452  1.00  0.00     0.014 C 
ENDROOT
BRANCH   1  30
ATOM     30  C   UNL     1      51.176  11.022  93.234  1.00  0.00     0.048 C 
ATOM     31  O   UNL     1      50.918  10.981  94.464  1.00  0.00    -0.550 OA
ATOM     32  O   UNL     1      50.882  12.189  92.541  1.00  0.00    -0.550 OA
ENDBRANCH   1  30
BRANCH  27  33
ATOM     33  O   UNL     1      51.493  16.591  85.649  1.00  0.00    -0.393 OA
ATOM     34  H   UNL     1      51.056  17.284  86.216  1.00  0.00     0.210 HD
ENDBRANCH  27  33
TORSDOF 2
ENDMDL
