MODEL 1
REMARK VINA RESULT:    -3.160      0.000      0.000
REMARK INTER + INTRA:          -6.842
REMARK INTER:                  -5.377
REMARK INTRA:                  -1.465
REMARK UNBOUND:                -1.465
REMARK SMILES CCCCCCCCCCCCCC(=O)[O-]
REMARK SMILES IDX 8 1 9 2 10 3 11 4 12 5 13 6 14 7 15 8 16 9 7 10 6 11 5 12
REMARK SMILES IDX 4 13 3 14 2 15 1 16
REMARK H PARENT
REMARK Flexibility Score: inf
ROOT
ATOM      1  C   UNL     1       6.140 -37.217  16.309  1.00  0.00     0.000 C 
ENDROOT
BRANCH   1   2
ATOM      2  C   UNL     1       6.259 -35.684  16.396  1.00  0.00     0.000 C 
BRANCH   2   3
ATOM      3  C   UNL     1       7.525 -35.163  17.107  1.00  0.00     0.000 C 
BRANCH   3   4
ATOM      4  C   UNL     1       7.266 -34.315  18.364  1.00  0.00     0.000 C 
BRANCH   4   5
ATOM      5  C   UNL     1       7.454 -32.811  18.119  1.00  0.00     0.006 C 
BRANCH   5   6
ATOM      6  C   UNL     1       8.765 -32.538  17.375  1.00  0.00     0.053 C 
BRANCH   6   7
ATOM      7  C   UNL     1       9.617 -31.580  18.149  1.00  0.00     0.041 C 
ATOM      8  O   UNL     1      10.399 -30.799  17.545  1.00  0.00    -0.550 OA
ATOM      9  O   UNL     1       9.511 -31.517  19.532  1.00  0.00    -0.550 OA
ENDBRANCH   6   7
ENDBRANCH   5   6
ENDBRANCH   4   5
ENDBRANCH   3   4
ENDBRANCH   2   3
ENDBRANCH   1   2
BRANCH   1  10
ATOM     10  C   UNL     1       6.303 -37.747  14.874  1.00  0.00     0.000 C 
BRANCH  10  11
ATOM     11  C   UNL     1       6.804 -36.665  13.902  1.00  0.00    -0.000 C 
BRANCH  11  12
ATOM     12  C   UNL     1       8.298 -36.819  13.569  1.00  0.00    -0.000 C 
BRANCH  12  13
ATOM     13  C   UNL     1       8.898 -35.559  12.921  1.00  0.00    -0.000 C 
BRANCH  13  14
ATOM     14  C   UNL     1       9.551 -34.563  13.901  1.00  0.00    -0.000 C 
BRANCH  14  15
ATOM     15  C   UNL     1       9.016 -33.123  13.817  1.00  0.00    -0.003 C 
ATOM     16  C   UNL     1       7.490 -33.057  13.775  1.00  0.00     0.004 C 
ENDBRANCH  14  15
ENDBRANCH  13  14
ENDBRANCH  12  13
ENDBRANCH  11  12
ENDBRANCH  10  11
ENDBRANCH   1  10
TORSDOF 12
ENDMDL
MODEL 2
REMARK VINA RESULT:    -2.847     12.111     14.857
REMARK INTER + INTRA:          -6.309
REMARK INTER:                  -5.760
REMARK INTRA:                  -0.549
REMARK UNBOUND:                -1.465
REMARK SMILES CCCCCCCCCCCCCC(=O)[O-]
REMARK SMILES IDX 8 1 9 2 10 3 11 4 12 5 13 6 14 7 15 8 16 9 7 10 6 11 5 12
REMARK SMILES IDX 4 13 3 14 2 15 1 16
REMARK H PARENT
REMARK Flexibility Score: inf
ROOT
ATOM      1  C   UNL     1      21.289 -27.769  14.072  1.00  0.00     0.000 C 
ENDROOT
BRANCH   1   2
ATOM      2  C   UNL     1      21.189 -28.734  12.875  1.00  0.00     0.000 C 
BRANCH   2   3
ATOM      3  C   UNL     1      19.954 -29.657  12.876  1.00  0.00     0.000 C 
BRANCH   3   4
ATOM      4  C   UNL     1      19.771 -30.503  14.148  1.00  0.00     0.000 C 
BRANCH   4   5
ATOM      5  C   UNL     1      19.064 -31.838  13.881  1.00  0.00     0.006 C 
BRANCH   5   6
ATOM      6  C   UNL     1      17.640 -31.610  13.366  1.00  0.00     0.053 C 
BRANCH   6   7
ATOM      7  C   UNL     1      16.665 -31.615  14.502  1.00  0.00     0.041 C 
ATOM      8  O   UNL     1      16.929 -32.244  15.561  1.00  0.00    -0.550 OA
ATOM      9  O   UNL     1      15.487 -30.884  14.410  1.00  0.00    -0.550 OA
ENDBRANCH   6   7
ENDBRANCH   5   6
ENDBRANCH   4   5
ENDBRANCH   3   4
ENDBRANCH   2   3
ENDBRANCH   1   2
BRANCH   1  10
ATOM     10  C   UNL     1      21.553 -26.315  13.644  1.00  0.00     0.000 C 
BRANCH  10  11
ATOM     11  C   UNL     1      20.321 -25.659  12.998  1.00  0.00    -0.000 C 
BRANCH  11  12
ATOM     12  C   UNL     1      20.277 -24.138  13.228  1.00  0.00    -0.000 C 
BRANCH  12  13
ATOM     13  C   UNL     1      20.251 -23.761  14.720  1.00  0.00    -0.000 C 
BRANCH  13  14
ATOM     14  C   UNL     1      20.646 -22.305  15.037  1.00  0.00    -0.000 C 
BRANCH  14  15
ATOM     15  C   UNL     1      19.650 -21.240  14.543  1.00  0.00    -0.003 C 
ATOM     16  C   UNL     1      20.069 -19.818  14.912  1.00  0.00     0.004 C 
ENDBRANCH  14  15
ENDBRANCH  13  14
ENDBRANCH  12  13
ENDBRANCH  11  12
ENDBRANCH  10  11
ENDBRANCH   1  10
TORSDOF 12
ENDMDL
MODEL 3
REMARK VINA RESULT:    -2.814      1.990      4.536
REMARK INTER + INTRA:          -6.252
REMARK INTER:                  -4.957
REMARK INTRA:                  -1.295
REMARK UNBOUND:                -1.465
REMARK SMILES CCCCCCCCCCCCCC(=O)[O-]
REMARK SMILES IDX 8 1 9 2 10 3 11 4 12 5 13 6 14 7 15 8 16 9 7 10 6 11 5 12
REMARK SMILES IDX 4 13 3 14 2 15 1 16
REMARK H PARENT
REMARK Flexibility Score: inf
ROOT
ATOM      1  C   UNL     1       5.981 -36.942  15.652  1.00  0.00     0.000 C 
ENDROOT
BRANCH   1   2
ATOM      2  C   UNL     1       6.128 -36.968  14.119  1.00  0.00     0.000 C 
BRANCH   2   3
ATOM      3  C   UNL     1       7.325 -37.782  13.587  1.00  0.00     0.000 C 
BRANCH   3   4
ATOM      4  C   UNL     1       8.665 -37.027  13.552  1.00  0.00     0.000 C 
BRANCH   4   5
ATOM      5  C   UNL     1       8.497 -35.524  13.294  1.00  0.00     0.006 C 
BRANCH   5   6
ATOM      6  C   UNL     1       9.755 -34.753  13.702  1.00  0.00     0.053 C 
BRANCH   6   7
ATOM      7  C   UNL     1       9.494 -33.279  13.693  1.00  0.00     0.041 C 
ATOM      8  O   UNL     1      10.449 -32.466  13.806  1.00  0.00    -0.550 OA
ATOM      9  O   UNL     1       8.201 -32.803  13.512  1.00  0.00    -0.550 OA
ENDBRANCH   6   7
ENDBRANCH   5   6
ENDBRANCH   4   5
ENDBRANCH   3   4
ENDBRANCH   2   3
ENDBRANCH   1   2
BRANCH   1  10
ATOM     10  C   UNL     1       6.175 -35.535  16.245  1.00  0.00     0.000 C 
BRANCH  10  11
ATOM     11  C   UNL     1       7.234 -35.507  17.359  1.00  0.00    -0.000 C 
BRANCH  11  12
ATOM     12  C   UNL     1       8.429 -34.603  17.012  1.00  0.00    -0.000 C 
BRANCH  12  13
ATOM     13  C   UNL     1       8.072 -33.106  17.042  1.00  0.00    -0.000 C 
BRANCH  13  14
ATOM     14  C   UNL     1       8.049 -32.464  18.444  1.00  0.00    -0.000 C 
BRANCH  14  15
ATOM     15  C   UNL     1       9.292 -31.629  18.797  1.00  0.00    -0.003 C 
ATOM     16  C   UNL     1      10.015 -31.088  17.564  1.00  0.00     0.004 C 
ENDBRANCH  14  15
ENDBRANCH  13  14
ENDBRANCH  12  13
ENDBRANCH  11  12
ENDBRANCH  10  11
ENDBRANCH   1  10
TORSDOF 12
ENDMDL
MODEL 4
REMARK VINA RESULT:    -2.743      2.127      4.437
REMARK INTER + INTRA:          -6.133
REMARK INTER:                  -4.717
REMARK INTRA:                  -1.415
REMARK UNBOUND:                -1.465
REMARK SMILES CCCCCCCCCCCCCC(=O)[O-]
REMARK SMILES IDX 8 1 9 2 10 3 11 4 12 5 13 6 14 7 15 8 16 9 7 10 6 11 5 12
REMARK SMILES IDX 4 13 3 14 2 15 1 16
REMARK H PARENT
REMARK Flexibility Score: inf
ROOT
ATOM      1  C   UNL     1       7.287 -36.137  14.905  1.00  0.00     0.000 C 
ENDROOT
BRANCH   1   2
ATOM      2  C   UNL     1       6.327 -35.731  13.771  1.00  0.00     0.000 C 
BRANCH   2   3
ATOM      3  C   UNL     1       6.708 -34.440  13.017  1.00  0.00     0.000 C 
BRANCH   3   4
ATOM      4  C   UNL     1       7.212 -33.290  13.906  1.00  0.00     0.000 C 
BRANCH   4   5
ATOM      5  C   UNL     1       8.587 -32.761  13.475  1.00  0.00     0.006 C 
BRANCH   5   6
ATOM      6  C   UNL     1       9.713 -33.588  14.101  1.00  0.00     0.053 C 
BRANCH   6   7
ATOM      7  C   UNL     1      11.039 -33.175  13.543  1.00  0.00     0.041 C 
ATOM      8  O   UNL     1      11.727 -33.992  12.875  1.00  0.00    -0.550 OA
ATOM      9  O   UNL     1      11.493 -31.874  13.718  1.00  0.00    -0.550 OA
ENDBRANCH   6   7
ENDBRANCH   5   6
ENDBRANCH   4   5
ENDBRANCH   3   4
ENDBRANCH   2   3
ENDBRANCH   1   2
BRANCH   1  10
ATOM     10  C   UNL     1       6.590 -36.943  16.015  1.00  0.00     0.000 C 
BRANCH  10  11
ATOM     11  C   UNL     1       6.805 -36.332  17.410  1.00  0.00    -0.000 C 
BRANCH  11  12
ATOM     12  C   UNL     1       7.606 -35.019  17.359  1.00  0.00    -0.000 C 
BRANCH  12  13
ATOM     13  C   UNL     1       6.735 -33.779  17.632  1.00  0.00    -0.000 C 
BRANCH  13  14
ATOM     14  C   UNL     1       7.499 -32.539  18.139  1.00  0.00    -0.000 C 
BRANCH  14  15
ATOM     15  C   UNL     1       8.917 -32.371  17.566  1.00  0.00    -0.003 C 
ATOM     16  C   UNL     1       9.713 -31.267  18.261  1.00  0.00     0.004 C 
ENDBRANCH  14  15
ENDBRANCH  13  14
ENDBRANCH  12  13
ENDBRANCH  11  12
ENDBRANCH  10  11
ENDBRANCH   1  10
TORSDOF 12
ENDMDL
MODEL 5
REMARK VINA RESULT:    -2.667      2.296      5.149
REMARK INTER + INTRA:          -6.002
REMARK INTER:                  -4.891
REMARK INTRA:                  -1.111
REMARK UNBOUND:                -1.465
REMARK SMILES CCCCCCCCCCCCCC(=O)[O-]
REMARK SMILES IDX 8 1 9 2 10 3 11 4 12 5 13 6 14 7 15 8 16 9 7 10 6 11 5 12
REMARK SMILES IDX 4 13 3 14 2 15 1 16
REMARK H PARENT
REMARK Flexibility Score: inf
ROOT
ATOM      1  C   UNL     1      10.074 -35.322  13.878  1.00  0.00     0.000 C 
ENDROOT
BRANCH   1   2
ATOM      2  C   UNL     1       9.821 -36.539  12.969  1.00  0.00     0.000 C 
BRANCH   2   3
ATOM      3  C   UNL     1       8.415 -37.163  13.080  1.00  0.00     0.000 C 
BRANCH   3   4
ATOM      4  C   UNL     1       7.248 -36.166  12.972  1.00  0.00     0.000 C 
BRANCH   4   5
ATOM      5  C   UNL     1       6.093 -36.492  13.927  1.00  0.00     0.006 C 
BRANCH   5   6
ATOM      6  C   UNL     1       6.620 -37.048  15.254  1.00  0.00     0.053 C 
BRANCH   6   7
ATOM      7  C   UNL     1       6.606 -35.987  16.309  1.00  0.00     0.041 C 
ATOM      8  O   UNL     1       5.875 -34.970  16.175  1.00  0.00    -0.550 OA
ATOM      9  O   UNL     1       7.362 -36.144  17.464  1.00  0.00    -0.550 OA
ENDBRANCH   6   7
ENDBRANCH   5   6
ENDBRANCH   4   5
ENDBRANCH   3   4
ENDBRANCH   2   3
ENDBRANCH   1   2
BRANCH   1  10
ATOM     10  C   UNL     1      10.513 -34.074  13.093  1.00  0.00     0.000 C 
BRANCH  10  11
ATOM     11  C   UNL     1       9.676 -32.833  13.446  1.00  0.00    -0.000 C 
BRANCH  11  12
ATOM     12  C   UNL     1       8.575 -33.140  14.476  1.00  0.00    -0.000 C 
BRANCH  12  13
ATOM     13  C   UNL     1       8.801 -32.426  15.820  1.00  0.00    -0.000 C 
BRANCH  13  14
ATOM     14  C   UNL     1       7.623 -32.503  16.812  1.00  0.00    -0.000 C 
BRANCH  14  15
ATOM     15  C   UNL     1       8.026 -32.555  18.296  1.00  0.00    -0.003 C 
ATOM     16  C   UNL     1       9.292 -31.754  18.597  1.00  0.00     0.004 C 
ENDBRANCH  14  15
ENDBRANCH  13  14
ENDBRANCH  12  13
ENDBRANCH  11  12
ENDBRANCH  10  11
ENDBRANCH   1  10
TORSDOF 12
ENDMDL
MODEL 6
REMARK VINA RESULT:    -2.374      2.140      4.041
REMARK INTER + INTRA:          -5.505
REMARK INTER:                  -4.344
REMARK INTRA:                  -1.160
REMARK UNBOUND:                -1.465
REMARK SMILES CCCCCCCCCCCCCC(=O)[O-]
REMARK SMILES IDX 8 1 9 2 10 3 11 4 12 5 13 6 14 7 15 8 16 9 7 10 6 11 5 12
REMARK SMILES IDX 4 13 3 14 2 15 1 16
REMARK H PARENT
REMARK Flexibility Score: inf
ROOT
ATOM      1  C   UNL     1       9.626 -36.921  12.875  1.00  0.00     0.000 C 
ENDROOT
BRANCH   1   2
ATOM      2  C   UNL     1       8.282 -37.580  13.237  1.00  0.00     0.000 C 
BRANCH   2   3
ATOM      3  C   UNL     1       7.173 -36.607  13.688  1.00  0.00     0.000 C 
BRANCH   3   4
ATOM      4  C   UNL     1       6.191 -37.173  14.728  1.00  0.00     0.000 C 
BRANCH   4   5
ATOM      5  C   UNL     1       5.962 -36.224  15.912  1.00  0.00     0.006 C 
BRANCH   5   6
ATOM      6  C   UNL     1       6.767 -36.673  17.136  1.00  0.00     0.053 C 
BRANCH   6   7
ATOM      7  C   UNL     1       7.620 -35.552  17.641  1.00  0.00     0.041 C 
ATOM      8  O   UNL     1       8.672 -35.230  17.027  1.00  0.00    -0.550 OA
ATOM      9  O   UNL     1       7.230 -34.831  18.763  1.00  0.00    -0.550 OA
ENDBRANCH   6   7
ENDBRANCH   5   6
ENDBRANCH   4   5
ENDBRANCH   3   4
ENDBRANCH   2   3
ENDBRANCH   1   2
BRANCH   1  10
ATOM     10  C   UNL     1       9.867 -35.605  13.635  1.00  0.00     0.000 C 
BRANCH  10  11
ATOM     11  C   UNL     1      10.987 -34.759  13.004  1.00  0.00    -0.000 C 
BRANCH  11  12
ATOM     12  C   UNL     1      10.790 -33.252  13.242  1.00  0.00    -0.000 C 
BRANCH  12  13
ATOM     13  C   UNL     1       9.307 -32.845  13.288  1.00  0.00    -0.000 C 
BRANCH  13  14
ATOM     14  C   UNL     1       8.725 -32.636  14.701  1.00  0.00    -0.000 C 
BRANCH  14  15
ATOM     15  C   UNL     1       7.230 -32.969  14.843  1.00  0.00    -0.003 C 
ATOM     16  C   UNL     1       6.662 -32.583  16.208  1.00  0.00     0.004 C 
ENDBRANCH  14  15
ENDBRANCH  13  14
ENDBRANCH  12  13
ENDBRANCH  11  12
ENDBRANCH  10  11
ENDBRANCH   1  10
TORSDOF 12
ENDMDL
MODEL 7
REMARK VINA RESULT:    -2.250      2.226      4.718
REMARK INTER + INTRA:          -5.294
REMARK INTER:                  -3.811
REMARK INTRA:                  -1.483
REMARK UNBOUND:                -1.465
REMARK SMILES CCCCCCCCCCCCCC(=O)[O-]
REMARK SMILES IDX 8 1 9 2 10 3 11 4 12 5 13 6 14 7 15 8 16 9 7 10 6 11 5 12
REMARK SMILES IDX 4 13 3 14 2 15 1 16
REMARK H PARENT
REMARK Flexibility Score: inf
ROOT
ATOM      1  C   UNL     1       8.295 -35.421  16.175  1.00  0.00     0.000 C 
ENDROOT
BRANCH   1   2
ATOM      2  C   UNL     1       7.595 -36.095  14.980  1.00  0.00     0.000 C 
BRANCH   2   3
ATOM      3  C   UNL     1       7.707 -35.339  13.640  1.00  0.00     0.000 C 
BRANCH   3   4
ATOM      4  C   UNL     1       7.270 -33.865  13.684  1.00  0.00     0.000 C 
BRANCH   4   5
ATOM      5  C   UNL     1       8.332 -32.910  13.123  1.00  0.00     0.006 C 
BRANCH   5   6
ATOM      6  C   UNL     1       9.357 -32.538  14.198  1.00  0.00     0.053 C 
BRANCH   6   7
ATOM      7  C   UNL     1      10.749 -32.684  13.668  1.00  0.00     0.041 C 
ATOM      8  O   UNL     1      11.635 -31.843  13.976  1.00  0.00    -0.550 OA
ATOM      9  O   UNL     1      11.081 -33.775  12.875  1.00  0.00    -0.550 OA
ENDBRANCH   6   7
ENDBRANCH   5   6
ENDBRANCH   4   5
ENDBRANCH   3   4
ENDBRANCH   2   3
ENDBRANCH   1   2
BRANCH   1  10
ATOM     10  C   UNL     1       7.650 -35.783  17.524  1.00  0.00     0.000 C 
BRANCH  10  11
ATOM     11  C   UNL     1       7.038 -34.562  18.231  1.00  0.00    -0.000 C 
BRANCH  11  12
ATOM     12  C   UNL     1       6.817 -33.378  17.272  1.00  0.00    -0.000 C 
BRANCH  12  13
ATOM     13  C   UNL     1       7.572 -32.110  17.707  1.00  0.00    -0.000 C 
BRANCH  13  14
ATOM     14  C   UNL     1       8.646 -32.324  18.793  1.00  0.00    -0.000 C 
BRANCH  14  15
ATOM     15  C   UNL     1       9.781 -31.285  18.796  1.00  0.00    -0.003 C 
ATOM     16  C   UNL     1      10.256 -30.918  17.391  1.00  0.00     0.004 C 
ENDBRANCH  14  15
ENDBRANCH  13  14
ENDBRANCH  12  13
ENDBRANCH  11  12
ENDBRANCH  10  11
ENDBRANCH   1  10
TORSDOF 12
ENDMDL
MODEL 8
REMARK VINA RESULT:    -0.251     12.935     15.213
REMARK INTER + INTRA:          -1.892
REMARK INTER:                  -1.409
REMARK INTRA:                  -0.482
REMARK UNBOUND:                -1.465
REMARK SMILES CCCCCCCCCCCCCC(=O)[O-]
REMARK SMILES IDX 8 1 9 2 10 3 11 4 12 5 13 6 14 7 15 8 16 9 7 10 6 11 5 12
REMARK SMILES IDX 4 13 3 14 2 15 1 16
REMARK H PARENT
REMARK Flexibility Score: inf
ROOT
ATOM      1  C   UNL     1      21.516 -26.493  13.874  1.00  0.00     0.000 C 
ENDROOT
BRANCH   1   2
ATOM      2  C   UNL     1      20.495 -25.897  12.887  1.00  0.00     0.000 C 
BRANCH   2   3
ATOM      3  C   UNL     1      20.076 -24.441  13.175  1.00  0.00     0.000 C 
BRANCH   3   4
ATOM      4  C   UNL     1      20.384 -23.941  14.597  1.00  0.00     0.000 C 
BRANCH   4   5
ATOM      5  C   UNL     1      20.847 -22.479  14.629  1.00  0.00     0.006 C 
BRANCH   5   6
ATOM      6  C   UNL     1      19.664 -21.525  14.441  1.00  0.00     0.053 C 
BRANCH   6   7
ATOM      7  C   UNL     1      20.064 -20.121  14.773  1.00  0.00     0.041 C 
ATOM      8  O   UNL     1      20.178 -19.263  13.859  1.00  0.00    -0.550 OA
ATOM      9  O   UNL     1      20.262 -19.749  16.096  1.00  0.00    -0.550 OA
ENDBRANCH   6   7
ENDBRANCH   5   6
ENDBRANCH   4   5
ENDBRANCH   3   4
ENDBRANCH   2   3
ENDBRANCH   1   2
BRANCH   1  10
ATOM     10  C   UNL     1      21.736 -28.002  13.665  1.00  0.00     0.000 C 
BRANCH  10  11
ATOM     11  C   UNL     1      20.542 -28.679  12.971  1.00  0.00    -0.000 C 
BRANCH  11  12
ATOM     12  C   UNL     1      20.211 -30.053  13.579  1.00  0.00    -0.000 C 
BRANCH  12  13
ATOM     13  C   UNL     1      19.031 -30.748  12.875  1.00  0.00    -0.000 C 
BRANCH  13  14
ATOM     14  C   UNL     1      18.586 -32.085  13.502  1.00  0.00    -0.000 C 
BRANCH  14  15
ATOM     15  C   UNL     1      17.664 -31.952  14.726  1.00  0.00    -0.003 C 
ATOM     16  C   UNL     1      16.248 -31.510  14.359  1.00  0.00     0.004 C 
ENDBRANCH  14  15
ENDBRANCH  13  14
ENDBRANCH  12  13
ENDBRANCH  11  12
ENDBRANCH  10  11
ENDBRANCH   1  10
TORSDOF 12
ENDMDL
