MODEL 1
REMARK VINA RESULT:    -5.284      0.000      0.000
REMARK INTER + INTRA:          -5.593
REMARK INTER:                  -5.593
REMARK INTRA:                   0.000
REMARK UNBOUND:                 0.000
REMARK SMILES O=c1ccc2cc(O)c(O)cc2o1
REMARK SMILES IDX 4 1 3 2 2 3 1 4 13 5 12 6 11 7 9 8 7 9 6 10 5 11 8 12 10 14
REMARK H PARENT 8 13 10 15
REMARK Flexibility Score: inf
ROOT
ATOM      1  C   UNL     1      12.547 -48.341 -13.219  1.00  0.00     0.019 A 
ATOM      2  C   UNL     1      13.517 -49.067 -12.528  1.00  0.00     0.094 A 
ATOM      3  C   UNL     1      13.370 -50.453 -12.407  1.00  0.00     0.336 A 
ATOM      4  O   UNL     1      14.235 -51.125 -11.785  1.00  0.00    -0.246 OA
ATOM      5  O   UNL     1      12.320 -51.068 -12.945  1.00  0.00    -0.423 OA
ATOM      6  C   UNL     1      11.372 -50.414 -13.613  1.00  0.00     0.142 A 
ATOM      7  C   UNL     1      10.291 -51.114 -14.157  1.00  0.00     0.098 A 
ATOM      8  C   UNL     1       9.290 -50.430 -14.862  1.00  0.00     0.161 A 
ATOM      9  C   UNL     1       9.371 -49.039 -15.024  1.00  0.00     0.158 A 
ATOM     10  C   UNL     1      10.453 -48.331 -14.480  1.00  0.00     0.062 A 
ATOM     11  C   UNL     1      11.454 -49.015 -13.775  1.00  0.00     0.022 A 
ENDROOT
BRANCH   9  12
ATOM     12  O   UNL     1       8.372 -48.366 -15.726  1.00  0.00    -0.504 OA
ATOM     13  H   UNL     1       8.584 -47.572 -16.318  1.00  0.00     0.293 HD
ENDBRANCH   9  12
BRANCH   8  14
ATOM     14  O   UNL     1       8.211 -51.125 -15.406  1.00  0.00    -0.504 OA
ATOM     15  H   UNL     1       7.693 -50.764 -16.199  1.00  0.00     0.293 HD
ENDBRANCH   8  14
TORSDOF 2
ENDMDL
MODEL 2
REMARK VINA RESULT:    -4.627     12.328     13.509
REMARK INTER + INTRA:          -4.898
REMARK INTER:                  -4.898
REMARK INTRA:                   0.000
REMARK UNBOUND:                 0.000
REMARK SMILES O=c1ccc2cc(O)c(O)cc2o1
REMARK SMILES IDX 4 1 3 2 2 3 1 4 13 5 12 6 11 7 9 8 7 9 6 10 5 11 8 12 10 14
REMARK H PARENT 8 13 10 15
REMARK Flexibility Score: inf
ROOT
ATOM      1  C   UNL     1      11.688 -35.142 -16.788  1.00  0.00     0.019 A 
ATOM      2  C   UNL     1      12.847 -35.672 -17.355  1.00  0.00     0.094 A 
ATOM      3  C   UNL     1      12.872 -37.026 -17.706  1.00  0.00     0.336 A 
ATOM      4  O   UNL     1      13.910 -37.523 -18.218  1.00  0.00    -0.246 OA
ATOM      5  O   UNL     1      11.805 -37.794 -17.502  1.00  0.00    -0.423 OA
ATOM      6  C   UNL     1      10.680 -37.329 -16.965  1.00  0.00     0.142 A 
ATOM      7  C   UNL     1       9.590 -38.184 -16.776  1.00  0.00     0.098 A 
ATOM      8  C   UNL     1       8.402 -37.698 -16.210  1.00  0.00     0.161 A 
ATOM      9  C   UNL     1       8.304 -36.351 -15.833  1.00  0.00     0.158 A 
ATOM     10  C   UNL     1       9.394 -35.488 -16.021  1.00  0.00     0.062 A 
ATOM     11  C   UNL     1      10.581 -35.973 -16.586  1.00  0.00     0.022 A 
ENDROOT
BRANCH   9  12
ATOM     12  O   UNL     1       7.119 -35.876 -15.272  1.00  0.00    -0.504 OA
ATOM     13  H   UNL     1       6.446 -36.502 -14.846  1.00  0.00     0.293 HD
ENDBRANCH   9  12
BRANCH   8  14
ATOM     14  O   UNL     1       7.314 -38.548 -16.019  1.00  0.00    -0.504 OA
ATOM     15  H   UNL     1       7.392 -39.395 -15.470  1.00  0.00     0.293 HD
ENDBRANCH   8  14
TORSDOF 2
ENDMDL
MODEL 3
REMARK VINA RESULT:    -4.619     12.270     13.753
REMARK INTER + INTRA:          -4.889
REMARK INTER:                  -4.889
REMARK INTRA:                   0.000
REMARK UNBOUND:                 0.000
REMARK SMILES O=c1ccc2cc(O)c(O)cc2o1
REMARK SMILES IDX 4 1 3 2 2 3 1 4 13 5 12 6 11 7 9 8 7 9 6 10 5 11 8 12 10 14
REMARK H PARENT 8 13 10 15
REMARK Flexibility Score: inf
ROOT
ATOM      1  C   UNL     1      11.868 -38.041 -17.642  1.00  0.00     0.019 A 
ATOM      2  C   UNL     1      12.962 -37.206 -17.875  1.00  0.00     0.094 A 
ATOM      3  C   UNL     1      12.877 -35.859 -17.505  1.00  0.00     0.336 A 
ATOM      4  O   UNL     1      13.853 -35.090 -17.707  1.00  0.00    -0.246 OA
ATOM      5  O   UNL     1      11.769 -35.385 -16.940  1.00  0.00    -0.423 OA
ATOM      6  C   UNL     1      10.705 -36.146 -16.701  1.00  0.00     0.142 A 
ATOM      7  C   UNL     1       9.569 -35.592 -16.104  1.00  0.00     0.098 A 
ATOM      8  C   UNL     1       8.444 -36.390 -15.849  1.00  0.00     0.161 A 
ATOM      9  C   UNL     1       8.456 -37.750 -16.193  1.00  0.00     0.158 A 
ATOM     10  C   UNL     1       9.593 -38.312 -16.792  1.00  0.00     0.062 A 
ATOM     11  C   UNL     1      10.718 -37.515 -17.047  1.00  0.00     0.022 A 
ENDROOT
BRANCH   9  12
ATOM     12  O   UNL     1       7.334 -38.537 -15.936  1.00  0.00    -0.504 OA
ATOM     13  H   UNL     1       6.396 -38.164 -16.020  1.00  0.00     0.293 HD
ENDBRANCH   9  12
BRANCH   8  14
ATOM     14  O   UNL     1       7.310 -35.840 -15.254  1.00  0.00    -0.504 OA
ATOM     15  H   UNL     1       7.379 -35.199 -14.473  1.00  0.00     0.293 HD
ENDBRANCH   8  14
TORSDOF 2
ENDMDL
MODEL 4
REMARK VINA RESULT:    -4.545     12.346     14.185
REMARK INTER + INTRA:          -4.810
REMARK INTER:                  -4.810
REMARK INTRA:                   0.000
REMARK UNBOUND:                 0.000
REMARK SMILES O=c1ccc2cc(O)c(O)cc2o1
REMARK SMILES IDX 4 1 3 2 2 3 1 4 13 5 12 6 11 7 9 8 7 9 6 10 5 11 8 12 10 14
REMARK H PARENT 8 13 10 15
REMARK Flexibility Score: inf
ROOT
ATOM      1  C   UNL     1       9.015 -38.021 -16.355  1.00  0.00     0.019 A 
ATOM      2  C   UNL     1       7.796 -37.356 -16.495  1.00  0.00     0.094 A 
ATOM      3  C   UNL     1       7.688 -36.330 -17.440  1.00  0.00     0.336 A 
ATOM      4  O   UNL     1       6.597 -35.718 -17.580  1.00  0.00    -0.246 OA
ATOM      5  O   UNL     1       8.733 -35.995 -18.193  1.00  0.00    -0.423 OA
ATOM      6  C   UNL     1       9.912 -36.603 -18.092  1.00  0.00     0.142 A 
ATOM      7  C   UNL     1      10.975 -36.208 -18.910  1.00  0.00     0.098 A 
ATOM      8  C   UNL     1      12.220 -36.845 -18.807  1.00  0.00     0.161 A 
ATOM      9  C   UNL     1      12.403 -37.884 -17.882  1.00  0.00     0.158 A 
ATOM     10  C   UNL     1      11.341 -38.284 -17.058  1.00  0.00     0.062 A 
ATOM     11  C   UNL     1      10.096 -37.648 -17.160  1.00  0.00     0.022 A 
ENDROOT
BRANCH   9  12
ATOM     12  O   UNL     1      13.643 -38.512 -17.787  1.00  0.00    -0.504 OA
ATOM     13  H   UNL     1      13.830 -39.211 -17.077  1.00  0.00     0.293 HD
ENDBRANCH   9  12
BRANCH   8  14
ATOM     14  O   UNL     1      13.281 -36.454 -19.622  1.00  0.00    -0.504 OA
ATOM     15  H   UNL     1      13.236 -36.542 -20.630  1.00  0.00     0.293 HD
ENDBRANCH   8  14
TORSDOF 2
ENDMDL
MODEL 5
REMARK VINA RESULT:    -4.480     12.409     14.097
REMARK INTER + INTRA:          -4.742
REMARK INTER:                  -4.742
REMARK INTRA:                   0.000
REMARK UNBOUND:                 0.000
REMARK SMILES O=c1ccc2cc(O)c(O)cc2o1
REMARK SMILES IDX 4 1 3 2 2 3 1 4 13 5 12 6 11 7 9 8 7 9 6 10 5 11 8 12 10 14
REMARK H PARENT 8 13 10 15
REMARK Flexibility Score: inf
ROOT
ATOM      1  C   UNL     1       9.462 -35.032 -16.357  1.00  0.00     0.019 A 
ATOM      2  C   UNL     1       8.161 -35.515 -16.214  1.00  0.00     0.094 A 
ATOM      3  C   UNL     1       7.909 -36.868 -16.469  1.00  0.00     0.336 A 
ATOM      4  O   UNL     1       6.742 -37.323 -16.346  1.00  0.00    -0.246 OA
ATOM      5  O   UNL     1       8.897 -37.679 -16.841  1.00  0.00    -0.423 OA
ATOM      6  C   UNL     1      10.150 -37.259 -16.989  1.00  0.00     0.142 A 
ATOM      7  C   UNL     1      11.147 -38.157 -17.382  1.00  0.00     0.098 A 
ATOM      8  C   UNL     1      12.470 -37.719 -17.539  1.00  0.00     0.161 A 
ATOM      9  C   UNL     1      12.798 -36.377 -17.301  1.00  0.00     0.158 A 
ATOM     10  C   UNL     1      11.803 -35.470 -16.907  1.00  0.00     0.062 A 
ATOM     11  C   UNL     1      10.480 -35.907 -16.749  1.00  0.00     0.022 A 
ENDROOT
BRANCH   9  12
ATOM     12  O   UNL     1      14.116 -35.950 -17.460  1.00  0.00    -0.504 OA
ATOM     13  H   UNL     1      14.895 -36.590 -17.367  1.00  0.00     0.293 HD
ENDBRANCH   9  12
BRANCH   8  14
ATOM     14  O   UNL     1      13.466 -38.613 -17.931  1.00  0.00    -0.504 OA
ATOM     15  H   UNL     1      13.274 -39.372 -18.574  1.00  0.00     0.293 HD
ENDBRANCH   8  14
TORSDOF 2
ENDMDL
MODEL 6
REMARK VINA RESULT:    -4.270     12.732     14.946
REMARK INTER + INTRA:          -4.519
REMARK INTER:                  -4.519
REMARK INTRA:                   0.000
REMARK UNBOUND:                 0.000
REMARK SMILES O=c1ccc2cc(O)c(O)cc2o1
REMARK SMILES IDX 4 1 3 2 2 3 1 4 13 5 12 6 11 7 9 8 7 9 6 10 5 11 8 12 10 14
REMARK H PARENT 8 13 10 15
REMARK Flexibility Score: inf
ROOT
ATOM      1  C   UNL     1       9.644 -35.073 -19.935  1.00  0.00     0.019 A 
ATOM      2  C   UNL     1       8.289 -34.887 -20.206  1.00  0.00     0.094 A 
ATOM      3  C   UNL     1       7.342 -35.528 -19.399  1.00  0.00     0.336 A 
ATOM      4  O   UNL     1       6.114 -35.373 -19.628  1.00  0.00    -0.246 OA
ATOM      5  O   UNL     1       7.732 -36.303 -18.390  1.00  0.00    -0.423 OA
ATOM      6  C   UNL     1       9.013 -36.506 -18.097  1.00  0.00     0.142 A 
ATOM      7  C   UNL     1       9.363 -37.331 -17.023  1.00  0.00     0.098 A 
ATOM      8  C   UNL     1      10.713 -37.549 -16.711  1.00  0.00     0.161 A 
ATOM      9  C   UNL     1      11.717 -36.939 -17.475  1.00  0.00     0.158 A 
ATOM     10  C   UNL     1      11.373 -36.110 -18.554  1.00  0.00     0.062 A 
ATOM     11  C   UNL     1      10.024 -35.892 -18.867  1.00  0.00     0.022 A 
ENDROOT
BRANCH   9  12
ATOM     12  O   UNL     1      13.057 -37.160 -17.158  1.00  0.00    -0.504 OA
ATOM     13  H   UNL     1      13.416 -36.988 -16.226  1.00  0.00     0.293 HD
ENDBRANCH   9  12
BRANCH   8  14
ATOM     14  O   UNL     1      11.064 -38.370 -15.641  1.00  0.00    -0.504 OA
ATOM     15  H   UNL     1      11.073 -39.380 -15.728  1.00  0.00     0.293 HD
ENDBRANCH   8  14
TORSDOF 2
ENDMDL
MODEL 7
REMARK VINA RESULT:    -4.266     16.655     18.004
REMARK INTER + INTRA:          -4.515
REMARK INTER:                  -4.515
REMARK INTRA:                   0.000
REMARK UNBOUND:                 0.000
REMARK SMILES O=c1ccc2cc(O)c(O)cc2o1
REMARK SMILES IDX 4 1 3 2 2 3 1 4 13 5 12 6 11 7 9 8 7 9 6 10 5 11 8 12 10 14
REMARK H PARENT 8 13 10 15
REMARK Flexibility Score: inf
ROOT
ATOM      1  C   UNL     1      15.764 -35.273 -23.034  1.00  0.00     0.019 A 
ATOM      2  C   UNL     1      15.029 -35.313 -21.849  1.00  0.00     0.094 A 
ATOM      3  C   UNL     1      15.645 -35.784 -20.684  1.00  0.00     0.336 A 
ATOM      4  O   UNL     1      14.997 -35.829 -19.605  1.00  0.00    -0.246 OA
ATOM      5  O   UNL     1      16.913 -36.186 -20.709  1.00  0.00    -0.423 OA
ATOM      6  C   UNL     1      17.650 -36.164 -21.816  1.00  0.00     0.142 A 
ATOM      7  C   UNL     1      18.978 -36.600 -21.781  1.00  0.00     0.098 A 
ATOM      8  C   UNL     1      19.759 -36.578 -22.946  1.00  0.00     0.161 A 
ATOM      9  C   UNL     1      19.209 -36.119 -24.152  1.00  0.00     0.158 A 
ATOM     10  C   UNL     1      17.877 -35.681 -24.193  1.00  0.00     0.062 A 
ATOM     11  C   UNL     1      17.095 -35.702 -23.029  1.00  0.00     0.022 A 
ENDROOT
BRANCH   9  12
ATOM     12  O   UNL     1      19.992 -36.100 -25.305  1.00  0.00    -0.504 OA
ATOM     13  H   UNL     1      20.985 -36.295 -25.274  1.00  0.00     0.293 HD
ENDBRANCH   9  12
BRANCH   8  14
ATOM     14  O   UNL     1      21.083 -37.012 -22.914  1.00  0.00    -0.504 OA
ATOM     15  H   UNL     1      21.464 -37.494 -22.109  1.00  0.00     0.293 HD
ENDBRANCH   8  14
TORSDOF 2
ENDMDL
