MODEL 1
REMARK VINA RESULT:    25.810      0.000      0.000
REMARK INTER + INTRA:          63.557
REMARK INTER:                  65.040
REMARK INTRA:                  -1.483
REMARK UNBOUND:                -1.483
REMARK SMILES CCCCCCCCCCCCCCCCCCCCCCCCCCCC(=O)[O-]
REMARK SMILES IDX 15 1 16 2 17 3 18 4 19 5 20 6 21 7 22 8 23 9 24 10 25 11
REMARK SMILES IDX 26 12 27 13 28 14 29 15 30 16 14 17 13 18 12 19 11 20 10 21
REMARK SMILES IDX 9 22 8 23 7 24 6 25 5 26 4 27 3 28 2 29 1 30
REMARK H PARENT
REMARK Flexibility Score: inf
ROOT
ATOM      1  C   UNL     1     -13.589  34.860 -11.090  1.00  0.00     0.000 C 
ENDROOT
BRANCH   1   2
ATOM      2  C   UNL     1     -13.375  35.383 -12.520  1.00  0.00     0.000 C 
BRANCH   2   3
ATOM      3  C   UNL     1     -12.502  36.650 -12.559  1.00  0.00     0.000 C 
BRANCH   3   4
ATOM      4  C   UNL     1     -12.842  37.563 -13.749  1.00  0.00     0.000 C 
BRANCH   4   5
ATOM      5  C   UNL     1     -12.480  39.034 -13.491  1.00  0.00     0.000 C 
BRANCH   5   6
ATOM      6  C   UNL     1     -11.066  39.154 -12.899  1.00  0.00     0.000 C 
BRANCH   6   7
ATOM      7  C   UNL     1     -10.759  40.565 -12.372  1.00  0.00     0.000 C 
BRANCH   7   8
ATOM      8  C   UNL     1     -11.700  40.988 -11.230  1.00  0.00     0.000 C 
BRANCH   8   9
ATOM      9  C   UNL     1     -11.083  40.762  -9.841  1.00  0.00     0.000 C 
BRANCH   9  10
ATOM     10  C   UNL     1     -10.384  42.015  -9.293  1.00  0.00     0.000 C 
BRANCH  10  11
ATOM     11  C   UNL     1      -9.598  41.689  -8.012  1.00  0.00     0.000 C 
BRANCH  11  12
ATOM     12  C   UNL     1     -10.509  41.286  -6.843  1.00  0.00     0.006 C 
BRANCH  12  13
ATOM     13  C   UNL     1     -11.555  42.359  -6.507  1.00  0.00     0.053 C 
BRANCH  13  14
ATOM     14  C   UNL     1     -12.919  41.753  -6.400  1.00  0.00     0.041 C 
ATOM     15  O   UNL     1     -13.307  41.251  -5.311  1.00  0.00    -0.550 OA
ATOM     16  O   UNL     1     -13.757  41.720  -7.508  1.00  0.00    -0.550 OA
ENDBRANCH  13  14
ENDBRANCH  12  13
ENDBRANCH  11  12
ENDBRANCH  10  11
ENDBRANCH   9  10
ENDBRANCH   8   9
ENDBRANCH   7   8
ENDBRANCH   6   7
ENDBRANCH   5   6
ENDBRANCH   4   5
ENDBRANCH   3   4
ENDBRANCH   2   3
ENDBRANCH   1   2
BRANCH   1  17
ATOM     17  C   UNL     1     -14.360  33.527 -11.055  1.00  0.00     0.000 C 
BRANCH  17  18
ATOM     18  C   UNL     1     -14.652  33.054  -9.620  1.00  0.00     0.000 C 
BRANCH  18  19
ATOM     19  C   UNL     1     -14.327  31.568  -9.411  1.00  0.00     0.000 C 
BRANCH  19  20
ATOM     20  C   UNL     1     -13.015  31.395  -8.633  1.00  0.00     0.000 C 
BRANCH  20  21
ATOM     21  C   UNL     1     -13.227  30.770  -7.242  1.00  0.00     0.000 C 
BRANCH  21  22
ATOM     22  C   UNL     1     -11.939  30.579  -6.415  1.00  0.00    -0.000 C 
BRANCH  22  23
ATOM     23  C   UNL     1     -11.475  29.117  -6.255  1.00  0.00    -0.000 C 
BRANCH  23  24
ATOM     24  C   UNL     1     -10.431  28.647  -7.284  1.00  0.00    -0.000 C 
BRANCH  24  25
ATOM     25  C   UNL     1      -9.746  29.816  -8.014  1.00  0.00    -0.000 C 
BRANCH  25  26
ATOM     26  C   UNL     1      -8.617  30.451  -7.187  1.00  0.00    -0.000 C 
BRANCH  26  27
ATOM     27  C   UNL     1      -8.243  31.858  -7.681  1.00  0.00    -0.000 C 
BRANCH  27  28
ATOM     28  C   UNL     1      -7.090  31.838  -8.699  1.00  0.00    -0.000 C 
BRANCH  28  29
ATOM     29  C   UNL     1      -7.262  32.886  -9.808  1.00  0.00    -0.003 C 
ATOM     30  C   UNL     1      -5.926  33.533 -10.166  1.00  0.00     0.004 C 
ENDBRANCH  28  29
ENDBRANCH  27  28
ENDBRANCH  26  27
ENDBRANCH  25  26
ENDBRANCH  24  25
ENDBRANCH  23  24
ENDBRANCH  22  23
ENDBRANCH  21  22
ENDBRANCH  20  21
ENDBRANCH  19  20
ENDBRANCH  18  19
ENDBRANCH  17  18
ENDBRANCH   1  17
TORSDOF 26
ENDMDL
MODEL 2
REMARK VINA RESULT:    26.009      3.275     10.166
REMARK INTER + INTRA:          64.058
REMARK INTER:                  65.659
REMARK INTRA:                  -1.601
REMARK UNBOUND:                -1.483
REMARK SMILES CCCCCCCCCCCCCCCCCCCCCCCCCCCC(=O)[O-]
REMARK SMILES IDX 15 1 16 2 17 3 18 4 19 5 20 6 21 7 22 8 23 9 24 10 25 11
REMARK SMILES IDX 26 12 27 13 28 14 29 15 30 16 14 17 13 18 12 19 11 20 10 21
REMARK SMILES IDX 9 22 8 23 7 24 6 25 5 26 4 27 3 28 2 29 1 30
REMARK H PARENT
REMARK Flexibility Score: inf
ROOT
ATOM      1  C   UNL     1     -13.639  34.603 -11.874  1.00  0.00     0.000 C 
ENDROOT
BRANCH   1   2
ATOM      2  C   UNL     1     -14.467  34.256 -10.626  1.00  0.00     0.000 C 
BRANCH   2   3
ATOM      3  C   UNL     1     -14.601  32.739 -10.410  1.00  0.00     0.000 C 
BRANCH   3   4
ATOM      4  C   UNL     1     -13.991  32.277  -9.076  1.00  0.00     0.000 C 
BRANCH   4   5
ATOM      5  C   UNL     1     -13.374  30.872  -9.160  1.00  0.00     0.000 C 
BRANCH   5   6
ATOM      6  C   UNL     1     -11.983  30.845  -8.507  1.00  0.00     0.000 C 
BRANCH   6   7
ATOM      7  C   UNL     1     -11.412  29.423  -8.381  1.00  0.00     0.000 C 
BRANCH   7   8
ATOM      8  C   UNL     1     -10.636  29.211  -7.069  1.00  0.00     0.000 C 
BRANCH   8   9
ATOM      9  C   UNL     1      -9.750  30.413  -6.707  1.00  0.00     0.000 C 
BRANCH   9  10
ATOM     10  C   UNL     1      -8.346  30.322  -7.324  1.00  0.00     0.000 C 
BRANCH  10  11
ATOM     11  C   UNL     1      -8.221  31.251  -8.542  1.00  0.00     0.000 C 
BRANCH  11  12
ATOM     12  C   UNL     1      -7.488  32.562  -8.216  1.00  0.00     0.006 C 
BRANCH  12  13
ATOM     13  C   UNL     1      -7.516  33.564  -9.378  1.00  0.00     0.053 C 
BRANCH  13  14
ATOM     14  C   UNL     1      -6.519  33.186 -10.428  1.00  0.00     0.041 C 
ATOM     15  O   UNL     1      -6.845  33.192 -11.645  1.00  0.00    -0.550 OA
ATOM     16  O   UNL     1      -5.234  32.802 -10.064  1.00  0.00    -0.550 OA
ENDBRANCH  13  14
ENDBRANCH  12  13
ENDBRANCH  11  12
ENDBRANCH  10  11
ENDBRANCH   9  10
ENDBRANCH   8   9
ENDBRANCH   7   8
ENDBRANCH   6   7
ENDBRANCH   5   6
ENDBRANCH   4   5
ENDBRANCH   3   4
ENDBRANCH   2   3
ENDBRANCH   1   2
BRANCH   1  17
ATOM     17  C   UNL     1     -13.661  36.107 -12.203  1.00  0.00     0.000 C 
BRANCH  17  18
ATOM     18  C   UNL     1     -12.335  36.597 -12.808  1.00  0.00     0.000 C 
BRANCH  18  19
ATOM     19  C   UNL     1     -12.450  37.996 -13.431  1.00  0.00     0.000 C 
BRANCH  19  20
ATOM     20  C   UNL     1     -11.063  38.615 -13.656  1.00  0.00     0.000 C 
BRANCH  20  21
ATOM     21  C   UNL     1     -10.699  39.662 -12.587  1.00  0.00     0.000 C 
BRANCH  21  22
ATOM     22  C   UNL     1     -11.807  40.690 -12.284  1.00  0.00    -0.000 C 
BRANCH  22  23
ATOM     23  C   UNL     1     -11.564  41.569 -11.041  1.00  0.00    -0.000 C 
BRANCH  23  24
ATOM     24  C   UNL     1     -10.850  40.864  -9.872  1.00  0.00    -0.000 C 
BRANCH  24  25
ATOM     25  C   UNL     1      -9.949  41.814  -9.065  1.00  0.00    -0.000 C 
BRANCH  25  26
ATOM     26  C   UNL     1     -10.038  41.572  -7.550  1.00  0.00    -0.000 C 
BRANCH  26  27
ATOM     27  C   UNL     1     -11.336  40.856  -7.141  1.00  0.00    -0.000 C 
BRANCH  27  28
ATOM     28  C   UNL     1     -12.245  41.738  -6.270  1.00  0.00    -0.000 C 
BRANCH  28  29
ATOM     29  C   UNL     1     -11.570  43.052  -5.852  1.00  0.00    -0.003 C 
ATOM     30  C   UNL     1     -11.234  43.048  -4.363  1.00  0.00     0.004 C 
ENDBRANCH  28  29
ENDBRANCH  27  28
ENDBRANCH  26  27
ENDBRANCH  25  26
ENDBRANCH  24  25
ENDBRANCH  23  24
ENDBRANCH  22  23
ENDBRANCH  21  22
ENDBRANCH  20  21
ENDBRANCH  19  20
ENDBRANCH  18  19
ENDBRANCH  17  18
ENDBRANCH   1  17
TORSDOF 26
ENDMDL
MODEL 3
REMARK VINA RESULT:    26.297      1.090      2.227
REMARK INTER + INTRA:          64.784
REMARK INTER:                  66.428
REMARK INTRA:                  -1.644
REMARK UNBOUND:                -1.483
REMARK SMILES CCCCCCCCCCCCCCCCCCCCCCCCCCCC(=O)[O-]
REMARK SMILES IDX 15 1 16 2 17 3 18 4 19 5 20 6 21 7 22 8 23 9 24 10 25 11
REMARK SMILES IDX 26 12 27 13 28 14 29 15 30 16 14 17 13 18 12 19 11 20 10 21
REMARK SMILES IDX 9 22 8 23 7 24 6 25 5 26 4 27 3 28 2 29 1 30
REMARK H PARENT
REMARK Flexibility Score: inf
ROOT
ATOM      1  C   UNL     1     -15.001  32.917 -10.607  1.00  0.00     0.000 C 
ENDROOT
BRANCH   1   2
ATOM      2  C   UNL     1     -13.848  33.523 -11.424  1.00  0.00     0.000 C 
BRANCH   2   3
ATOM      3  C   UNL     1     -13.752  35.050 -11.266  1.00  0.00     0.000 C 
BRANCH   3   4
ATOM      4  C   UNL     1     -13.073  35.727 -12.468  1.00  0.00     0.000 C 
BRANCH   4   5
ATOM      5  C   UNL     1     -12.938  37.248 -12.297  1.00  0.00     0.000 C 
BRANCH   5   6
ATOM      6  C   UNL     1     -12.416  37.900 -13.587  1.00  0.00     0.000 C 
BRANCH   6   7
ATOM      7  C   UNL     1     -10.973  38.414 -13.452  1.00  0.00     0.000 C 
BRANCH   7   8
ATOM      8  C   UNL     1     -10.810  39.422 -12.301  1.00  0.00     0.000 C 
BRANCH   8   9
ATOM      9  C   UNL     1     -11.848  40.554 -12.356  1.00  0.00     0.000 C 
BRANCH   9  10
ATOM     10  C   UNL     1     -11.949  41.328 -11.032  1.00  0.00     0.000 C 
BRANCH  10  11
ATOM     11  C   UNL     1     -10.607  41.311 -10.283  1.00  0.00     0.000 C 
BRANCH  11  12
ATOM     12  C   UNL     1     -10.779  41.222  -8.759  1.00  0.00     0.006 C 
BRANCH  12  13
ATOM     13  C   UNL     1     -12.234  41.420  -8.311  1.00  0.00     0.053 C 
BRANCH  13  14
ATOM     14  C   UNL     1     -12.293  41.866  -6.884  1.00  0.00     0.041 C 
ATOM     15  O   UNL     1     -11.318  42.474  -6.368  1.00  0.00    -0.550 OA
ATOM     16  O   UNL     1     -13.415  41.588  -6.112  1.00  0.00    -0.550 OA
ENDBRANCH  13  14
ENDBRANCH  12  13
ENDBRANCH  11  12
ENDBRANCH  10  11
ENDBRANCH   9  10
ENDBRANCH   8   9
ENDBRANCH   7   8
ENDBRANCH   6   7
ENDBRANCH   5   6
ENDBRANCH   4   5
ENDBRANCH   3   4
ENDBRANCH   2   3
ENDBRANCH   1   2
BRANCH   1  17
ATOM     17  C   UNL     1     -14.545  32.392  -9.234  1.00  0.00     0.000 C 
BRANCH  17  18
ATOM     18  C   UNL     1     -13.069  31.958  -9.230  1.00  0.00     0.000 C 
BRANCH  18  19
ATOM     19  C   UNL     1     -12.868  30.552  -8.648  1.00  0.00     0.000 C 
BRANCH  19  20
ATOM     20  C   UNL     1     -12.629  30.612  -7.132  1.00  0.00     0.000 C 
BRANCH  20  21
ATOM     21  C   UNL     1     -11.669  29.514  -6.637  1.00  0.00     0.000 C 
BRANCH  21  22
ATOM     22  C   UNL     1     -10.696  28.977  -7.705  1.00  0.00    -0.000 C 
BRANCH  22  23
ATOM     23  C   UNL     1      -9.338  29.702  -7.779  1.00  0.00    -0.000 C 
BRANCH  23  24
ATOM     24  C   UNL     1      -9.095  30.747  -6.673  1.00  0.00    -0.000 C 
BRANCH  24  25
ATOM     25  C   UNL     1      -7.909  31.677  -6.984  1.00  0.00    -0.000 C 
BRANCH  25  26
ATOM     26  C   UNL     1      -7.538  31.687  -8.475  1.00  0.00    -0.000 C 
BRANCH  26  27
ATOM     27  C   UNL     1      -7.180  33.093  -8.986  1.00  0.00    -0.000 C 
BRANCH  27  28
ATOM     28  C   UNL     1      -6.307  33.056 -10.250  1.00  0.00    -0.000 C 
BRANCH  28  29
ATOM     29  C   UNL     1      -7.022  33.634 -11.480  1.00  0.00    -0.003 C 
ATOM     30  C   UNL     1      -6.575  32.929 -12.758  1.00  0.00     0.004 C 
ENDBRANCH  28  29
ENDBRANCH  27  28
ENDBRANCH  26  27
ENDBRANCH  25  26
ENDBRANCH  24  25
ENDBRANCH  23  24
ENDBRANCH  22  23
ENDBRANCH  21  22
ENDBRANCH  20  21
ENDBRANCH  19  20
ENDBRANCH  18  19
ENDBRANCH  17  18
ENDBRANCH   1  17
TORSDOF 26
ENDMDL
MODEL 4
REMARK VINA RESULT:    26.494      0.961      1.709
REMARK INTER + INTRA:          65.280
REMARK INTER:                  66.178
REMARK INTRA:                  -0.898
REMARK UNBOUND:                -1.483
REMARK SMILES CCCCCCCCCCCCCCCCCCCCCCCCCCCC(=O)[O-]
REMARK SMILES IDX 15 1 16 2 17 3 18 4 19 5 20 6 21 7 22 8 23 9 24 10 25 11
REMARK SMILES IDX 26 12 27 13 28 14 29 15 30 16 14 17 13 18 12 19 11 20 10 21
REMARK SMILES IDX 9 22 8 23 7 24 6 25 5 26 4 27 3 28 2 29 1 30
REMARK H PARENT
REMARK Flexibility Score: inf
ROOT
ATOM      1  C   UNL     1     -13.310  36.325 -12.166  1.00  0.00     0.000 C 
ENDROOT
BRANCH   1   2
ATOM      2  C   UNL     1     -12.168  36.720 -13.117  1.00  0.00     0.000 C 
BRANCH   2   3
ATOM      3  C   UNL     1     -12.392  38.097 -13.767  1.00  0.00     0.000 C 
BRANCH   3   4
ATOM      4  C   UNL     1     -12.571  39.217 -12.729  1.00  0.00     0.000 C 
BRANCH   4   5
ATOM      5  C   UNL     1     -11.260  39.960 -12.424  1.00  0.00     0.000 C 
BRANCH   5   6
ATOM      6  C   UNL     1     -11.538  41.415 -12.014  1.00  0.00     0.000 C 
BRANCH   6   7
ATOM      7  C   UNL     1     -11.333  41.659 -10.510  1.00  0.00     0.000 C 
BRANCH   7   8
ATOM      8  C   UNL     1     -10.534  40.533  -9.831  1.00  0.00     0.000 C 
BRANCH   8   9
ATOM      9  C   UNL     1      -9.304  41.055  -9.073  1.00  0.00     0.000 C 
BRANCH   9  10
ATOM     10  C   UNL     1      -9.607  42.317  -8.252  1.00  0.00     0.000 C 
BRANCH  10  11
ATOM     11  C   UNL     1     -10.449  41.976  -7.012  1.00  0.00     0.000 C 
BRANCH  11  12
ATOM     12  C   UNL     1     -11.948  41.857  -7.327  1.00  0.00     0.006 C 
BRANCH  12  13
ATOM     13  C   UNL     1     -12.702  40.986  -6.312  1.00  0.00     0.053 C 
BRANCH  13  14
ATOM     14  C   UNL     1     -14.072  41.533  -6.059  1.00  0.00     0.041 C 
ATOM     15  O   UNL     1     -14.478  41.707  -4.879  1.00  0.00    -0.550 OA
ATOM     16  O   UNL     1     -14.912  41.830  -7.125  1.00  0.00    -0.550 OA
ENDBRANCH  13  14
ENDBRANCH  12  13
ENDBRANCH  11  12
ENDBRANCH  10  11
ENDBRANCH   9  10
ENDBRANCH   8   9
ENDBRANCH   7   8
ENDBRANCH   6   7
ENDBRANCH   5   6
ENDBRANCH   4   5
ENDBRANCH   3   4
ENDBRANCH   2   3
ENDBRANCH   1   2
BRANCH   1  17
ATOM     17  C   UNL     1     -13.542  34.804 -12.116  1.00  0.00     0.000 C 
BRANCH  17  18
ATOM     18  C   UNL     1     -14.131  34.343 -10.771  1.00  0.00     0.000 C 
BRANCH  18  19
ATOM     19  C   UNL     1     -14.751  32.940 -10.849  1.00  0.00     0.000 C 
BRANCH  19  20
ATOM     20  C   UNL     1     -14.573  32.185  -9.524  1.00  0.00     0.000 C 
BRANCH  20  21
ATOM     21  C   UNL     1     -13.093  31.982  -9.149  1.00  0.00     0.000 C 
BRANCH  21  22
ATOM     22  C   UNL     1     -12.819  30.780  -8.224  1.00  0.00    -0.000 C 
BRANCH  22  23
ATOM     23  C   UNL     1     -11.498  30.032  -8.496  1.00  0.00    -0.000 C 
BRANCH  23  24
ATOM     24  C   UNL     1     -10.775  29.507  -7.242  1.00  0.00    -0.000 C 
BRANCH  24  25
ATOM     25  C   UNL     1      -9.244  29.639  -7.338  1.00  0.00    -0.000 C 
BRANCH  25  26
ATOM     26  C   UNL     1      -8.775  31.102  -7.351  1.00  0.00    -0.000 C 
BRANCH  26  27
ATOM     27  C   UNL     1      -7.740  31.382  -8.453  1.00  0.00    -0.000 C 
BRANCH  27  28
ATOM     28  C   UNL     1      -7.586  32.882  -8.750  1.00  0.00    -0.000 C 
BRANCH  28  29
ATOM     29  C   UNL     1      -6.421  33.179  -9.705  1.00  0.00    -0.003 C 
ATOM     30  C   UNL     1      -6.895  33.220 -11.155  1.00  0.00     0.004 C 
ENDBRANCH  28  29
ENDBRANCH  27  28
ENDBRANCH  26  27
ENDBRANCH  25  26
ENDBRANCH  24  25
ENDBRANCH  23  24
ENDBRANCH  22  23
ENDBRANCH  21  22
ENDBRANCH  20  21
ENDBRANCH  19  20
ENDBRANCH  18  19
ENDBRANCH  17  18
ENDBRANCH   1  17
TORSDOF 26
ENDMDL
MODEL 5
REMARK VINA RESULT:    26.914      3.273     10.205
REMARK INTER + INTRA:          66.339
REMARK INTER:                  67.330
REMARK INTRA:                  -0.990
REMARK UNBOUND:                -1.483
REMARK SMILES CCCCCCCCCCCCCCCCCCCCCCCCCCCC(=O)[O-]
REMARK SMILES IDX 15 1 16 2 17 3 18 4 19 5 20 6 21 7 22 8 23 9 24 10 25 11
REMARK SMILES IDX 26 12 27 13 28 14 29 15 30 16 14 17 13 18 12 19 11 20 10 21
REMARK SMILES IDX 9 22 8 23 7 24 6 25 5 26 4 27 3 28 2 29 1 30
REMARK H PARENT
REMARK Flexibility Score: inf
ROOT
ATOM      1  C   UNL     1     -14.985  32.789 -10.340  1.00  0.00     0.000 C 
ENDROOT
BRANCH   1   2
ATOM      2  C   UNL     1     -14.466  31.892  -9.204  1.00  0.00     0.000 C 
BRANCH   2   3
ATOM      3  C   UNL     1     -12.933  31.763  -9.209  1.00  0.00     0.000 C 
BRANCH   3   4
ATOM      4  C   UNL     1     -12.444  30.506  -8.470  1.00  0.00     0.000 C 
BRANCH   4   5
ATOM      5  C   UNL     1     -12.775  30.533  -6.969  1.00  0.00     0.000 C 
BRANCH   5   6
ATOM      6  C   UNL     1     -11.677  29.830  -6.154  1.00  0.00     0.000 C 
BRANCH   6   7
ATOM      7  C   UNL     1     -11.228  28.500  -6.782  1.00  0.00     0.000 C 
BRANCH   7   8
ATOM      8  C   UNL     1      -9.797  28.564  -7.342  1.00  0.00     0.000 C 
BRANCH   8   9
ATOM      9  C   UNL     1      -9.403  29.977  -7.799  1.00  0.00     0.000 C 
BRANCH   9  10
ATOM     10  C   UNL     1      -8.377  30.637  -6.866  1.00  0.00     0.000 C 
BRANCH  10  11
ATOM     11  C   UNL     1      -7.746  31.872  -7.529  1.00  0.00     0.000 C 
BRANCH  11  12
ATOM     12  C   UNL     1      -7.913  31.875  -9.057  1.00  0.00     0.006 C 
BRANCH  12  13
ATOM     13  C   UNL     1      -7.566  33.230  -9.690  1.00  0.00     0.053 C 
BRANCH  13  14
ATOM     14  C   UNL     1      -6.426  33.089 -10.650  1.00  0.00     0.041 C 
ATOM     15  O   UNL     1      -6.613  33.249 -11.885  1.00  0.00    -0.550 OA
ATOM     16  O   UNL     1      -5.160  32.756 -10.184  1.00  0.00    -0.550 OA
ENDBRANCH  13  14
ENDBRANCH  12  13
ENDBRANCH  11  12
ENDBRANCH  10  11
ENDBRANCH   9  10
ENDBRANCH   8   9
ENDBRANCH   7   8
ENDBRANCH   6   7
ENDBRANCH   5   6
ENDBRANCH   4   5
ENDBRANCH   3   4
ENDBRANCH   2   3
ENDBRANCH   1   2
BRANCH   1  17
ATOM     17  C   UNL     1     -14.201  34.109 -10.461  1.00  0.00     0.000 C 
BRANCH  17  18
ATOM     18  C   UNL     1     -14.022  34.554 -11.922  1.00  0.00     0.000 C 
BRANCH  18  19
ATOM     19  C   UNL     1     -12.785  35.443 -12.121  1.00  0.00     0.000 C 
BRANCH  19  20
ATOM     20  C   UNL     1     -13.114  36.656 -13.003  1.00  0.00     0.000 C 
BRANCH  20  21
ATOM     21  C   UNL     1     -11.858  37.441 -13.426  1.00  0.00     0.000 C 
BRANCH  21  22
ATOM     22  C   UNL     1     -12.029  38.973 -13.445  1.00  0.00    -0.000 C 
BRANCH  22  23
ATOM     23  C   UNL     1     -11.060  39.751 -12.533  1.00  0.00    -0.000 C 
BRANCH  23  24
ATOM     24  C   UNL     1     -11.733  40.681 -11.506  1.00  0.00    -0.000 C 
BRANCH  24  25
ATOM     25  C   UNL     1     -10.767  41.731 -10.931  1.00  0.00    -0.000 C 
BRANCH  25  26
ATOM     26  C   UNL     1     -10.434  41.483  -9.451  1.00  0.00    -0.000 C 
BRANCH  26  27
ATOM     27  C   UNL     1     -11.683  41.505  -8.553  1.00  0.00    -0.000 C 
BRANCH  27  28
ATOM     28  C   UNL     1     -11.356  41.193  -7.083  1.00  0.00    -0.000 C 
BRANCH  28  29
ATOM     29  C   UNL     1     -12.003  42.189  -6.110  1.00  0.00    -0.003 C 
ATOM     30  C   UNL     1     -13.285  41.617  -5.509  1.00  0.00     0.004 C 
ENDBRANCH  28  29
ENDBRANCH  27  28
ENDBRANCH  26  27
ENDBRANCH  25  26
ENDBRANCH  24  25
ENDBRANCH  23  24
ENDBRANCH  22  23
ENDBRANCH  21  22
ENDBRANCH  20  21
ENDBRANCH  19  20
ENDBRANCH  18  19
ENDBRANCH  17  18
ENDBRANCH   1  17
TORSDOF 26
ENDMDL
MODEL 6
REMARK VINA RESULT:    27.079      1.647      2.704
REMARK INTER + INTRA:          66.754
REMARK INTER:                  67.739
REMARK INTRA:                  -0.985
REMARK UNBOUND:                -1.483
REMARK SMILES CCCCCCCCCCCCCCCCCCCCCCCCCCCC(=O)[O-]
REMARK SMILES IDX 15 1 16 2 17 3 18 4 19 5 20 6 21 7 22 8 23 9 24 10 25 11
REMARK SMILES IDX 26 12 27 13 28 14 29 15 30 16 14 17 13 18 12 19 11 20 10 21
REMARK SMILES IDX 9 22 8 23 7 24 6 25 5 26 4 27 3 28 2 29 1 30
REMARK H PARENT
REMARK Flexibility Score: inf
ROOT
ATOM      1  C   UNL     1     -13.096  35.011 -11.673  1.00  0.00     0.000 C 
ENDROOT
BRANCH   1   2
ATOM      2  C   UNL     1     -13.432  36.295 -12.450  1.00  0.00     0.000 C 
BRANCH   2   3
ATOM      3  C   UNL     1     -12.189  36.938 -13.089  1.00  0.00     0.000 C 
BRANCH   3   4
ATOM      4  C   UNL     1     -12.547  38.091 -14.042  1.00  0.00     0.000 C 
BRANCH   4   5
ATOM      5  C   UNL     1     -12.782  39.420 -13.306  1.00  0.00     0.000 C 
BRANCH   5   6
ATOM      6  C   UNL     1     -11.545  39.817 -12.486  1.00  0.00     0.000 C 
BRANCH   6   7
ATOM      7  C   UNL     1     -11.567  41.292 -12.053  1.00  0.00     0.000 C 
BRANCH   7   8
ATOM      8  C   UNL     1     -11.687  41.459 -10.528  1.00  0.00     0.000 C 
BRANCH   8   9
ATOM      9  C   UNL     1     -10.400  41.065  -9.787  1.00  0.00     0.000 C 
BRANCH   9  10
ATOM     10  C   UNL     1      -9.946  42.134  -8.781  1.00  0.00     0.000 C 
BRANCH  10  11
ATOM     11  C   UNL     1      -9.421  41.485  -7.490  1.00  0.00     0.000 C 
BRANCH  11  12
ATOM     12  C   UNL     1     -10.438  41.546  -6.339  1.00  0.00     0.006 C 
BRANCH  12  13
ATOM     13  C   UNL     1     -11.638  42.451  -6.653  1.00  0.00     0.053 C 
BRANCH  13  14
ATOM     14  C   UNL     1     -12.916  41.675  -6.592  1.00  0.00     0.041 C 
ATOM     15  O   UNL     1     -13.094  40.815  -5.689  1.00  0.00    -0.550 OA
ATOM     16  O   UNL     1     -13.904  41.883  -7.547  1.00  0.00    -0.550 OA
ENDBRANCH  13  14
ENDBRANCH  12  13
ENDBRANCH  11  12
ENDBRANCH  10  11
ENDBRANCH   9  10
ENDBRANCH   8   9
ENDBRANCH   7   8
ENDBRANCH   6   7
ENDBRANCH   5   6
ENDBRANCH   4   5
ENDBRANCH   3   4
ENDBRANCH   2   3
ENDBRANCH   1   2
BRANCH   1  17
ATOM     17  C   UNL     1     -14.303  34.064 -11.540  1.00  0.00     0.000 C 
BRANCH  17  18
ATOM     18  C   UNL     1     -14.833  33.984 -10.098  1.00  0.00     0.000 C 
BRANCH  18  19
ATOM     19  C   UNL     1     -14.887  32.544  -9.568  1.00  0.00     0.000 C 
BRANCH  19  20
ATOM     20  C   UNL     1     -13.540  31.834  -9.764  1.00  0.00     0.000 C 
BRANCH  20  21
ATOM     21  C   UNL     1     -13.091  31.055  -8.514  1.00  0.00     0.000 C 
BRANCH  21  22
ATOM     22  C   UNL     1     -11.647  30.518  -8.571  1.00  0.00    -0.000 C 
BRANCH  22  23
ATOM     23  C   UNL     1     -11.476  29.050  -8.131  1.00  0.00    -0.000 C 
BRANCH  23  24
ATOM     24  C   UNL     1     -10.138  28.726  -7.440  1.00  0.00    -0.000 C 
BRANCH  24  25
ATOM     25  C   UNL     1      -9.165  29.918  -7.440  1.00  0.00    -0.000 C 
BRANCH  25  26
ATOM     26  C   UNL     1      -9.245  30.749  -6.150  1.00  0.00    -0.000 C 
BRANCH  26  27
ATOM     27  C   UNL     1     -10.640  31.357  -5.924  1.00  0.00    -0.000 C 
BRANCH  27  28
ATOM     28  C   UNL     1     -11.032  31.394  -4.438  1.00  0.00    -0.000 C 
BRANCH  28  29
ATOM     29  C   UNL     1     -12.312  30.598  -4.144  1.00  0.00    -0.003 C 
ATOM     30  C   UNL     1     -12.195  29.162  -4.650  1.00  0.00     0.004 C 
ENDBRANCH  28  29
ENDBRANCH  27  28
ENDBRANCH  26  27
ENDBRANCH  25  26
ENDBRANCH  24  25
ENDBRANCH  23  24
ENDBRANCH  22  23
ENDBRANCH  21  22
ENDBRANCH  20  21
ENDBRANCH  19  20
ENDBRANCH  18  19
ENDBRANCH  17  18
ENDBRANCH   1  17
TORSDOF 26
ENDMDL
MODEL 7
REMARK VINA RESULT:    27.398      3.180     10.207
REMARK INTER + INTRA:          67.559
REMARK INTER:                  66.386
REMARK INTRA:                   1.173
REMARK UNBOUND:                -1.483
REMARK SMILES CCCCCCCCCCCCCCCCCCCCCCCCCCCC(=O)[O-]
REMARK SMILES IDX 15 1 16 2 17 3 18 4 19 5 20 6 21 7 22 8 23 9 24 10 25 11
REMARK SMILES IDX 26 12 27 13 28 14 29 15 30 16 14 17 13 18 12 19 11 20 10 21
REMARK SMILES IDX 9 22 8 23 7 24 6 25 5 26 4 27 3 28 2 29 1 30
REMARK H PARENT
REMARK Flexibility Score: inf
ROOT
ATOM      1  C   UNL     1     -13.547  36.086 -12.611  1.00  0.00     0.000 C 
ENDROOT
BRANCH   1   2
ATOM      2  C   UNL     1     -13.432  34.748 -11.863  1.00  0.00     0.000 C 
BRANCH   2   3
ATOM      3  C   UNL     1     -14.788  34.251 -11.332  1.00  0.00     0.000 C 
BRANCH   3   4
ATOM      4  C   UNL     1     -14.689  33.666  -9.914  1.00  0.00     0.000 C 
BRANCH   4   5
ATOM      5  C   UNL     1     -14.918  32.147  -9.879  1.00  0.00     0.000 C 
BRANCH   5   6
ATOM      6  C   UNL     1     -14.058  31.488  -8.789  1.00  0.00     0.000 C 
BRANCH   6   7
ATOM      7  C   UNL     1     -12.602  31.266  -9.232  1.00  0.00     0.000 C 
BRANCH   7   8
ATOM      8  C   UNL     1     -11.798  30.426  -8.224  1.00  0.00     0.000 C 
BRANCH   8   9
ATOM      9  C   UNL     1     -12.162  30.746  -6.766  1.00  0.00     0.000 C 
BRANCH   9  10
ATOM     10  C   UNL     1     -12.212  29.492  -5.880  1.00  0.00     0.000 C 
BRANCH  10  11
ATOM     11  C   UNL     1     -11.022  28.565  -6.175  1.00  0.00     0.000 C 
BRANCH  11  12
ATOM     12  C   UNL     1     -10.201  29.020  -7.392  1.00  0.00     0.006 C 
BRANCH  12  13
ATOM     13  C   UNL     1      -8.747  29.358  -7.037  1.00  0.00     0.053 C 
BRANCH  13  14
ATOM     14  C   UNL     1      -8.483  30.819  -7.218  1.00  0.00     0.041 C 
ATOM     15  O   UNL     1      -8.180  31.273  -8.354  1.00  0.00    -0.550 OA
ATOM     16  O   UNL     1      -8.548  31.681  -6.130  1.00  0.00    -0.550 OA
ENDBRANCH  13  14
ENDBRANCH  12  13
ENDBRANCH  11  12
ENDBRANCH  10  11
ENDBRANCH   9  10
ENDBRANCH   8   9
ENDBRANCH   7   8
ENDBRANCH   6   7
ENDBRANCH   5   6
ENDBRANCH   4   5
ENDBRANCH   3   4
ENDBRANCH   2   3
ENDBRANCH   1   2
BRANCH   1  17
ATOM     17  C   UNL     1     -12.175  36.687 -12.966  1.00  0.00     0.000 C 
BRANCH  17  18
ATOM     18  C   UNL     1     -12.261  38.182 -13.321  1.00  0.00     0.000 C 
BRANCH  18  19
ATOM     19  C   UNL     1     -10.887  38.797 -13.627  1.00  0.00     0.000 C 
BRANCH  19  20
ATOM     20  C   UNL     1     -10.686  40.108 -12.853  1.00  0.00     0.000 C 
BRANCH  20  21
ATOM     21  C   UNL     1     -11.952  40.552 -12.096  1.00  0.00     0.000 C 
BRANCH  21  22
ATOM     22  C   UNL     1     -11.724  41.657 -11.047  1.00  0.00    -0.000 C 
BRANCH  22  23
ATOM     23  C   UNL     1     -11.563  41.161  -9.596  1.00  0.00    -0.000 C 
BRANCH  23  24
ATOM     24  C   UNL     1     -12.621  41.682  -8.606  1.00  0.00    -0.000 C 
BRANCH  24  25
ATOM     25  C   UNL     1     -12.393  41.176  -7.171  1.00  0.00    -0.000 C 
BRANCH  25  26
ATOM     26  C   UNL     1     -11.433  42.072  -6.372  1.00  0.00    -0.000 C 
BRANCH  26  27
ATOM     27  C   UNL     1     -10.710  43.100  -7.258  1.00  0.00    -0.000 C 
BRANCH  27  28
ATOM     28  C   UNL     1      -9.435  42.530  -7.902  1.00  0.00    -0.000 C 
BRANCH  28  29
ATOM     29  C   UNL     1      -8.991  41.207  -7.261  1.00  0.00    -0.003 C 
ATOM     30  C   UNL     1      -8.149  40.382  -8.232  1.00  0.00     0.004 C 
ENDBRANCH  28  29
ENDBRANCH  27  28
ENDBRANCH  26  27
ENDBRANCH  25  26
ENDBRANCH  24  25
ENDBRANCH  23  24
ENDBRANCH  22  23
ENDBRANCH  21  22
ENDBRANCH  20  21
ENDBRANCH  19  20
ENDBRANCH  18  19
ENDBRANCH  17  18
ENDBRANCH   1  17
TORSDOF 26
ENDMDL
MODEL 8
REMARK VINA RESULT:    27.560      4.978     11.821
REMARK INTER + INTRA:          67.968
REMARK INTER:                  68.991
REMARK INTRA:                  -1.023
REMARK UNBOUND:                -1.483
REMARK SMILES CCCCCCCCCCCCCCCCCCCCCCCCCCCC(=O)[O-]
REMARK SMILES IDX 15 1 16 2 17 3 18 4 19 5 20 6 21 7 22 8 23 9 24 10 25 11
REMARK SMILES IDX 26 12 27 13 28 14 29 15 30 16 14 17 13 18 12 19 11 20 10 21
REMARK SMILES IDX 9 22 8 23 7 24 6 25 5 26 4 27 3 28 2 29 1 30
REMARK H PARENT
REMARK Flexibility Score: inf
ROOT
ATOM      1  C   UNL     1     -14.731  32.529  -9.641  1.00  0.00     0.000 C 
ENDROOT
BRANCH   1   2
ATOM      2  C   UNL     1     -13.344  32.034  -9.197  1.00  0.00     0.000 C 
BRANCH   2   3
ATOM      3  C   UNL     1     -13.412  30.706  -8.424  1.00  0.00     0.000 C 
BRANCH   3   4
ATOM      4  C   UNL     1     -12.181  30.481  -7.530  1.00  0.00     0.000 C 
BRANCH   4   5
ATOM      5  C   UNL     1     -12.535  30.422  -6.036  1.00  0.00     0.000 C 
BRANCH   5   6
ATOM      6  C   UNL     1     -12.006  29.127  -5.398  1.00  0.00     0.000 C 
BRANCH   6   7
ATOM      7  C   UNL     1     -12.657  28.824  -4.038  1.00  0.00     0.000 C 
BRANCH   7   8
ATOM      8  C   UNL     1     -14.187  28.982  -4.067  1.00  0.00     0.000 C 
BRANCH   8   9
ATOM      9  C   UNL     1     -14.922  27.676  -3.727  1.00  0.00     0.000 C 
BRANCH   9  10
ATOM     10  C   UNL     1     -16.300  27.920  -3.094  1.00  0.00     0.000 C 
BRANCH  10  11
ATOM     11  C   UNL     1     -17.049  26.594  -2.881  1.00  0.00     0.000 C 
BRANCH  11  12
ATOM     12  C   UNL     1     -18.559  26.717  -3.134  1.00  0.00     0.006 C 
BRANCH  12  13
ATOM     13  C   UNL     1     -19.037  28.175  -3.188  1.00  0.00     0.053 C 
BRANCH  13  14
ATOM     14  C   UNL     1     -19.966  28.386  -4.341  1.00  0.00     0.041 C 
ATOM     15  O   UNL     1     -20.872  27.545  -4.588  1.00  0.00    -0.550 OA
ATOM     16  O   UNL     1     -19.820  29.498  -5.161  1.00  0.00    -0.550 OA
ENDBRANCH  13  14
ENDBRANCH  12  13
ENDBRANCH  11  12
ENDBRANCH  10  11
ENDBRANCH   9  10
ENDBRANCH   8   9
ENDBRANCH   7   8
ENDBRANCH   6   7
ENDBRANCH   5   6
ENDBRANCH   4   5
ENDBRANCH   3   4
ENDBRANCH   2   3
ENDBRANCH   1   2
BRANCH   1  17
ATOM     17  C   UNL     1     -14.747  33.021 -11.100  1.00  0.00     0.000 C 
BRANCH  17  18
ATOM     18  C   UNL     1     -13.886  34.278 -11.307  1.00  0.00     0.000 C 
BRANCH  18  19
ATOM     19  C   UNL     1     -13.718  34.641 -12.790  1.00  0.00     0.000 C 
BRANCH  19  20
ATOM     20  C   UNL     1     -12.631  35.710 -12.976  1.00  0.00     0.000 C 
BRANCH  20  21
ATOM     21  C   UNL     1     -13.078  37.103 -12.495  1.00  0.00     0.000 C 
BRANCH  21  22
ATOM     22  C   UNL     1     -12.436  38.284 -13.250  1.00  0.00    -0.000 C 
BRANCH  22  23
ATOM     23  C   UNL     1     -12.655  39.668 -12.606  1.00  0.00    -0.000 C 
BRANCH  23  24
ATOM     24  C   UNL     1     -11.391  40.318 -12.011  1.00  0.00    -0.000 C 
BRANCH  24  25
ATOM     25  C   UNL     1     -11.672  41.077 -10.703  1.00  0.00    -0.000 C 
BRANCH  25  26
ATOM     26  C   UNL     1     -10.390  41.409  -9.923  1.00  0.00    -0.000 C 
BRANCH  26  27
ATOM     27  C   UNL     1     -10.611  41.424  -8.401  1.00  0.00    -0.000 C 
BRANCH  27  28
ATOM     28  C   UNL     1     -12.083  41.656  -8.021  1.00  0.00    -0.000 C 
BRANCH  28  29
ATOM     29  C   UNL     1     -12.357  41.397  -6.533  1.00  0.00    -0.003 C 
ATOM     30  C   UNL     1     -11.865  42.558  -5.673  1.00  0.00     0.004 C 
ENDBRANCH  28  29
ENDBRANCH  27  28
ENDBRANCH  26  27
ENDBRANCH  25  26
ENDBRANCH  24  25
ENDBRANCH  23  24
ENDBRANCH  22  23
ENDBRANCH  21  22
ENDBRANCH  20  21
ENDBRANCH  19  20
ENDBRANCH  18  19
ENDBRANCH  17  18
ENDBRANCH   1  17
TORSDOF 26
ENDMDL
MODEL 9
REMARK VINA RESULT:    27.648      2.037      4.449
REMARK INTER + INTRA:          68.189
REMARK INTER:                  69.221
REMARK INTRA:                  -1.032
REMARK UNBOUND:                -1.483
REMARK SMILES CCCCCCCCCCCCCCCCCCCCCCCCCCCC(=O)[O-]
REMARK SMILES IDX 15 1 16 2 17 3 18 4 19 5 20 6 21 7 22 8 23 9 24 10 25 11
REMARK SMILES IDX 26 12 27 13 28 14 29 15 30 16 14 17 13 18 12 19 11 20 10 21
REMARK SMILES IDX 9 22 8 23 7 24 6 25 5 26 4 27 3 28 2 29 1 30
REMARK H PARENT
REMARK Flexibility Score: inf
ROOT
ATOM      1  C   UNL     1     -10.943  38.118 -13.584  1.00  0.00     0.000 C 
ENDROOT
BRANCH   1   2
ATOM      2  C   UNL     1     -10.658  39.311 -12.657  1.00  0.00     0.000 C 
BRANCH   2   3
ATOM      3  C   UNL     1     -11.612  40.492 -12.905  1.00  0.00     0.000 C 
BRANCH   3   4
ATOM      4  C   UNL     1     -11.666  41.467 -11.716  1.00  0.00     0.000 C 
BRANCH   4   5
ATOM      5  C   UNL     1     -11.646  40.748 -10.358  1.00  0.00     0.000 C 
BRANCH   5   6
ATOM      6  C   UNL     1     -12.041  41.709  -9.225  1.00  0.00     0.000 C 
BRANCH   6   7
ATOM      7  C   UNL     1     -13.561  41.779  -9.005  1.00  0.00     0.000 C 
BRANCH   7   8
ATOM      8  C   UNL     1     -13.944  41.784  -7.515  1.00  0.00     0.000 C 
BRANCH   8   9
ATOM      9  C   UNL     1     -12.920  41.044  -6.639  1.00  0.00     0.000 C 
BRANCH   9  10
ATOM     10  C   UNL     1     -12.664  41.753  -5.301  1.00  0.00     0.000 C 
BRANCH  10  11
ATOM     11  C   UNL     1     -11.310  42.480  -5.316  1.00  0.00     0.000 C 
BRANCH  11  12
ATOM     12  C   UNL     1     -10.551  42.296  -6.640  1.00  0.00     0.006 C 
BRANCH  12  13
ATOM     13  C   UNL     1      -9.716  41.009  -6.673  1.00  0.00     0.053 C 
BRANCH  13  14
ATOM     14  C   UNL     1      -8.570  41.146  -7.626  1.00  0.00     0.041 C 
ATOM     15  O   UNL     1      -7.875  42.197  -7.635  1.00  0.00    -0.550 OA
ATOM     16  O   UNL     1      -8.282  40.124  -8.522  1.00  0.00    -0.550 OA
ENDBRANCH  13  14
ENDBRANCH  12  13
ENDBRANCH  11  12
ENDBRANCH  10  11
ENDBRANCH   9  10
ENDBRANCH   8   9
ENDBRANCH   7   8
ENDBRANCH   6   7
ENDBRANCH   5   6
ENDBRANCH   4   5
ENDBRANCH   3   4
ENDBRANCH   2   3
ENDBRANCH   1   2
BRANCH   1  17
ATOM     17  C   UNL     1     -12.448  37.823 -13.727  1.00  0.00     0.000 C 
BRANCH  17  18
ATOM     18  C   UNL     1     -13.034  37.140 -12.479  1.00  0.00     0.000 C 
BRANCH  18  19
ATOM     19  C   UNL     1     -12.891  35.612 -12.520  1.00  0.00     0.000 C 
BRANCH  19  20
ATOM     20  C   UNL     1     -14.089  34.928 -11.843  1.00  0.00     0.000 C 
BRANCH  20  21
ATOM     21  C   UNL     1     -13.665  33.945 -10.737  1.00  0.00     0.000 C 
BRANCH  21  22
ATOM     22  C   UNL     1     -14.699  32.848 -10.415  1.00  0.00    -0.000 C 
BRANCH  22  23
ATOM     23  C   UNL     1     -14.430  32.053  -9.121  1.00  0.00    -0.000 C 
BRANCH  23  24
ATOM     24  C   UNL     1     -13.069  31.335  -9.067  1.00  0.00    -0.000 C 
BRANCH  24  25
ATOM     25  C   UNL     1     -12.661  30.941  -7.637  1.00  0.00    -0.000 C 
BRANCH  25  26
ATOM     26  C   UNL     1     -12.189  29.482  -7.536  1.00  0.00    -0.000 C 
BRANCH  26  27
ATOM     27  C   UNL     1     -10.901  29.220  -8.335  1.00  0.00    -0.000 C 
BRANCH  27  28
ATOM     28  C   UNL     1      -9.651  29.178  -7.441  1.00  0.00    -0.000 C 
BRANCH  28  29
ATOM     29  C   UNL     1      -9.329  30.541  -6.811  1.00  0.00    -0.003 C 
ATOM     30  C   UNL     1      -7.958  31.042  -7.256  1.00  0.00     0.004 C 
ENDBRANCH  28  29
ENDBRANCH  27  28
ENDBRANCH  26  27
ENDBRANCH  25  26
ENDBRANCH  24  25
ENDBRANCH  23  24
ENDBRANCH  22  23
ENDBRANCH  21  22
ENDBRANCH  20  21
ENDBRANCH  19  20
ENDBRANCH  18  19
ENDBRANCH  17  18
ENDBRANCH   1  17
TORSDOF 26
ENDMDL
