MODEL 1
REMARK VINA RESULT:    -4.108      0.000      0.000
REMARK INTER + INTRA:          -7.935
REMARK INTER:                  -6.509
REMARK INTRA:                  -1.426
REMARK UNBOUND:                -1.426
REMARK SMILES CCCCCCCCCCCC(=O)[O-]
REMARK SMILES IDX 7 1 8 2 9 3 10 4 11 5 12 6 13 7 14 8 6 9 5 10 4 11 3 12 2 13
REMARK SMILES IDX 1 14
REMARK H PARENT
REMARK Flexibility Score: inf
ROOT
ATOM      1  C   UNL     1      44.277  60.124  12.943  1.00  0.00     0.000 C 
ENDROOT
BRANCH   1   2
ATOM      2  C   UNL     1      44.067  61.413  13.756  1.00  0.00     0.000 C 
BRANCH   2   3
ATOM      3  C   UNL     1      44.967  62.566  13.260  1.00  0.00     0.000 C 
BRANCH   3   4
ATOM      4  C   UNL     1      44.370  63.349  12.079  1.00  0.00     0.006 C 
BRANCH   4   5
ATOM      5  C   UNL     1      42.841  63.433  12.132  1.00  0.00     0.053 C 
BRANCH   5   6
ATOM      6  C   UNL     1      42.302  63.970  10.842  1.00  0.00     0.041 C 
ATOM      7  O   UNL     1      42.912  64.888  10.235  1.00  0.00    -0.550 OA
ATOM      8  O   UNL     1      41.101  63.490  10.337  1.00  0.00    -0.550 OA
ENDBRANCH   5   6
ENDBRANCH   4   5
ENDBRANCH   3   4
ENDBRANCH   2   3
ENDBRANCH   1   2
BRANCH   1   9
ATOM      9  C   UNL     1      42.993  59.646  12.248  1.00  0.00     0.000 C 
BRANCH   9  10
ATOM     10  C   UNL     1      43.002  59.911  10.735  1.00  0.00    -0.000 C 
BRANCH  10  11
ATOM     11  C   UNL     1      44.439  60.054  10.212  1.00  0.00    -0.000 C 
BRANCH  11  12
ATOM     12  C   UNL     1      44.542  60.982   8.987  1.00  0.00    -0.000 C 
BRANCH  12  13
ATOM     13  C   UNL     1      43.229  61.169   8.206  1.00  0.00    -0.003 C 
ATOM     14  C   UNL     1      43.212  62.441   7.360  1.00  0.00     0.004 C 
ENDBRANCH  12  13
ENDBRANCH  11  12
ENDBRANCH  10  11
ENDBRANCH   9  10
ENDBRANCH   1   9
TORSDOF 10
ENDMDL
MODEL 2
REMARK VINA RESULT:    -4.085      1.668      3.226
REMARK INTER + INTRA:          -7.900
REMARK INTER:                  -6.375
REMARK INTRA:                  -1.524
REMARK UNBOUND:                -1.426
REMARK SMILES CCCCCCCCCCCC(=O)[O-]
REMARK SMILES IDX 7 1 8 2 9 3 10 4 11 5 12 6 13 7 14 8 6 9 5 10 4 11 3 12 2 13
REMARK SMILES IDX 1 14
REMARK H PARENT
REMARK Flexibility Score: inf
ROOT
ATOM      1  C   UNL     1      44.585  63.544  12.571  1.00  0.00     0.000 C 
ENDROOT
BRANCH   1   2
ATOM      2  C   UNL     1      43.059  63.627  12.387  1.00  0.00     0.000 C 
BRANCH   2   3
ATOM      3  C   UNL     1      42.661  63.786  10.904  1.00  0.00     0.000 C 
BRANCH   3   4
ATOM      4  C   UNL     1      41.545  62.824  10.461  1.00  0.00     0.006 C 
BRANCH   4   5
ATOM      5  C   UNL     1      40.791  62.201  11.641  1.00  0.00     0.053 C 
BRANCH   5   6
ATOM      6  C   UNL     1      39.455  62.853  11.810  1.00  0.00     0.041 C 
ATOM      7  O   UNL     1      38.961  63.535  10.875  1.00  0.00    -0.550 OA
ATOM      8  O   UNL     1      38.777  62.747  13.017  1.00  0.00    -0.550 OA
ENDBRANCH   5   6
ENDBRANCH   4   5
ENDBRANCH   3   4
ENDBRANCH   2   3
ENDBRANCH   1   2
BRANCH   1   9
ATOM      9  C   UNL     1      45.011  62.366  13.461  1.00  0.00     0.000 C 
BRANCH   9  10
ATOM     10  C   UNL     1      43.889  61.336  13.661  1.00  0.00    -0.000 C 
BRANCH  10  11
ATOM     11  C   UNL     1      44.199  60.035  12.907  1.00  0.00    -0.000 C 
BRANCH  11  12
ATOM     12  C   UNL     1      43.860  60.115  11.407  1.00  0.00    -0.000 C 
BRANCH  12  13
ATOM     13  C   UNL     1      45.058  60.417  10.489  1.00  0.00    -0.003 C 
ATOM     14  C   UNL     1      44.642  60.815   9.074  1.00  0.00     0.004 C 
ENDBRANCH  12  13
ENDBRANCH  11  12
ENDBRANCH  10  11
ENDBRANCH   9  10
ENDBRANCH   1   9
TORSDOF 10
ENDMDL
MODEL 3
REMARK VINA RESULT:    -3.982      1.187      2.103
REMARK INTER + INTRA:          -7.736
REMARK INTER:                  -6.173
REMARK INTRA:                  -1.562
REMARK UNBOUND:                -1.426
REMARK SMILES CCCCCCCCCCCC(=O)[O-]
REMARK SMILES IDX 7 1 8 2 9 3 10 4 11 5 12 6 13 7 14 8 6 9 5 10 4 11 3 12 2 13
REMARK SMILES IDX 1 14
REMARK H PARENT
REMARK Flexibility Score: inf
ROOT
ATOM      1  C   UNL     1      44.380  61.444  13.509  1.00  0.00     0.000 C 
ENDROOT
BRANCH   1   2
ATOM      2  C   UNL     1      44.882  62.377  12.393  1.00  0.00     0.000 C 
BRANCH   2   3
ATOM      3  C   UNL     1      44.212  63.767  12.451  1.00  0.00     0.000 C 
BRANCH   3   4
ATOM      4  C   UNL     1      42.859  63.828  11.722  1.00  0.00     0.006 C 
BRANCH   4   5
ATOM      5  C   UNL     1      41.671  63.529  12.643  1.00  0.00     0.053 C 
BRANCH   5   6
ATOM      6  C   UNL     1      40.491  63.072  11.843  1.00  0.00     0.041 C 
ATOM      7  O   UNL     1      39.638  62.302  12.357  1.00  0.00    -0.550 OA
ATOM      8  O   UNL     1      40.361  63.456  10.515  1.00  0.00    -0.550 OA
ENDBRANCH   5   6
ENDBRANCH   4   5
ENDBRANCH   3   4
ENDBRANCH   2   3
ENDBRANCH   1   2
BRANCH   1   9
ATOM      9  C   UNL     1      44.055  60.032  13.000  1.00  0.00     0.000 C 
BRANCH   9  10
ATOM     10  C   UNL     1      42.721  59.966  12.241  1.00  0.00    -0.000 C 
BRANCH  10  11
ATOM     11  C   UNL     1      42.948  59.625  10.761  1.00  0.00    -0.000 C 
BRANCH  11  12
ATOM     12  C   UNL     1      42.492  60.746   9.810  1.00  0.00    -0.000 C 
BRANCH  12  13
ATOM     13  C   UNL     1      43.612  61.362   8.953  1.00  0.00    -0.003 C 
ATOM     14  C   UNL     1      44.937  60.610   9.070  1.00  0.00     0.004 C 
ENDBRANCH  12  13
ENDBRANCH  11  12
ENDBRANCH  10  11
ENDBRANCH   9  10
ENDBRANCH   1   9
TORSDOF 10
ENDMDL
MODEL 4
REMARK VINA RESULT:    -3.933      2.034      3.512
REMARK INTER + INTRA:          -7.658
REMARK INTER:                  -6.241
REMARK INTRA:                  -1.417
REMARK UNBOUND:                -1.426
REMARK SMILES CCCCCCCCCCCC(=O)[O-]
REMARK SMILES IDX 7 1 8 2 9 3 10 4 11 5 12 6 13 7 14 8 6 9 5 10 4 11 3 12 2 13
REMARK SMILES IDX 1 14
REMARK H PARENT
REMARK Flexibility Score: inf
ROOT
ATOM      1  C   UNL     1      43.120  64.110  11.005  1.00  0.00     0.000 C 
ENDROOT
BRANCH   1   2
ATOM      2  C   UNL     1      44.013  63.819  12.224  1.00  0.00     0.000 C 
BRANCH   2   3
ATOM      3  C   UNL     1      44.849  62.534  12.038  1.00  0.00     0.000 C 
BRANCH   3   4
ATOM      4  C   UNL     1      44.993  61.702  13.324  1.00  0.00     0.006 C 
BRANCH   4   5
ATOM      5  C   UNL     1      44.301  60.338  13.233  1.00  0.00     0.053 C 
BRANCH   5   6
ATOM      6  C   UNL     1      42.819  60.511  13.118  1.00  0.00     0.041 C 
ATOM      7  O   UNL     1      42.180  59.915  12.211  1.00  0.00    -0.550 OA
ATOM      8  O   UNL     1      42.150  61.369  13.980  1.00  0.00    -0.550 OA
ENDBRANCH   5   6
ENDBRANCH   4   5
ENDBRANCH   3   4
ENDBRANCH   2   3
ENDBRANCH   1   2
BRANCH   1   9
ATOM      9  C   UNL     1      41.771  63.379  11.070  1.00  0.00     0.000 C 
BRANCH   9  10
ATOM     10  C   UNL     1      41.435  62.635   9.768  1.00  0.00    -0.000 C 
BRANCH  10  11
ATOM     11  C   UNL     1      42.604  62.710   8.776  1.00  0.00    -0.000 C 
BRANCH  11  12
ATOM     12  C   UNL     1      43.093  61.323   8.319  1.00  0.00    -0.000 C 
BRANCH  12  13
ATOM     13  C   UNL     1      44.547  60.992   8.701  1.00  0.00    -0.003 C 
ATOM     14  C   UNL     1      44.674  59.703   9.511  1.00  0.00     0.004 C 
ENDBRANCH  12  13
ENDBRANCH  11  12
ENDBRANCH  10  11
ENDBRANCH   9  10
ENDBRANCH   1   9
TORSDOF 10
ENDMDL
MODEL 5
REMARK VINA RESULT:    -3.884      1.796      3.272
REMARK INTER + INTRA:          -7.581
REMARK INTER:                  -6.364
REMARK INTRA:                  -1.217
REMARK UNBOUND:                -1.426
REMARK SMILES CCCCCCCCCCCC(=O)[O-]
REMARK SMILES IDX 7 1 8 2 9 3 10 4 11 5 12 6 13 7 14 8 6 9 5 10 4 11 3 12 2 13
REMARK SMILES IDX 1 14
REMARK H PARENT
REMARK Flexibility Score: inf
ROOT
ATOM      1  C   UNL     1      44.237  63.780  12.290  1.00  0.00     0.000 C 
ENDROOT
BRANCH   1   2
ATOM      2  C   UNL     1      42.720  63.525  12.257  1.00  0.00     0.000 C 
BRANCH   2   3
ATOM      3  C   UNL     1      42.130  63.714  10.843  1.00  0.00     0.000 C 
BRANCH   3   4
ATOM      4  C   UNL     1      42.817  64.827  10.033  1.00  0.00     0.006 C 
BRANCH   4   5
ATOM      5  C   UNL     1      42.411  64.826   8.555  1.00  0.00     0.053 C 
BRANCH   5   6
ATOM      6  C   UNL     1      41.920  66.179   8.147  1.00  0.00     0.041 C 
ATOM      7  O   UNL     1      42.665  66.951   7.488  1.00  0.00    -0.550 OA
ATOM      8  O   UNL     1      40.658  66.608   8.536  1.00  0.00    -0.550 OA
ENDBRANCH   5   6
ENDBRANCH   4   5
ENDBRANCH   3   4
ENDBRANCH   2   3
ENDBRANCH   1   2
BRANCH   1   9
ATOM      9  C   UNL     1      44.999  62.715  13.095  1.00  0.00     0.000 C 
BRANCH   9  10
ATOM     10  C   UNL     1      44.111  61.530  13.502  1.00  0.00    -0.000 C 
BRANCH  10  11
ATOM     11  C   UNL     1      44.510  60.258  12.739  1.00  0.00    -0.000 C 
BRANCH  11  12
ATOM     12  C   UNL     1      43.928  60.206  11.314  1.00  0.00    -0.000 C 
BRANCH  12  13
ATOM     13  C   UNL     1      44.946  60.475  10.191  1.00  0.00    -0.003 C 
ATOM     14  C   UNL     1      44.339  61.214   8.999  1.00  0.00     0.004 C 
ENDBRANCH  12  13
ENDBRANCH  11  12
ENDBRANCH  10  11
ENDBRANCH   9  10
ENDBRANCH   1   9
TORSDOF 10
ENDMDL
MODEL 6
REMARK VINA RESULT:    -3.848      2.235      3.794
REMARK INTER + INTRA:          -7.523
REMARK INTER:                  -5.831
REMARK INTRA:                  -1.692
REMARK UNBOUND:                -1.426
REMARK SMILES CCCCCCCCCCCC(=O)[O-]
REMARK SMILES IDX 7 1 8 2 9 3 10 4 11 5 12 6 13 7 14 8 6 9 5 10 4 11 3 12 2 13
REMARK SMILES IDX 1 14
REMARK H PARENT
REMARK Flexibility Score: inf
ROOT
ATOM      1  C   UNL     1      43.247  63.684  12.262  1.00  0.00     0.000 C 
ENDROOT
BRANCH   1   2
ATOM      2  C   UNL     1      42.806  63.683  10.787  1.00  0.00     0.000 C 
BRANCH   2   3
ATOM      3  C   UNL     1      41.529  62.846  10.563  1.00  0.00     0.000 C 
BRANCH   3   4
ATOM      4  C   UNL     1      41.137  61.984  11.775  1.00  0.00     0.006 C 
BRANCH   4   5
ATOM      5  C   UNL     1      41.078  60.488  11.448  1.00  0.00     0.053 C 
BRANCH   5   6
ATOM      6  C   UNL     1      39.732  60.126  10.900  1.00  0.00     0.041 C 
ATOM      7  O   UNL     1      38.687  60.545  11.461  1.00  0.00    -0.550 OA
ATOM      8  O   UNL     1      39.633  59.286   9.799  1.00  0.00    -0.550 OA
ENDBRANCH   5   6
ENDBRANCH   4   5
ENDBRANCH   3   4
ENDBRANCH   2   3
ENDBRANCH   1   2
BRANCH   1   9
ATOM      9  C   UNL     1      44.628  63.043  12.469  1.00  0.00     0.000 C 
BRANCH   9  10
ATOM     10  C   UNL     1      44.573  61.785  13.347  1.00  0.00    -0.000 C 
BRANCH  10  11
ATOM     11  C   UNL     1      44.666  60.513  12.491  1.00  0.00    -0.000 C 
BRANCH  11  12
ATOM     12  C   UNL     1      45.217  60.781  11.078  1.00  0.00    -0.000 C 
BRANCH  12  13
ATOM     13  C   UNL     1      44.442  60.090   9.941  1.00  0.00    -0.003 C 
ATOM     14  C   UNL     1      44.322  60.955   8.688  1.00  0.00     0.004 C 
ENDBRANCH  12  13
ENDBRANCH  11  12
ENDBRANCH  10  11
ENDBRANCH   9  10
ENDBRANCH   1   9
TORSDOF 10
ENDMDL
MODEL 7
REMARK VINA RESULT:    -3.836      0.828      3.456
REMARK INTER + INTRA:          -7.504
REMARK INTER:                  -5.945
REMARK INTRA:                  -1.559
REMARK UNBOUND:                -1.426
REMARK SMILES CCCCCCCCCCCC(=O)[O-]
REMARK SMILES IDX 7 1 8 2 9 3 10 4 11 5 12 6 13 7 14 8 6 9 5 10 4 11 3 12 2 13
REMARK SMILES IDX 1 14
REMARK H PARENT
REMARK Flexibility Score: inf
ROOT
ATOM      1  C   UNL     1      42.639  59.864  11.009  1.00  0.00     0.000 C 
ENDROOT
BRANCH   1   2
ATOM      2  C   UNL     1      43.974  59.986  10.254  1.00  0.00     0.000 C 
BRANCH   2   3
ATOM      3  C   UNL     1      44.031  61.253   9.374  1.00  0.00     0.000 C 
BRANCH   3   4
ATOM      4  C   UNL     1      42.662  61.676   8.815  1.00  0.00     0.006 C 
BRANCH   4   5
ATOM      5  C   UNL     1      42.692  63.052   8.141  1.00  0.00     0.053 C 
BRANCH   5   6
ATOM      6  C   UNL     1      41.958  64.057   8.973  1.00  0.00     0.041 C 
ATOM      7  O   UNL     1      42.482  65.173   9.226  1.00  0.00    -0.550 OA
ATOM      8  O   UNL     1      40.716  63.742   9.508  1.00  0.00    -0.550 OA
ENDBRANCH   5   6
ENDBRANCH   4   5
ENDBRANCH   3   4
ENDBRANCH   2   3
ENDBRANCH   1   2
BRANCH   1   9
ATOM      9  C   UNL     1      42.826  59.728  12.528  1.00  0.00     0.000 C 
BRANCH   9  10
ATOM     10  C   UNL     1      44.226  60.157  12.994  1.00  0.00    -0.000 C 
BRANCH  10  11
ATOM     11  C   UNL     1      44.172  61.513  13.714  1.00  0.00    -0.000 C 
BRANCH  11  12
ATOM     12  C   UNL     1      44.925  62.623  12.958  1.00  0.00    -0.000 C 
BRANCH  12  13
ATOM     13  C   UNL     1      44.026  63.581  12.155  1.00  0.00    -0.003 C 
ATOM     14  C   UNL     1      42.554  63.495  12.553  1.00  0.00     0.004 C 
ENDBRANCH  12  13
ENDBRANCH  11  12
ENDBRANCH  10  11
ENDBRANCH   9  10
ENDBRANCH   1   9
TORSDOF 10
ENDMDL
MODEL 8
REMARK VINA RESULT:    -3.793      1.648      3.763
REMARK INTER + INTRA:          -7.436
REMARK INTER:                  -5.865
REMARK INTRA:                  -1.570
REMARK UNBOUND:                -1.426
REMARK SMILES CCCCCCCCCCCC(=O)[O-]
REMARK SMILES IDX 7 1 8 2 9 3 10 4 11 5 12 6 13 7 14 8 6 9 5 10 4 11 3 12 2 13
REMARK SMILES IDX 1 14
REMARK H PARENT
REMARK Flexibility Score: inf
ROOT
ATOM      1  C   UNL     1      44.529  60.525  12.349  1.00  0.00     0.000 C 
ENDROOT
BRANCH   1   2
ATOM      2  C   UNL     1      45.384  60.728  11.086  1.00  0.00     0.000 C 
BRANCH   2   3
ATOM      3  C   UNL     1      44.739  60.088   9.838  1.00  0.00     0.000 C 
BRANCH   3   4
ATOM      4  C   UNL     1      44.477  61.088   8.699  1.00  0.00     0.006 C 
BRANCH   4   5
ATOM      5  C   UNL     1      43.066  60.968   8.113  1.00  0.00     0.053 C 
BRANCH   5   6
ATOM      6  C   UNL     1      42.679  62.236   7.419  1.00  0.00     0.041 C 
ATOM      7  O   UNL     1      43.560  62.963   6.890  1.00  0.00    -0.550 OA
ATOM      8  O   UNL     1      41.351  62.641   7.400  1.00  0.00    -0.550 OA
ENDBRANCH   5   6
ENDBRANCH   4   5
ENDBRANCH   3   4
ENDBRANCH   2   3
ENDBRANCH   1   2
BRANCH   1   9
ATOM      9  C   UNL     1      44.498  61.768  13.250  1.00  0.00     0.000 C 
BRANCH   9  10
ATOM     10  C   UNL     1      44.640  63.078  12.460  1.00  0.00    -0.000 C 
BRANCH  10  11
ATOM     11  C   UNL     1      43.274  63.753  12.267  1.00  0.00    -0.000 C 
BRANCH  11  12
ATOM     12  C   UNL     1      42.590  63.356  10.946  1.00  0.00    -0.000 C 
BRANCH  12  13
ATOM     13  C   UNL     1      41.171  62.781  11.100  1.00  0.00    -0.003 C 
ATOM     14  C   UNL     1      41.155  61.261  11.254  1.00  0.00     0.004 C 
ENDBRANCH  12  13
ENDBRANCH  11  12
ENDBRANCH  10  11
ENDBRANCH   9  10
ENDBRANCH   1   9
TORSDOF 10
ENDMDL
MODEL 9
REMARK VINA RESULT:    -3.774      1.972      4.165
REMARK INTER + INTRA:          -7.406
REMARK INTER:                  -6.367
REMARK INTRA:                  -1.039
REMARK UNBOUND:                -1.426
REMARK SMILES CCCCCCCCCCCC(=O)[O-]
REMARK SMILES IDX 7 1 8 2 9 3 10 4 11 5 12 6 13 7 14 8 6 9 5 10 4 11 3 12 2 13
REMARK SMILES IDX 1 14
REMARK H PARENT
REMARK Flexibility Score: inf
ROOT
ATOM      1  C   UNL     1      44.250  60.764   8.530  1.00  0.00     0.000 C 
ENDROOT
BRANCH   1   2
ATOM      2  C   UNL     1      43.516  61.939   7.860  1.00  0.00     0.000 C 
BRANCH   2   3
ATOM      3  C   UNL     1      42.665  62.743   8.866  1.00  0.00     0.000 C 
BRANCH   3   4
ATOM      4  C   UNL     1      41.976  63.971   8.247  1.00  0.00     0.006 C 
BRANCH   4   5
ATOM      5  C   UNL     1      42.230  65.259   9.038  1.00  0.00     0.053 C 
BRANCH   5   6
ATOM      6  C   UNL     1      42.605  66.374   8.112  1.00  0.00     0.041 C 
ATOM      7  O   UNL     1      43.796  66.775   8.055  1.00  0.00    -0.550 OA
ATOM      8  O   UNL     1      41.629  67.003   7.350  1.00  0.00    -0.550 OA
ENDBRANCH   5   6
ENDBRANCH   4   5
ENDBRANCH   3   4
ENDBRANCH   2   3
ENDBRANCH   1   2
BRANCH   1   9
ATOM      9  C   UNL     1      43.875  60.598  10.011  1.00  0.00     0.000 C 
BRANCH   9  10
ATOM     10  C   UNL     1      45.066  60.824  10.954  1.00  0.00    -0.000 C 
BRANCH  10  11
ATOM     11  C   UNL     1      44.585  61.192  12.366  1.00  0.00    -0.000 C 
BRANCH  11  12
ATOM     12  C   UNL     1      44.946  62.634  12.766  1.00  0.00    -0.000 C 
BRANCH  12  13
ATOM     13  C   UNL     1      44.049  63.720  12.144  1.00  0.00    -0.003 C 
ATOM     14  C   UNL     1      42.564  63.509  12.436  1.00  0.00     0.004 C 
ENDBRANCH  12  13
ENDBRANCH  11  12
ENDBRANCH  10  11
ENDBRANCH   9  10
ENDBRANCH   1   9
TORSDOF 10
ENDMDL
