MODEL 1
REMARK VINA RESULT:    46.983      0.000      0.000
REMARK INTER + INTRA:          51.590
REMARK INTER:                  51.103
REMARK INTRA:                   0.487
REMARK UNBOUND:                 0.487
REMARK SMILES C[C@@H]1[C@H](C)CC[C@]2(C(=O)[O-])CC[C@@]3(C)C(=CC[C@H]4[C@]5(C)CC[C@H](O)C(C)(C)[C@@H]5CC[C@@]43C)[C@@H]12
REMARK SMILES IDX 7 1 6 2 11 3 33 4 5 5 12 6 15 7 2 8 3 9 13 10 16 11 1 12
REMARK SMILES IDX 4 13 14 14 31 15 17 16 18 17 30 18 32 19 19 20 29 21 28 22
REMARK SMILES IDX 21 23 20 24 25 25 22 26 23 27 26 28 27 29 8 30 9 31 10 32
REMARK SMILES IDX 24 33
REMARK H PARENT 24 34
REMARK Flexibility Score: inf
ROOT
ATOM      1  C   UNL     1     167.270 161.997 156.964  1.00  0.00     0.017 C 
ATOM      2  C   UNL     1     168.302 161.950 158.118  1.00  0.00     0.014 C 
ATOM      3  C   UNL     1     167.579 160.816 155.951  1.00  0.00     0.014 C 
ATOM      4  C   UNL     1     167.417 163.388 156.248  1.00  0.00     0.030 C 
ATOM      5  C   UNL     1     168.083 163.084 159.124  1.00  0.00     0.004 C 
ATOM      6  C   UNL     1     167.952 161.270 154.524  1.00  0.00     0.013 C 
ATOM      7  C   UNL     1     166.607 163.366 154.944  1.00  0.00    -0.063 C 
ATOM      8  C   UNL     1     167.329 164.642 157.199  1.00  0.00    -0.003 C 
ATOM      9  C   UNL     1     168.236 164.474 158.480  1.00  0.00    -0.011 C 
ATOM     10  C   UNL     1     166.905 162.268 153.928  1.00  0.00    -0.006 C 
ATOM     11  C   UNL     1     165.757 164.348 154.583  1.00  0.00    -0.027 C 
ATOM     12  C   UNL     1     167.707 165.970 156.484  1.00  0.00     0.008 C 
ATOM     13  C   UNL     1     169.733 164.793 158.248  1.00  0.00     0.008 C 
ATOM     14  C   UNL     1     165.578 161.451 153.719  1.00  0.00     0.017 C 
ATOM     15  C   UNL     1     167.408 162.977 152.592  1.00  0.00    -0.020 C 
ATOM     16  C   UNL     1     165.477 164.718 153.134  1.00  0.00     0.032 C 
ATOM     17  C   UNL     1     166.230 163.878 152.035  1.00  0.00     0.006 C 
ATOM     18  C   UNL     1     167.839 161.924 151.509  1.00  0.00     0.008 C 
ATOM     19  C   UNL     1     168.658 163.864 152.901  1.00  0.00     0.012 C 
ATOM     20  C   UNL     1     166.545 164.649 150.676  1.00  0.00    -0.025 C 
ATOM     21  C   UNL     1     167.333 162.220 150.093  1.00  0.00     0.005 C 
ATOM     22  C   UNL     1     167.407 163.719 149.703  1.00  0.00     0.003 C 
ATOM     23  C   UNL     1     165.189 164.987 149.983  1.00  0.00     0.010 C 
ATOM     24  C   UNL     1     167.292 166.000 150.961  1.00  0.00     0.012 C 
ATOM     25  C   UNL     1     167.161 163.941 148.139  1.00  0.00    -0.006 C 
ATOM     26  C   UNL     1     165.320 165.699 148.623  1.00  0.00     0.033 C 
ATOM     27  C   UNL     1     166.632 165.384 147.871  1.00  0.00     0.120 C 
ATOM     28  C   UNL     1     166.183 162.896 147.515  1.00  0.00     0.014 C 
ATOM     29  C   UNL     1     168.513 163.780 147.397  1.00  0.00     0.014 C 
ENDROOT
BRANCH   1  30
ATOM     30  C   UNL     1     165.881 161.763 157.573  1.00  0.00     0.048 C 
ATOM     31  O   UNL     1     165.068 160.991 156.985  1.00  0.00    -0.550 OA
ATOM     32  O   UNL     1     165.533 162.257 158.822  1.00  0.00    -0.550 OA
ENDBRANCH   1  30
BRANCH  27  33
ATOM     33  O   UNL     1     166.526 165.667 146.493  1.00  0.00    -0.393 OA
ATOM     34  H   UNL     1     166.625 166.640 146.363  1.00  0.00     0.210 HD
ENDBRANCH  27  33
TORSDOF 2
ENDMDL
MODEL 2
REMARK VINA RESULT:    49.751      1.416      8.175
REMARK INTER + INTRA:          54.601
REMARK INTER:                  54.020
REMARK INTRA:                   0.581
REMARK UNBOUND:                 0.487
REMARK SMILES C[C@@H]1[C@H](C)CC[C@]2(C(=O)[O-])CC[C@@]3(C)C(=CC[C@H]4[C@]5(C)CC[C@H](O)C(C)(C)[C@@H]5CC[C@@]43C)[C@@H]12
REMARK SMILES IDX 7 1 6 2 11 3 33 4 5 5 12 6 15 7 2 8 3 9 13 10 16 11 1 12
REMARK SMILES IDX 4 13 14 14 31 15 17 16 18 17 30 18 32 19 19 20 29 21 28 22
REMARK SMILES IDX 21 23 20 24 25 25 22 26 23 27 26 28 27 29 8 30 9 31 10 32
REMARK SMILES IDX 24 33
REMARK H PARENT 24 34
REMARK Flexibility Score: inf
ROOT
ATOM      1  C   UNL     1     166.999 163.811 148.005  1.00  0.00     0.017 C 
ATOM      2  C   UNL     1     165.999 163.968 146.832  1.00  0.00     0.014 C 
ATOM      3  C   UNL     1     166.929 162.320 148.541  1.00  0.00     0.014 C 
ATOM      4  C   UNL     1     166.577 164.822 149.131  1.00  0.00     0.030 C 
ATOM      5  C   UNL     1     165.989 165.396 146.279  1.00  0.00     0.004 C 
ATOM      6  C   UNL     1     166.471 162.183 150.008  1.00  0.00     0.013 C 
ATOM      7  C   UNL     1     167.372 164.508 150.406  1.00  0.00    -0.063 C 
ATOM      8  C   UNL     1     166.414 166.317 148.661  1.00  0.00    -0.003 C 
ATOM      9  C   UNL     1     165.561 166.429 147.338  1.00  0.00    -0.011 C 
ATOM     10  C   UNL     1     167.297 163.095 150.974  1.00  0.00    -0.006 C 
ATOM     11  C   UNL     1     168.008 165.449 151.132  1.00  0.00    -0.027 C 
ATOM     12  C   UNL     1     165.778 167.226 149.749  1.00  0.00     0.008 C 
ATOM     13  C   UNL     1     164.030 166.365 147.558  1.00  0.00     0.008 C 
ATOM     14  C   UNL     1     168.760 162.519 150.991  1.00  0.00     0.017 C 
ATOM     15  C   UNL     1     166.660 163.199 152.432  1.00  0.00    -0.020 C 
ATOM     16  C   UNL     1     168.206 165.348 152.637  1.00  0.00     0.032 C 
ATOM     17  C   UNL     1     167.634 164.059 153.338  1.00  0.00     0.006 C 
ATOM     18  C   UNL     1     166.445 161.779 153.069  1.00  0.00     0.008 C 
ATOM     19  C   UNL     1     165.259 163.888 152.350  1.00  0.00     0.012 C 
ATOM     20  C   UNL     1     167.169 164.248 154.851  1.00  0.00    -0.025 C 
ATOM     21  C   UNL     1     166.880 161.664 154.534  1.00  0.00     0.005 C 
ATOM     22  C   UNL     1     166.508 162.899 155.396  1.00  0.00     0.003 C 
ATOM     23  C   UNL     1     168.430 164.577 155.709  1.00  0.00     0.010 C 
ATOM     24  C   UNL     1     166.168 165.451 154.981  1.00  0.00     0.012 C 
ATOM     25  C   UNL     1     166.702 162.617 156.957  1.00  0.00    -0.006 C 
ATOM     26  C   UNL     1     168.156 164.745 157.217  1.00  0.00     0.033 C 
ATOM     27  C   UNL     1     166.932 163.954 157.727  1.00  0.00     0.120 C 
ATOM     28  C   UNL     1     167.867 161.623 157.263  1.00  0.00     0.014 C 
ATOM     29  C   UNL     1     165.407 161.963 157.507  1.00  0.00     0.014 C 
ENDROOT
BRANCH   1  30
ATOM     30  C   UNL     1     168.407 164.062 147.450  1.00  0.00     0.048 C 
ATOM     31  O   UNL     1     169.412 163.646 148.098  1.00  0.00    -0.550 OA
ATOM     32  O   UNL     1     168.616 164.608 146.191  1.00  0.00    -0.550 OA
ENDBRANCH   1  30
BRANCH  27  33
ATOM     33  O   UNL     1     166.976 163.765 159.125  1.00  0.00    -0.393 OA
ATOM     34  H   UNL     1     167.592 163.020 159.323  1.00  0.00     0.210 HD
ENDBRANCH  27  33
TORSDOF 2
ENDMDL
