MODEL 1
REMARK VINA RESULT:    -2.546      0.000      0.000
REMARK INTER + INTRA:          -4.959
REMARK INTER:                  -4.630
REMARK INTRA:                  -0.329
REMARK UNBOUND:                -0.329
REMARK SMILES CCCCCCCCCCCCCCCC(=O)[O-]
REMARK SMILES IDX 9 1 10 2 11 3 12 4 13 5 14 6 15 7 16 8 17 9 18 10 8 11 7 12
REMARK SMILES IDX 6 13 5 14 4 15 3 16 2 17 1 18
REMARK H PARENT
REMARK Flexibility Score: inf
ROOT
ATOM      1  C   UNL     1      -5.158  17.961 -13.484  1.00  0.00     0.000 C 
ENDROOT
BRANCH   1   2
ATOM      2  C   UNL     1      -4.893  19.171 -14.395  1.00  0.00     0.000 C 
BRANCH   2   3
ATOM      3  C   UNL     1      -4.997  20.507 -13.644  1.00  0.00     0.000 C 
BRANCH   3   4
ATOM      4  C   UNL     1      -6.370  20.710 -12.978  1.00  0.00     0.000 C 
BRANCH   4   5
ATOM      5  C   UNL     1      -7.540  20.563 -13.968  1.00  0.00     0.000 C 
BRANCH   5   6
ATOM      6  C   UNL     1      -8.285  19.214 -13.898  1.00  0.00     0.006 C 
BRANCH   6   7
ATOM      7  C   UNL     1      -8.539  18.698 -12.473  1.00  0.00     0.053 C 
BRANCH   7   8
ATOM      8  C   UNL     1      -8.715  17.212 -12.437  1.00  0.00     0.041 C 
ATOM      9  O   UNL     1      -9.527  16.651 -13.221  1.00  0.00    -0.550 OA
ATOM     10  O   UNL     1      -8.009  16.448 -11.515  1.00  0.00    -0.550 OA
ENDBRANCH   7   8
ENDBRANCH   6   7
ENDBRANCH   5   6
ENDBRANCH   4   5
ENDBRANCH   3   4
ENDBRANCH   2   3
ENDBRANCH   1   2
BRANCH   1  11
ATOM     11  C   UNL     1      -5.698  16.741 -14.251  1.00  0.00     0.000 C 
BRANCH  11  12
ATOM     12  C   UNL     1      -4.879  15.444 -14.087  1.00  0.00    -0.000 C 
BRANCH  12  13
ATOM     13  C   UNL     1      -5.178  14.346 -15.124  1.00  0.00    -0.000 C 
BRANCH  13  14
ATOM     14  C   UNL     1      -4.875  12.935 -14.601  1.00  0.00    -0.000 C 
BRANCH  14  15
ATOM     15  C   UNL     1      -6.170  12.165 -14.315  1.00  0.00    -0.000 C 
BRANCH  15  16
ATOM     16  C   UNL     1      -7.376  12.855 -14.971  1.00  0.00    -0.000 C 
BRANCH  16  17
ATOM     17  C   UNL     1      -8.125  13.782 -14.002  1.00  0.00    -0.003 C 
ATOM     18  C   UNL     1      -7.529  13.771 -12.595  1.00  0.00     0.004 C 
ENDBRANCH  16  17
ENDBRANCH  15  16
ENDBRANCH  14  15
ENDBRANCH  13  14
ENDBRANCH  12  13
ENDBRANCH  11  12
ENDBRANCH   1  11
TORSDOF 14
ENDMDL
MODEL 2
REMARK VINA RESULT:    -2.517      1.650      5.210
REMARK INTER + INTRA:          -4.906
REMARK INTER:                  -4.036
REMARK INTRA:                  -0.869
REMARK UNBOUND:                -0.329
REMARK SMILES CCCCCCCCCCCCCCCC(=O)[O-]
REMARK SMILES IDX 9 1 10 2 11 3 12 4 13 5 14 6 15 7 16 8 17 9 18 10 8 11 7 12
REMARK SMILES IDX 6 13 5 14 4 15 3 16 2 17 1 18
REMARK H PARENT
REMARK Flexibility Score: inf
ROOT
ATOM      1  C   UNL     1      -5.115  18.982 -13.533  1.00  0.00     0.000 C 
ENDROOT
BRANCH   1   2
ATOM      2  C   UNL     1      -4.881  17.465 -13.633  1.00  0.00     0.000 C 
BRANCH   2   3
ATOM      3  C   UNL     1      -5.230  16.907 -15.021  1.00  0.00     0.000 C 
BRANCH   3   4
ATOM      4  C   UNL     1      -5.181  15.370 -15.074  1.00  0.00     0.000 C 
BRANCH   4   5
ATOM      5  C   UNL     1      -5.918  14.708 -13.897  1.00  0.00     0.000 C 
BRANCH   5   6
ATOM      6  C   UNL     1      -6.043  13.173 -13.988  1.00  0.00     0.006 C 
BRANCH   6   7
ATOM      7  C   UNL     1      -6.959  12.673 -15.116  1.00  0.00     0.053 C 
BRANCH   7   8
ATOM      8  C   UNL     1      -8.397  12.995 -14.856  1.00  0.00     0.041 C 
ATOM      9  O   UNL     1      -9.270  12.089 -14.918  1.00  0.00    -0.550 OA
ATOM     10  O   UNL     1      -8.781  14.301 -14.578  1.00  0.00    -0.550 OA
ENDBRANCH   7   8
ENDBRANCH   6   7
ENDBRANCH   5   6
ENDBRANCH   4   5
ENDBRANCH   3   4
ENDBRANCH   2   3
ENDBRANCH   1   2
BRANCH   1  11
ATOM     11  C   UNL     1      -4.966  19.701 -14.885  1.00  0.00     0.000 C 
BRANCH  11  12
ATOM     12  C   UNL     1      -5.874  20.933 -15.079  1.00  0.00    -0.000 C 
BRANCH  12  13
ATOM     13  C   UNL     1      -7.149  20.948 -14.217  1.00  0.00    -0.000 C 
BRANCH  13  14
ATOM     14  C   UNL     1      -8.071  19.753 -14.494  1.00  0.00    -0.000 C 
BRANCH  14  15
ATOM     15  C   UNL     1      -8.560  19.121 -13.185  1.00  0.00    -0.000 C 
BRANCH  15  16
ATOM     16  C   UNL     1      -8.408  17.593 -13.221  1.00  0.00    -0.000 C 
BRANCH  16  17
ATOM     17  C   UNL     1      -8.710  16.938 -11.865  1.00  0.00    -0.003 C 
ATOM     18  C   UNL     1      -7.807  15.739 -11.574  1.00  0.00     0.004 C 
ENDBRANCH  16  17
ENDBRANCH  15  16
ENDBRANCH  14  15
ENDBRANCH  13  14
ENDBRANCH  12  13
ENDBRANCH  11  12
ENDBRANCH   1  11
TORSDOF 14
ENDMDL
MODEL 3
REMARK VINA RESULT:    -2.459      1.961      3.206
REMARK INTER + INTRA:          -4.801
REMARK INTER:                  -4.350
REMARK INTRA:                  -0.450
REMARK UNBOUND:                -0.329
REMARK SMILES CCCCCCCCCCCCCCCC(=O)[O-]
REMARK SMILES IDX 9 1 10 2 11 3 12 4 13 5 14 6 15 7 16 8 17 9 18 10 8 11 7 12
REMARK SMILES IDX 6 13 5 14 4 15 3 16 2 17 1 18
REMARK H PARENT
REMARK Flexibility Score: inf
ROOT
ATOM      1  C   UNL     1      -7.984  15.826 -12.458  1.00  0.00     0.000 C 
ENDROOT
BRANCH   1   2
ATOM      2  C   UNL     1      -9.127  16.693 -13.013  1.00  0.00     0.000 C 
BRANCH   2   3
ATOM      3  C   UNL     1      -8.853  18.197 -12.857  1.00  0.00     0.000 C 
BRANCH   3   4
ATOM      4  C   UNL     1      -8.306  18.839 -14.144  1.00  0.00     0.000 C 
BRANCH   4   5
ATOM      5  C   UNL     1      -8.194  20.371 -14.045  1.00  0.00     0.000 C 
BRANCH   5   6
ATOM      6  C   UNL     1      -7.201  21.015 -15.035  1.00  0.00     0.006 C 
BRANCH   6   7
ATOM      7  C   UNL     1      -5.751  21.085 -14.529  1.00  0.00     0.053 C 
BRANCH   7   8
ATOM      8  C   UNL     1      -5.555  20.292 -13.275  1.00  0.00     0.041 C 
ATOM      9  O   UNL     1      -5.977  20.734 -12.174  1.00  0.00    -0.550 OA
ATOM     10  O   UNL     1      -4.876  19.080 -13.315  1.00  0.00    -0.550 OA
ENDBRANCH   7   8
ENDBRANCH   6   7
ENDBRANCH   5   6
ENDBRANCH   4   5
ENDBRANCH   3   4
ENDBRANCH   2   3
ENDBRANCH   1   2
BRANCH   1  11
ATOM     11  C   UNL     1      -6.598  16.274 -12.954  1.00  0.00     0.000 C 
BRANCH  11  12
ATOM     12  C   UNL     1      -6.225  15.808 -14.376  1.00  0.00    -0.000 C 
BRANCH  12  13
ATOM     13  C   UNL     1      -4.901  15.030 -14.483  1.00  0.00    -0.000 C 
BRANCH  13  14
ATOM     14  C   UNL     1      -5.090  13.600 -15.007  1.00  0.00    -0.000 C 
BRANCH  14  15
ATOM     15  C   UNL     1      -5.470  12.644 -13.870  1.00  0.00    -0.000 C 
BRANCH  15  16
ATOM     16  C   UNL     1      -6.901  12.116 -14.051  1.00  0.00    -0.000 C 
BRANCH  16  17
ATOM     17  C   UNL     1      -7.683  12.887 -15.125  1.00  0.00    -0.003 C 
ATOM     18  C   UNL     1      -9.181  12.582 -15.098  1.00  0.00     0.004 C 
ENDBRANCH  16  17
ENDBRANCH  15  16
ENDBRANCH  14  15
ENDBRANCH  13  14
ENDBRANCH  12  13
ENDBRANCH  11  12
ENDBRANCH   1  11
TORSDOF 14
ENDMDL
MODEL 4
REMARK VINA RESULT:    -1.912      1.918      3.789
REMARK INTER + INTRA:          -3.807
REMARK INTER:                  -4.252
REMARK INTRA:                   0.446
REMARK UNBOUND:                -0.329
REMARK SMILES CCCCCCCCCCCCCCCC(=O)[O-]
REMARK SMILES IDX 9 1 10 2 11 3 12 4 13 5 14 6 15 7 16 8 17 9 18 10 8 11 7 12
REMARK SMILES IDX 6 13 5 14 4 15 3 16 2 17 1 18
REMARK H PARENT
REMARK Flexibility Score: inf
ROOT
ATOM      1  C   UNL     1      -8.877  15.604 -11.655  1.00  0.00     0.000 C 
ENDROOT
BRANCH   1   2
ATOM      2  C   UNL     1      -8.738  17.087 -12.039  1.00  0.00     0.000 C 
BRANCH   2   3
ATOM      3  C   UNL     1      -8.540  17.287 -13.550  1.00  0.00     0.000 C 
BRANCH   3   4
ATOM      4  C   UNL     1      -7.089  17.645 -13.917  1.00  0.00     0.000 C 
BRANCH   4   5
ATOM      5  C   UNL     1      -6.998  18.621 -15.104  1.00  0.00     0.000 C 
BRANCH   5   6
ATOM      6  C   UNL     1      -5.748  19.525 -15.107  1.00  0.00     0.006 C 
BRANCH   6   7
ATOM      7  C   UNL     1      -5.967  20.920 -14.501  1.00  0.00     0.053 C 
BRANCH   7   8
ATOM      8  C   UNL     1      -6.322  20.852 -13.049  1.00  0.00     0.041 C 
ATOM      9  O   UNL     1      -5.444  20.553 -12.196  1.00  0.00    -0.550 OA
ATOM     10  O   UNL     1      -7.629  21.084 -12.638  1.00  0.00    -0.550 OA
ENDBRANCH   7   8
ENDBRANCH   6   7
ENDBRANCH   5   6
ENDBRANCH   4   5
ENDBRANCH   3   4
ENDBRANCH   2   3
ENDBRANCH   1   2
BRANCH   1  11
ATOM     11  C   UNL     1      -7.519  14.897 -11.499  1.00  0.00     0.000 C 
BRANCH  11  12
ATOM     12  C   UNL     1      -7.110  13.989 -12.677  1.00  0.00    -0.000 C 
BRANCH  12  13
ATOM     13  C   UNL     1      -8.214  13.730 -13.718  1.00  0.00    -0.000 C 
BRANCH  13  14
ATOM     14  C   UNL     1      -7.657  13.386 -15.106  1.00  0.00    -0.000 C 
BRANCH  14  15
ATOM     15  C   UNL     1      -6.514  12.369 -15.002  1.00  0.00    -0.000 C 
BRANCH  15  16
ATOM     16  C   UNL     1      -5.252  13.018 -14.413  1.00  0.00    -0.000 C 
BRANCH  16  17
ATOM     17  C   UNL     1      -4.875  14.327 -15.124  1.00  0.00    -0.003 C 
ATOM     18  C   UNL     1      -4.977  15.547 -14.209  1.00  0.00     0.004 C 
ENDBRANCH  16  17
ENDBRANCH  15  16
ENDBRANCH  14  15
ENDBRANCH  13  14
ENDBRANCH  12  13
ENDBRANCH  11  12
ENDBRANCH   1  11
TORSDOF 14
ENDMDL
MODEL 5
REMARK VINA RESULT:    -1.844      1.190      5.425
REMARK INTER + INTRA:          -3.683
REMARK INTER:                  -3.361
REMARK INTRA:                  -0.322
REMARK UNBOUND:                -0.329
REMARK SMILES CCCCCCCCCCCCCCCC(=O)[O-]
REMARK SMILES IDX 9 1 10 2 11 3 12 4 13 5 14 6 15 7 16 8 17 9 18 10 8 11 7 12
REMARK SMILES IDX 6 13 5 14 4 15 3 16 2 17 1 18
REMARK H PARENT
REMARK Flexibility Score: inf
ROOT
ATOM      1  C   UNL     1      -5.892  15.153 -14.622  1.00  0.00     0.000 C 
ENDROOT
BRANCH   1   2
ATOM      2  C   UNL     1      -5.378  13.712 -14.778  1.00  0.00     0.000 C 
BRANCH   2   3
ATOM      3  C   UNL     1      -6.489  12.667 -14.590  1.00  0.00     0.000 C 
BRANCH   3   4
ATOM      4  C   UNL     1      -7.403  12.980 -13.392  1.00  0.00     0.000 C 
BRANCH   4   5
ATOM      5  C   UNL     1      -8.750  13.595 -13.814  1.00  0.00     0.000 C 
BRANCH   5   6
ATOM      6  C   UNL     1      -8.741  15.129 -13.978  1.00  0.00     0.006 C 
BRANCH   6   7
ATOM      7  C   UNL     1      -9.344  15.902 -12.794  1.00  0.00     0.053 C 
BRANCH   7   8
ATOM      8  C   UNL     1      -8.294  16.589 -11.979  1.00  0.00     0.041 C 
ATOM      9  O   UNL     1      -7.306  15.940 -11.542  1.00  0.00    -0.550 OA
ATOM     10  O   UNL     1      -8.422  17.938 -11.671  1.00  0.00    -0.550 OA
ENDBRANCH   7   8
ENDBRANCH   6   7
ENDBRANCH   5   6
ENDBRANCH   4   5
ENDBRANCH   3   4
ENDBRANCH   2   3
ENDBRANCH   1   2
BRANCH   1  11
ATOM     11  C   UNL     1      -4.875  16.205 -15.097  1.00  0.00     0.000 C 
BRANCH  11  12
ATOM     12  C   UNL     1      -5.369  17.666 -15.053  1.00  0.00    -0.000 C 
BRANCH  12  13
ATOM     13  C   UNL     1      -5.580  18.243 -13.642  1.00  0.00    -0.000 C 
BRANCH  13  14
ATOM     14  C   UNL     1      -5.215  19.731 -13.545  1.00  0.00    -0.000 C 
BRANCH  14  15
ATOM     15  C   UNL     1      -5.991  20.555 -14.579  1.00  0.00    -0.000 C 
BRANCH  15  16
ATOM     16  C   UNL     1      -7.452  20.746 -14.145  1.00  0.00    -0.000 C 
BRANCH  16  17
ATOM     17  C   UNL     1      -8.447  20.105 -15.125  1.00  0.00    -0.003 C 
ATOM     18  C   UNL     1      -8.505  18.582 -14.996  1.00  0.00     0.004 C 
ENDBRANCH  16  17
ENDBRANCH  15  16
ENDBRANCH  14  15
ENDBRANCH  13  14
ENDBRANCH  12  13
ENDBRANCH  11  12
ENDBRANCH   1  11
TORSDOF 14
ENDMDL
MODEL 6
REMARK VINA RESULT:    -1.583      1.320      5.422
REMARK INTER + INTRA:          -3.208
REMARK INTER:                  -1.569
REMARK INTRA:                  -1.639
REMARK UNBOUND:                -0.329
REMARK SMILES CCCCCCCCCCCCCCCC(=O)[O-]
REMARK SMILES IDX 9 1 10 2 11 3 12 4 13 5 14 6 15 7 16 8 17 9 18 10 8 11 7 12
REMARK SMILES IDX 6 13 5 14 4 15 3 16 2 17 1 18
REMARK H PARENT
REMARK Flexibility Score: inf
ROOT
ATOM      1  C   UNL     1      -5.687  12.904 -14.425  1.00  0.00     0.000 C 
ENDROOT
BRANCH   1   2
ATOM      2  C   UNL     1      -6.648  12.361 -13.354  1.00  0.00     0.000 C 
BRANCH   2   3
ATOM      3  C   UNL     1      -8.065  12.128 -13.899  1.00  0.00     0.000 C 
BRANCH   3   4
ATOM      4  C   UNL     1      -8.439  13.110 -15.023  1.00  0.00     0.000 C 
BRANCH   4   5
ATOM      5  C   UNL     1      -9.178  14.356 -14.505  1.00  0.00     0.000 C 
BRANCH   5   6
ATOM      6  C   UNL     1      -8.322  15.639 -14.439  1.00  0.00     0.006 C 
BRANCH   6   7
ATOM      7  C   UNL     1      -8.927  16.767 -13.589  1.00  0.00     0.053 C 
BRANCH   7   8
ATOM      8  C   UNL     1      -8.400  16.759 -12.188  1.00  0.00     0.041 C 
ATOM      9  O   UNL     1      -8.331  17.832 -11.531  1.00  0.00    -0.550 OA
ATOM     10  O   UNL     1      -7.952  15.574 -11.618  1.00  0.00    -0.550 OA
ENDBRANCH   7   8
ENDBRANCH   6   7
ENDBRANCH   5   6
ENDBRANCH   4   5
ENDBRANCH   3   4
ENDBRANCH   2   3
ENDBRANCH   1   2
BRANCH   1  11
ATOM     11  C   UNL     1      -4.882  14.124 -13.943  1.00  0.00     0.000 C 
BRANCH  11  12
ATOM     12  C   UNL     1      -4.931  15.354 -14.873  1.00  0.00    -0.000 C 
BRANCH  12  13
ATOM     13  C   UNL     1      -4.877  16.716 -14.158  1.00  0.00    -0.000 C 
BRANCH  13  14
ATOM     14  C   UNL     1      -5.005  17.902 -15.125  1.00  0.00    -0.000 C 
BRANCH  14  15
ATOM     15  C   UNL     1      -6.118  18.857 -14.678  1.00  0.00    -0.000 C 
BRANCH  15  16
ATOM     16  C   UNL     1      -5.882  19.343 -13.240  1.00  0.00    -0.000 C 
BRANCH  16  17
ATOM     17  C   UNL     1      -6.289  20.811 -13.039  1.00  0.00    -0.003 C 
ATOM     18  C   UNL     1      -7.771  21.057 -13.323  1.00  0.00     0.004 C 
ENDBRANCH  16  17
ENDBRANCH  15  16
ENDBRANCH  14  15
ENDBRANCH  13  14
ENDBRANCH  12  13
ENDBRANCH  11  12
ENDBRANCH   1  11
TORSDOF 14
ENDMDL
MODEL 7
REMARK VINA RESULT:    -1.554      1.985      5.655
REMARK INTER + INTRA:          -3.155
REMARK INTER:                  -3.610
REMARK INTRA:                   0.455
REMARK UNBOUND:                -0.329
REMARK SMILES CCCCCCCCCCCCCCCC(=O)[O-]
REMARK SMILES IDX 9 1 10 2 11 3 12 4 13 5 14 6 15 7 16 8 17 9 18 10 8 11 7 12
REMARK SMILES IDX 6 13 5 14 4 15 3 16 2 17 1 18
REMARK H PARENT
REMARK Flexibility Score: inf
ROOT
ATOM      1  C   UNL     1      -6.978  13.710 -12.763  1.00  0.00     0.000 C 
ENDROOT
BRANCH   1   2
ATOM      2  C   UNL     1      -8.087  13.258 -13.728  1.00  0.00     0.000 C 
BRANCH   2   3
ATOM      3  C   UNL     1      -7.945  13.887 -15.123  1.00  0.00     0.000 C 
BRANCH   3   4
ATOM      4  C   UNL     1      -7.123  15.187 -15.108  1.00  0.00     0.000 C 
BRANCH   4   5
ATOM      5  C   UNL     1      -5.693  14.983 -14.576  1.00  0.00     0.000 C 
BRANCH   5   6
ATOM      6  C   UNL     1      -4.892  16.283 -14.350  1.00  0.00     0.006 C 
BRANCH   6   7
ATOM      7  C   UNL     1      -5.419  17.501 -15.125  1.00  0.00     0.053 C 
BRANCH   7   8
ATOM      8  C   UNL     1      -5.110  18.787 -14.426  1.00  0.00     0.041 C 
ATOM      9  O   UNL     1      -5.031  19.861 -15.080  1.00  0.00    -0.550 OA
ATOM     10  O   UNL     1      -4.875  18.798 -13.056  1.00  0.00    -0.550 OA
ENDBRANCH   7   8
ENDBRANCH   6   7
ENDBRANCH   5   6
ENDBRANCH   4   5
ENDBRANCH   3   4
ENDBRANCH   2   3
ENDBRANCH   1   2
BRANCH   1  11
ATOM     11  C   UNL     1      -7.518  14.518 -11.569  1.00  0.00     0.000 C 
BRANCH  11  12
ATOM     12  C   UNL     1      -7.457  16.051 -11.730  1.00  0.00    -0.000 C 
BRANCH  12  13
ATOM     13  C   UNL     1      -8.805  16.731 -12.030  1.00  0.00    -0.000 C 
BRANCH  13  14
ATOM     14  C   UNL     1      -9.176  16.691 -13.519  1.00  0.00    -0.000 C 
BRANCH  14  15
ATOM     15  C   UNL     1      -8.811  18.009 -14.212  1.00  0.00    -0.000 C 
BRANCH  15  16
ATOM     16  C   UNL     1      -8.612  19.133 -13.184  1.00  0.00    -0.000 C 
BRANCH  16  17
ATOM     17  C   UNL     1      -7.919  20.366 -13.785  1.00  0.00    -0.003 C 
ATOM     18  C   UNL     1      -7.065  21.120 -12.765  1.00  0.00     0.004 C 
ENDBRANCH  16  17
ENDBRANCH  15  16
ENDBRANCH  14  15
ENDBRANCH  13  14
ENDBRANCH  12  13
ENDBRANCH  11  12
ENDBRANCH   1  11
TORSDOF 14
ENDMDL
