MODEL 1
REMARK VINA RESULT:    -4.984      0.000      0.000
REMARK INTER + INTRA:          -5.291
REMARK INTER:                  -5.422
REMARK INTRA:                   0.131
REMARK UNBOUND:                 0.131
REMARK SMILES C[C@H]1[C@@H](C)CC[C@@]2(C(=O)[O-])CC[C@]3(C)C(=CC[C@@H]4[C@@]5(C)CC[C@@H](O)C(C)(C)[C@H]5CC[C@@]43C)[C@@H]12
REMARK SMILES IDX 7 1 6 2 11 3 33 4 5 5 12 6 15 7 2 8 3 9 13 10 16 11 1 12
REMARK SMILES IDX 4 13 14 14 31 15 17 16 18 17 30 18 32 19 19 20 29 21 28 22
REMARK SMILES IDX 21 23 20 24 25 25 22 26 23 27 26 28 27 29 8 30 9 31 10 32
REMARK SMILES IDX 24 33
REMARK H PARENT 24 34
REMARK Flexibility Score: inf
ROOT
ATOM      1  C   UNL     1     124.372   7.216 135.206  1.00  0.00     0.017 C 
ATOM      2  C   UNL     1     124.711   8.300 134.152  1.00  0.00     0.014 C 
ATOM      3  C   UNL     1     125.286   5.979 134.829  1.00  0.00     0.014 C 
ATOM      4  C   UNL     1     124.521   7.735 136.721  1.00  0.00     0.030 C 
ATOM      5  C   UNL     1     124.017   9.619 134.544  1.00  0.00     0.004 C 
ATOM      6  C   UNL     1     126.050   5.283 135.961  1.00  0.00     0.013 C 
ATOM      7  C   UNL     1     124.916   6.582 137.757  1.00  0.00    -0.063 C 
ATOM      8  C   UNL     1     125.171   9.227 136.848  1.00  0.00    -0.003 C 
ATOM      9  C   UNL     1     124.834  10.277 135.638  1.00  0.00    -0.011 C 
ATOM     10  C   UNL     1     125.303   5.156 137.318  1.00  0.00    -0.006 C 
ATOM     11  C   UNL     1     124.734   6.738 139.107  1.00  0.00    -0.027 C 
ATOM     12  C   UNL     1     126.638   9.282 137.195  1.00  0.00     0.008 C 
ATOM     13  C   UNL     1     125.997  11.133 134.968  1.00  0.00     0.008 C 
ATOM     14  C   UNL     1     124.022   4.285 137.058  1.00  0.00     0.017 C 
ATOM     15  C   UNL     1     126.237   4.398 138.484  1.00  0.00    -0.020 C 
ATOM     16  C   UNL     1     125.985   6.616 139.950  1.00  0.00     0.032 C 
ATOM     17  C   UNL     1     126.918   5.429 139.506  1.00  0.00     0.006 C 
ATOM     18  C   UNL     1     127.344   3.450 137.902  1.00  0.00     0.008 C 
ATOM     19  C   UNL     1     125.350   3.454 139.398  1.00  0.00     0.012 C 
ATOM     20  C   UNL     1     128.474   5.772 139.222  1.00  0.00    -0.025 C 
ATOM     21  C   UNL     1     128.475   3.159 138.945  1.00  0.00     0.005 C 
ATOM     22  C   UNL     1     129.359   4.431 139.197  1.00  0.00     0.003 C 
ATOM     23  C   UNL     1     129.020   6.764 140.293  1.00  0.00     0.010 C 
ATOM     24  C   UNL     1     128.692   6.459 137.859  1.00  0.00     0.012 C 
ATOM     25  C   UNL     1     130.382   4.305 140.433  1.00  0.00    -0.006 C 
ATOM     26  C   UNL     1     129.124   6.155 141.704  1.00  0.00     0.033 C 
ATOM     27  C   UNL     1     129.667   4.712 141.747  1.00  0.00     0.120 C 
ATOM     28  C   UNL     1     131.668   5.218 140.229  1.00  0.00     0.014 C 
ATOM     29  C   UNL     1     130.933   2.867 140.564  1.00  0.00     0.014 C 
ENDROOT
BRANCH   1  30
ATOM     30  C   UNL     1     122.934   6.763 135.030  1.00  0.00     0.048 C 
ATOM     31  O   UNL     1     121.935   7.038 135.823  1.00  0.00    -0.550 OA
ATOM     32  O   UNL     1     121.950   7.074 135.936  1.00  0.00    -0.550 OA
ENDBRANCH   1  30
BRANCH  27  33
ATOM     33  O   UNL     1     128.564   3.851 142.023  1.00  0.00    -0.393 OA
ATOM     34  H   UNL     1     128.638   3.491 142.970  1.00  0.00     0.210 HD
ENDBRANCH  27  33
TORSDOF 2
ENDMDL
MODEL 2
REMARK VINA RESULT:    -4.766      1.468      7.279
REMARK INTER + INTRA:          -5.052
REMARK INTER:                  -5.336
REMARK INTRA:                   0.283
REMARK UNBOUND:                 0.131
REMARK SMILES C[C@H]1[C@@H](C)CC[C@@]2(C(=O)[O-])CC[C@]3(C)C(=CC[C@@H]4[C@@]5(C)CC[C@@H](O)C(C)(C)[C@H]5CC[C@@]43C)[C@@H]12
REMARK SMILES IDX 7 1 6 2 11 3 33 4 5 5 12 6 15 7 2 8 3 9 13 10 16 11 1 12
REMARK SMILES IDX 4 13 14 14 31 15 17 16 18 17 30 18 32 19 19 20 29 21 28 22
REMARK SMILES IDX 21 23 20 24 25 25 22 26 23 27 26 28 27 29 8 30 9 31 10 32
REMARK SMILES IDX 24 33
REMARK H PARENT 24 34
REMARK Flexibility Score: inf
ROOT
ATOM      1  C   UNL     1     129.705   4.154 140.666  1.00  0.00     0.017 C 
ATOM      2  C   UNL     1     130.914   4.776 141.409  1.00  0.00     0.014 C 
ATOM      3  C   UNL     1     128.430   4.776 141.368  1.00  0.00     0.014 C 
ATOM      4  C   UNL     1     129.769   4.355 139.071  1.00  0.00     0.030 C 
ATOM      5  C   UNL     1     132.212   4.386 140.675  1.00  0.00     0.004 C 
ATOM      6  C   UNL     1     127.309   5.312 140.470  1.00  0.00     0.013 C 
ATOM      7  C   UNL     1     128.330   4.431 138.377  1.00  0.00    -0.063 C 
ATOM      8  C   UNL     1     130.986   5.323 138.574  1.00  0.00    -0.003 C 
ATOM      9  C   UNL     1     132.360   5.285 139.464  1.00  0.00    -0.011 C 
ATOM     10  C   UNL     1     127.014   4.500 139.179  1.00  0.00    -0.006 C 
ATOM     11  C   UNL     1     128.173   4.233 137.030  1.00  0.00    -0.027 C 
ATOM     12  C   UNL     1     130.608   6.747 138.253  1.00  0.00     0.008 C 
ATOM     13  C   UNL     1     133.065   6.640 139.912  1.00  0.00     0.008 C 
ATOM     14  C   UNL     1     126.561   3.066 139.630  1.00  0.00     0.017 C 
ATOM     15  C   UNL     1     125.788   5.186 138.267  1.00  0.00    -0.020 C 
ATOM     16  C   UNL     1     127.552   5.386 136.271  1.00  0.00     0.032 C 
ATOM     17  C   UNL     1     126.335   6.041 137.026  1.00  0.00     0.006 C 
ATOM     18  C   UNL     1     124.791   6.070 139.095  1.00  0.00     0.008 C 
ATOM     19  C   UNL     1     124.873   4.069 137.612  1.00  0.00     0.012 C 
ATOM     20  C   UNL     1     126.369   7.645 137.241  1.00  0.00    -0.025 C 
ATOM     21  C   UNL     1     123.989   7.060 138.185  1.00  0.00     0.005 C 
ATOM     22  C   UNL     1     124.912   8.200 137.630  1.00  0.00     0.003 C 
ATOM     23  C   UNL     1     126.899   8.358 135.960  1.00  0.00     0.010 C 
ATOM     24  C   UNL     1     127.313   8.071 138.384  1.00  0.00     0.012 C 
ATOM     25  C   UNL     1     124.241   9.114 136.489  1.00  0.00    -0.006 C 
ATOM     26  C   UNL     1     125.941   8.261 134.757  1.00  0.00     0.033 C 
ATOM     27  C   UNL     1     124.451   8.457 135.101  1.00  0.00     0.120 C 
ATOM     28  C   UNL     1     124.851  10.583 136.473  1.00  0.00     0.014 C 
ATOM     29  C   UNL     1     122.730   9.316 136.745  1.00  0.00     0.014 C 
ENDROOT
BRANCH   1  30
ATOM     30  C   UNL     1     129.658   2.659 140.925  1.00  0.00     0.048 C 
ATOM     31  O   UNL     1     129.023   2.063 141.897  1.00  0.00    -0.550 OA
ATOM     32  O   UNL     1     128.989   2.120 141.996  1.00  0.00    -0.550 OA
ENDBRANCH   1  30
BRANCH  27  33
ATOM     33  O   UNL     1     123.827   7.176 135.035  1.00  0.00    -0.393 OA
ATOM     34  H   UNL     1     124.187   6.658 134.240  1.00  0.00     0.210 HD
ENDBRANCH  27  33
TORSDOF 2
ENDMDL
MODEL 3
REMARK VINA RESULT:    -4.573      1.460      7.271
REMARK INTER + INTRA:          -4.842
REMARK INTER:                  -5.143
REMARK INTRA:                   0.301
REMARK UNBOUND:                 0.131
REMARK SMILES C[C@H]1[C@@H](C)CC[C@@]2(C(=O)[O-])CC[C@]3(C)C(=CC[C@@H]4[C@@]5(C)CC[C@@H](O)C(C)(C)[C@H]5CC[C@@]43C)[C@@H]12
REMARK SMILES IDX 7 1 6 2 11 3 33 4 5 5 12 6 15 7 2 8 3 9 13 10 16 11 1 12
REMARK SMILES IDX 4 13 14 14 31 15 17 16 18 17 30 18 32 19 19 20 29 21 28 22
REMARK SMILES IDX 21 23 20 24 25 25 22 26 23 27 26 28 27 29 8 30 9 31 10 32
REMARK SMILES IDX 24 33
REMARK H PARENT 24 34
REMARK Flexibility Score: inf
ROOT
ATOM      1  C   UNL     1     129.742   5.896 140.316  1.00  0.00     0.017 C 
ATOM      2  C   UNL     1     130.961   6.738 140.772  1.00  0.00     0.014 C 
ATOM      3  C   UNL     1     128.484   6.630 140.936  1.00  0.00     0.014 C 
ATOM      4  C   UNL     1     129.685   5.673 138.724  1.00  0.00     0.030 C 
ATOM      5  C   UNL     1     132.225   6.221 140.060  1.00  0.00     0.004 C 
ATOM      6  C   UNL     1     127.274   6.867 140.025  1.00  0.00     0.013 C 
ATOM      7  C   UNL     1     128.199   5.508 138.154  1.00  0.00    -0.063 C 
ATOM      8  C   UNL     1     130.805   6.524 137.896  1.00  0.00    -0.003 C 
ATOM      9  C   UNL     1     132.236   6.776 138.649  1.00  0.00    -0.011 C 
ATOM     10  C   UNL     1     126.940   5.733 139.016  1.00  0.00    -0.006 C 
ATOM     11  C   UNL     1     127.961   4.957 136.922  1.00  0.00    -0.027 C 
ATOM     12  C   UNL     1     130.322   7.798 137.249  1.00  0.00     0.008 C 
ATOM     13  C   UNL     1     132.889   8.227 138.672  1.00  0.00     0.008 C 
ATOM     14  C   UNL     1     126.605   4.451 139.858  1.00  0.00     0.017 C 
ATOM     15  C   UNL     1     125.615   6.107 138.061  1.00  0.00    -0.020 C 
ATOM     16  C   UNL     1     127.223   5.846 135.944  1.00  0.00     0.032 C 
ATOM     17  C   UNL     1     126.024   6.627 136.601  1.00  0.00     0.006 C 
ATOM     18  C   UNL     1     124.627   7.137 138.712  1.00  0.00     0.008 C 
ATOM     19  C   UNL     1     124.725   4.822 137.795  1.00  0.00     0.012 C 
ATOM     20  C   UNL     1     125.977   8.232 136.390  1.00  0.00    -0.025 C 
ATOM     21  C   UNL     1     123.706   7.821 137.646  1.00  0.00     0.005 C 
ATOM     22  C   UNL     1     124.520   8.811 136.740  1.00  0.00     0.003 C 
ATOM     23  C   UNL     1     126.375   8.603 134.929  1.00  0.00     0.010 C 
ATOM     24  C   UNL     1     126.971   8.979 137.303  1.00  0.00     0.012 C 
ATOM     25  C   UNL     1     123.718   9.367 135.461  1.00  0.00    -0.006 C 
ATOM     26  C   UNL     1     125.344   8.157 133.876  1.00  0.00     0.033 C 
ATOM     27  C   UNL     1     123.872   8.377 134.277  1.00  0.00     0.120 C 
ATOM     28  C   UNL     1     124.238  10.802 135.016  1.00  0.00     0.014 C 
ATOM     29  C   UNL     1     122.219   9.569 135.779  1.00  0.00     0.014 C 
ENDROOT
BRANCH   1  30
ATOM     30  C   UNL     1     129.803   4.521 140.957  1.00  0.00     0.048 C 
ATOM     31  O   UNL     1     129.230   4.163 142.073  1.00  0.00    -0.550 OA
ATOM     32  O   UNL     1     129.194   4.241 142.155  1.00  0.00    -0.550 OA
ENDBRANCH   1  30
BRANCH  27  33
ATOM     33  O   UNL     1     123.322   7.100 134.597  1.00  0.00    -0.393 OA
ATOM     34  H   UNL     1     123.359   6.951 135.600  1.00  0.00     0.210 HD
ENDBRANCH  27  33
TORSDOF 2
ENDMDL
MODEL 4
REMARK VINA RESULT:    -4.387      2.333      3.843
REMARK INTER + INTRA:          -4.641
REMARK INTER:                  -4.930
REMARK INTRA:                   0.289
REMARK UNBOUND:                 0.131
REMARK SMILES C[C@H]1[C@@H](C)CC[C@@]2(C(=O)[O-])CC[C@]3(C)C(=CC[C@@H]4[C@@]5(C)CC[C@@H](O)C(C)(C)[C@H]5CC[C@@]43C)[C@@H]12
REMARK SMILES IDX 7 1 6 2 11 3 33 4 5 5 12 6 15 7 2 8 3 9 13 10 16 11 1 12
REMARK SMILES IDX 4 13 14 14 31 15 17 16 18 17 30 18 32 19 19 20 29 21 28 22
REMARK SMILES IDX 21 23 20 24 25 25 22 26 23 27 26 28 27 29 8 30 9 31 10 32
REMARK SMILES IDX 24 33
REMARK H PARENT 24 34
REMARK Flexibility Score: inf
ROOT
ATOM      1  C   UNL     1     125.705   9.944 135.692  1.00  0.00     0.017 C 
ATOM      2  C   UNL     1     124.600  10.883 136.239  1.00  0.00     0.014 C 
ATOM      3  C   UNL     1     126.989  10.277 136.556  1.00  0.00     0.014 C 
ATOM      4  C   UNL     1     125.273   8.395 135.683  1.00  0.00     0.030 C 
ATOM      5  C   UNL     1     123.252  10.504 135.597  1.00  0.00     0.004 C 
ATOM      6  C   UNL     1     127.797   9.101 137.117  1.00  0.00     0.013 C 
ATOM      7  C   UNL     1     126.502   7.386 135.859  1.00  0.00    -0.063 C 
ATOM      8  C   UNL     1     123.844   8.101 136.416  1.00  0.00    -0.003 C 
ATOM      9  C   UNL     1     122.713   9.281 136.311  1.00  0.00    -0.011 C 
ATOM     10  C   UNL     1     127.932   7.857 136.196  1.00  0.00    -0.006 C 
ATOM     11  C   UNL     1     126.398   6.063 135.517  1.00  0.00    -0.027 C 
ATOM     12  C   UNL     1     123.921   7.573 137.827  1.00  0.00     0.008 C 
ATOM     13  C   UNL     1     121.920   9.751 137.609  1.00  0.00     0.008 C 
ATOM     14  C   UNL     1     128.686   8.323 134.900  1.00  0.00     0.017 C 
ATOM     15  C   UNL     1     128.816   6.630 136.917  1.00  0.00    -0.020 C 
ATOM     16  C   UNL     1     126.659   5.080 136.638  1.00  0.00     0.032 C 
ATOM     17  C   UNL     1     127.893   5.474 137.534  1.00  0.00     0.006 C 
ATOM     18  C   UNL     1     129.818   7.124 138.018  1.00  0.00     0.008 C 
ATOM     19  C   UNL     1     129.731   5.890 135.855  1.00  0.00     0.012 C 
ATOM     20  C   UNL     1     127.659   5.542 139.134  1.00  0.00    -0.025 C 
ATOM     21  C   UNL     1     130.246   5.968 138.984  1.00  0.00     0.005 C 
ATOM     22  C   UNL     1     129.062   5.536 139.916  1.00  0.00     0.003 C 
ATOM     23  C   UNL     1     126.765   4.356 139.608  1.00  0.00     0.010 C 
ATOM     24  C   UNL     1     126.925   6.826 139.572  1.00  0.00     0.012 C 
ATOM     25  C   UNL     1     129.327   4.193 140.762  1.00  0.00    -0.006 C 
ATOM     26  C   UNL     1     127.449   2.981 139.487  1.00  0.00     0.033 C 
ATOM     27  C   UNL     1     128.930   2.955 139.916  1.00  0.00     0.120 C 
ATOM     28  C   UNL     1     128.508   4.182 142.125  1.00  0.00     0.014 C 
ATOM     29  C   UNL     1     130.808   4.078 141.188  1.00  0.00     0.014 C 
ENDROOT
BRANCH   1  30
ATOM     30  C   UNL     1     126.035  10.323 134.259  1.00  0.00     0.048 C 
ATOM     31  O   UNL     1     126.953  11.166 133.875  1.00  0.00    -0.550 OA
ATOM     32  O   UNL     1     126.999  11.249 133.948  1.00  0.00    -0.550 OA
ENDBRANCH   1  30
BRANCH  27  33
ATOM     33  O   UNL     1     129.715   2.868 138.728  1.00  0.00    -0.393 OA
ATOM     34  H   UNL     1     129.107   2.793 137.919  1.00  0.00     0.210 HD
ENDBRANCH  27  33
TORSDOF 2
ENDMDL
MODEL 5
REMARK VINA RESULT:    -4.338      8.084     12.089
REMARK INTER + INTRA:          -4.587
REMARK INTER:                  -4.868
REMARK INTRA:                   0.281
REMARK UNBOUND:                 0.131
REMARK SMILES C[C@H]1[C@@H](C)CC[C@@]2(C(=O)[O-])CC[C@]3(C)C(=CC[C@@H]4[C@@]5(C)CC[C@@H](O)C(C)(C)[C@H]5CC[C@@]43C)[C@@H]12
REMARK SMILES IDX 7 1 6 2 11 3 33 4 5 5 12 6 15 7 2 8 3 9 13 10 16 11 1 12
REMARK SMILES IDX 4 13 14 14 31 15 17 16 18 17 30 18 32 19 19 20 29 21 28 22
REMARK SMILES IDX 21 23 20 24 25 25 22 26 23 27 26 28 27 29 8 30 9 31 10 32
REMARK SMILES IDX 24 33
REMARK H PARENT 24 34
REMARK Flexibility Score: inf
ROOT
ATOM      1  C   UNL     1     118.676   3.847 143.226  1.00  0.00     0.017 C 
ATOM      2  C   UNL     1     120.163   3.956 143.651  1.00  0.00     0.014 C 
ATOM      3  C   UNL     1     118.042   5.251 143.590  1.00  0.00     0.014 C 
ATOM      4  C   UNL     1     118.487   3.391 141.695  1.00  0.00     0.030 C 
ATOM      5  C   UNL     1     120.921   2.709 143.160  1.00  0.00     0.004 C 
ATOM      6  C   UNL     1     117.155   5.929 142.540  1.00  0.00     0.013 C 
ATOM      7  C   UNL     1     117.152   3.957 141.019  1.00  0.00    -0.063 C 
ATOM      8  C   UNL     1     119.881   3.315 140.849  1.00  0.00    -0.003 C 
ATOM      9  C   UNL     1     121.221   2.884 141.685  1.00  0.00    -0.011 C 
ATOM     10  C   UNL     1     116.238   4.992 141.706  1.00  0.00    -0.006 C 
ATOM     11  C   UNL     1     116.634   3.400 139.879  1.00  0.00    -0.027 C 
ATOM     12  C   UNL     1     120.177   4.494 139.956  1.00  0.00     0.008 C 
ATOM     13  C   UNL     1     122.568   3.718 141.530  1.00  0.00     0.008 C 
ATOM     14  C   UNL     1     115.259   4.290 142.713  1.00  0.00     0.017 C 
ATOM     15  C   UNL     1     115.331   5.836 140.579  1.00  0.00    -0.020 C 
ATOM     16  C   UNL     1     116.500   4.340 138.700  1.00  0.00     0.032 C 
ATOM     17  C   UNL     1     115.942   5.757 139.099  1.00  0.00     0.006 C 
ATOM     18  C   UNL     1     115.086   7.340 140.950  1.00  0.00     0.008 C 
ATOM     19  C   UNL     1     113.875   5.222 140.445  1.00  0.00     0.012 C 
ATOM     20  C   UNL     1     116.789   7.052 138.621  1.00  0.00    -0.025 C 
ATOM     21  C   UNL     1     114.686   8.196 139.701  1.00  0.00     0.005 C 
ATOM     22  C   UNL     1     115.900   8.386 138.727  1.00  0.00     0.003 C 
ATOM     23  C   UNL     1     117.309   6.858 137.164  1.00  0.00     0.010 C 
ATOM     24  C   UNL     1     118.041   7.295 139.488  1.00  0.00     0.012 C 
ATOM     25  C   UNL     1     115.526   9.031 137.302  1.00  0.00    -0.006 C 
ATOM     26  C   UNL     1     116.190   6.853 136.104  1.00  0.00     0.033 C 
ATOM     27  C   UNL     1     115.091   7.913 136.320  1.00  0.00     0.120 C 
ATOM     28  C   UNL     1     116.748   9.834 136.677  1.00  0.00     0.014 C 
ATOM     29  C   UNL     1     114.393  10.075 137.435  1.00  0.00     0.014 C 
ENDROOT
BRANCH   1  30
ATOM     30  C   UNL     1     117.973   2.814 144.089  1.00  0.00     0.048 C 
ATOM     31  O   UNL     1     117.877   2.831 145.390  1.00  0.00    -0.550 OA
ATOM     32  O   UNL     1     117.950   2.895 145.459  1.00  0.00    -0.550 OA
ENDBRANCH   1  30
BRANCH  27  33
ATOM     33  O   UNL     1     113.931   7.232 136.792  1.00  0.00    -0.393 OA
ATOM     34  H   UNL     1     113.244   7.165 136.048  1.00  0.00     0.210 HD
ENDBRANCH  27  33
TORSDOF 2
ENDMDL
MODEL 6
REMARK VINA RESULT:    -4.328      1.780      2.945
REMARK INTER + INTRA:          -4.576
REMARK INTER:                  -4.711
REMARK INTRA:                   0.135
REMARK UNBOUND:                 0.131
REMARK SMILES C[C@H]1[C@@H](C)CC[C@@]2(C(=O)[O-])CC[C@]3(C)C(=CC[C@@H]4[C@@]5(C)CC[C@@H](O)C(C)(C)[C@H]5CC[C@@]43C)[C@@H]12
REMARK SMILES IDX 7 1 6 2 11 3 33 4 5 5 12 6 15 7 2 8 3 9 13 10 16 11 1 12
REMARK SMILES IDX 4 13 14 14 31 15 17 16 18 17 30 18 32 19 19 20 29 21 28 22
REMARK SMILES IDX 21 23 20 24 25 25 22 26 23 27 26 28 27 29 8 30 9 31 10 32
REMARK SMILES IDX 24 33
REMARK H PARENT 24 34
REMARK Flexibility Score: inf
ROOT
ATOM      1  C   UNL     1     125.222   5.288 137.126  1.00  0.00     0.017 C 
ATOM      2  C   UNL     1     124.928   5.669 135.652  1.00  0.00     0.014 C 
ATOM      3  C   UNL     1     126.124   3.990 137.041  1.00  0.00     0.014 C 
ATOM      4  C   UNL     1     125.848   6.498 137.980  1.00  0.00     0.030 C 
ATOM      5  C   UNL     1     124.216   7.035 135.616  1.00  0.00     0.004 C 
ATOM      6  C   UNL     1     127.376   3.931 137.923  1.00  0.00     0.013 C 
ATOM      7  C   UNL     1     126.811   6.015 139.163  1.00  0.00    -0.063 C 
ATOM      8  C   UNL     1     126.219   7.815 137.090  1.00  0.00    -0.003 C 
ATOM      9  C   UNL     1     125.260   8.119 135.799  1.00  0.00    -0.011 C 
ATOM     10  C   UNL     1     127.246   4.547 139.344  1.00  0.00    -0.006 C 
ATOM     11  C   UNL     1     127.138   6.844 140.205  1.00  0.00    -0.027 C 
ATOM     12  C   UNL     1     127.671   7.970 136.712  1.00  0.00     0.008 C 
ATOM     13  C   UNL     1     125.902   8.458 134.382  1.00  0.00     0.008 C 
ATOM     14  C   UNL     1     126.142   3.727 140.102  1.00  0.00     0.017 C 
ATOM     15  C   UNL     1     128.676   4.444 140.210  1.00  0.00    -0.020 C 
ATOM     16  C   UNL     1     128.617   7.109 140.384  1.00  0.00     0.032 C 
ATOM     17  C   UNL     1     129.503   5.818 140.216  1.00  0.00     0.006 C 
ATOM     18  C   UNL     1     129.623   3.282 139.748  1.00  0.00     0.008 C 
ATOM     19  C   UNL     1     128.394   4.139 141.740  1.00  0.00     0.012 C 
ATOM     20  C   UNL     1     130.741   5.895 139.177  1.00  0.00    -0.025 C 
ATOM     21  C   UNL     1     131.101   3.508 140.213  1.00  0.00     0.005 C 
ATOM     22  C   UNL     1     131.771   4.688 139.425  1.00  0.00     0.003 C 
ATOM     23  C   UNL     1     131.471   7.268 139.296  1.00  0.00     0.010 C 
ATOM     24  C   UNL     1     130.290   5.783 137.706  1.00  0.00     0.012 C 
ATOM     25  C   UNL     1     133.197   5.160 140.005  1.00  0.00    -0.006 C 
ATOM     26  C   UNL     1     132.218   7.456 140.630  1.00  0.00     0.033 C 
ATOM     27  C   UNL     1     132.983   6.212 141.124  1.00  0.00     0.120 C 
ATOM     28  C   UNL     1     134.120   5.781 138.868  1.00  0.00     0.014 C 
ATOM     29  C   UNL     1     134.003   3.964 140.561  1.00  0.00     0.014 C 
ENDROOT
BRANCH   1  30
ATOM     30  C   UNL     1     123.932   4.877 137.814  1.00  0.00     0.048 C 
ATOM     31  O   UNL     1     123.311   5.541 138.750  1.00  0.00    -0.550 OA
ATOM     32  O   UNL     1     123.365   5.624 138.816  1.00  0.00    -0.550 OA
ENDBRANCH   1  30
BRANCH  27  33
ATOM     33  O   UNL     1     132.246   5.664 142.214  1.00  0.00    -0.393 OA
ATOM     34  H   UNL     1     132.329   6.268 143.025  1.00  0.00     0.210 HD
ENDBRANCH  27  33
TORSDOF 2
ENDMDL
MODEL 7
REMARK VINA RESULT:    -4.311      9.456     11.711
REMARK INTER + INTRA:          -4.558
REMARK INTER:                  -4.844
REMARK INTRA:                   0.287
REMARK UNBOUND:                 0.131
REMARK SMILES C[C@H]1[C@@H](C)CC[C@@]2(C(=O)[O-])CC[C@]3(C)C(=CC[C@@H]4[C@@]5(C)CC[C@@H](O)C(C)(C)[C@H]5CC[C@@]43C)[C@@H]12
REMARK SMILES IDX 7 1 6 2 11 3 33 4 5 5 12 6 15 7 2 8 3 9 13 10 16 11 1 12
REMARK SMILES IDX 4 13 14 14 31 15 17 16 18 17 30 18 32 19 19 20 29 21 28 22
REMARK SMILES IDX 21 23 20 24 25 25 22 26 23 27 26 28 27 29 8 30 9 31 10 32
REMARK SMILES IDX 24 33
REMARK H PARENT 24 34
REMARK Flexibility Score: inf
ROOT
ATOM      1  C   UNL     1     115.793  11.880 139.419  1.00  0.00     0.017 C 
ATOM      2  C   UNL     1     115.930  13.128 140.328  1.00  0.00     0.014 C 
ATOM      3  C   UNL     1     117.246  11.253 139.364  1.00  0.00     0.014 C 
ATOM      4  C   UNL     1     114.634  10.872 139.897  1.00  0.00     0.030 C 
ATOM      5  C   UNL     1     114.529  13.704 140.607  1.00  0.00     0.004 C 
ATOM      6  C   UNL     1     117.379   9.739 139.564  1.00  0.00     0.013 C 
ATOM      7  C   UNL     1     114.921   9.343 139.522  1.00  0.00    -0.063 C 
ATOM      8  C   UNL     1     113.964  11.265 141.333  1.00  0.00    -0.003 C 
ATOM      9  C   UNL     1     113.875  12.862 141.684  1.00  0.00    -0.011 C 
ATOM     10  C   UNL     1     116.262   8.861 138.933  1.00  0.00    -0.006 C 
ATOM     11  C   UNL     1     113.919   8.408 139.510  1.00  0.00    -0.027 C 
ATOM     12  C   UNL     1     114.462  10.493 142.528  1.00  0.00     0.008 C 
ATOM     13  C   UNL     1     114.339  13.398 143.109  1.00  0.00     0.008 C 
ATOM     14  C   UNL     1     116.309   9.100 137.382  1.00  0.00     0.017 C 
ATOM     15  C   UNL     1     116.499   7.229 139.230  1.00  0.00    -0.020 C 
ATOM     16  C   UNL     1     114.117   7.230 140.440  1.00  0.00     0.032 C 
ATOM     17  C   UNL     1     115.590   6.674 140.428  1.00  0.00     0.006 C 
ATOM     18  C   UNL     1     117.993   6.837 139.500  1.00  0.00     0.008 C 
ATOM     19  C   UNL     1     116.083   6.357 137.973  1.00  0.00     0.012 C 
ATOM     20  C   UNL     1     116.335   6.512 141.856  1.00  0.00    -0.025 C 
ATOM     21  C   UNL     1     118.116   5.460 140.236  1.00  0.00     0.005 C 
ATOM     22  C   UNL     1     117.625   5.564 141.723  1.00  0.00     0.003 C 
ATOM     23  C   UNL     1     115.352   5.947 142.926  1.00  0.00     0.010 C 
ATOM     24  C   UNL     1     116.843   7.857 142.416  1.00  0.00     0.012 C 
ATOM     25  C   UNL     1     117.475   4.153 142.482  1.00  0.00    -0.006 C 
ATOM     26  C   UNL     1     114.931   4.488 142.668  1.00  0.00     0.033 C 
ATOM     27  C   UNL     1     116.070   3.558 142.205  1.00  0.00     0.120 C 
ATOM     28  C   UNL     1     117.683   4.301 144.051  1.00  0.00     0.014 C 
ATOM     29  C   UNL     1     118.562   3.151 142.030  1.00  0.00     0.014 C 
ENDROOT
BRANCH   1  30
ATOM     30  C   UNL     1     115.452  12.312 138.004  1.00  0.00     0.048 C 
ATOM     31  O   UNL     1     116.064  13.231 137.309  1.00  0.00    -0.550 OA
ATOM     32  O   UNL     1     116.132  13.315 137.360  1.00  0.00    -0.550 OA
ENDBRANCH   1  30
BRANCH  27  33
ATOM     33  O   UNL     1     115.878   3.311 140.813  1.00  0.00    -0.393 OA
ATOM     34  H   UNL     1     116.747   3.468 140.313  1.00  0.00     0.210 HD
ENDBRANCH  27  33
TORSDOF 2
ENDMDL
MODEL 8
REMARK VINA RESULT:    -4.297      2.288      7.245
REMARK INTER + INTRA:          -4.543
REMARK INTER:                  -4.674
REMARK INTRA:                   0.131
REMARK UNBOUND:                 0.131
REMARK SMILES C[C@H]1[C@@H](C)CC[C@@]2(C(=O)[O-])CC[C@]3(C)C(=CC[C@@H]4[C@@]5(C)CC[C@@H](O)C(C)(C)[C@H]5CC[C@@]43C)[C@@H]12
REMARK SMILES IDX 7 1 6 2 11 3 33 4 5 5 12 6 15 7 2 8 3 9 13 10 16 11 1 12
REMARK SMILES IDX 4 13 14 14 31 15 17 16 18 17 30 18 32 19 19 20 29 21 28 22
REMARK SMILES IDX 21 23 20 24 25 25 22 26 23 27 26 28 27 29 8 30 9 31 10 32
REMARK SMILES IDX 24 33
REMARK H PARENT 24 34
REMARK Flexibility Score: inf
ROOT
ATOM      1  C   UNL     1     128.119   3.263 138.422  1.00  0.00     0.017 C 
ATOM      2  C   UNL     1     127.845   2.764 139.863  1.00  0.00     0.014 C 
ATOM      3  C   UNL     1     126.691   3.367 137.747  1.00  0.00     0.014 C 
ATOM      4  C   UNL     1     128.996   4.611 138.373  1.00  0.00     0.030 C 
ATOM      5  C   UNL     1     129.155   2.814 140.672  1.00  0.00     0.004 C 
ATOM      6  C   UNL     1     126.367   4.637 136.952  1.00  0.00     0.013 C 
ATOM      7  C   UNL     1     128.688   5.528 137.099  1.00  0.00    -0.063 C 
ATOM      8  C   UNL     1     129.261   5.281 139.838  1.00  0.00    -0.003 C 
ATOM      9  C   UNL     1     129.394   4.248 141.101  1.00  0.00    -0.011 C 
ATOM     10  C   UNL     1     127.531   5.243 136.120  1.00  0.00    -0.006 C 
ATOM     11  C   UNL     1     129.561   6.503 136.690  1.00  0.00    -0.027 C 
ATOM     12  C   UNL     1     128.374   6.444 140.203  1.00  0.00     0.008 C 
ATOM     13  C   UNL     1     128.595   4.521 142.450  1.00  0.00     0.008 C 
ATOM     14  C   UNL     1     127.951   4.164 135.060  1.00  0.00     0.017 C 
ATOM     15  C   UNL     1     127.070   6.636 135.310  1.00  0.00    -0.020 C 
ATOM     16  C   UNL     1     128.997   7.907 136.654  1.00  0.00     0.032 C 
ATOM     17  C   UNL     1     127.544   7.976 136.052  1.00  0.00     0.006 C 
ATOM     18  C   UNL     1     125.531   6.729 135.022  1.00  0.00     0.008 C 
ATOM     19  C   UNL     1     127.745   6.710 133.877  1.00  0.00     0.012 C 
ATOM     20  C   UNL     1     126.410   8.730 136.928  1.00  0.00    -0.025 C 
ATOM     21  C   UNL     1     125.077   8.199 134.728  1.00  0.00     0.005 C 
ATOM     22  C   UNL     1     125.130   9.082 136.023  1.00  0.00     0.003 C 
ATOM     23  C   UNL     1     126.991  10.023 137.578  1.00  0.00     0.010 C 
ATOM     24  C   UNL     1     125.890   7.866 138.096  1.00  0.00     0.012 C 
ATOM     25  C   UNL     1     124.927  10.658 135.773  1.00  0.00    -0.006 C 
ATOM     26  C   UNL     1     127.331  11.127 136.559  1.00  0.00     0.033 C 
ATOM     27  C   UNL     1     126.291  11.314 135.436  1.00  0.00     0.120 C 
ATOM     28  C   UNL     1     124.294  11.381 137.040  1.00  0.00     0.014 C 
ATOM     29  C   UNL     1     123.926  10.922 134.625  1.00  0.00     0.014 C 
ENDROOT
BRANCH   1  30
ATOM     30  C   UNL     1     128.888   2.203 137.652  1.00  0.00     0.048 C 
ATOM     31  O   UNL     1     130.146   2.260 137.308  1.00  0.00    -0.550 OA
ATOM     32  O   UNL     1     130.207   2.362 137.304  1.00  0.00    -0.550 OA
ENDBRANCH   1  30
BRANCH  27  33
ATOM     33  O   UNL     1     126.848  10.766 134.243  1.00  0.00    -0.393 OA
ATOM     34  H   UNL     1     126.344  11.116 133.436  1.00  0.00     0.210 HD
ENDBRANCH  27  33
TORSDOF 2
ENDMDL
MODEL 9
REMARK VINA RESULT:    -4.239      2.250      7.443
REMARK INTER + INTRA:          -4.479
REMARK INTER:                  -4.609
REMARK INTRA:                   0.130
REMARK UNBOUND:                 0.131
REMARK SMILES C[C@H]1[C@@H](C)CC[C@@]2(C(=O)[O-])CC[C@]3(C)C(=CC[C@@H]4[C@@]5(C)CC[C@@H](O)C(C)(C)[C@H]5CC[C@@]43C)[C@@H]12
REMARK SMILES IDX 7 1 6 2 11 3 33 4 5 5 12 6 15 7 2 8 3 9 13 10 16 11 1 12
REMARK SMILES IDX 4 13 14 14 31 15 17 16 18 17 30 18 32 19 19 20 29 21 28 22
REMARK SMILES IDX 21 23 20 24 25 25 22 26 23 27 26 28 27 29 8 30 9 31 10 32
REMARK SMILES IDX 24 33
REMARK H PARENT 24 34
REMARK Flexibility Score: inf
ROOT
ATOM      1  C   UNL     1     131.774   6.146 141.010  1.00  0.00     0.017 C 
ATOM      2  C   UNL     1     132.562   7.471 141.168  1.00  0.00     0.014 C 
ATOM      3  C   UNL     1     130.413   6.385 141.782  1.00  0.00     0.014 C 
ATOM      4  C   UNL     1     131.616   5.682 139.478  1.00  0.00     0.030 C 
ATOM      5  C   UNL     1     133.825   7.416 140.287  1.00  0.00     0.004 C 
ATOM      6  C   UNL     1     129.114   5.966 141.085  1.00  0.00     0.013 C 
ATOM      7  C   UNL     1     130.285   4.840 139.199  1.00  0.00    -0.063 C 
ATOM      8  C   UNL     1     132.149   6.781 138.395  1.00  0.00    -0.003 C 
ATOM      9  C   UNL     1     133.418   7.707 138.856  1.00  0.00    -0.011 C 
ATOM     10  C   UNL     1     129.172   4.656 140.250  1.00  0.00    -0.006 C 
ATOM     11  C   UNL     1     130.152   4.060 138.079  1.00  0.00    -0.027 C 
ATOM     12  C   UNL     1     131.089   7.632 137.741  1.00  0.00     0.008 C 
ATOM     13  C   UNL     1     133.383   9.284 138.642  1.00  0.00     0.008 C 
ATOM     14  C   UNL     1     129.528   3.493 141.242  1.00  0.00     0.017 C 
ATOM     15  C   UNL     1     127.705   4.307 139.520  1.00  0.00    -0.020 C 
ATOM     16  C   UNL     1     128.987   4.410 137.179  1.00  0.00     0.032 C 
ATOM     17  C   UNL     1     127.663   4.722 137.972  1.00  0.00     0.006 C 
ATOM     18  C   UNL     1     126.463   4.928 140.249  1.00  0.00     0.008 C 
ATOM     19  C   UNL     1     127.426   2.746 139.525  1.00  0.00     0.012 C 
ATOM     20  C   UNL     1     126.907   6.115 137.640  1.00  0.00    -0.025 C 
ATOM     21  C   UNL     1     125.211   5.006 139.312  1.00  0.00     0.005 C 
ATOM     22  C   UNL     1     125.400   6.093 138.197  1.00  0.00     0.003 C 
ATOM     23  C   UNL     1     126.918   6.392 136.106  1.00  0.00     0.010 C 
ATOM     24  C   UNL     1     127.592   7.332 138.295  1.00  0.00     0.012 C 
ATOM     25  C   UNL     1     124.282   6.072 137.039  1.00  0.00    -0.006 C 
ATOM     26  C   UNL     1     126.053   5.408 135.295  1.00  0.00     0.033 C 
ATOM     27  C   UNL     1     124.693   5.065 135.934  1.00  0.00     0.120 C 
ATOM     28  C   UNL     1     124.076   7.509 136.391  1.00  0.00     0.014 C 
ATOM     29  C   UNL     1     122.895   5.688 137.603  1.00  0.00     0.014 C 
ENDROOT
BRANCH   1  30
ATOM     30  C   UNL     1     132.499   5.030 141.741  1.00  0.00     0.048 C 
ATOM     31  O   UNL     1     133.150   4.042 141.191  1.00  0.00    -0.550 OA
ATOM     32  O   UNL     1     133.132   4.009 141.078  1.00  0.00    -0.550 OA
ENDBRANCH   1  30
BRANCH  27  33
ATOM     33  O   UNL     1     124.789   3.739 136.452  1.00  0.00    -0.393 OA
ATOM     34  H   UNL     1     124.371   3.084 135.799  1.00  0.00     0.210 HD
ENDBRANCH  27  33
TORSDOF 2
ENDMDL
