MODEL 1
REMARK VINA RESULT:    -5.149      0.000      0.000
REMARK INTER + INTRA:          -6.306
REMARK INTER:                  -6.052
REMARK INTRA:                  -0.254
REMARK UNBOUND:                -0.254
REMARK SMILES O=C([O-])C=Cc1ccc(O)c(O)c1
REMARK SMILES IDX 6 1 13 2 7 3 11 4 8 5 9 6 5 7 4 8 2 9 1 10 3 11 12 12 10 14
REMARK H PARENT 12 13 10 15
REMARK Flexibility Score: inf
ROOT
ATOM      1  C   UNL     1       3.791  10.665   4.621  1.00  0.00    -0.022 A 
ATOM      2  C   UNL     1       4.285  11.957   4.394  1.00  0.00     0.058 A 
ATOM      3  C   UNL     1       4.373   9.578   3.948  1.00  0.00     0.012 A 
ATOM      4  C   UNL     1       5.379  12.162   3.546  1.00  0.00     0.157 A 
ATOM      5  C   UNL     1       5.466   9.778   3.102  1.00  0.00     0.051 A 
ATOM      6  C   UNL     1       5.977  11.068   2.900  1.00  0.00     0.157 A 
ENDROOT
BRANCH   1   7
ATOM      7  C   UNL     1       2.601  10.485   5.479  1.00  0.00     0.010 C 
ATOM      8  C   UNL     1       2.617  10.377   6.816  1.00  0.00     0.025 C 
BRANCH   8   9
ATOM      9  C   UNL     1       3.792  10.608   7.680  1.00  0.00     0.064 C 
ATOM     10  O   UNL     1       3.993  11.758   8.150  1.00  0.00    -0.545 OA
ATOM     11  O   UNL     1       4.720   9.603   7.928  1.00  0.00    -0.545 OA
ENDBRANCH   8   9
ENDBRANCH   1   7
BRANCH   4  12
ATOM     12  O   UNL     1       5.856  13.460   3.358  1.00  0.00    -0.504 OA
ATOM     13  H   UNL     1       6.638  13.827   3.888  1.00  0.00     0.293 HD
ENDBRANCH   4  12
BRANCH   6  14
ATOM     14  O   UNL     1       7.069  11.265   2.056  1.00  0.00    -0.504 OA
ATOM     15  H   UNL     1       6.968  11.269   1.048  1.00  0.00     0.293 HD
ENDBRANCH   6  14
TORSDOF 4
ENDMDL
MODEL 2
REMARK VINA RESULT:    -4.867      1.753      3.074
REMARK INTER + INTRA:          -5.975
REMARK INTER:                  -5.713
REMARK INTRA:                  -0.262
REMARK UNBOUND:                -0.254
REMARK SMILES O=C([O-])C=Cc1ccc(O)c(O)c1
REMARK SMILES IDX 6 1 13 2 7 3 11 4 8 5 9 6 5 7 4 8 2 9 1 10 3 11 12 12 10 14
REMARK H PARENT 12 13 10 15
REMARK Flexibility Score: inf
ROOT
ATOM      1  C   UNL     1       4.522   9.550   3.908  1.00  0.00    -0.022 A 
ATOM      2  C   UNL     1       5.584   9.830   3.037  1.00  0.00     0.058 A 
ATOM      3  C   UNL     1       3.934  10.598   4.635  1.00  0.00     0.012 A 
ATOM      4  C   UNL     1       6.025  11.145   2.852  1.00  0.00     0.157 A 
ATOM      5  C   UNL     1       4.370  11.912   4.453  1.00  0.00     0.051 A 
ATOM      6  C   UNL     1       5.413  12.193   3.559  1.00  0.00     0.157 A 
ENDROOT
BRANCH   1   7
ATOM      7  C   UNL     1       4.113   8.145   4.123  1.00  0.00     0.010 C 
ATOM      8  C   UNL     1       4.747   7.265   4.912  1.00  0.00     0.025 C 
BRANCH   8   9
ATOM      9  C   UNL     1       5.842   7.587   5.848  1.00  0.00     0.064 C 
ATOM     10  O   UNL     1       7.034   7.412   5.484  1.00  0.00    -0.545 OA
ATOM     11  O   UNL     1       5.586   8.011   7.146  1.00  0.00    -0.545 OA
ENDBRANCH   8   9
ENDBRANCH   1   7
BRANCH   4  12
ATOM     12  O   UNL     1       7.072  11.390   1.963  1.00  0.00    -0.504 OA
ATOM     13  H   UNL     1       7.994  10.993   2.097  1.00  0.00     0.293 HD
ENDBRANCH   4  12
BRANCH   6  14
ATOM     14  O   UNL     1       5.845  13.506   3.378  1.00  0.00    -0.504 OA
ATOM     15  H   UNL     1       5.631  14.024   2.534  1.00  0.00     0.293 HD
ENDBRANCH   6  14
TORSDOF 4
ENDMDL
MODEL 3
REMARK VINA RESULT:    -4.754      3.499      5.619
REMARK INTER + INTRA:          -5.842
REMARK INTER:                  -5.740
REMARK INTRA:                  -0.102
REMARK UNBOUND:                -0.254
REMARK SMILES O=C([O-])C=Cc1ccc(O)c(O)c1
REMARK SMILES IDX 6 1 13 2 7 3 11 4 8 5 9 6 5 7 4 8 2 9 1 10 3 11 12 12 10 14
REMARK H PARENT 12 13 10 15
REMARK Flexibility Score: inf
ROOT
ATOM      1  C   UNL     1       5.985   7.839   2.368  1.00  0.00    -0.022 A 
ATOM      2  C   UNL     1       6.704   8.979   1.984  1.00  0.00     0.058 A 
ATOM      3  C   UNL     1       4.889   7.977   3.236  1.00  0.00     0.012 A 
ATOM      4  C   UNL     1       6.307  10.250   2.416  1.00  0.00     0.157 A 
ATOM      5  C   UNL     1       4.489   9.243   3.669  1.00  0.00     0.051 A 
ATOM      6  C   UNL     1       5.191  10.384   3.259  1.00  0.00     0.157 A 
ENDROOT
BRANCH   1   7
ATOM      7  C   UNL     1       6.459   6.506   1.939  1.00  0.00     0.010 C 
ATOM      8  C   UNL     1       5.740   5.613   1.244  1.00  0.00     0.025 C 
BRANCH   8   9
ATOM      9  C   UNL     1       4.427   5.870   0.621  1.00  0.00     0.064 C 
ATOM     10  O   UNL     1       4.351   6.676  -0.343  1.00  0.00    -0.545 OA
ATOM     11  O   UNL     1       3.262   5.298   1.118  1.00  0.00    -0.545 OA
ENDBRANCH   8   9
ENDBRANCH   1   7
BRANCH   4  12
ATOM     12  O   UNL     1       7.034  11.365   1.999  1.00  0.00    -0.504 OA
ATOM     13  H   UNL     1       7.270  12.121   2.631  1.00  0.00     0.293 HD
ENDBRANCH   4  12
BRANCH   6  14
ATOM     14  O   UNL     1       4.788  11.647   3.691  1.00  0.00    -0.504 OA
ATOM     15  H   UNL     1       3.818  11.853   3.898  1.00  0.00     0.293 HD
ENDBRANCH   6  14
TORSDOF 4
ENDMDL
MODEL 4
REMARK VINA RESULT:    -4.652      3.713      5.072
REMARK INTER + INTRA:          -5.723
REMARK INTER:                  -5.437
REMARK INTRA:                  -0.286
REMARK UNBOUND:                -0.254
REMARK SMILES O=C([O-])C=Cc1ccc(O)c(O)c1
REMARK SMILES IDX 6 1 13 2 7 3 11 4 8 5 9 6 5 7 4 8 2 9 1 10 3 11 12 12 10 14
REMARK H PARENT 12 13 10 15
REMARK Flexibility Score: inf
ROOT
ATOM      1  C   UNL     1       5.428   7.217   1.924  1.00  0.00    -0.022 A 
ATOM      2  C   UNL     1       4.816   8.276   2.609  1.00  0.00     0.058 A 
ATOM      3  C   UNL     1       6.603   7.459   1.193  1.00  0.00     0.012 A 
ATOM      4  C   UNL     1       5.393   9.551   2.611  1.00  0.00     0.157 A 
ATOM      5  C   UNL     1       7.183   8.730   1.193  1.00  0.00     0.051 A 
ATOM      6  C   UNL     1       6.585   9.779   1.904  1.00  0.00     0.157 A 
ENDROOT
BRANCH   1   7
ATOM      7  C   UNL     1       4.768   5.895   1.896  1.00  0.00     0.010 C 
ATOM      8  C   UNL     1       5.051   4.868   2.711  1.00  0.00     0.025 C 
BRANCH   8   9
ATOM      9  C   UNL     1       5.929   4.932   3.896  1.00  0.00     0.064 C 
ATOM     10  O   UNL     1       7.056   4.371   3.858  1.00  0.00    -0.545 OA
ATOM     11  O   UNL     1       5.513   5.536   5.076  1.00  0.00    -0.545 OA
ENDBRANCH   8   9
ENDBRANCH   1   7
BRANCH   4  12
ATOM     12  O   UNL     1       4.766  10.576   3.319  1.00  0.00    -0.504 OA
ATOM     13  H   UNL     1       4.836  10.655   4.327  1.00  0.00     0.293 HD
ENDBRANCH   4  12
BRANCH   6  14
ATOM     14  O   UNL     1       7.166  11.046   1.904  1.00  0.00    -0.504 OA
ATOM     15  H   UNL     1       6.658  11.864   1.588  1.00  0.00     0.293 HD
ENDBRANCH   6  14
TORSDOF 4
ENDMDL
MODEL 5
REMARK VINA RESULT:    -4.606      2.289      4.819
REMARK INTER + INTRA:          -5.668
REMARK INTER:                  -5.412
REMARK INTRA:                  -0.256
REMARK UNBOUND:                -0.254
REMARK SMILES O=C([O-])C=Cc1ccc(O)c(O)c1
REMARK SMILES IDX 6 1 13 2 7 3 11 4 8 5 9 6 5 7 4 8 2 9 1 10 3 11 12 12 10 14
REMARK H PARENT 12 13 10 15
REMARK Flexibility Score: inf
ROOT
ATOM      1  C   UNL     1       5.944   9.629   3.862  1.00  0.00    -0.022 A 
ATOM      2  C   UNL     1       6.243  10.930   3.434  1.00  0.00     0.058 A 
ATOM      3  C   UNL     1       4.712   9.377   4.489  1.00  0.00     0.012 A 
ATOM      4  C   UNL     1       5.307  11.960   3.581  1.00  0.00     0.157 A 
ATOM      5  C   UNL     1       3.775  10.402   4.637  1.00  0.00     0.051 A 
ATOM      6  C   UNL     1       4.064  11.695   4.181  1.00  0.00     0.157 A 
ENDROOT
BRANCH   1   7
ATOM      7  C   UNL     1       6.972   8.573   3.741  1.00  0.00     0.010 C 
ATOM      8  C   UNL     1       7.161   7.793   2.667  1.00  0.00     0.025 C 
BRANCH   8   9
ATOM      9  C   UNL     1       6.513   7.973   1.353  1.00  0.00     0.064 C 
ATOM     10  O   UNL     1       7.150   8.536   0.425  1.00  0.00    -0.545 OA
ATOM     11  O   UNL     1       5.192   7.599   1.138  1.00  0.00    -0.545 OA
ENDBRANCH   8   9
ENDBRANCH   1   7
BRANCH   4  12
ATOM     12  O   UNL     1       5.631  13.239   3.127  1.00  0.00    -0.504 OA
ATOM     13  H   UNL     1       4.996  14.022   3.227  1.00  0.00     0.293 HD
ENDBRANCH   4  12
BRANCH   6  14
ATOM     14  O   UNL     1       3.127  12.716   4.329  1.00  0.00    -0.504 OA
ATOM     15  H   UNL     1       2.132  12.526   4.338  1.00  0.00     0.293 HD
ENDBRANCH   6  14
TORSDOF 4
ENDMDL
MODEL 6
REMARK VINA RESULT:    -4.605      4.867      6.790
REMARK INTER + INTRA:          -5.667
REMARK INTER:                  -5.480
REMARK INTRA:                  -0.187
REMARK UNBOUND:                -0.254
REMARK SMILES O=C([O-])C=Cc1ccc(O)c(O)c1
REMARK SMILES IDX 6 1 13 2 7 3 11 4 8 5 9 6 5 7 4 8 2 9 1 10 3 11 12 12 10 14
REMARK H PARENT 12 13 10 15
REMARK Flexibility Score: inf
ROOT
ATOM      1  C   UNL     1       5.627   6.844   0.659  1.00  0.00    -0.022 A 
ATOM      2  C   UNL     1       5.694   5.842   1.637  1.00  0.00     0.058 A 
ATOM      3  C   UNL     1       4.544   6.860  -0.236  1.00  0.00     0.012 A 
ATOM      4  C   UNL     1       4.671   4.895   1.758  1.00  0.00     0.157 A 
ATOM      5  C   UNL     1       3.520   5.917  -0.119  1.00  0.00     0.051 A 
ATOM      6  C   UNL     1       3.575   4.934   0.880  1.00  0.00     0.157 A 
ENDROOT
BRANCH   1   7
ATOM      7  C   UNL     1       6.748   7.798   0.521  1.00  0.00     0.010 C 
ATOM      8  C   UNL     1       6.960   8.865   1.306  1.00  0.00     0.025 C 
BRANCH   8   9
ATOM      9  C   UNL     1       6.232   9.169   2.554  1.00  0.00     0.064 C 
ATOM     10  O   UNL     1       5.132   9.777   2.491  1.00  0.00    -0.545 OA
ATOM     11  O   UNL     1       6.766   8.863   3.799  1.00  0.00    -0.545 OA
ENDBRANCH   8   9
ENDBRANCH   1   7
BRANCH   4  12
ATOM     12  O   UNL     1       4.762   3.924   2.755  1.00  0.00    -0.504 OA
ATOM     13  H   UNL     1       3.998   3.735   3.394  1.00  0.00     0.293 HD
ENDBRANCH   4  12
BRANCH   6  14
ATOM     14  O   UNL     1       2.552   3.996   0.996  1.00  0.00    -0.504 OA
ATOM     15  H   UNL     1       2.543   3.309   1.740  1.00  0.00     0.293 HD
ENDBRANCH   6  14
TORSDOF 4
ENDMDL
MODEL 7
REMARK VINA RESULT:    -4.603      4.682      6.518
REMARK INTER + INTRA:          -5.664
REMARK INTER:                  -5.412
REMARK INTRA:                  -0.252
REMARK UNBOUND:                -0.254
REMARK SMILES O=C([O-])C=Cc1ccc(O)c(O)c1
REMARK SMILES IDX 6 1 13 2 7 3 11 4 8 5 9 6 5 7 4 8 2 9 1 10 3 11 12 12 10 14
REMARK H PARENT 12 13 10 15
REMARK Flexibility Score: inf
ROOT
ATOM      1  C   UNL     1       5.975   6.917   0.908  1.00  0.00    -0.022 A 
ATOM      2  C   UNL     1       4.767   6.915   0.198  1.00  0.00     0.058 A 
ATOM      3  C   UNL     1       6.228   5.895   1.838  1.00  0.00     0.012 A 
ATOM      4  C   UNL     1       3.841   5.880   0.372  1.00  0.00     0.157 A 
ATOM      5  C   UNL     1       5.307   4.860   2.015  1.00  0.00     0.051 A 
ATOM      6  C   UNL     1       4.113   4.844   1.281  1.00  0.00     0.157 A 
ENDROOT
BRANCH   1   7
ATOM      7  C   UNL     1       6.910   8.050   0.743  1.00  0.00     0.010 C 
ATOM      8  C   UNL     1       6.945   9.147   1.515  1.00  0.00     0.025 C 
BRANCH   8   9
ATOM      9  C   UNL     1       6.194   9.333   2.772  1.00  0.00     0.064 C 
ATOM     10  O   UNL     1       5.049   9.855   2.733  1.00  0.00    -0.545 OA
ATOM     11  O   UNL     1       6.749   9.011   4.004  1.00  0.00    -0.545 OA
ENDBRANCH   8   9
ENDBRANCH   1   7
BRANCH   4  12
ATOM     12  O   UNL     1       2.657   5.899  -0.366  1.00  0.00    -0.504 OA
ATOM     13  H   UNL     1       2.210   6.765  -0.643  1.00  0.00     0.293 HD
ENDBRANCH   4  12
BRANCH   6  14
ATOM     14  O   UNL     1       3.197   3.809   1.457  1.00  0.00    -0.504 OA
ATOM     15  H   UNL     1       3.488   2.886   1.758  1.00  0.00     0.293 HD
ENDBRANCH   6  14
TORSDOF 4
ENDMDL
MODEL 8
REMARK VINA RESULT:    -4.584     11.646     13.115
REMARK INTER + INTRA:          -5.642
REMARK INTER:                  -5.613
REMARK INTRA:                  -0.030
REMARK UNBOUND:                -0.254
REMARK SMILES O=C([O-])C=Cc1ccc(O)c(O)c1
REMARK SMILES IDX 6 1 13 2 7 3 11 4 8 5 9 6 5 7 4 8 2 9 1 10 3 11 12 12 10 14
REMARK H PARENT 12 13 10 15
REMARK Flexibility Score: inf
ROOT
ATOM      1  C   UNL     1      12.538   2.354   0.914  1.00  0.00    -0.022 A 
ATOM      2  C   UNL     1      11.525   1.848   1.741  1.00  0.00     0.058 A 
ATOM      3  C   UNL     1      12.846   1.687  -0.283  1.00  0.00     0.012 A 
ATOM      4  C   UNL     1      10.790   0.721   1.357  1.00  0.00     0.157 A 
ATOM      5  C   UNL     1      12.114   0.562  -0.671  1.00  0.00     0.051 A 
ATOM      6  C   UNL     1      11.081   0.077   0.143  1.00  0.00     0.157 A 
ENDROOT
BRANCH   1   7
ATOM      7  C   UNL     1      13.334   3.513   1.371  1.00  0.00     0.010 C 
ATOM      8  C   UNL     1      13.608   4.603   0.638  1.00  0.00     0.025 C 
BRANCH   8   9
ATOM      9  C   UNL     1      13.013   4.925  -0.673  1.00  0.00     0.064 C 
ATOM     10  O   UNL     1      13.754   4.980  -1.689  1.00  0.00    -0.545 OA
ATOM     11  O   UNL     1      11.665   5.239  -0.801  1.00  0.00    -0.545 OA
ENDBRANCH   8   9
ENDBRANCH   1   7
BRANCH   4  12
ATOM     12  O   UNL     1       9.776   0.257   2.195  1.00  0.00    -0.504 OA
ATOM     13  H   UNL     1       9.927   0.092   3.183  1.00  0.00     0.293 HD
ENDBRANCH   4  12
BRANCH   6  14
ATOM     14  O   UNL     1      10.350  -1.045  -0.246  1.00  0.00    -0.504 OA
ATOM     15  H   UNL     1      10.025  -1.163  -1.199  1.00  0.00     0.293 HD
ENDBRANCH   6  14
TORSDOF 4
ENDMDL
MODEL 9
REMARK VINA RESULT:    -4.441      2.100      2.586
REMARK INTER + INTRA:          -5.474
REMARK INTER:                  -5.295
REMARK INTRA:                  -0.178
REMARK UNBOUND:                -0.254
REMARK SMILES O=C([O-])C=Cc1ccc(O)c(O)c1
REMARK SMILES IDX 6 1 13 2 7 3 11 4 8 5 9 6 5 7 4 8 2 9 1 10 3 11 12 12 10 14
REMARK H PARENT 12 13 10 15
REMARK Flexibility Score: inf
ROOT
ATOM      1  C   UNL     1       5.067   9.688   4.872  1.00  0.00    -0.022 A 
ATOM      2  C   UNL     1       5.920  10.465   4.076  1.00  0.00     0.058 A 
ATOM      3  C   UNL     1       4.450   8.555   4.316  1.00  0.00     0.012 A 
ATOM      4  C   UNL     1       6.198  10.092   2.756  1.00  0.00     0.157 A 
ATOM      5  C   UNL     1       4.726   8.179   2.999  1.00  0.00     0.051 A 
ATOM      6  C   UNL     1       5.603   8.940   2.215  1.00  0.00     0.157 A 
ENDROOT
BRANCH   1   7
ATOM      7  C   UNL     1       4.750  10.136   6.244  1.00  0.00     0.010 C 
ATOM      8  C   UNL     1       4.039  11.229   6.560  1.00  0.00     0.025 C 
BRANCH   8   9
ATOM      9  C   UNL     1       3.290  12.068   5.604  1.00  0.00     0.064 C 
ATOM     10  O   UNL     1       3.698  13.234   5.359  1.00  0.00    -0.545 OA
ATOM     11  O   UNL     1       2.107  11.629   5.024  1.00  0.00    -0.545 OA
ENDBRANCH   8   9
ENDBRANCH   1   7
BRANCH   4  12
ATOM     12  O   UNL     1       7.067  10.878   1.999  1.00  0.00    -0.504 OA
ATOM     13  H   UNL     1       6.963  11.884   1.933  1.00  0.00     0.293 HD
ENDBRANCH   4  12
BRANCH   6  14
ATOM     14  O   UNL     1       5.878   8.562   0.902  1.00  0.00    -0.504 OA
ATOM     15  H   UNL     1       5.541   9.100   0.113  1.00  0.00     0.293 HD
ENDBRANCH   6  14
TORSDOF 4
ENDMDL
