MODEL 1
REMARK VINA RESULT:    -4.589      0.000      0.000
REMARK INTER + INTRA:         -13.689
REMARK INTER:                  -9.955
REMARK INTRA:                  -3.735
REMARK UNBOUND:                -3.735
REMARK SMILES CCCCCCCCCCCCCCCCCCCCCC(=O)[O-]
REMARK SMILES IDX 12 1 11 2 10 3 9 4 8 5 7 6 6 7 5 8 4 9 3 10 2 11 1 12 13 13
REMARK SMILES IDX 14 14 15 15 16 16 17 17 18 18 19 19 20 20 21 21 22 22 23 23
REMARK SMILES IDX 24 24
REMARK H PARENT
REMARK Flexibility Score: inf
ROOT
ATOM      1  C   UNL     1       2.625   4.170  29.219  1.00  0.00     0.000 C 
ENDROOT
BRANCH   1   2
ATOM      2  C   UNL     1       1.845   3.466  28.093  1.00  0.00     0.000 C 
BRANCH   2   3
ATOM      3  C   UNL     1       2.322   3.786  26.664  1.00  0.00     0.000 C 
BRANCH   3   4
ATOM      4  C   UNL     1       2.098   5.258  26.275  1.00  0.00    -0.000 C 
BRANCH   4   5
ATOM      5  C   UNL     1       3.326   5.881  25.590  1.00  0.00    -0.000 C 
BRANCH   5   6
ATOM      6  C   UNL     1       4.211   6.675  26.570  1.00  0.00    -0.000 C 
BRANCH   6   7
ATOM      7  C   UNL     1       3.390   7.556  27.524  1.00  0.00    -0.000 C 
BRANCH   7   8
ATOM      8  C   UNL     1       4.252   8.198  28.625  1.00  0.00    -0.000 C 
BRANCH   8   9
ATOM      9  C   UNL     1       4.645   7.198  29.725  1.00  0.00    -0.000 C 
BRANCH   9  10
ATOM     10  C   UNL     1       5.831   7.688  30.576  1.00  0.00    -0.000 C 
BRANCH  10  11
ATOM     11  C   UNL     1       6.766   6.543  30.996  1.00  0.00    -0.003 C 
ATOM     12  C   UNL     1       6.106   5.170  30.879  1.00  0.00     0.004 C 
ENDBRANCH  10  11
ENDBRANCH   9  10
ENDBRANCH   8   9
ENDBRANCH   7   8
ENDBRANCH   6   7
ENDBRANCH   5   6
ENDBRANCH   4   5
ENDBRANCH   3   4
ENDBRANCH   2   3
ENDBRANCH   1   2
BRANCH   1  13
ATOM     13  C   UNL     1       1.900   4.113  30.574  1.00  0.00     0.000 C 
BRANCH  13  14
ATOM     14  C   UNL     1       2.304   5.264  31.511  1.00  0.00     0.000 C 
BRANCH  14  15
ATOM     15  C   UNL     1       1.158   6.265  31.746  1.00  0.00     0.000 C 
BRANCH  15  16
ATOM     16  C   UNL     1       1.075   7.343  30.652  1.00  0.00     0.000 C 
BRANCH  16  17
ATOM     17  C   UNL     1      -0.265   7.399  29.891  1.00  0.00     0.000 C 
BRANCH  17  18
ATOM     18  C   UNL     1      -0.362   6.393  28.724  1.00  0.00     0.000 C 
BRANCH  18  19
ATOM     19  C   UNL     1      -1.360   5.262  29.013  1.00  0.00     0.000 C 
BRANCH  19  20
ATOM     20  C   UNL     1      -2.002   4.749  27.718  1.00  0.00     0.006 C 
BRANCH  20  21
ATOM     21  C   UNL     1      -1.526   5.559  26.510  1.00  0.00     0.053 C 
BRANCH  21  22
ATOM     22  C   UNL     1      -1.656   4.756  25.254  1.00  0.00     0.041 C 
ATOM     23  O   UNL     1      -0.871   3.796  25.032  1.00  0.00    -0.550 OA
ATOM     24  O   UNL     1      -2.672   5.039  24.350  1.00  0.00    -0.550 OA
ENDBRANCH  21  22
ENDBRANCH  20  21
ENDBRANCH  19  20
ENDBRANCH  18  19
ENDBRANCH  17  18
ENDBRANCH  16  17
ENDBRANCH  15  16
ENDBRANCH  14  15
ENDBRANCH  13  14
ENDBRANCH   1  13
TORSDOF 20
ENDMDL
MODEL 2
REMARK VINA RESULT:    -4.513      1.617      4.377
REMARK INTER + INTRA:         -13.525
REMARK INTER:                  -9.352
REMARK INTRA:                  -4.173
REMARK UNBOUND:                -3.735
REMARK SMILES CCCCCCCCCCCCCCCCCCCCCC(=O)[O-]
REMARK SMILES IDX 12 1 11 2 10 3 9 4 8 5 7 6 6 7 5 8 4 9 3 10 2 11 1 12 13 13
REMARK SMILES IDX 14 14 15 15 16 16 17 17 18 18 19 19 20 20 21 21 22 22 23 23
REMARK SMILES IDX 24 24
REMARK H PARENT
REMARK Flexibility Score: inf
ROOT
ATOM      1  C   UNL     1      -0.944   7.004  28.728  1.00  0.00     0.000 C 
ENDROOT
BRANCH   1   2
ATOM      2  C   UNL     1       0.198   7.655  29.531  1.00  0.00     0.000 C 
BRANCH   2   3
ATOM      3  C   UNL     1       0.169   7.390  31.047  1.00  0.00     0.000 C 
BRANCH   3   4
ATOM      4  C   UNL     1       1.468   6.749  31.567  1.00  0.00    -0.000 C 
BRANCH   4   5
ATOM      5  C   UNL     1       1.304   5.253  31.881  1.00  0.00    -0.000 C 
BRANCH   5   6
ATOM      6  C   UNL     1       2.015   4.351  30.855  1.00  0.00    -0.000 C 
BRANCH   6   7
ATOM      7  C   UNL     1       3.255   5.019  30.241  1.00  0.00    -0.000 C 
BRANCH   7   8
ATOM      8  C   UNL     1       3.731   4.317  28.958  1.00  0.00    -0.000 C 
BRANCH   8   9
ATOM      9  C   UNL     1       3.888   5.289  27.777  1.00  0.00    -0.000 C 
BRANCH   9  10
ATOM     10  C   UNL     1       3.261   6.667  28.056  1.00  0.00    -0.000 C 
BRANCH  10  11
ATOM     11  C   UNL     1       4.266   7.817  27.878  1.00  0.00    -0.003 C 
ATOM     12  C   UNL     1       4.984   8.178  29.178  1.00  0.00     0.004 C 
ENDBRANCH  10  11
ENDBRANCH   9  10
ENDBRANCH   8   9
ENDBRANCH   7   8
ENDBRANCH   6   7
ENDBRANCH   5   6
ENDBRANCH   4   5
ENDBRANCH   3   4
ENDBRANCH   2   3
ENDBRANCH   1   2
BRANCH   1  13
ATOM     13  C   UNL     1      -1.353   5.627  29.280  1.00  0.00     0.000 C 
BRANCH  13  14
ATOM     14  C   UNL     1      -1.136   4.494  28.263  1.00  0.00     0.000 C 
BRANCH  14  15
ATOM     15  C   UNL     1       0.289   4.489  27.679  1.00  0.00     0.000 C 
BRANCH  15  16
ATOM     16  C   UNL     1       0.400   3.667  26.383  1.00  0.00     0.000 C 
BRANCH  16  17
ATOM     17  C   UNL     1       0.391   4.494  25.083  1.00  0.00     0.000 C 
BRANCH  17  18
ATOM     18  C   UNL     1       0.713   5.989  25.292  1.00  0.00     0.000 C 
BRANCH  18  19
ATOM     19  C   UNL     1      -0.530   6.878  25.138  1.00  0.00     0.000 C 
BRANCH  19  20
ATOM     20  C   UNL     1      -1.731   6.066  24.638  1.00  0.00     0.006 C 
BRANCH  20  21
ATOM     21  C   UNL     1      -2.935   6.238  25.567  1.00  0.00     0.053 C 
BRANCH  21  22
ATOM     22  C   UNL     1      -3.713   4.963  25.661  1.00  0.00     0.041 C 
ATOM     23  O   UNL     1      -4.939   4.989  25.949  1.00  0.00    -0.550 OA
ATOM     24  O   UNL     1      -3.095   3.749  25.387  1.00  0.00    -0.550 OA
ENDBRANCH  21  22
ENDBRANCH  20  21
ENDBRANCH  19  20
ENDBRANCH  18  19
ENDBRANCH  17  18
ENDBRANCH  16  17
ENDBRANCH  15  16
ENDBRANCH  14  15
ENDBRANCH  13  14
ENDBRANCH   1  13
TORSDOF 20
ENDMDL
MODEL 3
REMARK VINA RESULT:    -4.502      1.401      3.234
REMARK INTER + INTRA:         -13.501
REMARK INTER:                  -9.426
REMARK INTRA:                  -4.075
REMARK UNBOUND:                -3.735
REMARK SMILES CCCCCCCCCCCCCCCCCCCCCC(=O)[O-]
REMARK SMILES IDX 12 1 11 2 10 3 9 4 8 5 7 6 6 7 5 8 4 9 3 10 2 11 1 12 13 13
REMARK SMILES IDX 14 14 15 15 16 16 17 17 18 18 19 19 20 20 21 21 22 22 23 23
REMARK SMILES IDX 24 24
REMARK H PARENT
REMARK Flexibility Score: inf
ROOT
ATOM      1  C   UNL     1       1.677   4.970  30.746  1.00  0.00     0.000 C 
ENDROOT
BRANCH   1   2
ATOM      2  C   UNL     1       2.962   4.599  29.982  1.00  0.00     0.000 C 
BRANCH   2   3
ATOM      3  C   UNL     1       4.270   4.764  30.778  1.00  0.00     0.000 C 
BRANCH   3   4
ATOM      4  C   UNL     1       5.398   5.403  29.948  1.00  0.00    -0.000 C 
BRANCH   4   5
ATOM      5  C   UNL     1       5.897   6.726  30.550  1.00  0.00    -0.000 C 
BRANCH   5   6
ATOM      6  C   UNL     1       4.901   7.883  30.347  1.00  0.00    -0.000 C 
BRANCH   6   7
ATOM      7  C   UNL     1       4.762   8.288  28.871  1.00  0.00    -0.000 C 
BRANCH   7   8
ATOM      8  C   UNL     1       3.296   8.483  28.446  1.00  0.00    -0.000 C 
BRANCH   8   9
ATOM      9  C   UNL     1       2.804   7.375  27.501  1.00  0.00    -0.000 C 
BRANCH   9  10
ATOM     10  C   UNL     1       3.952   6.698  26.731  1.00  0.00    -0.000 C 
BRANCH  10  11
ATOM     11  C   UNL     1       3.650   5.228  26.398  1.00  0.00    -0.003 C 
ATOM     12  C   UNL     1       4.247   4.792  25.061  1.00  0.00     0.004 C 
ENDBRANCH  10  11
ENDBRANCH   9  10
ENDBRANCH   8   9
ENDBRANCH   7   8
ENDBRANCH   6   7
ENDBRANCH   5   6
ENDBRANCH   4   5
ENDBRANCH   3   4
ENDBRANCH   2   3
ENDBRANCH   1   2
BRANCH   1  13
ATOM     13  C   UNL     1       1.952   5.814  32.002  1.00  0.00     0.000 C 
BRANCH  13  14
ATOM     14  C   UNL     1       0.931   6.949  32.188  1.00  0.00     0.000 C 
BRANCH  14  15
ATOM     15  C   UNL     1       0.986   7.984  31.051  1.00  0.00     0.000 C 
BRANCH  15  16
ATOM     16  C   UNL     1      -0.403   8.316  30.478  1.00  0.00     0.000 C 
BRANCH  16  17
ATOM     17  C   UNL     1      -0.431   8.621  28.967  1.00  0.00     0.000 C 
BRANCH  17  18
ATOM     18  C   UNL     1      -1.077   7.506  28.118  1.00  0.00     0.000 C 
BRANCH  18  19
ATOM     19  C   UNL     1      -1.285   6.212  28.918  1.00  0.00     0.000 C 
BRANCH  19  20
ATOM     20  C   UNL     1      -0.809   4.990  28.123  1.00  0.00     0.006 C 
BRANCH  20  21
ATOM     21  C   UNL     1      -0.214   5.408  26.776  1.00  0.00     0.053 C 
BRANCH  21  22
ATOM     22  C   UNL     1       0.079   4.205  25.935  1.00  0.00     0.041 C 
ATOM     23  O   UNL     1      -0.266   3.059  26.327  1.00  0.00    -0.550 OA
ATOM     24  O   UNL     1       0.692   4.355  24.697  1.00  0.00    -0.550 OA
ENDBRANCH  21  22
ENDBRANCH  20  21
ENDBRANCH  19  20
ENDBRANCH  18  19
ENDBRANCH  17  18
ENDBRANCH  16  17
ENDBRANCH  15  16
ENDBRANCH  14  15
ENDBRANCH  13  14
ENDBRANCH   1  13
TORSDOF 20
ENDMDL
MODEL 4
REMARK VINA RESULT:    -4.486      1.850      3.845
REMARK INTER + INTRA:         -13.465
REMARK INTER:                  -9.250
REMARK INTRA:                  -4.216
REMARK UNBOUND:                -3.735
REMARK SMILES CCCCCCCCCCCCCCCCCCCCCC(=O)[O-]
REMARK SMILES IDX 12 1 11 2 10 3 9 4 8 5 7 6 6 7 5 8 4 9 3 10 2 11 1 12 13 13
REMARK SMILES IDX 14 14 15 15 16 16 17 17 18 18 19 19 20 20 21 21 22 22 23 23
REMARK SMILES IDX 24 24
REMARK H PARENT
REMARK Flexibility Score: inf
ROOT
ATOM      1  C   UNL     1       2.655   7.441  27.180  1.00  0.00     0.000 C 
ENDROOT
BRANCH   1   2
ATOM      2  C   UNL     1       3.490   6.498  26.294  1.00  0.00     0.000 C 
BRANCH   2   3
ATOM      3  C   UNL     1       2.689   5.412  25.553  1.00  0.00     0.000 C 
BRANCH   3   4
ATOM      4  C   UNL     1       2.910   4.005  26.136  1.00  0.00    -0.000 C 
BRANCH   4   5
ATOM      5  C   UNL     1       1.671   3.470  26.873  1.00  0.00    -0.000 C 
BRANCH   5   6
ATOM      6  C   UNL     1       1.743   3.697  28.395  1.00  0.00    -0.000 C 
BRANCH   6   7
ATOM      7  C   UNL     1       3.183   3.900  28.892  1.00  0.00    -0.000 C 
BRANCH   7   8
ATOM      8  C   UNL     1       3.265   4.870  30.084  1.00  0.00    -0.000 C 
BRANCH   8   9
ATOM      9  C   UNL     1       1.891   5.146  30.715  1.00  0.00    -0.000 C 
BRANCH   9  10
ATOM     10  C   UNL     1       1.961   6.161  31.870  1.00  0.00    -0.000 C 
BRANCH  10  11
ATOM     11  C   UNL     1       0.707   7.046  31.953  1.00  0.00    -0.003 C 
ATOM     12  C   UNL     1       1.026   8.535  31.826  1.00  0.00     0.004 C 
ENDBRANCH  10  11
ENDBRANCH   9  10
ENDBRANCH   8   9
ENDBRANCH   7   8
ENDBRANCH   6   7
ENDBRANCH   5   6
ENDBRANCH   4   5
ENDBRANCH   3   4
ENDBRANCH   2   3
ENDBRANCH   1   2
BRANCH   1  13
ATOM     13  C   UNL     1       1.140   7.247  26.997  1.00  0.00     0.000 C 
BRANCH  13  14
ATOM     14  C   UNL     1       0.343   7.566  28.273  1.00  0.00     0.000 C 
BRANCH  14  15
ATOM     15  C   UNL     1      -1.107   7.055  28.207  1.00  0.00     0.000 C 
BRANCH  15  16
ATOM     16  C   UNL     1      -1.344   5.818  29.092  1.00  0.00     0.000 C 
BRANCH  16  17
ATOM     17  C   UNL     1      -1.955   4.603  28.365  1.00  0.00     0.000 C 
BRANCH  17  18
ATOM     18  C   UNL     1      -2.479   4.922  26.948  1.00  0.00     0.000 C 
BRANCH  18  19
ATOM     19  C   UNL     1      -1.678   4.199  25.856  1.00  0.00     0.000 C 
BRANCH  19  20
ATOM     20  C   UNL     1      -0.992   5.201  24.919  1.00  0.00     0.006 C 
BRANCH  20  21
ATOM     21  C   UNL     1      -0.476   4.508  23.655  1.00  0.00     0.053 C 
BRANCH  21  22
ATOM     22  C   UNL     1      -1.404   4.751  22.507  1.00  0.00     0.041 C 
ATOM     23  O   UNL     1      -2.473   4.092  22.406  1.00  0.00    -0.550 OA
ATOM     24  O   UNL     1      -1.112   5.737  21.573  1.00  0.00    -0.550 OA
ENDBRANCH  21  22
ENDBRANCH  20  21
ENDBRANCH  19  20
ENDBRANCH  18  19
ENDBRANCH  17  18
ENDBRANCH  16  17
ENDBRANCH  15  16
ENDBRANCH  14  15
ENDBRANCH  13  14
ENDBRANCH   1  13
TORSDOF 20
ENDMDL
MODEL 5
REMARK VINA RESULT:    -4.460      2.340      5.307
REMARK INTER + INTRA:         -13.410
REMARK INTER:                 -10.608
REMARK INTRA:                  -2.802
REMARK UNBOUND:                -3.735
REMARK SMILES CCCCCCCCCCCCCCCCCCCCCC(=O)[O-]
REMARK SMILES IDX 12 1 11 2 10 3 9 4 8 5 7 6 6 7 5 8 4 9 3 10 2 11 1 12 13 13
REMARK SMILES IDX 14 14 15 15 16 16 17 17 18 18 19 19 20 20 21 21 22 22 23 23
REMARK SMILES IDX 24 24
REMARK H PARENT
REMARK Flexibility Score: inf
ROOT
ATOM      1  C   UNL     1      -1.884   4.547  28.311  1.00  0.00     0.000 C 
ENDROOT
BRANCH   1   2
ATOM      2  C   UNL     1      -1.266   5.746  29.054  1.00  0.00     0.000 C 
BRANCH   2   3
ATOM      3  C   UNL     1       0.180   5.543  29.541  1.00  0.00     0.000 C 
BRANCH   3   4
ATOM      4  C   UNL     1       0.490   6.317  30.834  1.00  0.00    -0.000 C 
BRANCH   4   5
ATOM      5  C   UNL     1       1.611   5.663  31.659  1.00  0.00    -0.000 C 
BRANCH   5   6
ATOM      6  C   UNL     1       2.372   4.580  30.872  1.00  0.00    -0.000 C 
BRANCH   6   7
ATOM      7  C   UNL     1       3.892   4.807  30.877  1.00  0.00    -0.000 C 
BRANCH   7   8
ATOM      8  C   UNL     1       4.440   5.171  29.486  1.00  0.00    -0.000 C 
BRANCH   8   9
ATOM      9  C   UNL     1       3.805   4.333  28.364  1.00  0.00    -0.000 C 
BRANCH   9  10
ATOM     10  C   UNL     1       3.583   5.141  27.073  1.00  0.00    -0.000 C 
BRANCH  10  11
ATOM     11  C   UNL     1       3.597   6.659  27.319  1.00  0.00    -0.003 C 
ATOM     12  C   UNL     1       2.241   7.311  27.054  1.00  0.00     0.004 C 
ENDBRANCH  10  11
ENDBRANCH   9  10
ENDBRANCH   8   9
ENDBRANCH   7   8
ENDBRANCH   6   7
ENDBRANCH   5   6
ENDBRANCH   4   5
ENDBRANCH   3   4
ENDBRANCH   2   3
ENDBRANCH   1   2
BRANCH   1  13
ATOM     13  C   UNL     1      -2.202   4.856  26.838  1.00  0.00     0.000 C 
BRANCH  13  14
ATOM     14  C   UNL     1      -1.373   4.005  25.862  1.00  0.00     0.000 C 
BRANCH  14  15
ATOM     15  C   UNL     1       0.141   4.245  26.009  1.00  0.00     0.000 C 
BRANCH  15  16
ATOM     16  C   UNL     1       0.827   4.568  24.669  1.00  0.00     0.000 C 
BRANCH  16  17
ATOM     17  C   UNL     1       0.054   5.544  23.759  1.00  0.00     0.000 C 
BRANCH  17  18
ATOM     18  C   UNL     1      -0.456   4.904  22.451  1.00  0.00     0.000 C 
BRANCH  18  19
ATOM     19  C   UNL     1      -1.565   5.738  21.790  1.00  0.00     0.000 C 
BRANCH  19  20
ATOM     20  C   UNL     1      -2.925   5.462  22.442  1.00  0.00     0.006 C 
BRANCH  20  21
ATOM     21  C   UNL     1      -3.125   3.964  22.685  1.00  0.00     0.053 C 
BRANCH  21  22
ATOM     22  C   UNL     1      -4.305   3.459  21.915  1.00  0.00     0.041 C 
ATOM     23  O   UNL     1      -5.393   3.227  22.505  1.00  0.00    -0.550 OA
ATOM     24  O   UNL     1      -4.216   3.289  20.539  1.00  0.00    -0.550 OA
ENDBRANCH  21  22
ENDBRANCH  20  21
ENDBRANCH  19  20
ENDBRANCH  18  19
ENDBRANCH  17  18
ENDBRANCH  16  17
ENDBRANCH  15  16
ENDBRANCH  14  15
ENDBRANCH  13  14
ENDBRANCH   1  13
TORSDOF 20
ENDMDL
MODEL 6
REMARK VINA RESULT:    -4.455      4.378      8.247
REMARK INTER + INTRA:         -13.399
REMARK INTER:                  -9.317
REMARK INTRA:                  -4.082
REMARK UNBOUND:                -3.735
REMARK SMILES CCCCCCCCCCCCCCCCCCCCCC(=O)[O-]
REMARK SMILES IDX 12 1 11 2 10 3 9 4 8 5 7 6 6 7 5 8 4 9 3 10 2 11 1 12 13 13
REMARK SMILES IDX 14 14 15 15 16 16 17 17 18 18 19 19 20 20 21 21 22 22 23 23
REMARK SMILES IDX 24 24
REMARK H PARENT
REMARK Flexibility Score: inf
ROOT
ATOM      1  C   UNL     1      -1.531   4.511  22.684  1.00  0.00     0.000 C 
ENDROOT
BRANCH   1   2
ATOM      2  C   UNL     1      -0.644   4.285  23.922  1.00  0.00     0.000 C 
BRANCH   2   3
ATOM      3  C   UNL     1       0.826   4.715  23.765  1.00  0.00     0.000 C 
BRANCH   3   4
ATOM      4  C   UNL     1       1.479   5.111  25.101  1.00  0.00    -0.000 C 
BRANCH   4   5
ATOM      5  C   UNL     1       1.694   6.628  25.227  1.00  0.00    -0.000 C 
BRANCH   5   6
ATOM      6  C   UNL     1       0.496   7.344  25.879  1.00  0.00    -0.000 C 
BRANCH   6   7
ATOM      7  C   UNL     1      -0.407   8.038  24.847  1.00  0.00    -0.000 C 
BRANCH   7   8
ATOM      8  C   UNL     1      -1.901   7.760  25.089  1.00  0.00    -0.000 C 
BRANCH   8   9
ATOM      9  C   UNL     1      -2.149   6.937  26.364  1.00  0.00    -0.000 C 
BRANCH   9  10
ATOM     10  C   UNL     1      -3.147   5.786  26.143  1.00  0.00    -0.000 C 
BRANCH  10  11
ATOM     11  C   UNL     1      -4.258   6.152  25.146  1.00  0.00    -0.003 C 
ATOM     12  C   UNL     1      -5.654   5.827  25.674  1.00  0.00     0.004 C 
ENDBRANCH  10  11
ENDBRANCH   9  10
ENDBRANCH   8   9
ENDBRANCH   7   8
ENDBRANCH   6   7
ENDBRANCH   5   6
ENDBRANCH   4   5
ENDBRANCH   3   4
ENDBRANCH   2   3
ENDBRANCH   1   2
BRANCH   1  13
ATOM     13  C   UNL     1      -1.187   5.808  21.932  1.00  0.00     0.000 C 
BRANCH  13  14
ATOM     14  C   UNL     1      -2.435   6.626  21.558  1.00  0.00     0.000 C 
BRANCH  14  15
ATOM     15  C   UNL     1      -2.488   6.970  20.059  1.00  0.00     0.000 C 
BRANCH  15  16
ATOM     16  C   UNL     1      -3.688   6.328  19.341  1.00  0.00     0.000 C 
BRANCH  16  17
ATOM     17  C   UNL     1      -3.556   4.815  19.076  1.00  0.00     0.000 C 
BRANCH  17  18
ATOM     18  C   UNL     1      -4.444   3.943  19.989  1.00  0.00     0.000 C 
BRANCH  18  19
ATOM     19  C   UNL     1      -5.507   4.769  20.727  1.00  0.00     0.000 C 
BRANCH  19  20
ATOM     20  C   UNL     1      -5.568   4.389  22.212  1.00  0.00     0.006 C 
BRANCH  20  21
ATOM     21  C   UNL     1      -4.873   3.049  22.465  1.00  0.00     0.053 C 
BRANCH  21  22
ATOM     22  C   UNL     1      -4.907   2.707  23.922  1.00  0.00     0.041 C 
ATOM     23  O   UNL     1      -6.009   2.521  24.503  1.00  0.00    -0.550 OA
ATOM     24  O   UNL     1      -3.720   2.547  24.627  1.00  0.00    -0.550 OA
ENDBRANCH  21  22
ENDBRANCH  20  21
ENDBRANCH  19  20
ENDBRANCH  18  19
ENDBRANCH  17  18
ENDBRANCH  16  17
ENDBRANCH  15  16
ENDBRANCH  14  15
ENDBRANCH  13  14
ENDBRANCH   1  13
TORSDOF 20
ENDMDL
MODEL 7
REMARK VINA RESULT:    -4.442      2.128      4.843
REMARK INTER + INTRA:         -13.370
REMARK INTER:                  -9.789
REMARK INTRA:                  -3.581
REMARK UNBOUND:                -3.735
REMARK SMILES CCCCCCCCCCCCCCCCCCCCCC(=O)[O-]
REMARK SMILES IDX 12 1 11 2 10 3 9 4 8 5 7 6 6 7 5 8 4 9 3 10 2 11 1 12 13 13
REMARK SMILES IDX 14 14 15 15 16 16 17 17 18 18 19 19 20 20 21 21 22 22 23 23
REMARK SMILES IDX 24 24
REMARK H PARENT
REMARK Flexibility Score: inf
ROOT
ATOM      1  C   UNL     1       2.364   7.087  26.396  1.00  0.00     0.000 C 
ENDROOT
BRANCH   1   2
ATOM      2  C   UNL     1       3.658   6.350  26.005  1.00  0.00     0.000 C 
BRANCH   2   3
ATOM      3  C   UNL     1       3.553   4.815  25.962  1.00  0.00     0.000 C 
BRANCH   3   4
ATOM      4  C   UNL     1       4.107   4.143  27.231  1.00  0.00    -0.000 C 
BRANCH   4   5
ATOM      5  C   UNL     1       3.115   3.147  27.853  1.00  0.00    -0.000 C 
BRANCH   5   6
ATOM      6  C   UNL     1       1.655   3.626  27.754  1.00  0.00    -0.000 C 
BRANCH   6   7
ATOM      7  C   UNL     1       1.213   4.428  28.989  1.00  0.00    -0.000 C 
BRANCH   7   8
ATOM      8  C   UNL     1       1.932   3.979  30.274  1.00  0.00    -0.000 C 
BRANCH   8   9
ATOM      9  C   UNL     1       2.596   5.150  31.017  1.00  0.00    -0.000 C 
BRANCH   9  10
ATOM     10  C   UNL     1       4.124   5.179  30.834  1.00  0.00    -0.000 C 
BRANCH  10  11
ATOM     11  C   UNL     1       4.588   6.348  29.951  1.00  0.00    -0.003 C 
ATOM     12  C   UNL     1       3.573   7.488  29.899  1.00  0.00     0.004 C 
ENDBRANCH  10  11
ENDBRANCH   9  10
ENDBRANCH   8   9
ENDBRANCH   7   8
ENDBRANCH   6   7
ENDBRANCH   5   6
ENDBRANCH   4   5
ENDBRANCH   3   4
ENDBRANCH   2   3
ENDBRANCH   1   2
BRANCH   1  13
ATOM     13  C   UNL     1       1.237   6.906  25.364  1.00  0.00     0.000 C 
BRANCH  13  14
ATOM     14  C   UNL     1      -0.051   6.341  25.986  1.00  0.00     0.000 C 
BRANCH  14  15
ATOM     15  C   UNL     1      -0.571   5.099  25.239  1.00  0.00     0.000 C 
BRANCH  15  16
ATOM     16  C   UNL     1       0.382   4.629  24.126  1.00  0.00     0.000 C 
BRANCH  16  17
ATOM     17  C   UNL     1      -0.246   4.549  22.720  1.00  0.00     0.000 C 
BRANCH  17  18
ATOM     18  C   UNL     1      -1.236   5.693  22.414  1.00  0.00     0.000 C 
BRANCH  18  19
ATOM     19  C   UNL     1      -2.317   5.272  21.406  1.00  0.00     0.000 C 
BRANCH  19  20
ATOM     20  C   UNL     1      -3.317   4.300  22.044  1.00  0.00     0.006 C 
BRANCH  20  21
ATOM     21  C   UNL     1      -3.898   4.878  23.336  1.00  0.00     0.053 C 
BRANCH  21  22
ATOM     22  C   UNL     1      -4.098   3.798  24.352  1.00  0.00     0.041 C 
ATOM     23  O   UNL     1      -5.129   3.793  25.076  1.00  0.00    -0.550 OA
ATOM     24  O   UNL     1      -3.170   2.771  24.468  1.00  0.00    -0.550 OA
ENDBRANCH  21  22
ENDBRANCH  20  21
ENDBRANCH  19  20
ENDBRANCH  18  19
ENDBRANCH  17  18
ENDBRANCH  16  17
ENDBRANCH  15  16
ENDBRANCH  14  15
ENDBRANCH  13  14
ENDBRANCH   1  13
TORSDOF 20
ENDMDL
MODEL 8
REMARK VINA RESULT:    -4.390      3.077      7.052
REMARK INTER + INTRA:         -13.258
REMARK INTER:                  -9.309
REMARK INTRA:                  -3.949
REMARK UNBOUND:                -3.735
REMARK SMILES CCCCCCCCCCCCCCCCCCCCCC(=O)[O-]
REMARK SMILES IDX 12 1 11 2 10 3 9 4 8 5 7 6 6 7 5 8 4 9 3 10 2 11 1 12 13 13
REMARK SMILES IDX 14 14 15 15 16 16 17 17 18 18 19 19 20 20 21 21 22 22 23 23
REMARK SMILES IDX 24 24
REMARK H PARENT
REMARK Flexibility Score: inf
ROOT
ATOM      1  C   UNL     1      -0.890   7.061  27.908  1.00  0.00     0.000 C 
ENDROOT
BRANCH   1   2
ATOM      2  C   UNL     1      -1.326   5.903  28.824  1.00  0.00     0.000 C 
BRANCH   2   3
ATOM      3  C   UNL     1      -1.404   4.523  28.146  1.00  0.00     0.000 C 
BRANCH   3   4
ATOM      4  C   UNL     1      -1.243   4.597  26.618  1.00  0.00    -0.000 C 
BRANCH   4   5
ATOM      5  C   UNL     1       0.048   3.921  26.126  1.00  0.00    -0.000 C 
BRANCH   5   6
ATOM      6  C   UNL     1       0.506   4.447  24.753  1.00  0.00    -0.000 C 
BRANCH   6   7
ATOM      7  C   UNL     1      -0.368   5.604  24.244  1.00  0.00    -0.000 C 
BRANCH   7   8
ATOM      8  C   UNL     1      -0.788   5.425  22.774  1.00  0.00    -0.000 C 
BRANCH   8   9
ATOM      9  C   UNL     1      -1.743   4.237  22.575  1.00  0.00    -0.000 C 
BRANCH   9  10
ATOM     10  C   UNL     1      -3.048   4.383  23.377  1.00  0.00    -0.000 C 
BRANCH  10  11
ATOM     11  C   UNL     1      -3.511   3.054  23.995  1.00  0.00    -0.003 C 
ATOM     12  C   UNL     1      -4.989   2.766  23.737  1.00  0.00     0.004 C 
ENDBRANCH  10  11
ENDBRANCH   9  10
ENDBRANCH   8   9
ENDBRANCH   7   8
ENDBRANCH   6   7
ENDBRANCH   5   6
ENDBRANCH   4   5
ENDBRANCH   3   4
ENDBRANCH   2   3
ENDBRANCH   1   2
BRANCH   1  13
ATOM     13  C   UNL     1       0.603   7.403  28.047  1.00  0.00     0.000 C 
BRANCH  13  14
ATOM     14  C   UNL     1       1.256   7.763  26.701  1.00  0.00     0.000 C 
BRANCH  14  15
ATOM     15  C   UNL     1       2.522   6.934  26.419  1.00  0.00     0.000 C 
BRANCH  15  16
ATOM     16  C   UNL     1       2.993   6.128  27.643  1.00  0.00     0.000 C 
BRANCH  16  17
ATOM     17  C   UNL     1       3.466   4.693  27.336  1.00  0.00     0.000 C 
BRANCH  17  18
ATOM     18  C   UNL     1       3.180   3.687  28.472  1.00  0.00     0.000 C 
BRANCH  18  19
ATOM     19  C   UNL     1       2.024   4.141  29.375  1.00  0.00     0.000 C 
BRANCH  19  20
ATOM     20  C   UNL     1       2.502   4.361  30.815  1.00  0.00     0.006 C 
BRANCH  20  21
ATOM     21  C   UNL     1       1.467   5.145  31.625  1.00  0.00     0.053 C 
BRANCH  21  22
ATOM     22  C   UNL     1       1.677   6.618  31.461  1.00  0.00     0.041 C 
ATOM     23  O   UNL     1       2.815   7.064  31.157  1.00  0.00    -0.550 OA
ATOM     24  O   UNL     1       0.608   7.493  31.599  1.00  0.00    -0.550 OA
ENDBRANCH  21  22
ENDBRANCH  20  21
ENDBRANCH  19  20
ENDBRANCH  18  19
ENDBRANCH  17  18
ENDBRANCH  16  17
ENDBRANCH  15  16
ENDBRANCH  14  15
ENDBRANCH  13  14
ENDBRANCH   1  13
TORSDOF 20
ENDMDL
MODEL 9
REMARK VINA RESULT:    -4.390      1.614      3.859
REMARK INTER + INTRA:         -13.257
REMARK INTER:                  -9.414
REMARK INTRA:                  -3.843
REMARK UNBOUND:                -3.735
REMARK SMILES CCCCCCCCCCCCCCCCCCCCCC(=O)[O-]
REMARK SMILES IDX 12 1 11 2 10 3 9 4 8 5 7 6 6 7 5 8 4 9 3 10 2 11 1 12 13 13
REMARK SMILES IDX 14 14 15 15 16 16 17 17 18 18 19 19 20 20 21 21 22 22 23 23
REMARK SMILES IDX 24 24
REMARK H PARENT
REMARK Flexibility Score: inf
ROOT
ATOM      1  C   UNL     1       1.275   4.012  28.663  1.00  0.00     0.000 C 
ENDROOT
BRANCH   1   2
ATOM      2  C   UNL     1       1.460   5.496  29.029  1.00  0.00     0.000 C 
BRANCH   2   3
ATOM      3  C   UNL     1       0.630   5.985  30.230  1.00  0.00     0.000 C 
BRANCH   3   4
ATOM      4  C   UNL     1       1.249   5.595  31.583  1.00  0.00    -0.000 C 
BRANCH   4   5
ATOM      5  C   UNL     1       1.664   6.818  32.417  1.00  0.00    -0.000 C 
BRANCH   5   6
ATOM      6  C   UNL     1       1.703   8.115  31.588  1.00  0.00    -0.000 C 
BRANCH   6   7
ATOM      7  C   UNL     1       3.134   8.538  31.222  1.00  0.00    -0.000 C 
BRANCH   7   8
ATOM      8  C   UNL     1       3.394   8.495  29.706  1.00  0.00    -0.000 C 
BRANCH   8   9
ATOM      9  C   UNL     1       4.577   7.585  29.336  1.00  0.00    -0.000 C 
BRANCH   9  10
ATOM     10  C   UNL     1       5.464   7.243  30.548  1.00  0.00    -0.000 C 
BRANCH  10  11
ATOM     11  C   UNL     1       5.845   5.755  30.595  1.00  0.00    -0.003 C 
ATOM     12  C   UNL     1       4.668   4.856  30.969  1.00  0.00     0.004 C 
ENDBRANCH  10  11
ENDBRANCH   9  10
ENDBRANCH   8   9
ENDBRANCH   7   8
ENDBRANCH   6   7
ENDBRANCH   5   6
ENDBRANCH   4   5
ENDBRANCH   3   4
ENDBRANCH   2   3
ENDBRANCH   1   2
BRANCH   1  13
ATOM     13  C   UNL     1       2.565   3.363  28.131  1.00  0.00     0.000 C 
BRANCH  13  14
ATOM     14  C   UNL     1       3.611   4.399  27.690  1.00  0.00     0.000 C 
BRANCH  14  15
ATOM     15  C   UNL     1       3.690   4.545  26.160  1.00  0.00     0.000 C 
BRANCH  15  16
ATOM     16  C   UNL     1       3.403   5.980  25.681  1.00  0.00     0.000 C 
BRANCH  16  17
ATOM     17  C   UNL     1       1.941   6.254  25.279  1.00  0.00     0.000 C 
BRANCH  17  18
ATOM     18  C   UNL     1       1.270   5.083  24.529  1.00  0.00     0.000 C 
BRANCH  18  19
ATOM     19  C   UNL     1      -0.006   4.596  25.232  1.00  0.00     0.000 C 
BRANCH  19  20
ATOM     20  C   UNL     1      -0.623   5.710  26.087  1.00  0.00     0.006 C 
BRANCH  20  21
ATOM     21  C   UNL     1      -2.141   5.767  25.902  1.00  0.00     0.053 C 
BRANCH  21  22
ATOM     22  C   UNL     1      -2.836   5.102  27.049  1.00  0.00     0.041 C 
ATOM     23  O   UNL     1      -2.278   5.041  28.176  1.00  0.00    -0.550 OA
ATOM     24  O   UNL     1      -4.117   4.592  26.885  1.00  0.00    -0.550 OA
ENDBRANCH  21  22
ENDBRANCH  20  21
ENDBRANCH  19  20
ENDBRANCH  18  19
ENDBRANCH  17  18
ENDBRANCH  16  17
ENDBRANCH  15  16
ENDBRANCH  14  15
ENDBRANCH  13  14
ENDBRANCH   1  13
TORSDOF 20
ENDMDL
